#------------------------------------------------------------------------------
#$Date: 2017-01-09 05:05:43 +0200 (Mon, 09 Jan 2017) $
#$Revision: 190075 $
#$URL: file:///home/coder/svn-repositories/cod/cif/7/22/71/7227124.cif $
#------------------------------------------------------------------------------
#
# This file is available in the Crystallography Open Database (COD),
# http://www.crystallography.net/
#
# All data on this site have been placed in the public domain by the
# contributors.
#
data_7227124
loop_
_publ_author_name
'Smets, M. M. H.'
'Brugman, S. J. T.'
'van Eck, E. R. H.'
'Tinnemans, P.'
'Meekes, H.'
'Cuppen, H. M.'
_publ_section_title
;
 Understanding the single-crystal-to-single-crystal solid-state phase
 transition of dl-methionine
;
_journal_issue                   48
_journal_name_full               CrystEngComm
_journal_page_first              9363
_journal_paper_doi               10.1039/C6CE02079H
_journal_volume                  18
_journal_year                    2016
_chemical_formula_moiety         'C5 H11 N O2 S'
_chemical_formula_sum            'C5 H11 N O2 S'
_chemical_formula_weight         149.21
_space_group_crystal_system      monoclinic
_space_group_IT_number           14
_space_group_name_Hall           '-P 2ybc'
_space_group_name_H-M_alt        'P 1 21/c 1'
_symmetry_space_group_name_Hall  '-P 2ybc'
_symmetry_space_group_name_H-M   'P 1 21/c 1'
_atom_sites_solution_hydrogens   mixed
_atom_sites_solution_primary     direct
_atom_sites_solution_secondary   difmap
_audit_creation_method           SHELXL-2016/6
_cell_angle_alpha                90
_cell_angle_beta                 101.318(4)
_cell_angle_gamma                90
_cell_formula_units_Z            4
_cell_length_a                   16.894(2)
_cell_length_b                   4.7953(6)
_cell_length_c                   9.8686(13)
_cell_measurement_reflns_used    8528
_cell_measurement_temperature    338(2)
_cell_measurement_theta_max      23.74
_cell_measurement_theta_min      3.69
_cell_volume                     783.93(17)
_computing_cell_refinement       Peakref
_computing_data_collection       Apex3
_computing_data_reduction        SAINT,SADABS-2014/5
_computing_molecular_graphics    'PLATON, Shelxle'
_computing_structure_refinement  'SHELXL-2016/6 (Sheldrick, 2016)'
_computing_structure_solution    'SHELXT 2014/4 (Sheldrick, 2014)'
_diffrn_ambient_temperature      338(2)
_diffrn_detector_area_resol_mean 10.4
_diffrn_measured_fraction_theta_full 0.999
_diffrn_measured_fraction_theta_max 0.999
_diffrn_measurement_device       'Bruker D8 Quest Apex3'
_diffrn_measurement_method       '\f and \w scans'
_diffrn_radiation_detector       Photon100
_diffrn_radiation_monochromator  graphite
_diffrn_radiation_type           MoK\a
_diffrn_radiation_wavelength     0.71073
_diffrn_reflns_av_R_equivalents  0.0243
_diffrn_reflns_av_unetI/netI     0.0077
_diffrn_reflns_Laue_measured_fraction_full 0.999
_diffrn_reflns_Laue_measured_fraction_max 0.999
_diffrn_reflns_limit_h_max       19
_diffrn_reflns_limit_h_min       -19
_diffrn_reflns_limit_k_max       5
_diffrn_reflns_limit_k_min       -5
_diffrn_reflns_limit_l_max       11
_diffrn_reflns_limit_l_min       -11
_diffrn_reflns_number            21783
_diffrn_reflns_point_group_measured_fraction_full 0.999
_diffrn_reflns_point_group_measured_fraction_max 0.999
_diffrn_reflns_theta_full        23.843
_diffrn_reflns_theta_max         23.843
_diffrn_reflns_theta_min         2.459
_diffrn_source                   'sealed tube'
_exptl_absorpt_coefficient_mu    0.347
_exptl_absorpt_correction_T_max  0.7450
_exptl_absorpt_correction_T_min  0.7025
_exptl_absorpt_correction_type   multi-scan
_exptl_absorpt_process_details   'SADABS 2014/5'
_exptl_crystal_colour            colourless
_exptl_crystal_density_diffrn    1.264
_exptl_crystal_description       plate
_exptl_crystal_F_000             320
_exptl_crystal_size_max          0.348
_exptl_crystal_size_mid          0.132
_exptl_crystal_size_min          0.064
_refine_diff_density_max         0.417
_refine_diff_density_min         -0.350
_refine_diff_density_rms         0.060
_refine_ls_extinction_method     none
_refine_ls_goodness_of_fit_ref   1.055
_refine_ls_hydrogen_treatment    mixed
_refine_ls_matrix_type           full
_refine_ls_number_parameters     111
_refine_ls_number_reflns         1207
_refine_ls_number_restraints     1
_refine_ls_restrained_S_all      1.055
_refine_ls_R_factor_all          0.0773
_refine_ls_R_factor_gt           0.0711
_refine_ls_shift/su_max          0.000
_refine_ls_shift/su_mean         0.000
_refine_ls_structure_factor_coef Fsqd
_refine_ls_weighting_details
'w=1/[\s^2^(Fo^2^)+(0.1599P)^2^+0.4149P] where P=(Fo^2^+2Fc^2^)/3'
_refine_ls_weighting_scheme      calc
_refine_ls_wR_factor_gt          0.2252
_refine_ls_wR_factor_ref         0.2368
_reflns_Friedel_coverage         0.000
_reflns_number_gt                1061
_reflns_number_total             1207
_reflns_threshold_expression     'I > 2\s(I)'
_cod_data_source_file            c6ce02079h1.cif
_cod_data_source_block           p1619d
_cod_depositor_comments
'Adding full bibliography for 7227123--7227124.cif.'
_cod_original_cell_volume        783.94(18)
_cod_database_code               7227124
_shelx_shelxl_version_number     2016/6
_shelx_space_group_comment
;
The symmetry employed for this shelxl refinement is uniquely defined
by the following loop, which should always be used as a source of
symmetry information in preference to the above space-group names.
They are only intended as comments.
;
_shelx_estimated_absorpt_t_min   0.889
_shelx_estimated_absorpt_t_max   0.978
_shelx_res_file
;
TITL p1619d_a.res in P2(1)/c
    p1619d.res
    created by SHELXL-2016/6 at 09:33:09 on 11-Nov-2016
CELL  0.71073  16.8944   4.7953   9.8686   90.000  101.318   90.000
ZERR    4.000   0.0023   0.0006   0.0013    0.000    0.004    0.000
LATT  1
SYMM -X, 1/2+Y, 1/2-Z
SFAC C H N O S
UNIT 20 44 4 8 4
L.S. 50
BOND $H
CONF
ACTA
TEMP 65
SIZE  0.064        0.132        0.348
LIST 6
FMAP 2
PLAN 2
EADP C2 C2B
SADI S1 C5 S1B C5B
WGHT    0.159900    0.414900
FVAR       1.09558   0.66317
N1    3    0.591762    0.442923    0.144349    11.00000    0.06757    0.04394 =
         0.03323   -0.00681    0.01401   -0.00506
H1    2    0.607195    0.306688    0.091545    11.00000   -1.50000
H2    2    0.598034    0.604413    0.107697    11.00000   -1.50000
H3    2    0.532951    0.417319    0.155375    11.00000   -1.50000
O1    4    0.565545    0.814377    0.331772    11.00000    0.07430    0.04633 =
         0.05263   -0.00133    0.01773    0.01177
O2    4    0.623839    0.550716    0.507879    11.00000    0.12117    0.05552 =
         0.03378    0.00134    0.01857    0.00194
C1    1    0.606371    0.610818    0.382761    11.00000    0.05872    0.03458 =
         0.03239   -0.00068    0.01437   -0.00862
PART 1
C2    1    0.645977    0.416121    0.279654    21.00000    0.04936    0.03243 =
         0.02633   -0.00619    0.02346    0.01478
AFIX  13
H21   2    0.650925    0.221868    0.311031    21.00000   -1.20000
AFIX   0
C3    1    0.727940    0.548296    0.282765    21.00000    0.04871    0.05501 =
         0.06439    0.00101    0.01321   -0.00081
AFIX  23
H31   2    0.720375    0.739902    0.251386    21.00000   -1.20000
H32   2    0.757898    0.550882    0.377274    21.00000   -1.20000
AFIX   0
C4    1    0.776059    0.397210    0.194495    21.00000    0.08012    0.12156 =
         0.15036   -0.04802    0.06173   -0.00455
AFIX  23
H41   2    0.743901    0.382081    0.101879    21.00000   -1.20000
H42   2    0.786410    0.209548    0.230285    21.00000   -1.20000
AFIX   0
S1    5    0.869312    0.554612    0.184133    21.00000    0.10191    0.21560 =
         0.19639    0.00358    0.07577   -0.03174
C5    1    0.925395    0.492381    0.324399    21.00000    0.24759
AFIX  33
H51   2    0.977551    0.572917    0.325605    21.00000   -1.50000
H52   2    0.902707    0.571263    0.397668    21.00000   -1.50000
H53   2    0.930766    0.294303    0.337061    21.00000   -1.50000
AFIX   0
PART 2
C2B   1    0.633417    0.451671    0.300961   -21.00000    0.04936    0.03243 =
         0.02633   -0.00619    0.02346    0.01478
AFIX  13
H22B  2    0.617217    0.269751    0.331682   -21.00000   -1.20000
AFIX   0
C3B   1    0.726534    0.391168    0.296173   -21.00000    0.10818
AFIX  23
H33B  2    0.752751    0.303096    0.381748   -21.00000   -1.20000
H34B  2    0.729584    0.264351    0.220793   -21.00000   -1.20000
AFIX   0
C4B   1    0.766354    0.639114    0.277772   -21.00000    0.16685
AFIX  23
H43B  2    0.757456    0.775722    0.345718   -21.00000   -1.20000
H44B  2    0.745580    0.714190    0.186446   -21.00000   -1.20000
AFIX   0
S1B   5    0.880443    0.562257    0.298707   -21.00000    0.10702    0.56883 =
         0.48451    0.28255    0.09431   -0.02618
C5B   1    0.887693    0.285258    0.378271   -21.00000    0.38527
AFIX  33
H54B  2    0.942829    0.223695    0.395409   -21.00000   -1.50000
H55B  2    0.870659    0.311411    0.464657   -21.00000   -1.50000
H56B  2    0.854122    0.147500    0.324488   -21.00000   -1.50000
part 0
AFIX   0
HKLF 4




REM  p1619d_a.res in P2(1)/c
REM R1 =  0.0711 for    1061 Fo > 4sig(Fo)  and  0.0773 for all    1207 data
REM    111 parameters refined using      1 restraints

END

WGHT      0.1407      0.4647

REM Highest difference peak  0.417,  deepest hole -0.350,  1-sigma level  0.060
Q1    1   0.7938  0.4499  0.3854  11.00000  0.05    0.42
Q2    1   0.8766  0.6717  0.3009  11.00000  0.05    0.25
;
_shelx_res_checksum              39650
_shelx_hkl_file
;
   0   0   2 6893.88  125.16
   0   0   2 6913.55  125.26
   0   0   2 6958.53  125.48
   0   0  -2 6984.76  125.58
   0   0   2 6794.42  125.17
   0   0  -2 6866.65  125.17
   0   0  -2 6830.79  125.31
   0   0  -2 6993.23  125.55
   0   0  -2 6892.19  125.22
   0   0  -2 6784.01  125.12
   0   0  -3   -1.05    0.67
   0   0  -3    0.69    0.69
   0   0  -3    0.03    0.51
   0   0  -3    0.66    0.61
   0   0  -3   -0.31    0.60
   0   0  -3    0.08    0.61
   0   0   3    0.45    0.70
   0   0   3   -0.09    0.57
   0   0   3    0.11    0.77
   0   0   3    0.70    0.66
   0   0   3    0.32    0.61
   0   0   3    0.53    0.69
   0   0   4   76.40    2.24
   0   0   4   75.96    2.10
   0   0  -4   80.09    2.04
   0   0   4   78.80    2.27
   0   0   4   75.70    2.06
   0   0   4   74.63    2.08
   0   0  -4   80.10    2.21
   0   0   4   75.39    2.09
   0   0  -4   75.19    2.09
   0   0  -4   81.19    2.19
   0   0  -4   78.44    2.05
   0   0  -5   -1.30    0.78
   0   0   5    0.04    1.05
   0   0   5   -0.62    0.83
   0   0   5   -1.34    0.82
   0   0   5   -0.27    1.00
   0   0   5    0.24    0.81
   0   0  -5   -0.10    0.71
   0   0  -5   -0.08    0.77
   0   0  -5    0.27    0.88
   0   0  -5   -0.77    0.87
   0   0   5   -0.42    0.83
   0   0  -5   -0.41    0.78
   0   0   6  996.94   18.62
   0   0   6 1006.84   18.66
   0   0   6 1003.49   18.83
   0   0  -6 1003.71   18.81
   0   0   6  973.82   18.61
   0   0   6 1005.41   18.62
   0   0   6 1006.25   18.83
   0   0  -6  997.72   18.61
   0   0  -6  992.98   18.65
   0   0  -6 1017.59   18.79
   0   0  -6  995.09   18.62
   0   0  -6  982.72   18.58
   0   0  -7    0.26    0.99
   0   0   7    0.41    1.21
   0   0   7   -1.08    1.09
   0   0   7   -1.16    1.09
   0   0   7   -0.38    1.08
   0   0  -7   -0.10    1.19
   0   0  -7    1.94    0.96
   0   0  -7    0.20    1.04
   0   0   7   -2.13    1.32
   0   0  -7    0.97    1.05
   0   0   7    0.39    1.14
   0   0  -7   -1.10    0.94
   0   0   8   98.00    3.65
   0   0  -8   97.19    3.16
   0   0  -8   90.03    3.33
   0   0  -8   96.79    3.18
   0   0   8   91.07    3.36
   0   0   8   89.84    3.56
   0   0  -8   98.61    3.20
   0   0  -8   90.02    3.43
   0   0   8   91.47    3.35
   0   0   8   97.47    3.26
   0   0   8   95.29    3.12
   0   0  -8   91.13    3.07
   0   0  -9    1.42    1.27
   0   0   9   -0.30    1.77
   0   0   9    1.19    1.57
   0   0   9   -0.88    1.52
   0   0  -9    0.87    1.41
   0   0  -9    0.55    1.44
   0   0  -9    0.21    1.64
   0   0  -9   -1.89    1.25
   0   0   9   -0.80    1.99
   0   0  -9    2.54    1.46
   0   0   9   -0.69    1.71
   0   0 -10   21.26    2.07
   0   0 -10   19.34    1.97
   0   0  10   15.04    2.11
   0   0  10   18.73    2.20
   0   0 -10   18.57    2.18
   0   0 -10   13.36    2.00
   0   0 -10   19.49    2.25
   0   0  10   17.43    2.41
   0   0  10   15.81    2.22
   0   0 -10   20.33    2.12
   0   0  10   22.64    2.28
   0   0  11    0.28    2.62
   0   0  11    1.70    2.59
   0   0 -11   -2.18    2.06
   0   1   0    0.84    0.48
   0   1   0    1.17    0.38
   0   1   0    0.72    0.41
   0   1   0    0.91    0.43
   0   1   0    0.80    0.42
   0  -1   0    1.18    0.49
   0  -1   0    1.11    0.42
   0  -1   0    0.88    0.37
   0  -1   0    0.78    0.39
   0  -1   0    1.03    0.37
   0   1  -1  469.73    8.45
   0   1  -1  457.05    8.45
   0   1  -1  493.09    8.51
   0   1   1  455.86    8.49
   0   1   1  443.68    8.49
   0   1   1  462.95    8.50
   0   1   1  472.24    8.55
   0   1  -1  423.10    8.57
   0   1   1  445.52    8.49
   0   1  -1  455.74    8.44
   0   1  -1  469.90    8.46
   0   1   1  469.86    8.56
   0  -1  -1  473.00    8.55
   0  -1   1  464.79    8.42
   0  -1   1  460.78    8.42
   0  -1   1  445.84    8.44
   0  -1  -1  442.12    8.48
   0  -1   1  463.86    8.45
   0  -1  -1  452.90    8.49
   0  -1  -1  457.55    8.48
   0  -1  -1  466.94    8.49
   0  -1   1  478.01    8.50
   0   1  -2 1270.62   23.20
   0   1   2 1262.46   23.21
   0   1  -2 1279.86   23.15
   0   1  -2 1260.00   23.14
   0   1   2 1284.86   23.28
   0   1  -2 1316.60   23.23
   0   1  -2 1246.66   23.14
   0   1  -2 1275.89   23.15
   0   1   2 1248.30   23.19
   0   1   2 1300.64   23.27
   0   1   2 1268.49   23.19
   0   1   2 1283.35   23.21
   0  -1  -2 1282.70   23.20
   0  -1   2 1235.36   23.14
   0  -1   2 1246.64   23.12
   0  -1   2 1267.54   23.15
   0  -1  -2 1294.15   23.20
   0  -1  -2 1290.90   23.27
   0  -1  -2 1314.87   23.29
   0  -1   2 1253.00   23.12
   0  -1  -2 1279.50   23.20
   0  -1   2 1271.97   23.20
   0  -1  -2 1259.16   23.19
   0   1  -3 1476.66   26.34
   0   1  -3 1415.86   26.24
   0   1   3 1450.06   26.32
   0   1  -3 1441.65   26.25
   0   1  -3 1461.35   26.33
   0   1   3 1461.11   26.39
   0   1  -3 1434.48   26.23
   0   1   3 1424.81   26.29
   0   1   3 1435.56   26.31
   0   1   3 1467.70   26.41
   0   1   3 1409.77   26.27
   0   1  -3 1428.06   26.24
   0  -1  -3 1448.07   26.30
   0  -1   3 1420.78   26.23
   0  -1   3 1409.65   26.21
   0  -1  -3 1430.96   26.28
   0  -1   3 1458.29   26.21
   0  -1   3 1431.23   26.24
   0  -1  -3 1455.62   26.39
   0  -1  -3 1467.76   26.41
   0  -1  -3 1424.28   26.27
   0  -1  -3 1433.35   26.30
   0  -1   3 1447.05   26.33
   0   1   4  161.92    3.66
   0   1   4  167.15    3.56
   0   1  -4  166.35    3.61
   0   1  -4  156.17    3.41
   0   1   4  158.88    3.57
   0   1  -4  164.45    3.48
   0   1   4  161.99    3.50
   0   1   4  161.55    3.56
   0   1  -4  164.65    3.60
   0   1  -4  166.26    3.48
   0   1  -4  158.04    3.46
   0  -1  -4  159.97    3.54
   0  -1  -4  158.11    3.50
   0  -1  -4  166.29    3.70
   0  -1   4  166.00    3.57
   0  -1   4  156.74    3.45
   0  -1  -4  163.08    3.53
   0  -1   4  161.67    3.43
   0  -1  -4  163.33    3.65
   0  -1   4  162.69    3.45
   0  -1   4  161.66    3.59
   0  -1   4  165.75    3.40
   0  -1  -4  159.60    3.55
   0   1   5  206.73    4.56
   0   1   5  213.61    4.54
   0   1   5  218.87    4.75
   0   1  -5  208.76    4.42
   0   1   5  211.75    4.57
   0   1  -5  207.03    4.46
   0   1   5  212.41    4.50
   0   1   5  215.75    4.69
   0   1  -5  215.95    4.63
   0   1  -5  209.01    4.46
   0  -1  -5  216.31    4.57
   0  -1   5  211.07    4.43
   0  -1   5  213.14    4.40
   0  -1  -5  209.29    4.50
   0  -1   5  213.57    4.62
   0  -1   5  208.62    4.45
   0  -1   5  207.49    4.47
   0  -1  -5  213.06    4.72
   0  -1   5  210.28    4.64
   0  -1  -5  210.44    4.68
   0  -1  -5  210.23    4.53
   0  -1  -5  214.76    4.54
   0   1  -6  109.71    2.84
   0   1   6  106.98    3.20
   0   1  -6  108.94    2.92
   0   1   6  115.51    3.12
   0   1   6  107.42    2.92
   0   1   6  113.14    2.96
   0   1   6  107.65    3.05
   0   1   6  110.26    3.07
   0   1  -6  109.36    2.91
   0   1  -6  111.55    3.09
   0   1  -6  107.61    2.85
   0   1  -6  113.99    3.04
   0  -1   6  110.20    2.81
   0  -1  -6  107.33    2.97
   0  -1  -6  112.78    3.23
   0  -1   6  109.95    3.15
   0  -1   6  113.31    3.12
   0  -1  -6  103.85    3.13
   0  -1   6  109.02    2.92
   0  -1  -6  105.59    2.96
   0  -1  -6  107.54    3.01
   0  -1   6  105.37    2.87
   0  -1   6  108.46    2.93
   0  -1  -6  110.30    2.99
   0   1  -7   32.54    2.07
   0   1   7   28.48    2.43
   0   1   7   30.36    2.27
   0   1   7   31.15    2.05
   0   1   7   31.71    2.27
   0   1  -7   31.99    1.92
   0   1  -7   33.76    2.08
   0   1  -7   30.19    2.19
   0   1  -7   30.10    2.02
   0   1  -7   32.37    2.29
   0  -1   7   33.22    2.12
   0  -1   7   32.35    2.29
   0  -1   7   27.40    2.35
   0  -1  -7   31.78    2.11
   0  -1   7   31.74    1.96
   0  -1  -7   35.68    2.14
   0  -1  -7   32.32    2.07
   0  -1  -7   35.46    2.39
   0  -1   7   34.71    2.15
   0  -1  -7   30.31    2.18
   0  -1  -7   31.84    2.32
   0  -1   7   32.00    2.19
   0   1   8   28.67    2.27
   0   1  -8   27.54    2.57
   0   1  -8   31.38    2.35
   0   1   8   30.01    2.47
   0   1  -8   28.77    2.27
   0   1   8   32.12    3.09
   0   1   8   31.06    2.87
   0   1  -8   28.98    2.20
   0   1   8   31.45    2.61
   0   1   8   28.96    2.64
   0   1  -8   26.11    2.47
   0   1  -8   27.74    2.37
   0  -1  -8   28.40    2.41
   0  -1  -8   29.45    2.37
   0  -1   8   32.80    2.84
   0  -1  -8   35.72    2.39
   0  -1  -8   28.98    2.55
   0  -1  -8   29.71    2.65
   0  -1   8   30.59    2.49
   0  -1   8   26.41    2.70
   0  -1   8   31.03    2.21
   0  -1   8   30.67    2.52
   0   1   9  234.62    7.95
   0   1  -9  272.74    6.14
   0   1   9  267.41    6.42
   0   1  -9  275.57    6.65
   0   1  -9  269.24    6.18
   0   1  -9  271.89    6.25
   0   1   9  276.45    6.50
   0   1  -9  273.35    6.48
   0   1   9  272.16    6.78
   0   1   9  269.16    6.77
   0   1   9  277.29    6.40
   0   1  -9  264.54    6.29
   0  -1   9  260.81    6.65
   0  -1  -9  271.86    6.59
   0  -1  -9  272.98    6.27
   0  -1  -9  272.50    6.39
   0  -1   9  273.11    6.36
   0  -1  -9  259.52    6.53
   0  -1   9  260.84    6.07
   0  -1   9  276.95    6.25
   0  -1  -9  269.83    6.27
   0  -1   9  275.38    6.66
   0  -1   9  276.11    6.29
   0  -1  -9  269.82    6.29
   0   1 -10    3.18    1.63
   0   1 -10    1.02    1.81
   0   1 -10    5.75    2.02
   0   1 -10    2.20    1.76
   0   1 -10    2.51    2.12
   0   1 -10    1.99    1.81
   0   1  10    5.01    1.95
   0   1  10    3.61    1.81
   0   1  10    0.53    2.20
   0   1  10    0.97    2.19
   0   1  10    3.74    2.14
   0   1  10    4.85    1.98
   0  -1  10   -0.24    2.21
   0  -1  10    2.20    2.31
   0  -1 -10    2.93    1.77
   0  -1  10    4.14    1.87
   0  -1 -10    4.10    1.95
   0  -1  10    1.40    1.75
   0  -1  10    4.58    1.73
   0  -1  10    1.30    1.92
   0  -1 -10    1.77    1.72
   0  -1 -10    4.02    2.04
   0  -1 -10    4.09    2.04
   0  -1 -10    5.44    1.75
   0   2   0 1911.96   34.25
   0   2   0 1867.75   34.25
   0   2   0 1773.68   34.49
   0   2   0 1925.97   34.33
   0   2   0 1861.35   34.24
   0  -2   0 1887.08   34.18
   0  -2   0 1878.67   34.24
   0  -2   0 1946.90   34.33
   0  -2   0 1911.22   34.18
   0  -2   0 1902.21   34.24
   0   2  -1  253.17    4.92
   0   2   1  250.76    4.89
   0   2  -1  244.48    4.82
   0   2  -1  245.61    4.80
   0   2   1  247.28    4.88
   0   2  -1  245.89    4.82
   0   2  -1  259.97    4.94
   0   2  -1  245.13    4.81
   0   2   1  253.75    4.96
   0   2   1  248.76    4.86
   0   2   1  246.84    4.87
   0   2   1  255.24    4.97
   0  -2  -1  257.50    4.98
   0  -2   1  246.49    4.71
   0  -2  -1  253.62    4.80
   0  -2   1  240.61    4.81
   0  -2   1  241.98    4.72
   0  -2   1  246.50    4.81
   0  -2  -1  247.81    4.81
   0  -2  -1  248.19    4.86
   0  -2  -1  242.25    4.86
   0  -2   1  250.84    4.90
   0  -2   1  245.86    4.91
   0   2  -2    6.31    0.78
   0   2   2    6.46    0.75
   0   2   2    6.10    0.81
   0   2   2    5.97    0.81
   0   2  -2    4.96    0.71
   0   2  -2    5.98    0.80
   0   2  -2    5.97    0.67
   0   2   2    5.93    0.79
   0   2  -2    6.35    0.72
   0   2  -2    5.76    0.72
   0   2   2    6.30    0.92
   0   2   2    5.23    0.84
   0  -2  -2    7.98    0.82
   0  -2   2    4.88    0.56
   0  -2  -2    7.16    0.77
   0  -2   2    5.74    0.82
   0  -2  -2    6.39    0.88
   0  -2  -2    6.02    0.74
   0  -2   2    5.92    0.69
   0  -2  -2    6.79    0.76
   0  -2   2    5.32    0.61
   0  -2   2    5.56    0.77
   0  -2  -2    6.00    0.82
   0  -2   2    5.55    0.71
   0   2   3   59.31    2.08
   0   2   3   56.19    1.90
   0   2  -3   58.22    1.73
   0   2   3   59.81    2.00
   0   2   3   58.86    1.87
   0   2   3   59.57    1.92
   0   2  -3   57.97    1.74
   0   2  -3   58.69    1.71
   0   2  -3   59.26    1.72
   0   2  -3   62.83    1.85
   0   2   3   60.62    1.96
   0  -2   3   58.40    1.63
   0  -2   3   58.46    1.72
   0  -2  -3   59.48    1.99
   0  -2  -3   59.95    1.88
   0  -2  -3   60.59    1.87
   0  -2  -3   60.21    1.97
   0  -2   3   58.53    1.58
   0  -2  -3   59.78    1.83
   0  -2  -3   61.00    1.86
   0  -2   3   57.90    1.71
   0  -2   3   57.58    1.88
   0   2   4   86.42    2.44
   0   2   4   82.64    2.42
   0   2  -4   84.35    2.24
   0   2  -4   84.64    2.27
   0   2  -4   88.50    2.37
   0   2   4   87.96    2.62
   0   2  -4   85.63    2.37
   0   2   4   86.53    2.52
   0   2  -4   86.69    2.24
   0   2   4   85.70    2.50
   0   2  -4   83.60    2.21
   0   2   4   86.89    2.39
   0  -2  -4   87.17    2.36
   0  -2   4   84.81    2.14
   0  -2   4   83.14    2.26
   0  -2   4   82.88    2.41
   0  -2  -4   83.66    2.55
   0  -2   4   85.45    2.21
   0  -2  -4   82.35    2.52
   0  -2  -4   82.11    2.36
   0  -2  -4   84.44    2.43
   0  -2  -4   88.41    2.41
   0  -2   4   85.10    2.10
   0   2  -5   13.19    1.09
   0   2  -5   16.05    1.45
   0   2  -5   14.82    1.09
   0   2  -5   15.72    1.25
   0   2  -5   13.73    1.12
   0   2   5   15.52    1.38
   0   2   5   14.07    1.19
   0   2   5   15.65    1.27
   0   2   5   13.50    1.39
   0   2  -5   15.74    1.56
   0   2   5   13.57    1.10
   0   2   5   14.81    1.35
   0  -2   5   14.42    1.06
   0  -2   5   15.55    1.32
   0  -2  -5   15.75    1.21
   0  -2   5   15.03    1.19
   0  -2   5   14.16    1.27
   0  -2  -5   13.80    1.14
   0  -2  -5   14.99    1.40
   0  -2  -5   16.24    1.22
   0  -2   5   13.86    1.19
   0  -2  -5   14.28    1.29
   0  -2  -5   14.75    1.15
   0  -2   5   16.33    1.46
   0   2   6   33.01    2.03
   0   2  -6   34.56    2.10
   0   2  -6   32.95    2.06
   0   2   6   32.75    2.40
   0   2  -6   32.49    1.91
   0   2  -6   34.89    2.01
   0   2   6   34.04    2.22
   0   2  -6   32.42    1.94
   0   2   6   36.19    2.13
   0   2   6   34.28    2.28
   0   2  -6   32.93    1.87
   0   2   6   31.46    2.29
   0  -2  -6   33.65    2.26
   0  -2  -6   35.21    2.11
   0  -2   6   33.49    1.91
   0  -2  -6   30.69    2.26
   0  -2   6   32.28    2.03
   0  -2   6   35.43    1.71
   0  -2  -6   33.88    2.10
   0  -2  -6   34.36    2.13
   0  -2   6   31.27    2.08
   0  -2  -6   32.09    1.99
   0  -2   6   34.27    2.24
   0  -2   6   33.36    1.82
   0   2  -7  118.46    3.39
   0   2   7  120.88    3.82
   0   2  -7  118.34    3.59
   0   2   7  118.16    3.71
   0   2   7  127.51    3.58
   0   2   7  121.35    3.94
   0   2  -7  117.62    3.46
   0   2   7  121.00    3.92
   0   2  -7  122.42    3.37
   0  -2  -7  124.01    3.56
   0  -2   7  121.20    3.44
   0  -2   7  124.81    3.21
   0  -2   7  118.20    3.74
   0  -2  -7  119.62    3.76
   0  -2   7  116.34    3.26
   0  -2  -7  124.61    3.62
   0  -2   7  123.11    3.60
   0  -2  -7  123.17    3.58
   0  -2  -7  124.27    3.48
   0  -2   7  118.57    3.64
   0  -2  -7  127.81    3.89
   0   2   8   62.60    3.01
   0   2  -8   48.63    4.32
   0   2   8   58.27    3.27
   0   2   8   60.88    3.45
   0   2  -8   64.60    3.12
   0   2  -8   63.46    2.83
   0   2   8   64.17    3.30
   0   2  -8   58.32    2.86
   0   2   8   62.07    3.21
   0   2   8   67.31    3.08
   0   2  -8   56.18    3.04
   0   2  -8   69.87    2.83
   0  -2  -8   64.43    2.98
   0  -2   8   64.83    2.83
   0  -2   8   66.87    3.17
   0  -2  -8   57.77    3.32
   0  -2  -8   65.65    3.13
   0  -2   8   64.05    2.59
   0  -2   8   58.14    3.34
   0  -2  -8   61.62    3.40
   0  -2  -8   60.43    2.99
   0  -2   8   60.94    3.00
   0  -2   8   62.37    3.19
   0  -2  -8   61.96    3.18
   0   2   9    0.94    1.96
   0   2   9    0.21    2.04
   0   2  -9    2.87    1.75
   0   2  -9   -0.27    1.54
   0   2  -9    0.88    1.61
   0   2  -9    1.34    1.50
   0   2   9    2.29    2.02
   0   2  -9    1.87    1.73
   0   2   9    0.52    1.64
   0   2  -9    1.28    1.46
   0  -2   9    2.10    1.62
   0  -2   9   -0.34    2.04
   0  -2  -9    2.20    1.82
   0  -2   9   -2.92    1.76
   0  -2   9   -2.32    1.86
   0  -2  -9   -0.91    1.48
   0  -2   9    2.56    1.90
   0  -2  -9    2.11    1.62
   0  -2  -9    2.07    1.53
   0  -2   9    1.11    1.40
   0  -2  -9    0.19    1.77
   0  -2  -9    1.75    1.86
   0   2 -10   11.80    2.03
   0   2 -10    7.42    1.99
   0   2  10   13.09    2.44
   0   2 -10   10.83    2.17
   0   2  10    9.00    2.12
   0   2  10   10.50    2.46
   0   2  10   11.86    2.49
   0   2 -10   10.46    2.01
   0   2  10    7.84    2.43
   0   2 -10    5.32    2.04
   0   2 -10    9.07    2.14
   0  -2  10    8.82    2.37
   0  -2  10    3.47    2.45
   0  -2  10    7.73    2.12
   0  -2 -10    6.40    2.08
   0  -2  10    8.69    1.85
   0  -2 -10    7.05    2.21
   0  -2 -10   10.12    1.93
   0  -2  10   10.83    2.28
   0  -2 -10   10.85    2.12
   0  -2 -10    6.86    1.87
   0  -2 -10   10.64    2.08
   0   3   0   -0.23    0.76
   0   3   0    0.43    0.83
   0   3   0    0.82    0.78
   0   3   0    1.24    0.85
   0   3   0   -0.25    0.75
   0   3   0    0.10    0.82
   0  -3   0   -0.27    0.83
   0  -3   0    0.29    0.86
   0  -3   0   -0.13    0.58
   0  -3   0   -0.15    0.76
   0  -3   0    0.34    0.61
   0  -3   0    0.08    0.84
   0   3  -1   44.02    1.80
   0   3   1   44.33    1.77
   0   3  -1   46.31    1.70
   0   3   1   42.96    1.80
   0   3   1   42.68    1.73
   0   3  -1   47.15    1.67
   0   3   1   45.27    1.74
   0   3  -1   46.70    1.78
   0   3  -1   46.02    1.62
   0   3  -1   46.81    1.69
   0   3   1   45.86    1.84
   0   3   1   45.23    1.82
   0  -3  -1   46.17    1.78
   0  -3  -1   47.63    1.54
   0  -3   1   44.43    1.65
   0  -3  -1   45.99    1.71
   0  -3   1   46.43    1.79
   0  -3  -1   47.29    1.50
   0  -3  -1   45.56    1.89
   0  -3   1   46.58    1.72
   0  -3   1   43.34    1.74
   0   3  -2   54.37    1.88
   0   3  -2   57.93    1.89
   0   3  -2   58.64    1.82
   0   3   2   59.39    2.08
   0   3   2   58.25    2.05
   0   3   2   56.70    2.11
   0   3  -2   59.24    1.88
   0   3  -2   58.34    2.02
   0   3  -2   58.93    1.96
   0   3   2   58.43    1.99
   0   3   2   58.18    2.10
   0   3   2   59.33    2.11
   0  -3  -2   59.47    2.16
   0  -3   2   56.10    1.86
   0  -3   2   59.47    1.87
   0  -3   2   58.86    2.01
   0  -3  -2   56.94    2.04
   0  -3  -2   58.10    1.98
   0  -3  -2   58.23    1.82
   0  -3   2   56.99    1.97
   0  -3  -2   57.12    1.84
   0  -3  -2   58.54    2.04
   0   3  -3    0.88    0.83
   0   3  -3    1.10    0.77
   0   3  -3    0.56    0.92
   0   3   3    0.36    0.96
   0   3  -3    1.36    0.83
   0   3   3    2.42    0.99
   0   3   3    1.61    0.89
   0   3   3    0.71    1.12
   0   3   3   -0.56    0.97
   0   3   3    1.09    0.94
   0   3  -3   -0.08    0.86
   0   3  -3    0.62    0.91
   0  -3  -3    1.38    0.88
   0  -3  -3    1.83    0.93
   0  -3   3    2.09    0.88
   0  -3  -3    0.66    0.91
   0  -3   3    0.27    0.94
   0  -3   3   -0.34    0.93
   0  -3  -3    0.14    0.79
   0  -3  -3    1.64    1.10
   0  -3   3    1.45    0.86
   0  -3  -3    1.59    0.98
   0   3   4    2.74    1.15
   0   3  -4    4.16    0.95
   0   3  -4    3.08    0.99
   0   3  -4    2.04    0.96
   0   3   4    5.79    1.24
   0   3   4    2.84    0.99
   0   3   4    3.11    1.09
   0   3   4    1.75    1.08
   0   3  -4    3.03    1.05
   0   3  -4    4.45    1.11
   0   3  -4    3.74    0.97
   0   3   4    2.07    1.23
   0  -3   4    4.16    1.05
   0  -3   4    2.55    0.99
   0  -3  -4    3.72    1.13
   0  -3  -4    3.16    1.04
   0  -3  -4    3.79    1.06
   0  -3   4    4.27    0.94
   0  -3  -4    1.79    1.12
   0  -3   4    4.13    1.14
   0  -3  -4    4.84    0.98
   0  -3  -4    4.19    1.08
   0   3  -5  135.32    3.45
   0   3   5  142.04    3.79
   0   3   5  139.45    3.74
   0   3   5  137.80    3.91
   0   3  -5  133.20    3.45
   0   3  -5  141.14    3.40
   0   3   5  139.18    3.72
   0   3   5  140.09    3.64
   0   3  -5  122.03    3.99
   0   3  -5  134.60    3.39
   0   3  -5  136.34    3.59
   0   3   5  138.39    3.82
   0  -3  -5  139.06    3.67
   0  -3  -5  138.47    3.59
   0  -3   5  132.61    3.60
   0  -3  -5  138.11    3.62
   0  -3  -5  139.07    3.83
   0  -3   5  135.00    3.63
   0  -3   5  141.38    3.50
   0  -3  -5  137.85    3.87
   0  -3  -5  133.79    3.47
   0  -3   5  137.70    3.43
   0   3  -6  125.49    3.32
   0   3   6  118.71    3.79
   0   3   6  117.03    3.88
   0   3  -6  118.75    3.50
   0   3   6  115.74    3.69
   0   3   6  114.80    4.59
   0   3   6  117.89    3.67
   0   3  -6  120.69    3.31
   0   3  -6  118.82    3.40
   0   3  -6  123.01    3.36
   0  -3  -6  117.89    3.60
   0  -3   6  124.92    3.36
   0  -3   6  122.65    3.67
   0  -3  -6  119.31    3.52
   0  -3  -6  116.18    3.42
   0  -3  -6  120.96    3.89
   0  -3  -6  115.77    3.57
   0  -3   6  125.58    3.54
   0  -3  -6  120.12    4.21
   0   3  -7   -0.47    1.35
   0   3  -7    0.12    1.38
   0   3  -7    0.92    1.30
   0   3   7   -0.88    1.56
   0   3   7    1.16    1.56
   0   3  -7    0.90    1.30
   0   3   7   -0.17    1.67
   0   3  -7   -1.73    1.43
   0   3   7    0.40    1.58
   0   3  -7    1.45    1.27
   0   3   7   -0.31    1.54
   0  -3  -7   -0.95    1.48
   0  -3   7   -0.32    1.43
   0  -3   7   -2.73    1.10
   0  -3  -7    0.68    1.58
   0  -3  -7   -1.74    1.55
   0  -3   7   -1.71    1.51
   0  -3  -7   -3.01    1.27
   0  -3   7    1.52    1.69
   0  -3  -7    0.57    1.35
   0  -3  -7   -2.49    2.56
   0   3  -8   -0.18    1.47
   0   3  -8    4.89    1.58
   0   3   8    3.34    1.76
   0   3   8    1.83    1.63
   0   3   8    3.78    1.92
   0   3   8    2.48    1.88
   0   3   8    3.11    1.90
   0   3  -8    3.73    1.80
   0   3   8    1.69    2.10
   0   3  -8    4.80    1.65
   0  -3   8    1.03    1.80
   0  -3  -8    4.18    1.51
   0  -3   8    4.68    1.41
   0  -3  -8    0.23    1.57
   0  -3  -8    2.35    1.57
   0  -3   8    0.78    1.86
   0  -3  -8    2.61    1.76
   0  -3  -8    3.08    1.87
   0  -3  -8    4.11    1.75
   0  -3   8    1.69    1.36
   0  -3   8    1.43    1.97
   0  -3   8    5.39    1.82
   0   3  -9    1.45    1.70
   0   3  -9    2.88    1.79
   0   3  -9   -0.93    1.83
   0   3  -9    0.88    1.89
   0   3   9    1.48    1.87
   0   3   9   -2.55    2.10
   0   3   9    2.30    1.94
   0   3   9    1.08    2.25
   0   3  -9   -0.64    1.69
   0   3   9   -0.28    2.13
   0   3   9    0.02    1.69
   0   3  -9    2.63    1.77
   0  -3   9   -2.60    2.02
   0  -3   9    0.95    2.05
   0  -3  -9   -4.10    2.33
   0  -3  -9    0.19    1.81
   0  -3   9   -4.02    2.27
   0  -3   9    2.49    1.56
   0  -3  -9    1.73    1.85
   0  -3  -9    0.28    1.77
   0  -3  -9    1.84    2.00
   0  -3   9   -0.18    1.52
   0  -3   9    2.71    2.09
   0  -3  -9   -0.27    1.81
   0   4   0   24.33    2.04
   0   4   0   24.28    1.86
   0   4   0   25.97    1.99
   0   4   0   24.76    1.89
   0   4   0   25.03    2.00
   0   4   0   23.34    2.06
   0  -4   0   24.60    2.06
   0  -4   0   26.48    2.04
   0  -4   0   25.33    2.03
   0  -4   0   23.15    1.91
   0   4   1    0.27    1.12
   0   4   1   -0.39    1.02
   0   4  -1   -0.78    1.00
   0   4  -1   -1.48    1.02
   0   4  -1    0.37    1.13
   0   4  -1    0.82    1.12
   0   4   1    0.32    1.17
   0   4  -1   -2.57    1.06
   0   4   1    0.68    1.15
   0   4   1    0.14    1.06
   0  -4  -1    1.71    1.18
   0  -4  -1    0.68    1.18
   0  -4   1    0.02    1.03
   0  -4   1    0.91    1.11
   0  -4   1    0.15    1.20
   0  -4  -1    0.72    1.39
   0  -4  -1    0.47    1.06
   0  -4   1   -1.01    1.19
   0   4  -2    7.80    1.29
   0   4   2   10.23    1.37
   0   4  -2    8.33    1.11
   0   4   2    7.63    1.29
   0   4   2   10.11    1.30
   0   4   2    9.52    1.24
   0   4   2    9.10    1.36
   0   4  -2    9.12    1.26
   0   4  -2    8.94    1.16
   0   4  -2    6.01    1.21
   0   4  -2    8.11    1.21
   0   4   2    6.51    1.36
   0  -4  -2    8.70    1.77
   0  -4  -2   10.75    1.36
   0  -4   2    7.52    1.17
   0  -4  -2    9.62    1.25
   0  -4   2   10.56    1.24
   0  -4  -2    7.77    0.97
   0  -4  -2    9.68    1.07
   0  -4   2    9.26    1.31
   0   4   3    0.63    1.28
   0   4   3   -0.28    1.34
   0   4   3    1.66    1.17
   0   4  -3    0.23    1.17
   0   4  -3   -0.30    1.13
   0   4  -3    0.13    1.09
   0   4  -3   -0.25    1.17
   0   4   3    0.40    1.30
   0   4  -3   -0.12    1.02
   0   4   3    1.64    1.21
   0  -4  -3    1.07    1.39
   0  -4   3   -1.65    1.19
   0  -4  -3    2.10    1.34
   0  -4  -3    1.51    1.20
   0  -4  -3    1.68    1.03
   0  -4   3    1.11    1.28
   0  -4  -3    1.51    0.93
   0  -4  -3    0.26    1.60
   0  -4   3   -0.80    1.08
   0  -4   3    0.50    1.23
   0   4  -4   15.30    1.48
   0   4  -4   18.09    1.51
   0   4   4   15.70    1.67
   0   4   4   14.83    1.57
   0   4  -4   12.93    1.47
   0   4   4   15.97    1.71
   0   4  -4   17.88    1.59
   0   4   4   19.42    1.87
   0   4   4   16.78    1.57
   0   4   4   19.18    3.20
   0   4  -4   16.55    1.42
   0   4  -4   12.32    1.32
   0  -4  -4   15.42    1.73
   0  -4   4   17.62    1.89
   0  -4  -4   13.34    1.30
   0  -4  -4   17.46    1.76
   0  -4  -4   18.88    1.50
   0  -4   4   14.90    1.59
   0  -4  -4   15.99    1.57
   0  -4   4   15.79    1.64
   0  -4   4   14.48    1.39
   0  -4  -4   15.47    1.70
   0   4  -5    7.46    1.34
   0   4   5    5.68    1.50
   0   4  -5    4.41    1.41
   0   4  -5    4.01    1.40
   0   4   5    4.02    1.69
   0   4   5    3.08    1.63
   0   4   5    1.33    1.67
   0   4  -5    3.37    1.51
   0   4   5    4.15    1.59
   0   4  -5    1.51    1.29
   0   4  -5    5.01    1.48
   0   4   5    5.91    1.59
   0  -4   5    5.69    1.41
   0  -4   5    5.56    1.67
   0  -4   5    3.33    1.45
   0  -4  -5    3.71    1.60
   0  -4  -5    3.89    1.29
   0  -4  -5    4.59    1.57
   0  -4   5    6.11    1.59
   0  -4  -5    4.84    1.58
   0  -4  -5    5.96    1.69
   0   4  -6    4.84    1.72
   0   4  -6    3.59    2.63
   0   4   6    4.65    2.02
   0   4   6    5.70    1.76
   0   4   6    7.14    1.63
   0   4   6   -0.39    1.80
   0   4   6    2.05    1.70
   0   4  -6    4.02    1.55
   0   4   6    4.48    1.76
   0   4  -6    4.38    1.61
   0   4  -6    5.43    1.42
   0   4  -6    4.23    1.52
   0  -4  -6    3.74    1.78
   0  -4  -6    5.77    1.79
   0  -4  -6    5.30    1.58
   0  -4  -6    2.66    1.57
   0  -4   6    5.19    1.65
   0  -4   6    5.06    1.75
   0  -4   6    2.61    1.82
   0  -4  -6    4.84    1.70
   0  -4   6    3.79    1.50
   0  -4  -6    4.91    1.40
   0   4  -7    4.28    1.62
   0   4   7    2.29    1.96
   0   4   7   -0.87    1.68
   0   4   7   -4.38    1.95
   0   4   7   -1.19    1.90
   0   4   7    2.78    2.03
   0   4  -7    0.33    1.59
   0   4   7   -1.82    1.93
   0   4  -7   -0.69    1.80
   0   4  -7    5.28    1.66
   0   4  -7    2.75    1.57
   0   4  -7    0.33    1.79
   0  -4  -7    1.53    2.09
   0  -4   7    0.23    1.69
   0  -4  -7    1.71    1.77
   0  -4   7    0.55    1.80
   0  -4  -7    1.70    1.52
   0  -4  -7    0.42    1.73
   0  -4   7    0.61    1.79
   0  -4  -7    0.09    1.73
   0  -4   7    4.67    2.10
   0  -4  -7    1.39    1.87
   0   5   0   -0.65    1.59
   0   5   0    0.53    1.45
   0   5   0   -0.59    1.59
   0   5   0   -0.30    1.33
   0   5   0   -0.35    1.40
   0   5   0   -2.47    2.28
   0  -5   0    1.91    1.72
   0  -5   0   -0.62    1.53
   0  -5   0   -1.16    1.37
   0  -5   0   -4.02    1.47
   0   5   1   16.84    1.64
   0   5  -1   15.06    1.72
   0   5  -1   11.89    1.76
   0   5   1   16.30    1.87
   0   5   1   16.43    1.86
   0   5   1   11.83    1.65
   0   5  -1   12.05    1.71
   0   5   1   14.35    1.87
   0   5  -1   17.85    1.54
   0   5   1   14.76    1.78
   0   5  -1   14.85    1.63
   0   5  -1   15.08    1.82
   0  -5   1   14.80    1.62
   0  -5   1   15.28    1.80
   0  -5  -1   16.19    1.90
   0  -5  -1   14.35    1.77
   0  -5   1   13.91    1.61
   0  -5  -1   13.37    1.62
   0  -5   1   12.32    1.79
   0  -5  -1   15.22    1.74
   0   5  -2    1.79    1.29
   0   5   2    0.44    1.71
   0   5   2    1.65    1.48
   0   5  -2    0.29    1.60
   0   5  -2    0.11    1.40
   0   5   2   -1.64    1.66
   0   5   2   -1.18    1.49
   0   5  -2    0.41    1.69
   0   5   2    1.38    1.55
   0   5  -2    0.37    1.45
   0  -5  -2    0.98    1.64
   0  -5  -2    0.38    1.75
   0  -5  -2    2.53    1.74
   0  -5   2    0.27    1.45
   0  -5   2   -0.60    1.38
   0  -5  -2   -0.73    1.49
   0  -5   2   -0.68    1.56
   0  -5   2    0.28    1.56
   0   5   3   22.88    1.91
   0   5   3   19.92    1.89
   0   5   3   18.77    2.05
   0   5   3   16.87    1.93
   0   5   3   21.70    2.07
   0   5  -3   18.97    1.63
   0   5  -3   23.38    1.79
   0   5  -3   18.71    1.76
   0   5  -3   16.64    1.90
   0   5   3   19.18    2.16
   0   5  -3   12.35    3.16
   0   5  -3   15.93    1.87
   0  -5  -3   18.84    2.02
   0  -5  -3   21.13    1.94
   0  -5   3   19.29    1.94
   0  -5  -3   19.60    2.16
   0  -5   3   22.05    2.00
   0  -5   3   22.21    1.79
   0  -5   3   20.98    1.71
   0   5   4    2.22    1.76
   0   5  -4   -1.97    1.58
   0   5   4    1.16    1.78
   0   5   4    2.20    1.92
   0   5  -4    2.06    1.75
   0   5  -4    2.28    2.80
   0   5   4    2.34    1.95
   0   5  -4   -3.86    1.64
   0   5   4    1.57    1.87
   0   5  -4   -1.08    1.38
   0   5  -4   -0.25    1.48
   0   5   4    1.18    1.75
   0  -5  -4    1.72    1.73
   0  -5  -4    3.09    1.92
   0  -5   4   -1.74    1.65
   0  -5   4   -1.29    1.82
   0  -5  -4    4.76    2.01
   0  -5   4   -1.30    1.58
   0  -5  -4    1.49    1.22
   0  -5  -4    2.59    1.44
   0  -5  -4   -3.90    1.84
   0  -5   4    2.46    1.47
  -1   0  11   -2.20    2.30
   1   0 -11    0.60    2.02
   1   0 -11    0.81    1.74
  -1   0  11    2.88    2.03
  -1   0  11   -3.49    2.15
   1   0 -11   -2.61    1.88
  -1   0  11    0.84    2.41
  -1   0  11    0.36    2.67
   1   0 -11    0.67    2.10
   1   0 -11   -1.01    2.06
  -1   0  11   -0.64    2.10
   1   0 -11    1.30    1.88
  -1   0  10   -0.58    2.07
  -1   0  10   -2.67    1.77
   1   0 -10    3.68    1.64
  -1   0  10    2.03    1.74
   1   0 -10   -1.99    1.80
   1   0 -10   -0.19    1.49
   1   0 -10    3.22    1.71
  -1   0  10    0.37    1.81
  -1   0  10   -0.15    2.00
   1   0 -10    1.05    1.85
   1   0 -10    5.34    1.67
  -1   0  10    2.24    1.72
   1   0  -9    0.71    1.39
   1   0  -9   -0.49    1.43
   1   0  -9    1.48    1.31
  -1   0   9   -0.05    1.77
  -1   0   9   -1.31    1.36
  -1   0   9   -0.84    1.84
   1   0  -9    1.16    1.39
  -1   0   9   -0.89    1.44
   1   0  -9    0.23    1.60
  -1   0   9    0.27    1.60
   1   0  -9   -2.01    1.49
  -1   0   8  457.75    9.15
  -1   0   8  453.65    9.49
  -1   0   8  454.24    9.50
  -1   0   8  462.26    9.26
   1   0  -8  465.28    9.45
  -1   0   8  446.86    9.21
   1   0  -8  458.08    9.19
   1   0  -8  445.04    9.14
  -1   0   8  450.51    9.18
   1   0  -8  453.89    9.40
   1   0  -8  456.57    9.23
   1   0  -8  454.88    9.16
   1   0  -7    0.21    1.06
  -1   0   7    1.16    1.06
  -1   0   7   -1.82    1.17
   1   0  -7    0.18    0.99
  -1   0   7   -0.50    1.11
  -1   0   7   -1.30    1.22
  -1   0   7   -0.65    1.12
   1   0  -7    1.73    1.05
   1   0  -7   -0.77    1.05
   1   0  -7    1.07    1.11
   1   0  -7   -1.74    1.02
  -1   0   7    1.07    1.21
   1   0  -6  220.14    4.86
   1   0  -6  217.57    4.85
   1   0  -6  217.53    4.67
  -1   0   6  210.16    4.71
   1   0  -6  220.04    4.70
  -1   0   6  214.61    4.89
  -1   0   6  218.23    4.71
  -1   0   6  219.05    4.68
   1   0  -6  215.62    4.70
  -1   0   6  215.77    4.92
   1   0  -6  212.62    4.64
  -1   0   6  214.94    4.69
   1   0  -5    0.39    0.78
  -1   0   5   -0.91    0.82
  -1   0   5   -0.30    0.87
   1   0  -5   -0.45    0.80
   1   0  -5    1.12    0.75
  -1   0   5   -1.32    0.97
   1   0  -5   -0.80    0.85
   1   0  -5   -0.11    0.78
   1   0  -5   -0.29    0.85
  -1   0   5    0.57    0.94
  -1   0   5   -0.34    0.80
  -1   0   5    0.78    0.82
   1   0  -4    0.07    0.74
   1   0  -4    0.30    0.61
   1   0  -4    0.44    0.71
   1   0  -4    0.66    0.74
   1   0  -4    0.67    0.78
  -1   0   4    0.43    0.69
   1   0  -4    0.87    0.70
  -1   0   4    1.52    0.79
  -1   0   4    0.29    0.70
  -1   0   4    0.97    0.66
  -1   0   3    0.67    0.71
   1   0  -3   -0.24    0.53
   1   0  -3   -0.32    0.66
  -1   0   3   -0.08    0.59
  -1   0   3   -0.13    0.53
  -1   0   3    0.46    0.63
  -1   0   3   -0.02    0.58
  -1   0   3    0.41    0.66
   1   0  -3    0.63    0.64
   1   0  -3   -0.49    0.54
   1   0  -3   -0.16    0.58
   1   0  -3   -0.25    0.60
  -1   0   2   66.13    1.55
   1   0  -2   72.17    1.60
   1   0  -2   66.84    1.69
  -1   0   2   66.44    1.69
  -1   0   2   67.86    1.57
   1   0  -2   68.90    1.67
  -1   0   2   65.88    1.63
  -1   0   2   68.12    1.58
   1   0  -2   67.93    1.58
   1   0  -2   66.31    1.59
   1   0  -2   67.48    1.58
  -1   0   2   74.09    1.63
   1   0  -1    0.00    0.27
   1   0  -1   -0.10    0.29
   1   0   1    1.21    0.32
   1   0   1    1.11    0.30
   1   0   1    0.92    0.31
   1   0   1    1.14    0.42
  -1   0  -1    1.37    0.36
   1   0   1    0.73    0.35
  -1   0  -1    1.17    0.35
  -1   0  -1    1.28    0.34
  -1   0  -1    1.37    0.38
   1   0   1    1.03    0.32
  -1   0  -1    1.24    0.33
  -1   0  -1    1.04    0.37
  -1   0  -2  886.14   16.40
   1   0   2  887.74   16.41
   1   0   2  929.25   16.49
   1   0   2  884.60   16.41
  -1   0  -2  923.33   16.48
   1   0   2  912.84   16.48
  -1   0  -2  888.93   16.41
   1   0   2  889.42   16.41
   1   0   2  874.00   16.40
  -1   0  -2  880.76   16.41
  -1   0  -2  891.84   16.40
  -1   0  -2  930.87   16.49
  -1   0  -3   -0.22    0.60
  -1   0  -3    0.64    0.59
  -1   0  -3    0.82    0.59
   1   0   3   -0.04    0.63
  -1   0  -3   -0.48    0.71
   1   0   3   -0.03    0.59
   1   0   3   -0.63    0.70
  -1   0  -3    0.31    0.57
   1   0   3   -0.03    0.64
  -1   0  -3   -0.62    0.62
   1   0   3   -0.44    0.60
   1   0   3   -0.28    0.75
   1   0   4  426.59    8.17
  -1   0  -4  416.58    7.99
  -1   0  -4  425.32    8.14
  -1   0  -4  420.79    8.11
   1   0   4  411.90    8.01
   1   0   4  425.76    8.16
   1   0   4  408.19    8.00
   1   0   4  408.71    8.00
  -1   0  -4  414.75    8.00
  -1   0  -4  421.87    7.97
   1   0   4  411.54    8.00
  -1   0  -5   -0.21    0.78
  -1   0  -5    0.19    0.94
   1   0   5   -0.38    1.00
  -1   0  -5   -1.15    0.74
   1   0   5   -1.18    0.84
   1   0   5   -2.12    1.06
   1   0   5   -0.50    0.91
   1   0   5   -1.12    0.86
   1   0   5   -0.27    0.82
  -1   0  -5    0.41    0.71
  -1   0  -5   -2.27    0.92
  -1   0  -5   -1.14    0.78
   1   0   6  529.48   10.57
  -1   0  -6  551.47   10.58
  -1   0  -6  557.63   10.76
   1   0   6  542.93   10.61
  -1   0  -6  547.02   10.61
  -1   0  -6  535.05   10.58
   1   0   6  562.81   10.84
  -1   0  -6  548.63   10.55
   1   0   6  541.84   10.59
   1   0   6  553.53   10.60
   1   0   6  545.77   10.80
  -1   0  -6  562.99   10.81
  -1   0  -7   -1.25    1.01
   1   0   7   -0.38    1.24
  -1   0  -7    0.46    1.12
  -1   0  -7   -0.42    1.15
   1   0   7   -0.89    1.06
  -1   0  -7    0.57    0.98
  -1   0  -7   -0.55    1.09
  -1   0  -7   -1.61    1.12
   1   0   7    1.05    1.35
   1   0   7   -0.51    1.36
   1   0   7   -0.16    1.07
   1   0   7   -0.33    1.22
  -1   0  -8    4.00    1.77
   1   0   8    2.20    1.43
  -1   0  -8    1.78    1.41
   1   0   8    4.98    1.72
  -1   0  -8    1.91    1.18
  -1   0  -8    3.32    1.33
   1   0   8    1.78    1.57
   1   0   8    3.29    1.32
  -1   0  -8    1.89    1.17
   1   0   8    1.45    1.39
   1   0   8    1.94    1.51
  -1   0  -8    2.48    1.27
  -1   0  -9   -1.19    1.44
  -1   0  -9    1.51    1.41
   1   0   9    1.32    1.71
   1   0   9   -1.38    1.57
  -1   0  -9   -2.94    1.64
   1   0   9   -0.54    1.63
  -1   0  -9    0.50    1.42
   1   0   9    0.59    1.85
  -1   0  -9    0.44    1.56
  -1   0  -9    1.71    1.50
   1   0   9   -4.78    1.86
   1   0   9    1.93    1.60
   1   0  10    7.59    2.15
  -1   0 -10   10.15    1.75
  -1   0 -10   12.51    2.02
  -1   0 -10   10.97    1.88
  -1   0 -10   14.30    2.20
   1   0  10   11.91    2.24
   1   0  10   11.84    2.02
   1   0  10   10.08    2.38
  -1   0 -10    9.26    1.95
   1   0  10   11.13    2.08
   1   0  10   10.34    2.32
  -1   0 -10    9.12    1.70
  -1   1  10    2.12    2.05
   1   1 -10    0.90    1.89
   1   1 -10   -0.18    1.73
   1   1 -10    0.94    1.78
  -1   1  10    2.62    2.24
  -1   1  10    1.23    2.05
  -1   1  10    2.64    1.83
   1   1 -10    4.47    1.72
   1   1 -10    0.24    1.57
  -1   1  10    0.95    1.97
  -1   1  10   -2.32    2.06
   1   1 -10    3.40    1.81
   1  -1 -10    1.81    2.29
   1  -1 -10    3.19    1.51
   1  -1 -10    0.99    1.80
  -1  -1  10    2.38    1.84
  -1  -1  10    2.05    2.09
  -1  -1  10    1.54    2.07
  -1  -1  10    3.93    1.96
   1  -1 -10    3.09    1.64
   1  -1 -10   -1.82    1.75
  -1  -1  10   -1.09    1.71
   1  -1 -10    0.14    1.84
   1   1  -9  142.86    4.32
  -1   1   9  153.98    4.40
   1   1  -9  142.79    4.01
  -1   1   9  141.59    4.63
   1   1  -9  140.57    4.09
  -1   1   9  140.72    4.23
   1   1  -9  142.23    4.40
  -1   1   9  143.10    4.74
   1   1  -9  141.92    4.08
  -1   1   9  142.76    4.41
  -1   1   9  137.18    4.40
   1   1  -9  145.57    4.17
  -1  -1   9  139.84    4.07
   1  -1  -9  133.26    4.27
   1  -1  -9  139.00    4.11
   1  -1  -9  141.63    4.14
  -1  -1   9  139.57    4.23
  -1  -1   9  138.53    4.52
   1  -1  -9  141.43    4.25
  -1  -1   9  139.78    4.19
   1  -1  -9  136.86    4.43
  -1  -1   9  136.95    4.54
  -1  -1   9  141.39    3.93
   1  -1  -9  141.19    4.47
   1   1  -8   78.31    3.12
   1   1  -8   77.26    2.83
  -1   1   8   76.17    3.21
   1   1  -8   75.36    2.75
   1   1  -8   80.00    3.07
   1   1  -8   75.05    2.83
   1   1  -8   80.91    2.91
  -1   1   8   80.85    2.95
  -1   1   8   80.02    3.35
  -1   1   8   75.60    3.19
  -1  -1   8   74.26    3.72
   1  -1  -8   78.71    3.01
  -1  -1   8   78.74    3.18
   1  -1  -8   73.63    4.44
   1  -1  -8   74.79    3.14
  -1  -1   8   77.97    2.88
   1  -1  -8   78.96    3.30
   1  -1  -8   77.76    2.92
  -1  -1   8   76.49    2.75
  -1  -1   8   67.00    3.26
  -1  -1   8   79.63    2.99
   1  -1  -8   84.36    2.98
   1   1  -7    1.17    1.11
  -1   1   7    1.00    1.26
  -1   1   7    2.43    1.30
  -1   1   7    0.23    1.09
   1   1  -7    1.31    1.00
   1   1  -7    2.09    1.02
  -1   1   7    1.03    1.05
   1   1  -7    2.05    1.16
   1   1  -7    1.50    1.08
  -1   1   7    1.26    1.21
   1   1  -7    1.50    1.21
  -1   1   7    2.16    1.07
   1  -1  -7    0.95    1.08
  -1  -1   7    0.03    1.37
  -1  -1   7   -0.66    1.15
   1  -1  -7    3.00    1.33
   1  -1  -7    2.54    1.06
   1  -1  -7    0.31    1.30
   1  -1  -7    1.12    1.09
  -1  -1   7    1.54    1.11
   1  -1  -7    0.05    1.06
  -1  -1   7    2.20    1.14
  -1  -1   7    1.19    1.05
  -1  -1   7    3.20    1.19
   1   1  -6   18.45    1.53
  -1   1   6   18.73    1.38
  -1   1   6   17.83    1.82
  -1   1   6   16.30    1.35
   1   1  -6   15.81    1.60
   1   1  -6   18.70    1.61
  -1   1   6   19.62    1.39
   1   1  -6   18.45    1.73
  -1   1   6   17.40    1.33
   1   1  -6   19.18    1.61
  -1   1   6   19.74    1.69
   1   1  -6   19.14    1.70
  -1  -1   6   17.67    1.29
   1  -1  -6   17.12    1.73
  -1  -1   6   17.16    1.60
   1  -1  -6   19.20    1.43
   1  -1  -6   22.29    1.44
  -1  -1   6   19.13    1.64
  -1  -1   6   17.42    1.71
   1  -1  -6   19.32    1.34
  -1  -1   6   15.55    1.32
   1  -1  -6   15.17    1.15
  -1  -1   6   16.44    1.50
   1  -1  -6   17.07    1.35
  -1   1   5  574.07   11.03
  -1   1   5  579.81   11.00
   1   1  -5  578.43   10.96
   1   1  -5  593.09   10.94
   1   1  -5  583.71   11.08
  -1   1   5  573.07   11.04
  -1   1   5  582.84   11.05
  -1   1   5  591.84   11.19
   1   1  -5  572.07   10.91
   1   1  -5  574.26   10.95
  -1   1   5  583.52   11.20
   1   1  -5  596.31   11.08
  -1  -1   5  564.75   10.93
   1  -1  -5  585.22   11.06
  -1  -1   5  578.14   11.09
  -1  -1   5  576.05   10.88
   1  -1  -5  591.01   11.22
  -1  -1   5  567.51   11.06
   1  -1  -5  572.09   11.00
   1  -1  -5  582.94   11.04
   1  -1  -5  571.08   11.01
   1  -1  -5  589.88   11.19
  -1  -1   5  580.55   10.88
  -1  -1   5  568.34   10.94
   1   1  -4  263.95    5.21
  -1   1   4  260.25    5.27
   1   1  -4  265.61    5.21
  -1   1   4  267.87    5.33
   1   1  -4  260.61    5.30
  -1   1   4  264.32    5.31
  -1   1   4  260.82    5.31
  -1   1   4  263.71    5.47
   1   1  -4  265.75    5.19
  -1   1   4  268.64    5.42
   1  -1  -4  272.54    5.45
  -1  -1   4  261.97    5.20
   1  -1  -4  264.61    5.32
   1  -1  -4  263.68    5.29
  -1  -1   4  257.50    5.14
   1  -1  -4  264.54    5.31
  -1  -1   4  260.37    5.32
  -1  -1   4  267.98    5.13
  -1  -1   4  260.27    5.19
   1  -1  -4  263.51    5.28
   1  -1  -4  269.26    5.46
   1   1  -3 1409.30   25.58
   1   1  -3 1364.90   25.82
  -1   1   3 1393.37   25.68
   1   1  -3 1394.77   25.58
  -1   1   3 1458.47   25.80
   1   1  -3 1417.97   25.66
  -1   1   3 1453.61   25.78
  -1   1   3 1398.42   25.66
  -1   1   3 1409.03   25.68
   1   1  -3 1410.00   25.59
   1   1  -3 1390.85   25.58
  -1   1   3 1414.34   25.69
  -1  -1   3 1396.63   25.58
  -1  -1   3 1402.11   25.53
   1  -1  -3 1398.95   25.68
   1  -1  -3 1415.01   25.78
   1  -1  -3 1414.72   25.77
  -1  -1   3 1362.95   25.57
  -1  -1   3 1421.31   25.66
   1  -1  -3 1400.40   25.67
   1  -1  -3 1393.28   25.66
  -1  -1   3 1413.52   25.54
  -1   1   2 1584.06   28.48
   1   1  -2 1583.21   28.45
  -1   1   2 1556.86   28.41
   1   1  -2 1599.42   28.36
  -1   1   2 1554.25   28.41
   1   1  -2 1573.66   28.41
  -1   1   2 1522.47   28.38
  -1   1   2 1620.70   28.49
   1   1  -2 1543.63   28.29
  -1   1   2 1518.41   28.39
   1   1  -2 1558.93   28.31
   1   1  -2 1586.07   28.46
   1  -1  -2 1579.47   28.48
  -1  -1   2 1617.02   28.31
  -1  -1   2 1634.91   28.37
   1  -1  -2 1574.58   28.41
  -1  -1   2 1498.15   28.42
  -1  -1   2 1552.36   28.35
   1  -1  -2 1510.74   28.38
   1  -1  -2 1551.91   28.40
   1  -1  -2 1517.04   28.39
  -1  -1   2 1541.45   28.33
   1  -1  -2 1595.88   28.48
  -1  -1   2 1518.23   28.25
  -1   1   1 5862.61  108.42
   1   1  -1 6086.49  108.14
  -1   1   1 5996.12  108.51
   1   1  -1 6027.51  108.09
  -1   1   1 5800.16  108.50
   1   1  -1 5850.71  107.94
  -1   1   1 5920.35  108.49
  -1   1   1 5960.68  108.73
   1   1  -1 5958.23  108.05
  -1   1   1 6003.19  108.73
  -1  -1   1 6064.77  108.09
   1  -1  -1 6101.84  108.70
   1  -1  -1 5981.37  108.41
   1  -1  -1 5812.19  108.40
  -1  -1   1 5984.61  107.96
  -1  -1   1 5965.66  108.07
   1  -1  -1 5990.16  108.49
   1  -1  -1 5863.53  108.45
   1  -1  -1 6075.95  108.77
   1   1   0  211.83    4.02
   1   1   0  213.31    3.98
  -1   1   0  212.21    4.08
  -1   1   0  213.93    4.14
  -1   1   0  214.75    4.07
   1   1   0  207.83    3.98
   1   1   0  219.35    4.02
   1   1   0  214.97    3.96
  -1   1   0  211.75    4.08
  -1   1   0  210.88    4.07
  -1   1   0  218.64    4.15
   1  -1   0  210.98    4.07
   1  -1   0  212.32    4.08
  -1  -1   0  215.69    4.02
   1  -1   0  218.37    4.07
   1  -1   0  209.04    4.06
  -1  -1   0  214.75    4.02
  -1  -1   0  213.22    3.98
   1  -1   0  217.17    4.14
  -1   1  -1 8825.79  161.65
   1   1   1 8636.34  161.96
   1   1   1 9046.42  161.74
   1   1   1 8943.55  161.48
   1   1   1 8840.34  161.46
  -1   1  -1 9124.12  161.92
   1   1   1 9006.50  161.50
   1   1   1 8940.27  161.43
  -1   1  -1 8940.85  161.64
  -1   1  -1 8598.92  161.54
  -1   1  -1 9233.78  162.04
  -1   1  -1 8677.16  161.56
  -1  -1  -1 8929.82  161.46
  -1  -1  -1 9227.25  161.79
   1  -1   1 8835.32  161.46
   1  -1   1 8843.10  161.59
  -1  -1  -1 9154.36  161.41
   1  -1   1 8567.29  161.53
   1  -1   1 8833.57  161.52
  -1  -1  -1 9090.16  161.40
   1  -1   1 8939.75  161.87
  -1  -1  -1 8808.74  161.40
   1   1   2  712.14   13.25
   1   1   2  728.66   13.28
   1   1   2  733.73   13.36
  -1   1  -2  729.11   13.27
  -1   1  -2  721.79   13.34
   1   1   2  723.18   13.34
  -1   1  -2  720.06   13.26
  -1   1  -2  699.65   13.25
   1   1   2  718.08   13.28
   1   1   2  705.49   13.26
  -1   1  -2  728.98   13.34
  -1   1  -2  699.35   13.26
  -1  -1  -2  712.50   13.26
  -1  -1  -2  724.95   13.27
   1  -1   2  712.69   13.25
  -1  -1  -2  728.86   13.27
   1  -1   2  725.89   13.33
   1  -1   2  719.41   13.25
   1  -1   2  720.62   13.27
  -1  -1  -2  738.81   13.35
   1  -1   2  734.17   13.35
   1  -1   2  721.74   13.25
  -1  -1  -2  722.78   13.27
  -1  -1  -2  737.17   13.35
   1   1   3   88.22    2.18
  -1   1  -3   92.44    2.17
  -1   1  -3   88.39    2.18
   1   1   3   91.62    2.33
  -1   1  -3   89.16    2.17
  -1   1  -3   94.93    2.31
   1   1   3   91.07    2.28
   1   1   3   94.91    2.38
  -1   1  -3   95.12    2.31
  -1   1  -3   85.66    2.13
   1   1   3   91.64    2.25
   1   1   3   86.24    2.26
  -1  -1  -3   91.05    2.22
  -1  -1  -3   90.00    2.25
   1  -1   3   97.23    2.16
   1  -1   3   96.44    2.30
   1  -1   3   90.71    2.34
   1  -1   3   87.17    2.19
  -1  -1  -3   91.73    2.25
  -1  -1  -3   89.14    2.22
   1  -1   3   90.91    2.16
   1  -1   3   86.47    2.17
  -1  -1  -3   92.83    2.35
   1   1   4  109.02    2.84
  -1   1  -4  104.77    2.58
  -1   1  -4  107.10    2.59
  -1   1  -4  107.01    2.54
   1   1   4  105.27    2.69
   1   1   4  105.68    2.76
   1   1   4  110.00    2.64
  -1   1  -4  108.26    2.60
  -1   1  -4  107.17    2.76
  -1   1  -4  109.55    2.76
   1   1   4  104.13    2.60
   1   1   4  106.47    2.66
   1  -1   4  105.79    2.71
   1  -1   4  108.46    2.76
  -1  -1  -4  109.79    2.79
  -1  -1  -4  107.16    2.65
   1  -1   4  108.29    2.55
   1  -1   4  105.67    2.57
  -1  -1  -4  106.38    2.64
   1  -1   4  103.99    2.57
  -1  -1  -4  109.67    2.66
   1  -1   4  108.19    2.61
  -1  -1  -4  107.51    2.80
  -1  -1  -4  108.90    2.63
  -1   1  -5   58.73    1.89
   1   1   5   51.58    2.09
  -1   1  -5   59.13    2.19
   1   1   5   54.33    2.14
  -1   1  -5   60.45    2.18
  -1   1  -5   55.98    2.00
  -1   1  -5   58.04    2.01
   1   1   5   55.89    2.29
   1   1   5   59.59    2.19
  -1   1  -5   56.58    1.99
  -1  -1  -5   55.13    2.05
   1  -1   5   56.73    2.20
   1  -1   5   54.55    1.99
  -1  -1  -5   55.07    2.04
  -1  -1  -5   53.89    2.06
  -1  -1  -5   56.36    2.26
   1  -1   5   58.01    2.14
   1  -1   5   57.77    2.01
   1  -1   5   59.07    1.93
   1  -1   5   56.33    1.97
  -1  -1  -5   56.72    2.20
  -1  -1  -5   54.49    2.02
  -1   1  -6  161.39    3.82
  -1   1  -6  160.02    3.72
   1   1   6  163.15    3.83
  -1   1  -6  156.02    3.78
   1   1   6  161.73    4.13
   1   1   6  163.13    3.93
  -1   1  -6  165.64    4.01
   1   1   6  157.16    3.90
   1   1   6  153.99    3.89
  -1  -1  -6  161.10    3.81
  -1  -1  -6  163.37    3.84
  -1  -1  -6  159.08    4.02
   1  -1   6  157.95    3.78
   1  -1   6  158.27    3.84
   1  -1   6  158.45    3.71
  -1  -1  -6  161.35    3.85
  -1  -1  -6  161.33    3.83
   1  -1   6  163.51    3.81
  -1  -1  -6  161.18    4.05
   1  -1   6  162.78    4.04
   1  -1   6  158.94    3.98
   1   1   7   65.72    2.54
   1   1   7   62.91    2.78
  -1   1  -7   65.04    2.39
  -1   1  -7   64.23    2.70
  -1   1  -7   61.47    2.51
   1   1   7   65.96    2.80
  -1   1  -7   67.79    2.60
  -1   1  -7   66.43    2.79
   1   1   7   64.61    2.93
   1   1   7   66.61    2.98
   1   1   7   68.43    2.73
  -1   1  -7   63.67    2.52
  -1  -1  -7   66.58    2.82
  -1  -1  -7   66.73    2.64
  -1  -1  -7   64.46    2.54
   1  -1   7   66.16    2.46
   1  -1   7   67.93    2.82
   1  -1   7   65.76    2.60
  -1  -1  -7   67.17    2.65
   1  -1   7   65.05    2.62
  -1  -1  -7   69.59    2.59
  -1  -1  -7   69.98    2.84
   1  -1   7   67.06    2.64
   1  -1   7   68.40    2.92
   1   1   8    2.78    1.64
   1   1   8    8.23    1.52
  -1   1  -8    7.47    1.43
  -1   1  -8    7.05    1.61
   1   1   8    8.39    1.79
   1   1   8    3.85    1.41
  -1   1  -8    7.21    1.27
  -1   1  -8    6.99    1.39
   1   1   8    6.50    1.64
   1   1   8    6.54    1.93
  -1   1  -8    8.09    1.48
   1  -1   8    9.52    1.42
   1  -1   8    9.11    1.78
  -1  -1  -8    6.37    1.63
  -1  -1  -8    6.83    1.52
   1  -1   8    7.85    1.55
  -1  -1  -8    8.05    1.56
   1  -1   8    7.46    1.59
  -1  -1  -8    6.49    1.45
  -1  -1  -8   10.76    1.55
  -1  -1  -8    7.48    1.28
   1  -1   8    8.18    1.63
   1  -1   8    8.86    1.64
  -1   1  -9   76.32    3.18
  -1   1  -9   75.26    3.50
  -1   1  -9   84.46    3.36
   1   1   9   80.92    3.96
   1   1   9   80.27    3.98
   1   1   9   77.33    3.65
   1   1   9   74.30    3.81
  -1   1  -9   81.61    3.36
  -1   1  -9   70.01    3.72
   1   1   9   77.72    3.56
   1   1   9   76.09    3.61
  -1   1  -9   80.62    3.33
   1  -1   9   78.59    3.60
   1  -1   9   82.58    3.18
   1  -1   9   80.04    3.42
  -1  -1  -9   80.47    3.41
  -1  -1  -9   80.57    3.59
   1  -1   9   80.84    3.84
  -1  -1  -9   78.34    3.49
  -1  -1  -9   81.85    3.76
  -1  -1  -9   83.26    3.36
  -1  -1  -9   76.05    3.39
   1  -1   9   69.53    4.14
   1  -1   9   77.41    3.94
   1   1  10    6.10    2.15
  -1   1 -10    3.98    1.72
  -1   1 -10    4.13    1.79
  -1   1 -10    3.98    1.94
   1   1  10    8.70    2.52
   1   1  10    5.28    2.35
   1   1  10    3.41    2.09
   1   1  10    6.69    2.18
  -1   1 -10    4.25    1.99
  -1   1 -10    7.07    1.86
  -1   1 -10    2.17    1.61
   1   1  10    4.70    2.02
  -1  -1 -10    6.03    2.17
   1  -1  10    4.21    2.01
  -1  -1 -10    9.31    1.93
   1  -1  10    2.67    2.44
  -1  -1 -10    3.75    1.67
  -1  -1 -10    3.14    1.98
  -1  -1 -10    5.40    1.80
   1  -1  10    2.23    1.93
   1  -1  10    5.71    1.89
  -1  -1 -10    5.34    1.90
   1  -1  10    3.40    2.10
   1  -1  10    8.71    2.39
   1   2 -10    2.50    1.95
  -1   2  10   -3.72    2.61
   1   2 -10   -3.15    1.78
  -1   2  10   -0.01    2.03
   1   2 -10   -1.42    1.75
  -1   2  10   -1.13    1.99
  -1   2  10    0.63    2.92
   1   2 -10   -0.85    1.67
   1   2 -10    4.47    1.86
  -1   2  10    1.46    2.02
  -1   2  10    2.08    2.15
   1   2 -10    2.78    1.69
   1  -2 -10   -1.93    1.77
  -1  -2  10    4.53    2.11
   1  -2 -10   -0.89    2.06
   1  -2 -10    2.48    1.94
  -1  -2  10    0.87    2.12
  -1  -2  10   -0.65    2.16
  -1  -2  10    0.48    1.58
   1  -2 -10    2.98    1.82
  -1  -2  10    0.36    1.72
   1  -2 -10   -1.31    2.08
  -1  -2  10    2.28    2.03
   1  -2 -10   -1.14    1.76
   1   2  -9    5.59    1.58
   1   2  -9    4.82    1.72
   1   2  -9    4.41    1.50
  -1   2   9    2.85    1.71
   1   2  -9    8.16    1.65
  -1   2   9    5.77    2.02
   1   2  -9    4.27    1.66
  -1   2   9    4.46    1.86
  -1   2   9    1.48    2.16
   1   2  -9    3.87    1.55
  -1   2   9    7.77    2.07
  -1  -2   9    5.44    1.69
  -1  -2   9    4.06    1.53
   1  -2  -9    7.15    1.63
  -1  -2   9    4.62    1.99
   1  -2  -9    6.83    1.87
  -1  -2   9    3.60    1.41
   1  -2  -9    4.45    1.91
   1  -2  -9    6.61    2.43
  -1  -2   9    5.88    2.04
  -1  -2   9    3.79    1.79
   1  -2  -9    6.06    1.66
   1  -2  -9    6.97    1.53
  -1   2   8  260.73    6.07
   1   2  -8  261.37    5.73
   1   2  -8  249.91    5.98
  -1   2   8  224.10    7.09
   1   2  -8  254.33    5.77
  -1   2   8  265.14    6.00
  -1   2   8  261.17    6.25
  -1   2   8  256.07    6.34
   1   2  -8  256.12    5.76
   1   2  -8  259.73    5.99
   1   2  -8  256.69    5.86
  -1   2   8  259.22    6.14
   1  -2  -8  250.56    5.98
  -1  -2   8  260.55    5.91
   1  -2  -8  250.27    6.20
   1  -2  -8  258.16    6.30
  -1  -2   8  248.73    5.56
   1  -2  -8  257.78    5.94
  -1  -2   8  255.62    6.13
   1  -2  -8  255.67    5.93
  -1  -2   8  245.29    5.98
  -1  -2   8  260.41    5.80
   1  -2  -8  244.32    6.22
  -1  -2   8  266.58    5.50
  -1   2   7   14.19    1.92
   1   2  -7   11.11    1.29
  -1   2   7    8.35    1.50
  -1   2   7    8.65    1.43
   1   2  -7   11.53    1.42
   1   2  -7   10.17    1.39
  -1   2   7   10.19    1.66
   1   2  -7   11.91    1.36
   1   2  -7   10.28    1.29
  -1   2   7   10.17    1.45
  -1   2   7    9.03    1.35
   1   2  -7   12.79    1.27
  -1  -2   7    9.15    1.52
  -1  -2   7   11.83    1.14
  -1  -2   7   10.73    1.55
  -1  -2   7   10.83    1.46
   1  -2  -7   11.53    1.71
   1  -2  -7    9.58    1.49
   1  -2  -7    8.01    1.43
  -1  -2   7    9.81    1.24
  -1  -2   7    8.97    1.31
   1  -2  -7   10.29    1.31
   1  -2  -7   10.95    1.41
   1  -2  -7   10.39    1.45
   1   2  -6   13.77    1.15
  -1   2   6   12.26    1.40
  -1   2   6   14.75    1.50
  -1   2   6   11.90    1.41
   1   2  -6   12.06    1.20
   1   2  -6   12.24    1.29
   1   2  -6   11.90    1.14
  -1   2   6   13.39    1.36
  -1   2   6   13.18    1.20
  -1   2   6   15.73    1.54
   1   2  -6   11.51    1.32
   1  -2  -6   11.98    1.42
  -1  -2   6   11.51    1.36
   1  -2  -6   11.12    1.32
  -1  -2   6   11.71    1.28
   1  -2  -6   13.40    1.25
   1  -2  -6   13.04    1.31
   1  -2  -6   14.18    1.46
  -1  -2   6   15.43    1.24
   1  -2  -6   11.97    1.19
  -1  -2   6   13.98    1.35
  -1  -2   6   10.85    1.04
  -1   2   5    9.46    1.07
  -1   2   5   10.16    1.45
   1   2  -5    9.42    0.95
  -1   2   5   10.79    1.31
   1   2  -5    9.22    0.96
   1   2  -5    9.50    1.04
  -1   2   5    8.52    1.18
   1   2  -5    9.84    0.98
   1   2  -5    9.85    0.95
   1   2  -5    9.80    1.13
  -1   2   5    9.47    1.13
  -1   2   5   10.10    1.11
   1  -2  -5    8.79    1.16
   1  -2  -5    9.32    1.17
   1  -2  -5   10.07    1.25
  -1  -2   5    8.44    0.99
   1  -2  -5   10.19    1.07
   1  -2  -5    8.90    1.08
  -1  -2   5   11.55    1.16
  -1  -2   5    9.47    1.13
  -1  -2   5    8.86    0.81
  -1  -2   5    8.85    0.94
   1  -2  -5    8.97    1.08
  -1   2   4   24.26    1.61
   1   2  -4   25.99    1.47
   1   2  -4   25.38    1.34
   1   2  -4   25.58    1.37
   1   2  -4   26.41    1.49
  -1   2   4   25.22    1.59
   1   2  -4   26.46    1.33
  -1   2   4   25.54    1.64
  -1   2   4   22.74    1.85
   1   2  -4   24.10    1.31
  -1   2   4   26.24    1.75
  -1   2   4   25.02    1.71
  -1  -2   4   24.84    1.44
   1  -2  -4   25.12    1.64
   1  -2  -4   26.44    1.66
  -1  -2   4   26.43    1.16
   1  -2  -4   25.10    1.71
   1  -2  -4   25.95    1.58
  -1  -2   4   24.67    1.28
  -1  -2   4   26.84    1.10
   1  -2  -4   24.01    1.60
  -1  -2   4   25.23    1.39
  -1  -2   4   24.13    1.52
   1  -2  -4   23.21    1.70
   1   2  -3  188.04    3.85
   1   2  -3  180.67    3.72
  -1   2   3  188.38    4.06
   1   2  -3  182.41    3.74
   1   2  -3  187.77    3.84
  -1   2   3  184.04    3.98
   1   2  -3  188.94    3.74
  -1   2   3  186.25    4.11
  -1   2   3  181.17    3.90
   1   2  -3  181.16    3.74
  -1   2   3  187.74    3.97
  -1   2   3  181.08    3.95
   1  -2  -3  186.37    4.07
   1  -2  -3  179.11    3.90
  -1  -2   3  183.21    3.74
  -1  -2   3  189.80    3.85
   1  -2  -3  186.69    4.07
   1  -2  -3  181.28    3.93
  -1  -2   3  187.45    3.85
  -1  -2   3  183.35    3.72
   1  -2  -3  183.08    3.90
   1  -2  -3  185.38    3.91
  -1   2   2  638.14   12.13
   1   2  -2  671.95   12.06
  -1   2   2  668.67   12.24
   1   2  -2  636.69   11.95
   1   2  -2  643.90   11.96
   1   2  -2  664.83   12.05
  -1   2   2  645.16   12.14
  -1   2   2  640.86   12.09
   1   2  -2  642.29   11.95
  -1   2   2  643.26   12.11
   1   2  -2  641.86   11.96
  -1   2   2  655.60   12.24
  -1  -2   2  652.63   11.96
   1  -2  -2  653.89   12.23
   1  -2  -2  632.04   12.09
  -1  -2   2  666.58   12.04
  -1  -2   2  634.45   11.95
   1  -2  -2  649.89   12.09
  -1  -2   2  646.49   12.03
   1  -2  -2  657.45   12.23
   1  -2  -2  659.01   12.11
   1  -2  -2  643.88   12.11
  -1   2   1  102.84    2.46
   1   2  -1  100.81    2.27
   1   2  -1   93.16    2.15
   1   2  -1   97.72    2.17
  -1   2   1  100.68    2.35
   1   2  -1   99.88    2.27
  -1   2   1  100.19    2.33
  -1   2   1   99.43    2.36
   1   2  -1   96.94    2.13
  -1   2   1  101.33    2.44
   1   2  -1   96.35    2.14
  -1   2   1   98.70    2.35
   1  -2  -1   98.45    2.35
   1  -2  -1  102.55    2.46
   1  -2  -1  100.98    2.29
  -1  -2   1  100.11    2.24
  -1  -2   1   98.78    2.25
   1  -2  -1  100.22    2.36
   1  -2  -1   98.48    2.29
   1  -2  -1  100.45    2.43
  -1  -2   1   99.01    2.16
  -1   2   0   17.07    1.26
   1   2   0   18.20    1.02
   1   2   0   18.16    1.09
  -1   2   0   16.29    1.17
   1   2   0   17.43    1.11
  -1   2   0   16.50    1.19
   1   2   0   19.01    1.02
   1   2   0   18.46    1.06
  -1   2   0   20.33    1.13
  -1   2   0   18.23    1.28
  -1   2   0   18.53    1.21
   1  -2   0   16.09    1.17
   1  -2   0   15.80    1.23
  -1  -2   0   18.88    1.05
  -1  -2   0   17.13    0.98
   1  -2   0   16.40    1.09
   1  -2   0   17.30    1.10
   1  -2   0   17.48    1.29
  -1  -2   0   18.36    1.13
  -1  -2   0   19.18    1.14
   1   2   1 1357.96   24.51
  -1   2  -1 1341.07   24.52
  -1   2  -1 1313.83   24.52
  -1   2  -1 1386.50   24.62
  -1   2  -1 1315.65   24.52
   1   2   1 1335.07   24.48
   1   2   1 1301.85   24.48
  -1   2  -1 1396.61   24.63
   1   2   1 1397.14   24.59
  -1   2  -1 1323.34   24.51
   1   2   1 1362.92   24.51
   1   2   1 1257.13   24.77
   1  -2   1 1338.36   24.52
  -1  -2  -1 1345.18   24.49
   1  -2   1 1320.96   24.51
   1  -2   1 1354.07   24.61
   1  -2   1 1349.73   24.46
   1  -2   1 1338.11   24.47
  -1  -2  -1 1345.53   24.41
  -1  -2  -1 1370.42   24.57
  -1  -2  -1 1358.19   24.49
  -1  -2  -1 1359.97   24.43
  -1   2  -2   26.43    1.25
  -1   2  -2   26.20    1.32
   1   2   2   30.15    1.35
   1   2   2   26.97    1.39
  -1   2  -2   29.04    1.39
   1   2   2   27.99    1.29
   1   2   2   27.88    1.38
   1   2   2   27.11    1.45
  -1   2  -2   26.10    1.28
   1   2   2   27.93    1.37
  -1   2  -2   28.68    1.45
  -1   2  -2   24.67    1.26
  -1  -2  -2   27.98    1.27
   1  -2   2   25.52    1.19
   1  -2   2   25.51    1.23
  -1  -2  -2   27.52    1.32
   1  -2   2   26.56    1.29
  -1  -2  -2   26.21    1.20
   1  -2   2   23.80    1.32
  -1  -2  -2   26.32    1.32
   1  -2   2   26.85    1.44
  -1  -2  -2   29.35    1.40
   1   2   3    7.58    1.09
   1   2   3    8.43    0.92
  -1   2  -3    5.88    0.77
  -1   2  -3    7.86    0.96
  -1   2  -3    6.64    0.79
   1   2   3    6.84    0.90
   1   2   3    5.89    0.87
   1   2   3    5.23    0.79
   1   2   3    4.81    0.88
  -1   2  -3    5.35    0.80
  -1   2  -3    6.87    0.85
  -1   2  -3    5.57    0.89
   1  -2   3    6.37    0.76
   1  -2   3    6.14    0.81
  -1  -2  -3    6.37    0.82
   1  -2   3    5.51    0.81
  -1  -2  -3    7.78    0.81
  -1  -2  -3    7.36    0.87
  -1  -2  -3    7.40    0.88
  -1  -2  -3    7.07    0.99
   1  -2   3    6.18    0.81
   1  -2   3    4.92    0.90
  -1  -2  -3    5.29    0.98
  -1   2  -4   84.81    2.32
  -1   2  -4   86.38    2.30
   1   2   4   85.83    2.47
   1   2   4   85.31    2.54
   1   2   4   81.82    2.43
   1   2   4   87.23    2.46
   1   2   4   82.82    2.36
  -1   2  -4   85.61    2.33
  -1   2  -4   85.35    2.47
  -1   2  -4   83.72    2.30
   1   2   4   86.92    2.65
  -1   2  -4   83.39    2.42
  -1  -2  -4   84.69    2.37
   1  -2   4   84.82    2.44
  -1  -2  -4   85.55    2.39
  -1  -2  -4   86.71    2.57
  -1  -2  -4   85.39    2.43
   1  -2   4   89.24    2.30
   1  -2   4   87.55    2.23
  -1  -2  -4   85.44    2.55
   1  -2   4   85.17    2.28
  -1  -2  -4   85.07    2.39
   1  -2   4   84.61    2.36
   1  -2   4   84.18    2.49
  -1   2  -5   92.97    2.56
  -1   2  -5   91.75    2.70
   1   2   5   91.61    2.96
   1   2   5   92.34    2.67
   1   2   5   91.22    2.83
  -1   2  -5   89.16    2.54
   1   2   5   88.08    2.73
  -1   2  -5   89.15    2.57
  -1   2  -5   94.85    2.55
   1   2   5   88.44    2.74
   1   2   5   91.65    2.70
  -1   2  -5   92.04    2.74
   1  -2   5   88.96    2.70
  -1  -2  -5   91.24    2.67
   1  -2   5   90.89    2.42
  -1  -2  -5   85.78    2.62
   1  -2   5   89.09    2.76
  -1  -2  -5   91.68    2.66
   1  -2   5   87.13    2.54
   1  -2   5   94.29    2.53
  -1  -2  -5   90.42    2.81
   1  -2   5   88.01    2.59
  -1  -2  -5   92.72    2.63
  -1  -2  -5   91.88    2.87
   1   2   6   21.27    1.92
   1   2   6   24.48    1.98
  -1   2  -6   20.69    1.88
  -1   2  -6   23.78    2.05
  -1   2  -6   25.13    1.99
   1   2   6   22.82    2.19
   1   2   6   21.63    2.25
   1   2   6   21.46    2.11
  -1   2  -6   23.17    1.83
  -1   2  -6   23.66    1.99
  -1   2  -6   22.99    1.93
   1   2   6   22.40    2.15
   1  -2   6   22.11    1.70
  -1  -2  -6   22.37    1.99
   1  -2   6   22.99    1.90
  -1  -2  -6   22.10    1.96
   1  -2   6   24.00    2.10
   1  -2   6   22.80    1.77
  -1  -2  -6   24.42    1.80
   1  -2   6   22.76    2.02
   1  -2   6   25.42    1.97
  -1  -2  -6   23.08    1.53
  -1  -2  -6   24.76    1.97
  -1  -2  -6   21.40    2.12
   1   2   7  253.70    6.22
   1   2   7  264.24    5.90
  -1   2  -7  267.82    6.00
  -1   2  -7  255.21    5.79
   1   2   7  265.18    6.08
  -1   2  -7  264.36    5.75
   1   2   7  260.27    5.96
  -1   2  -7  262.33    5.70
   1   2   7  263.55    5.83
  -1   2  -7  267.10    6.05
  -1   2  -7  260.98    5.76
  -1  -2  -7  244.66    6.24
  -1  -2  -7  259.87    6.15
   1  -2   7  258.98    5.77
  -1  -2  -7  265.77    6.10
   1  -2   7  255.39    6.02
   1  -2   7  243.87    6.40
  -1  -2  -7  259.15    5.88
  -1  -2  -7  264.17    5.85
   1  -2   7  264.17    5.69
   1  -2   7  253.94    6.12
   1  -2   7  266.63    5.60
  -1  -2  -7  262.81    5.78
  -1   2  -8   -1.29    1.55
   1   2   8    0.53    1.61
  -1   2  -8    0.62    1.37
   1   2   8   -0.73    1.57
  -1   2  -8    1.37    1.45
   1   2   8   -1.76    1.67
  -1   2  -8    0.15    1.32
  -1   2  -8    1.03    1.52
   1   2   8    2.29    1.55
  -1  -2  -8    1.95    1.45
  -1  -2  -8    1.29    1.55
   1  -2   8   -0.28    1.57
   1  -2   8   -0.76    1.84
  -1  -2  -8    0.55    1.48
   1  -2   8    1.25    1.32
  -1  -2  -8    0.40    1.60
  -1  -2  -8   -0.37    1.50
  -1  -2  -8    0.91    1.62
   1  -2   8    1.12    1.43
   1  -2   8    2.48    1.74
   1  -2   8    1.70    1.46
   1   2   9   15.20    2.30
   1   2   9   14.16    3.65
  -1   2  -9   14.04    1.80
   1   2   9   14.09    1.97
   1   2   9   18.19    2.23
  -1   2  -9   14.14    1.86
  -1   2  -9   14.20    1.83
  -1   2  -9   16.12    1.79
   1   2   9   14.53    2.00
  -1   2  -9   19.36    2.19
  -1   2  -9   13.79    2.14
   1   2   9   19.99    2.62
  -1  -2  -9   17.51    2.03
  -1  -2  -9   15.95    2.01
   1  -2   9   16.07    1.77
   1  -2   9   10.75    2.19
   1  -2   9   16.30    2.12
  -1  -2  -9   12.98    2.35
   1  -2   9   14.55    1.94
   1  -2   9   13.65    1.90
   1  -2   9   12.62    2.27
  -1  -2  -9   15.51    1.81
  -1  -2  -9   14.21    1.89
  -1  -2  -9   14.28    1.88
  -1   2 -10    8.96    2.20
   1   2  10    6.88    2.96
  -1   2 -10    3.89    1.96
   1   2  10    5.92    2.14
  -1   2 -10    3.83    2.14
  -1   2 -10    5.53    3.28
   1   2  10    0.96    2.82
   1   2  10    7.02    2.36
   1   2  10    5.67    2.34
  -1   2 -10    3.05    1.94
  -1   2 -10    2.38    1.95
   1   2  10    2.25    2.28
   1  -2  10    9.99    2.30
   1  -2  10    8.46    2.08
  -1  -2 -10    4.33    1.92
   1  -2  10    3.21    1.81
   1  -2  10    6.49    2.27
  -1  -2 -10    9.00    2.19
  -1  -2 -10    8.41    2.37
   1  -2  10    5.40    2.62
   1  -2  10    4.84    2.63
  -1  -2 -10    2.90    1.85
  -1  -2 -10    3.45    2.10
  -1  -2 -10    3.95    2.18
   1   3  -9    3.70    1.74
  -1   3   9    0.80    1.88
   1   3  -9    2.06    1.77
  -1   3   9    1.48    2.04
   1   3  -9    3.47    1.71
  -1   3   9    0.82    2.01
   1   3  -9    1.44    1.74
  -1   3   9    5.00    2.01
   1   3  -9    3.33    1.78
  -1   3   9    0.98    2.16
  -1   3   9    0.91    2.08
   1   3  -9    3.60    1.87
   1  -3  -9    4.76    1.77
   1  -3  -9    9.95    2.03
   1  -3  -9    2.07    1.80
  -1  -3   9    1.24    1.96
  -1  -3   9   -0.16    2.19
   1  -3  -9    0.40    1.82
  -1  -3   9    2.49    1.99
   1  -3  -9    0.82    2.32
   1  -3  -9    2.17    1.78
   1   3  -8   35.77    2.75
   1   3  -8   31.08    2.79
  -1   3   8   32.66    3.20
   1   3  -8   31.85    2.89
   1   3  -8   21.97    3.42
   1   3  -8   36.65    2.81
  -1   3   8   30.59    2.17
  -1   3   8   34.21    2.54
  -1   3   8   37.07    3.40
   1   3  -8   36.18    2.65
  -1   3   8   32.97    3.10
  -1   3   8   33.07    3.34
   1  -3  -8   35.93    3.11
  -1  -3   8   36.23    3.07
  -1  -3   8   29.26    2.32
   1  -3  -8   34.71    2.65
  -1  -3   8   34.94    2.91
   1  -3  -8   43.08    2.78
   1  -3  -8   35.24    3.18
   1  -3  -8   35.51    3.01
   1  -3  -8   37.60    3.17
   1   3  -7    4.09    1.33
   1   3  -7    3.65    1.47
  -1   3   7    3.30    1.69
  -1   3   7    5.59    1.65
  -1   3   7    2.53    1.49
  -1   3   7    5.65    1.62
   1   3  -7    5.50    1.42
   1   3  -7    2.22    1.35
  -1   3   7    5.00    1.78
  -1   3   7    3.65    1.80
   1  -3  -7    5.37    1.56
   1  -3  -7    3.28    1.44
  -1  -3   7    6.02    1.54
   1  -3  -7    4.84    1.44
  -1  -3   7    3.16    1.66
   1  -3  -7    3.26    1.54
   1  -3  -7    3.83    1.75
  -1  -3   7    5.57    1.40
  -1  -3   7    4.86    1.51
   1  -3  -7    4.27    1.54
  -1   3   6   72.44    3.23
   1   3  -6   75.08    3.53
  -1   3   6   77.04    3.08
  -1   3   6   65.42    3.91
  -1   3   6   78.02    3.52
   1   3  -6   80.77    2.61
   1   3  -6   74.33    2.62
  -1   3   6   74.47    3.09
   1   3  -6   72.51    2.79
   1   3  -6   74.84    2.60
   1   3  -6   78.06    2.67
  -1   3   6   77.39    3.07
   1  -3  -6   80.69    2.79
   1  -3  -6   75.73    2.96
  -1  -3   6   77.51    2.74
   1  -3  -6   78.13    2.94
   1  -3  -6   74.26    2.97
  -1  -3   6   75.01    2.94
   1  -3  -6   77.19    3.28
   1  -3  -6   73.34    3.11
  -1  -3   6   78.15    2.61
  -1  -3   6   80.45    2.89
   1   3  -5  186.11    4.01
   1   3  -5  176.34    4.02
  -1   3   5  173.31    4.38
   1   3  -5  171.21    4.18
   1   3  -5  178.00    4.16
  -1   3   5  179.73    4.32
  -1   3   5  181.14    4.41
   1   3  -5  178.10    3.98
  -1   3   5  181.90    4.44
   1   3  -5  176.93    4.06
  -1   3   5  180.46    4.50
  -1   3   5  179.42    4.57
   1  -3  -5  177.17    4.34
  -1  -3   5  171.15    4.23
   1  -3  -5  179.00    4.21
  -1  -3   5  175.31    3.99
   1  -3  -5  177.19    4.52
   1  -3  -5  181.68    4.30
   1  -3  -5  177.20    4.55
  -1  -3   5  175.89    4.16
  -1  -3   5  181.27    4.05
   1  -3  -5  176.53    4.30
  -1   3   4    6.25    1.15
  -1   3   4    7.32    1.08
   1   3  -4    7.66    0.98
   1   3  -4    8.56    1.05
   1   3  -4    7.51    0.99
  -1   3   4    9.72    1.41
  -1   3   4   10.87    1.36
   1   3  -4    8.50    0.95
  -1   3   4    9.19    1.33
   1   3  -4    9.12    1.14
  -1   3   4    8.13    1.20
   1   3  -4    9.86    1.09
  -1  -3   4    8.45    1.12
  -1  -3   4    8.23    1.14
  -1  -3   4   10.83    0.97
   1  -3  -4    6.73    1.32
   1  -3  -4    9.51    1.15
   1  -3  -4    8.30    1.17
   1  -3  -4    6.08    1.09
  -1  -3   4    7.61    1.01
   1  -3  -4   10.15    1.36
   1  -3  -4    8.68    1.17
  -1   3   3    1.75    0.96
   1   3  -3    0.62    0.70
   1   3  -3    0.59    0.87
   1   3  -3    0.19    0.76
  -1   3   3    0.22    0.97
   1   3  -3    0.15    0.85
  -1   3   3    0.96    1.09
  -1   3   3    0.62    1.09
   1   3  -3   -0.87    0.84
  -1   3   3    1.13    1.00
   1   3  -3   -0.27    0.78
  -1   3   3   -0.69    0.84
   1  -3  -3    0.32    1.07
  -1  -3   3   -0.24    0.93
   1  -3  -3    1.73    0.99
  -1  -3   3    0.00    0.76
  -1  -3   3   -0.25    0.76
  -1  -3   3    0.21    0.89
   1  -3  -3    0.83    0.85
   1  -3  -3    0.16    0.97
   1  -3  -3    1.50    1.08
   1   3  -2  328.59    6.38
   1   3  -2  311.75    6.25
   1   3  -2  314.57    6.30
  -1   3   2  324.70    6.52
  -1   3   2  322.36    6.62
  -1   3   2  324.00    6.44
   1   3  -2  322.29    6.26
   1   3  -2  333.28    6.39
   1   3  -2  324.88    6.25
  -1   3   2  323.36    6.48
  -1   3   2  314.57    6.49
  -1   3   2  333.82    6.64
   1  -3  -2  324.48    6.36
  -1  -3   2  325.73    6.36
   1  -3  -2  315.27    6.45
   1  -3  -2  322.87    6.35
   1  -3  -2  318.73    6.60
  -1  -3   2  320.23    6.36
  -1  -3   2  313.08    6.23
   1  -3  -2  330.23    6.62
  -1  -3   2  331.67    6.26
   1  -3  -2  322.48    6.46
  -1   3   1   -0.76    0.83
  -1   3   1   -1.62    0.82
   1   3  -1    0.66    0.76
   1   3  -1    1.36    0.70
   1   3  -1    1.19    0.79
  -1   3   1    0.57    0.84
   1   3  -1    0.61    0.71
   1   3  -1    0.64    0.73
  -1   3   1   -0.01    0.85
  -1   3   1   -0.02    0.91
   1   3  -1   -0.08    0.66
  -1   3   1   -0.33    0.88
  -1  -3   1   -0.21    0.80
   1  -3  -1    0.13    0.71
   1  -3  -1    0.99    0.89
   1  -3  -1    0.86    0.90
   1  -3  -1    1.49    0.88
  -1  -3   1    0.51    0.69
  -1  -3   1    0.15    0.74
   1  -3  -1    0.01    0.93
   1  -3  -1   -0.36    0.76
  -1  -3   1    1.79    0.85
  -1   3   0   13.55    1.03
   1   3   0   14.83    1.34
   1   3   0   13.80    0.99
  -1   3   0   13.52    1.16
  -1   3   0   11.93    1.05
  -1   3   0   13.99    1.13
  -1   3   0   14.65    1.40
   1   3   0   13.83    0.95
   1   3   0   12.80    0.94
   1   3   0   12.34    1.01
   1   3   0   13.01    1.26
  -1   3   0   14.34    1.04
   1  -3   0   14.31    1.05
  -1  -3   0   13.83    1.40
   1  -3   0   14.01    1.08
  -1  -3   0   13.88    0.93
  -1  -3   0   12.19    0.95
   1  -3   0   14.43    1.18
  -1  -3   0   12.38    1.03
   1  -3   0   12.34    1.11
   1   3   1  154.82    3.47
  -1   3  -1  156.14    3.39
  -1   3  -1  128.58    3.80
   1   3   1  150.70    3.37
   1   3   1  152.55    3.36
   1   3   1  152.11    3.49
  -1   3  -1  156.52    3.54
   1   3   1  152.73    3.35
  -1   3  -1  152.46    3.43
  -1   3  -1  151.19    3.37
  -1   3  -1  152.96    3.40
   1   3   1  152.35    3.40
   1  -3   1  153.85    3.40
  -1  -3  -1  154.89    3.47
   1  -3   1  154.04    3.22
  -1  -3  -1  150.92    3.33
  -1  -3  -1  154.34    3.48
   1  -3   1  150.58    3.52
  -1  -3  -1  150.52    3.37
   1  -3   1  152.95    3.41
   1  -3   1  157.25    3.21
  -1   3  -2   10.26    0.93
   1   3   2   10.48    0.99
   1   3   2    8.97    1.01
  -1   3  -2   10.27    1.11
   1   3   2   12.23    1.13
   1   3   2   11.68    1.12
   1   3   2   10.30    1.04
   1   3   2    9.18    1.08
  -1   3  -2   11.64    1.03
  -1   3  -2   11.04    1.04
  -1   3  -2   10.48    1.02
   1  -3   2   11.52    1.02
   1  -3   2    9.88    0.82
  -1  -3  -2   10.11    0.98
   1  -3   2   11.10    0.87
  -1  -3  -2   11.97    1.13
  -1  -3  -2   11.32    0.85
   1  -3   2   10.30    1.09
  -1  -3  -2    9.43    1.00
  -1  -3  -2   10.69    0.83
   1  -3   2   11.08    1.00
   1   3   3   17.59    1.77
   1   3   3   20.43    1.66
  -1   3  -3   18.17    1.48
  -1   3  -3   17.98    1.58
   1   3   3   20.76    1.75
   1   3   3   20.47    1.78
  -1   3  -3   18.66    1.69
  -1   3  -3   19.10    1.58
   1   3   3   18.81    1.75
  -1   3  -3   18.47    1.56
   1   3   3   21.60    1.74
  -1   3  -3   18.56    1.69
  -1  -3  -3   21.98    1.67
  -1  -3  -3   21.51    1.58
   1  -3   3   19.04    1.73
   1  -3   3   18.40    1.36
  -1  -3  -3   21.68    1.69
   1  -3   3   18.70    1.33
   1  -3   3   17.75    1.65
   1  -3   3   18.27    1.60
  -1  -3  -3   18.90    1.75
  -1  -3  -3   21.27    1.46
  -1  -3  -3   20.91    1.73
   1   3   4    5.81    1.27
  -1   3  -4    4.67    1.00
  -1   3  -4    2.80    1.14
   1   3   4    3.75    1.20
   1   3   4    3.68    1.15
  -1   3  -4    2.81    1.04
  -1   3  -4    3.07    1.01
   1   3   4    3.03    1.13
   1   3   4    2.71    1.03
   1   3   4    2.25    1.09
  -1   3  -4    3.53    1.06
  -1   3  -4    3.26    1.00
   1  -3   4    3.52    1.07
   1  -3   4    3.40    0.93
  -1  -3  -4    3.41    1.22
  -1  -3  -4    2.48    1.03
  -1  -3  -4    3.37    1.00
  -1  -3  -4    4.78    1.26
   1  -3   4    4.62    0.88
  -1  -3  -4    1.48    0.98
   1  -3   4    3.07    1.05
   1  -3   4    3.73    1.20
  -1  -3  -4    3.82    1.13
  -1   3  -5   35.64    2.09
  -1   3  -5   35.04    2.25
   1   3   5   37.65    2.38
  -1   3  -5   33.29    2.19
  -1   3  -5   33.16    2.05
   1   3   5   37.10    2.49
   1   3   5   33.53    2.49
  -1   3  -5   36.15    2.10
   1   3   5   38.47    2.33
   1   3   5   35.89    2.21
  -1   3  -5   39.08    2.07
   1   3   5   35.07    2.36
   1  -3   5   37.14    1.80
  -1  -3  -5   34.71    2.46
  -1  -3  -5   36.84    2.08
   1  -3   5   36.94    2.19
   1  -3   5   38.41    2.40
  -1  -3  -5   37.69    2.28
  -1  -3  -5   33.89    2.04
   1  -3   5   33.97    2.13
  -1  -3  -5   34.49    2.30
  -1  -3  -5   31.37    2.32
   1  -3   5   35.51    1.87
  -1   3  -6   82.50    3.03
  -1   3  -6   81.80    2.96
  -1   3  -6   83.78    2.81
   1   3   6   79.76    3.39
   1   3   6   78.78    3.27
   1   3   6   77.69    4.24
   1   3   6   82.92    3.14
  -1   3  -6   81.85    2.90
  -1   3  -6   68.48    4.61
   1   3   6   79.16    3.18
  -1   3  -6   86.06    2.91
   1   3   6   71.96    3.64
   1  -3   6   83.18    2.63
  -1  -3  -6   81.68    2.83
   1  -3   6   84.14    2.67
  -1  -3  -6   82.17    3.00
  -1  -3  -6   84.18    3.02
  -1  -3  -6   84.47    3.34
   1  -3   6   84.13    3.00
  -1  -3  -6   84.40    3.06
  -1  -3  -6   69.49    4.69
   1  -3   6   77.85    3.19
   1  -3   6   81.38    3.54
   1  -3   6   83.86    3.17
  -1   3  -7    1.37    1.81
   1   3   7    5.24    1.60
   1   3   7    5.04    1.54
  -1   3  -7    5.55    1.42
   1   3   7    9.30    1.76
  -1   3  -7    6.21    1.43
  -1   3  -7    4.74    1.62
   1   3   7    3.74    1.67
   1   3   7    5.80    1.67
   1   3   7    6.20    1.51
  -1   3  -7    1.72    1.38
  -1   3  -7    5.03    1.64
   1  -3   7    5.78    1.36
   1  -3   7    4.13    1.55
   1  -3   7    4.29    1.81
   1  -3   7    4.08    1.62
  -1  -3  -7    5.42    1.59
  -1  -3  -7    2.30    1.38
  -1  -3  -7    4.41    1.54
   1  -3   7    6.02    1.80
   1  -3   7    5.35    1.33
  -1  -3  -7    6.09    1.47
  -1  -3  -7    5.30    1.84
  -1   3  -8    6.06    1.87
   1   3   8    2.90    1.83
   1   3   8    4.59    1.95
   1   3   8    1.00    1.70
  -1   3  -8    5.96    1.73
  -1   3  -8    3.66    1.59
  -1   3  -8    3.82    1.78
   1   3   8    4.81    2.03
   1   3   8    6.43    2.13
  -1   3  -8    3.40    1.71
  -1  -3  -8    2.22    1.83
  -1  -3  -8    5.83    1.73
   1  -3   8    6.11    1.54
   1  -3   8    4.40    1.95
  -1  -3  -8    5.47    1.65
   1  -3   8    2.14    2.00
  -1  -3  -8    3.19    1.66
   1  -3   8   -1.03    2.04
   1  -3   8    4.16    1.86
  -1  -3  -8    1.13    1.97
   1  -3   8    6.77    1.62
  -1  -3  -8    5.27    1.72
  -1   3  -9    4.80    1.96
   1   3   9    3.82    2.18
  -1   3  -9    6.31    2.10
  -1   3  -9    6.78    1.81
   1   3   9    3.68    1.82
   1   3   9    6.38    2.27
  -1   3  -9    1.99    2.18
   1   3   9    8.66    2.23
  -1   3  -9    3.33    1.83
  -1   3  -9    3.76    1.90
  -1  -3  -9    8.65    2.03
  -1  -3  -9    5.01    1.87
  -1  -3  -9    4.29    1.96
   1  -3   9    4.99    2.36
   1  -3   9   -0.36    2.31
   1  -3   9    6.92    2.32
   1  -3   9    4.87    1.75
  -1  -3  -9    3.98    2.00
  -1  -3  -9    3.61    1.82
   1  -3   9    5.35    1.85
  -1  -3  -9    5.36    2.38
   1  -3   9    3.47    2.17
   1   4  -7   46.55    2.97
  -1   4   7   40.58    3.55
  -1   4   7   35.46    3.55
   1   4  -7   39.86    2.69
   1   4  -7   37.32    3.12
  -1   4   7   36.19    2.89
   1   4  -7   29.82    2.63
  -1   4   7   39.52    3.33
   1   4  -7   38.54    2.93
   1   4  -7   36.36    3.02
  -1   4   7   38.50    3.65
  -1   4   7   32.48    2.50
  -1  -4   7   33.25    3.11
   1  -4  -7   44.77    3.00
   1  -4  -7   38.04    3.48
   1  -4  -7   43.24    3.63
   1  -4  -7   39.18    3.38
   1  -4  -7   38.08    3.78
  -1  -4   7   42.28    2.96
  -1  -4   7   43.85    3.06
  -1  -4   7   37.84    3.42
   1  -4  -7   39.51    3.32
  -1   4   6    2.39    1.53
  -1   4   6    1.70    1.81
  -1   4   6    2.06    1.76
   1   4  -6    1.07    1.46
  -1   4   6    1.50    1.92
   1   4  -6    1.40    1.36
   1   4  -6   -2.06    1.27
  -1   4   6    1.00    1.61
   1   4  -6   -0.17    1.54
   1   4  -6   -0.45    1.39
   1   4  -6   -0.33    1.36
  -1   4   6    2.10    1.69
  -1  -4   6    3.54    1.46
   1  -4  -6    1.60    1.91
   1  -4  -6    3.89    2.21
   1  -4  -6   -0.59    1.34
   1  -4  -6   -0.66    1.51
   1  -4  -6   -0.93    1.64
   1  -4  -6    1.80    1.87
  -1  -4   6    0.31    1.56
  -1  -4   6    0.26    1.80
  -1  -4   6    1.09    1.37
  -1   4   5   -1.40    1.38
  -1   4   5    0.41    1.49
   1   4  -5    0.75    1.31
  -1   4   5   -0.63    1.39
  -1   4   5   -1.54    1.60
   1   4  -5    0.08    1.35
   1   4  -5   -0.09    1.18
   1   4  -5   -2.28    1.29
   1   4  -5   -0.43    1.22
  -1   4   5    0.07    1.53
  -1   4   5   -0.68    1.56
   1   4  -5   -1.87    1.79
   1  -4  -5    0.77    1.53
   1  -4  -5    1.84    1.59
  -1  -4   5   -0.36    1.43
  -1  -4   5    0.70    1.54
  -1  -4   5    1.72    1.29
   1  -4  -5    1.39    1.49
  -1  -4   5    1.61    1.22
   1  -4  -5    1.07    1.40
   1  -4  -5   -0.20    1.17
   1   4  -4   15.52    1.33
   1   4  -4   15.26    1.41
   1   4  -4   16.61    1.50
   1   4  -4   15.85    1.42
   1   4  -4   16.08    1.36
  -1   4   4   15.64    1.72
  -1   4   4   14.49    2.29
   1   4  -4   17.02    1.48
  -1   4   4   17.94    1.68
  -1   4   4   15.47    1.77
  -1   4   4   16.72    1.55
  -1   4   4   16.50    1.87
  -1  -4   4   14.87    1.33
   1  -4  -4   19.55    1.56
   1  -4  -4   17.43    1.42
   1  -4  -4   12.25    1.65
  -1  -4   4   15.49    1.55
   1  -4  -4   18.51    1.86
   1  -4  -4   19.90    1.62
   1  -4  -4   17.66    1.72
  -1  -4   4   14.11    1.34
  -1  -4   4   17.28    1.53
   1   4  -3   -0.21    1.13
   1   4  -3   -1.20    1.85
  -1   4   3   -0.71    1.27
  -1   4   3    1.28    1.31
   1   4  -3    1.24    1.12
   1   4  -3    0.97    0.99
   1   4  -3   -0.34    1.06
   1   4  -3   -1.20    1.04
  -1   4   3   -1.27    1.19
  -1   4   3    1.33    2.30
  -1   4   3    0.52    1.28
  -1   4   3    1.26    1.38
   1  -4  -3   -0.61    1.34
  -1  -4   3    1.08    1.15
   1  -4  -3   -1.13    1.32
  -1  -4   3   -1.11    1.01
   1  -4  -3    0.21    1.12
   1  -4  -3    1.48    1.06
  -1  -4   3    0.45    1.23
   1  -4  -3   -0.29    1.25
   1  -4  -3   -0.93    1.24
  -1  -4   3    0.83    1.01
   1   4  -2   14.62    1.17
   1   4  -2   15.61    1.40
   1   4  -2   15.87    1.35
  -1   4   2   18.29    1.56
   1   4  -2   16.24    1.25
  -1   4   2   17.00    1.50
  -1   4   2   17.04    1.47
  -1   4   2   16.92    1.54
   1   4  -2   13.24    1.30
   1   4  -2   13.93    1.24
  -1   4   2   19.22    1.45
  -1   4   2   16.14    1.59
   1  -4  -2   16.52    1.41
  -1  -4   2   15.39    1.19
  -1  -4   2   17.21    1.28
  -1  -4   2   15.35    1.59
   1  -4  -2   18.21    1.77
   1  -4  -2   17.77    1.45
   1  -4  -2   19.28    1.67
  -1  -4   2   15.49    1.38
   1  -4  -2   16.11    2.54
   1  -4  -2   15.31    1.53
  -1   4   1   45.39    2.40
  -1   4   1   47.19    2.23
   1   4  -1   42.25    2.12
   1   4  -1   43.12    1.98
   1   4  -1   42.56    2.11
  -1   4   1   47.13    2.30
  -1   4   1   45.18    2.36
   1   4  -1   42.63    1.98
  -1   4   1   46.21    2.28
   1   4  -1   45.54    2.10
  -1   4   1   46.85    2.32
   1  -4  -1   50.82    2.47
   1  -4  -1   43.14    1.80
  -1  -4   1   44.91    2.11
   1  -4  -1   44.08    2.89
   1  -4  -1   47.31    2.28
  -1  -4   1   42.89    2.20
  -1  -4   1   42.91    2.18
   1  -4  -1   44.72    1.83
  -1  -4   1   43.18    1.98
  -1   4   0    5.78    1.25
  -1   4   0    5.56    1.26
   1   4   0    7.42    1.18
  -1   4   0    6.66    1.51
   1   4   0    6.10    1.21
   1   4   0    6.04    1.18
  -1   4   0    5.85    1.15
   1   4   0    6.49    1.12
   1   4   0    7.97    1.13
  -1   4   0    5.17    1.14
  -1   4   0    7.21    1.21
   1   4   0    4.91    1.19
   1  -4   0    6.20    1.59
   1  -4   0    6.93    1.19
  -1  -4   0    6.08    1.26
   1  -4   0    7.82    1.30
   1  -4   0    6.67    1.42
  -1  -4   0    6.03    1.17
  -1  -4   0    6.85    1.25
   1  -4   0    6.89    0.93
  -1  -4   0    7.01    1.09
   1   4   1   59.56    2.29
  -1   4  -1   62.00    2.47
  -1   4  -1   55.94    2.28
  -1   4  -1   59.69    2.35
   1   4   1   54.90    2.42
  -1   4  -1   58.06    2.41
   1   4   1   58.70    2.42
   1   4   1   56.64    2.41
  -1   4  -1   56.38    2.58
   1   4   1   59.77    2.29
   1   4   1   61.12    2.47
   1  -4   1   61.56    2.61
   1  -4   1   55.42    2.37
   1  -4   1   55.19    3.13
  -1  -4  -1   56.52    2.39
  -1  -4  -1   51.95    2.76
  -1  -4  -1   61.43    2.27
   1  -4   1   59.47    2.47
  -1  -4  -1   60.17    2.41
   1   4   2    6.18    1.20
  -1   4  -2    1.32    1.21
  -1   4  -2    3.68    1.28
  -1   4  -2    3.29    1.18
   1   4   2    3.07    1.28
  -1   4  -2    3.64    1.22
   1   4   2    4.54    1.25
   1   4   2    2.47    1.09
  -1   4  -2    4.56    1.17
   1   4   2    4.26    1.28
  -1   4  -2    3.99    1.06
   1  -4   2    3.17    1.52
  -1  -4  -2    4.67    1.21
  -1  -4  -2    3.87    1.14
   1  -4   2    2.25    1.20
  -1  -4  -2    3.92    1.19
   1  -4   2    4.07    1.17
   1  -4   2    3.84    1.30
  -1  -4  -2    5.96    1.50
   1   4   3    3.62    1.57
   1   4   3    1.34    1.33
  -1   4  -3    1.64    1.18
  -1   4  -3    2.30    1.09
   1   4   3    4.08    1.25
  -1   4  -3    2.67    1.22
   1   4   3    2.17    1.34
  -1   4  -3    3.36    1.30
  -1   4  -3    2.47    1.49
  -1   4  -3    2.19    1.20
   1   4   3   -0.26    1.27
   1   4   3    2.05    1.20
   1  -4   3    3.80    1.42
  -1  -4  -3    4.14    1.25
   1  -4   3    2.42    1.18
  -1  -4  -3    1.47    0.99
  -1  -4  -3    2.43    0.94
  -1  -4  -3    2.67    1.37
   1  -4   3    3.00    1.30
   1  -4   3    1.88    1.23
  -1   4  -4    7.61    1.42
   1   4   4    7.77    1.39
   1   4   4    6.80    1.60
   1   4   4    5.68    1.66
   1   4   4    5.71    1.59
  -1   4  -4    5.41    1.28
  -1   4  -4    6.59    1.45
  -1   4  -4    6.37    2.23
  -1   4  -4    4.23    1.41
   1   4   4    7.80    1.43
  -1   4  -4    7.96    1.35
   1   4   4    7.58    1.58
  -1  -4  -4    9.10    1.41
   1  -4   4    3.82    1.34
   1  -4   4    7.40    1.42
  -1  -4  -4    5.99    1.47
   1  -4   4    6.41    1.54
  -1  -4  -4    5.24    1.56
  -1  -4  -4    7.36    1.26
  -1  -4  -4    5.69    1.44
  -1  -4  -4    7.78    1.15
   1  -4   4    7.85    1.53
  -1   4  -5   10.59    1.50
  -1   4  -5    8.69    1.44
  -1   4  -5    8.80    1.68
   1   4   5    8.69    1.64
  -1   4  -5    9.80    1.54
   1   4   5    8.58    1.67
   1   4   5    8.86    1.79
  -1   4  -5    9.09    1.70
  -1   4  -5    8.02    1.54
   1   4   5    3.37    1.73
   1   4   5    7.99    1.52
   1   4   5    8.57    1.67
   1  -4   5    9.04    1.69
  -1  -4  -5    8.87    1.60
  -1  -4  -5    9.25    1.71
   1  -4   5    8.00    1.53
   1  -4   5    7.99    1.79
  -1  -4  -5    8.48    1.34
  -1  -4  -5    8.70    1.61
   1  -4   5    8.91    1.59
  -1  -4  -5    7.29    1.71
   1   4   6   10.45    1.77
   1   4   6   11.49    1.99
  -1   4  -6   13.71    1.72
  -1   4  -6   11.41    1.62
  -1   4  -6    9.03    2.56
   1   4   6   11.64    1.96
  -1   4  -6   12.62    1.70
   1   4   6    9.39    1.92
  -1   4  -6    7.28    1.82
   1   4   6   12.61    1.83
   1   4   6   10.73    1.82
   1  -4   6    8.55    1.83
   1  -4   6   11.42    1.90
  -1  -4  -6   11.68    2.01
  -1  -4  -6    9.58    1.74
  -1  -4  -6   12.29    1.99
  -1  -4  -6    9.10    1.61
   1  -4   6   10.76    2.02
  -1  -4  -6    9.66    1.49
   1  -4   6   11.73    1.73
  -1  -4  -6   12.35    1.91
  -1   4  -7   22.18    2.05
   1   4   7   21.80    2.40
  -1   4  -7   22.80    2.13
  -1   4  -7   21.92    2.05
  -1   4  -7   22.08    2.12
   1   4   7   23.06    2.18
   1   4   7   27.37    2.34
  -1   4  -7   18.97    2.24
   1   4   7   23.31    2.53
  -1   4  -7   23.23    2.01
   1   4   7   24.66    2.63
   1   4   7   20.86    2.47
  -1  -4  -7   25.20    2.40
   1  -4   7   22.42    2.30
  -1  -4  -7   22.95    2.12
  -1  -4  -7   23.47    2.27
  -1  -4  -7   19.14    2.06
  -1  -4  -7   25.90    2.20
  -1  -4  -7   23.45    2.58
   1  -4   7   20.57    2.46
   1  -4   7   23.59    2.29
   1  -4   7   27.10    2.24
   1   5  -4   15.90    1.89
  -1   5   4   18.41    2.08
  -1   5   4   20.97    2.22
   1   5  -4   19.31    1.86
  -1   5   4   18.39    2.20
   1   5  -4   16.23    1.54
  -1   5   4   16.86    2.07
   1   5  -4   13.74    1.77
  -1   5   4   16.80    2.17
  -1   5   4   17.04    1.96
   1   5  -4   15.80    1.65
  -1  -5   4   15.07    1.99
  -1  -5   4   15.59    1.87
  -1  -5   4   15.88    1.56
   1  -5  -4   13.08    2.05
   1  -5  -4   19.10    2.06
   1  -5  -4   14.52    2.10
   1  -5  -4   15.60    1.71
   1  -5  -4   15.79    2.25
   1  -5  -4   15.79    1.59
  -1  -5   4   14.61    1.75
   1   5  -3   19.66    1.70
  -1   5   3   20.40    1.90
  -1   5   3   20.09    2.05
   1   5  -3   19.29    1.78
  -1   5   3   17.71    2.11
   1   5  -3   17.74    1.61
  -1   5   3   21.32    2.15
   1   5  -3   16.24    1.46
  -1   5   3   19.32    1.98
   1   5  -3   19.05    1.81
  -1   5   3   21.68    2.13
   1   5  -3   15.35    1.77
   1  -5  -3   15.30    2.20
   1  -5  -3   18.52    2.02
  -1  -5   3   16.88    1.81
   1  -5  -3   16.00    2.09
  -1  -5   3   18.32    1.64
   1  -5  -3   21.12    1.97
   1  -5  -3   17.47    1.57
  -1  -5   3   19.95    1.61
   1  -5  -3   17.11    1.41
  -1  -5   3   17.16    1.84
  -1   5   2    9.72    1.84
   1   5  -2    7.02    1.33
   1   5  -2    7.48    1.42
  -1   5   2    9.76    1.72
  -1   5   2    6.32    1.62
  -1   5   2    9.77    1.68
   1   5  -2    4.33    1.58
  -1   5   2   10.87    1.96
   1   5  -2    7.12    1.57
   1   5  -2    5.71    1.50
  -1   5   2    7.64    1.65
   1  -5  -2    8.69    1.82
  -1  -5   2    5.23    1.42
  -1  -5   2    7.43    1.40
   1  -5  -2    8.85    1.90
  -1  -5   2    9.87    1.61
   1  -5  -2    8.59    1.69
  -1  -5   2    9.01    1.60
  -1   5   1    2.48    1.71
  -1   5   1    4.04    3.08
   1   5  -1    2.75    1.22
   1   5  -1    2.61    1.57
   1   5  -1    1.98    1.39
   1   5  -1    2.55    1.58
   1   5  -1   -1.66    1.39
   1   5  -1    2.94    1.51
  -1   5   1    2.29    1.92
  -1   5   1   -0.03    1.45
  -1   5   1    1.24    1.55
  -1   5   1    2.51    1.53
  -1  -5   1   -0.04    1.42
   1  -5  -1    2.07    1.52
  -1  -5   1    3.09    1.49
  -1  -5   1    0.32    1.24
   1  -5  -1    3.44    1.68
   1  -5  -1    2.73    1.67
  -1  -5   1    1.39    1.47
   1  -5  -1    0.98    1.56
   1   5   0    2.27    1.47
  -1   5   0    1.90    1.50
  -1   5   0    1.10    1.39
   1   5   0   -0.58    1.31
  -1   5   0   -0.38    1.72
  -1   5   0    3.66    1.60
  -1   5   0    1.63    1.67
   1   5   0   -1.76    1.52
  -1   5   0    0.91    1.48
   1   5   0   -0.33    1.54
   1   5   0    0.28    1.42
   1   5   0    3.01    1.35
   1  -5   0    2.49    1.51
   1  -5   0    2.14    1.79
  -1  -5   0    0.81    1.34
  -1  -5   0    0.78    1.51
   1  -5   0   -1.05    1.61
  -1  -5   0   -0.18    1.57
  -1  -5   0    0.20    1.47
   1  -5   0    2.82    1.57
   1   5   1   61.13    4.64
  -1   5  -1   57.74    3.11
  -1   5  -1   68.28    3.20
   1   5   1   68.73    3.18
   1   5   1   66.87    3.26
  -1   5  -1   68.46    2.95
  -1   5  -1   69.18    2.81
  -1   5  -1   61.29    3.28
   1   5   1   68.51    2.89
  -1   5  -1   70.33    3.30
   1   5   1   63.75    3.14
   1   5   1   68.48    2.94
   1  -5   1   65.99    3.16
   1  -5   1   64.87    3.06
   1  -5   1   66.37    3.26
  -1  -5  -1   69.76    3.06
   1  -5   1   64.64    3.16
  -1  -5  -1   62.85    3.16
  -1  -5  -1   64.25    2.89
  -1  -5  -1   66.16    3.13
  -1   5  -2   10.07    1.65
   1   5   2   11.75    1.62
   1   5   2   10.99    1.77
  -1   5  -2    8.48    1.70
  -1   5  -2   14.03    1.87
  -1   5  -2    9.35    1.70
   1   5   2   12.51    1.59
   1   5   2   12.79    1.85
   1   5   2    8.82    1.71
  -1   5  -2   12.47    1.57
  -1  -5  -2    9.45    1.72
  -1  -5  -2   13.50    1.64
   1  -5   2   13.70    1.70
   1  -5   2   13.74    1.64
   1  -5   2    7.31    1.83
  -1  -5  -2    8.48    1.74
   1  -5   2   11.77    1.87
  -1  -5  -2   11.61    1.84
   1   5   3   17.18    1.99
  -1   5  -3   15.05    1.82
  -1   5  -3   13.13    1.89
   1   5   3   13.61    2.62
  -1   5  -3   15.69    2.19
   1   5   3   14.40    1.87
  -1   5  -3   14.37    1.85
   1   5   3   15.18    1.85
   1   5   3   17.47    2.04
  -1   5  -3   13.96    1.78
   1   5   3   16.30    1.80
  -1   5  -3   13.99    1.58
  -1  -5  -3   13.63    2.02
  -1  -5  -3   16.19    1.95
  -1  -5  -3   18.40    1.83
   1  -5   3   15.73    1.99
   1  -5   3   12.32    1.70
  -1  -5  -3   11.08    1.81
   1  -5   3   13.52    1.98
   1  -5   3   15.99    1.86
  -1   5  -4    7.10    1.90
  -1   5  -4    8.34    1.63
   1   5   4   13.45    1.92
  -1   5  -4   15.85    1.96
  -1   5  -4   14.70    1.95
   1   5   4   12.98    2.06
   1   5   4    9.75    1.96
   1   5   4    8.98    2.04
   1   5   4   10.37    1.90
  -1   5  -4   13.44    1.86
   1   5   4   10.69    1.92
  -1   5  -4    9.95    1.75
   1  -5   4   11.94    2.13
   1  -5   4   11.96    2.11
  -1  -5  -4   12.67    2.11
  -1  -5  -4   11.20    1.87
   1  -5   4   11.53    1.76
   1  -5   4    7.92    1.85
  -1  -5  -4   14.57    2.13
  -2   0  11   -1.20    2.06
   2   0 -11   -2.28    2.03
   2   0 -11    1.84    1.81
   2   0 -11   -0.11    1.83
   2   0 -11    0.12    2.04
  -2   0  11    2.70    2.09
   2   0 -11   -2.46    2.00
  -2   0  11   -1.79    2.44
  -2   0  11   -4.95    2.32
  -2   0  11   -0.11    1.94
   2   0 -11   -0.07    1.72
  -2   0  11    0.67    1.84
   2   0 -10    9.99    1.83
  -2   0  10   12.07    1.85
  -2   0  10    6.33    1.70
  -2   0  10   11.68    2.41
   2   0 -10    9.99    2.06
  -2   0  10   10.56    2.07
   2   0 -10   11.75    1.69
   2   0 -10   13.18    2.98
   2   0 -10    7.91    1.75
   2   0 -10    9.67    1.79
  -2   0  10    8.55    1.89
  -2   0  10    8.72    2.14
   2   0  -9    0.14    1.34
  -2   0   9    0.33    1.53
  -2   0   9   -1.31    1.84
   2   0  -9    0.04    1.49
   2   0  -9    0.83    1.35
   2   0  -9   -1.08    1.57
  -2   0   9   -0.38    1.34
  -2   0   9   -1.18    3.21
  -2   0   9   -2.14    1.54
  -2   0   9   -1.39    1.59
   2   0  -9   -0.29    1.29
   2   0  -9   -0.56    1.39
   2   0  -8  188.53    4.52
  -2   0   8  187.39    4.45
   2   0  -8  183.14    4.72
  -2   0   8  178.94    4.55
  -2   0   8  178.19    4.78
  -2   0   8  184.53    4.80
   2   0  -8  181.79    4.42
   2   0  -8  178.34    4.70
   2   0  -8  179.55    4.45
  -2   0   8  180.03    4.47
   2   0  -8  175.86    4.48
  -2   0   8  188.86    4.59
  -2   0   7    0.77    1.02
   2   0  -7    0.03    1.05
  -2   0   7   -1.19    1.01
   2   0  -7    0.64    0.97
  -2   0   7   -0.04    1.19
   2   0  -7   -1.25    0.94
   2   0  -7   -0.11    1.17
  -2   0   7    0.16    1.16
   2   0  -7   -0.30    0.94
   2   0  -7    0.05    0.92
  -2   0   7    1.92    1.02
  -2   0   7    0.63    1.15
  -2   0   6    0.06    1.05
   2   0  -6    0.86    0.88
   2   0  -6    1.52    0.98
  -2   0   6    1.45    0.93
  -2   0   6    1.22    0.94
   2   0  -6    1.14    0.99
   2   0  -6    0.72    0.84
   2   0  -6    0.80    0.91
  -2   0   6    2.07    0.94
   2   0  -6   -0.76    0.82
  -2   0   5    0.86    0.73
  -2   0   5   -0.07    0.78
   2   0  -5    0.13    0.72
   2   0  -5   -0.55    0.73
   2   0  -5   -0.44    0.74
   2   0  -5    0.31    0.86
  -2   0   5    0.07    0.86
  -2   0   5    0.84    0.74
   2   0  -5    0.50    0.75
  -2   0   5   -0.07    0.93
   2   0  -5   -0.40    0.86
  -2   0   5   -0.63    0.74
   2   0  -4   65.53    1.93
  -2   0   4   62.34    1.92
  -2   0   4   63.08    1.77
  -2   0   4   62.11    1.86
  -2   0   4   63.11    1.77
  -2   0   4   62.17    1.81
   2   0  -4   66.13    1.81
   2   0  -4   61.60    1.94
   2   0  -4   63.29    1.80
  -2   0   4   64.50    1.86
   2   0  -4   64.11    1.78
   2   0  -4   63.35    1.83
   2   0  -3   -0.09    0.65
   2   0  -3   -0.29    0.65
   2   0  -3   -0.32    0.56
  -2   0   3    0.10    0.49
  -2   0   3   -0.13    0.51
  -2   0   3   -0.41    0.56
   2   0  -3    0.29    0.55
  -2   0   3   -0.20    0.58
  -2   0   3   -0.10    0.67
   2   0  -3   -0.38    0.62
  -2   0   3   -0.17    0.59
   2   0  -3   -0.30    0.53
  -2   0   2    2.22    0.49
   2   0  -2    4.09    0.51
   2   0  -2    2.48    0.49
  -2   0   2    2.12    0.45
   2   0  -2    2.36    0.53
  -2   0   2    2.69    0.50
   2   0  -2    2.92    0.60
   2   0  -2    2.25    0.53
  -2   0   2    3.15    0.50
   2   0  -2    2.65    0.49
  -2   0   2    3.94    0.64
  -2   0   1   -0.48    0.31
  -2   0   1   -0.14    0.38
  -2   0   1   -0.11    0.30
   2   0  -1   -0.31    0.36
   2   0  -1   -0.01    0.31
   2   0  -1    0.03    0.31
   2   0  -1    0.21    0.35
   2   0  -1   -0.33    0.30
   2   0  -1   -0.09    0.30
  -2   0   1   -0.64    0.29
  -2   0   1   -0.37    0.26
  -2   0   0   45.50    1.05
  -2   0   0   50.67    1.12
   2   0   0   50.02    1.07
   2   0   0   52.26    1.11
   2   0   0   45.39    1.10
   2   0   0   50.08    1.07
  -2   0   0   50.96    1.13
  -2   0   0   54.10    1.17
   2   0   1   -0.27    0.40
  -2   0  -1    0.07    0.45
  -2   0  -1    0.43    0.43
  -2   0  -1    0.18    0.40
  -2   0  -1    0.42    0.38
   2   0   1   -0.33    0.41
  -2   0  -1   -0.22    0.46
   2   0   1   -0.13    0.52
   2   0   1    0.18    0.48
   2   0   1   -0.18    0.37
  -2   0  -1    0.36    0.36
   2   0   1    0.05    0.40
   2   0   2 1848.84   34.50
  -2   0  -2 1890.71   34.76
   2   0   2 1921.57   34.90
  -2   0  -2 1917.45   34.63
   2   0   2 1906.92   34.87
   2   0   2 1940.47   34.84
  -2   0  -2 1947.68   35.08
   2   0   2 1821.24   34.50
  -2   0  -2 1906.31   34.58
   2   0   2 1891.55   34.58
  -2   0  -2 1934.06   34.85
  -2   0  -3   -0.66    0.58
   2   0   3    0.19    0.67
  -2   0  -3    0.70    0.62
   2   0   3   -0.15    0.72
  -2   0  -3    0.89    0.63
   2   0   3   -0.26    0.73
   2   0   3   -0.03    0.76
   2   0   3   -0.17    0.67
   2   0   3    0.36    0.62
  -2   0  -3    0.00    0.66
  -2   0  -3   -0.79    0.68
  -2   0  -3    0.29    0.73
   2   0   4 3156.09   57.54
   2   0   4 3161.61   57.67
   2   0   4 3170.94   57.66
   2   0   4 3140.33   57.55
  -2   0  -4 3179.15   58.20
   2   0   4 3113.61   57.53
  -2   0  -4 3133.55   57.53
   2   0   4 3079.22   57.54
  -2   0  -4 3301.28   58.43
  -2   0  -4 3108.81   57.53
  -2   0  -4 3335.01   58.36
  -2   0  -5    0.73    0.97
   2   0   5    0.38    1.01
   2   0   5    0.25    1.05
   2   0   5    0.60    0.95
  -2   0  -5   -0.07    0.80
   2   0   5    0.62    0.83
  -2   0  -5    1.15    0.82
   2   0   5    0.05    0.83
  -2   0  -5    0.32    0.97
  -2   0  -5    0.65    0.87
   2   0   5    0.60    0.99
  -2   0  -5   -0.04    0.79
   2   0   6  455.63    9.29
  -2   0  -6  474.54    9.12
   2   0   6  458.47    9.32
  -2   0  -6  464.86    9.24
  -2   0  -6  458.49    9.09
  -2   0  -6  466.08    9.06
   2   0   6  464.71    9.13
   2   0   6  469.67    9.10
  -2   0  -6  457.85    9.04
  -2   0  -6  463.63    9.28
   2   0   6  451.83    9.08
   2   0   6  458.68    9.10
   2   0   7    0.67    1.14
  -2   0  -7   -1.41    1.03
  -2   0  -7    0.40    1.13
   2   0   7   -0.01    1.35
   2   0   7   -0.63    1.31
   2   0   7    0.34    1.23
  -2   0  -7    0.65    1.10
  -2   0  -7   -0.36    1.15
   2   0   7   -0.06    1.23
   2   0   7    0.51    1.14
  -2   0  -7   -0.89    1.26
  -2   0  -7   -1.04    1.02
  -2   0  -8   66.88    3.15
  -2   0  -8   65.12    2.86
   2   0   8   70.33    3.02
  -2   0  -8   59.28    3.30
  -2   0  -8   65.42    3.05
   2   0   8   62.23    3.38
   2   0   8   68.58    3.16
   2   0   8   70.38    3.43
  -2   0  -8   69.86    2.88
   2   0   8   61.65    3.11
  -2   0  -8   65.58    2.74
   2   0   8   72.64    2.89
   2   0   9    1.65    1.91
  -2   0  -9    0.58    1.58
   2   0   9    1.54    1.56
   2   0   9   -0.41    1.53
  -2   0  -9    1.32    1.51
  -2   0  -9    0.64    1.55
   2   0   9   -0.30    2.07
   2   0   9   -3.24    1.64
  -2   0  -9    0.94    1.71
  -2   0  -9    0.62    1.64
  -2   0  -9    0.75    1.45
   2   0   9   -0.32    1.64
  -2   0 -10   12.82    2.00
  -2   0 -10   11.86    1.78
   2   0  10   13.80    2.09
  -2   0 -10   11.93    1.81
   2   0  10   13.87    2.64
   2   0  10   12.90    2.47
   2   0  10   14.13    2.42
   2   0  10   15.16    2.29
  -2   0 -10   12.10    2.10
  -2   0 -10   13.31    2.08
   2   0  10   17.65    2.46
  -2   0 -10   14.86    2.07
   2   1 -10    0.66    1.43
   2   1 -10   -0.27    1.80
  -2   1  10    0.21    2.19
   2   1 -10   -1.52    1.55
   2   1 -10    0.80    1.70
  -2   1  10    1.11    1.75
   2   1 -10    0.84    1.51
  -2   1  10    0.99    1.96
   2   1 -10   -0.82    1.77
  -2   1  10    3.12    1.78
  -2   1  10    0.48    1.92
  -2   1  10   -0.05    2.23
  -2  -1  10    1.10    1.80
  -2  -1  10   -1.81    1.69
   2  -1 -10    0.94    1.63
   2  -1 -10    1.99    1.66
   2  -1 -10    1.49    1.84
   2  -1 -10   -0.03    1.58
  -2  -1  10   -0.81    2.70
  -2  -1  10    1.22    1.97
  -2  -1  10    2.23    1.99
  -2  -1  10   -0.16    1.53
   2  -1 -10   -2.57    1.53
   2   1  -9    6.45    1.60
  -2   1   9    8.14    1.65
  -2   1   9    8.33    1.82
  -2   1   9    3.63    1.90
  -2   1   9    6.53    1.75
   2   1  -9    4.25    1.53
   2   1  -9    5.87    1.51
   2   1  -9    5.94    1.90
   2   1  -9    5.02    1.44
  -2   1   9    5.67    1.68
   2   1  -9    6.92    1.42
  -2  -1   9    7.08    1.61
   2  -1  -9    5.94    1.52
  -2  -1   9    9.39    1.99
   2  -1  -9    6.10    1.75
  -2  -1   9    5.39    1.46
   2  -1  -9    4.38    1.81
  -2  -1   9    6.54    1.68
   2  -1  -9    5.82    1.63
  -2  -1   9    8.10    1.88
   2  -1  -9    6.63    1.64
  -2  -1   9    8.15    1.48
  -2   1   8   65.85    2.99
   2   1  -8   60.28    2.88
   2   1  -8   65.27    2.53
   2   1  -8   64.90    2.69
  -2   1   8   67.31    3.00
  -2   1   8   64.25    2.72
   2   1  -8   64.05    2.81
   2   1  -8   65.20    2.66
   2   1  -8   63.87    2.64
  -2   1   8   64.31    3.20
  -2   1   8   67.86    3.01
  -2  -1   8   71.11    3.02
   2  -1  -8   67.91    2.71
   2  -1  -8   59.79    3.35
   2  -1  -8   64.96    3.00
  -2  -1   8   66.47    2.51
   2  -1  -8   70.12    2.80
  -2  -1   8   62.58    2.59
  -2  -1   8   64.63    3.05
   2  -1  -8   70.50    3.09
   2  -1  -8   66.16    2.82
  -2  -1   8   66.13    2.88
  -2  -1   8   67.55    2.75
  -2   1   7  181.57    4.60
   2   1  -7  179.01    4.12
   2   1  -7  180.08    4.10
   2   1  -7  180.48    4.17
  -2   1   7  177.29    4.34
   2   1  -7  178.19    4.15
  -2   1   7  179.48    4.47
   2   1  -7  179.99    4.36
   2   1  -7  179.76    4.34
  -2   1   7  183.11    4.25
  -2   1   7  180.35    4.33
  -2   1   7  178.52    4.26
  -2  -1   7  178.83    4.37
  -2  -1   7  182.57    4.22
   2  -1  -7  186.58    4.53
  -2  -1   7  175.64    4.06
   2  -1  -7  181.30    4.27
   2  -1  -7  176.52    4.32
   2  -1  -7  173.27    4.25
  -2  -1   7  175.25    4.21
   2  -1  -7  179.26    4.53
   2  -1  -7  180.41    4.25
  -2  -1   7  176.99    4.40
  -2  -1   7  178.64    4.03
  -2   1   6    6.88    1.14
   2   1  -6    8.74    1.00
  -2   1   6    6.75    1.10
   2   1  -6    7.50    0.91
  -2   1   6    7.61    1.17
   2   1  -6    8.97    0.97
  -2   1   6    8.31    1.12
  -2   1   6    7.94    1.01
   2   1  -6    8.15    1.13
   2   1  -6    8.62    1.00
  -2   1   6    8.00    1.17
   2   1  -6    9.11    1.07
   2  -1  -6    8.26    1.08
  -2  -1   6    7.81    1.11
   2  -1  -6    6.97    1.01
   2  -1  -6    7.11    1.14
  -2  -1   6    8.34    1.07
   2  -1  -6    6.30    1.09
   2  -1  -6    7.86    1.17
  -2  -1   6    8.91    0.94
   2  -1  -6    7.48    1.23
  -2  -1   6   11.08    1.12
  -2  -1   6    7.12    1.21
  -2  -1   6    8.24    0.93
  -2   1   5    0.11    0.87
  -2   1   5    0.74    0.88
   2   1  -5    1.82    0.78
   2   1  -5    1.59    0.75
   2   1  -5    1.40    0.85
   2   1  -5    2.65    0.74
   2   1  -5    1.96    0.79
  -2   1   5   -0.23    0.84
   2   1  -5    1.98    0.81
  -2   1   5   -0.82    0.89
  -2   1   5    0.52    0.94
  -2   1   5   -0.22    1.04
   2  -1  -5    1.18    0.91
  -2  -1   5    0.37    0.79
   2  -1  -5    0.95    1.02
  -2  -1   5    1.72    0.69
   2  -1  -5   -0.44    0.91
  -2  -1   5    1.15    0.78
   2  -1  -5    1.78    0.96
  -2  -1   5    2.66    0.85
   2  -1  -5    0.09    0.82
   2  -1  -5   -0.34    0.81
  -2  -1   5    1.51    0.91
  -2  -1   5    0.56    0.70
  -2   1   4  182.81    3.94
  -2   1   4  187.36    3.93
  -2   1   4  190.49    3.97
   2   1  -4  192.01    3.89
   2   1  -4  177.95    3.80
  -2   1   4  189.14    4.07
  -2   1   4  191.53    4.14
  -2   1   4  188.95    3.99
   2   1  -4  184.03    3.78
   2   1  -4  187.70    3.78
   2   1  -4  187.46    3.81
   2   1  -4  189.84    3.91
   2  -1  -4  186.74    4.09
  -2  -1   4  185.96    3.91
   2  -1  -4  183.14    3.93
   2  -1  -4  184.93    3.97
  -2  -1   4  179.77    3.70
   2  -1  -4  183.82    3.95
  -2  -1   4  183.20    3.79
  -2  -1   4  181.38    3.80
   2  -1  -4  185.27    3.93
  -2  -1   4  190.70    3.70
   2  -1  -4  192.86    4.09
  -2   1   3   30.51    1.50
   2   1  -3   26.36    1.06
   2   1  -3   29.60    1.06
  -2   1   3   26.39    1.38
  -2   1   3   27.70    1.32
   2   1  -3   28.25    1.20
   2   1  -3   26.71    1.07
  -2   1   3   27.23    1.33
  -2   1   3   29.54    1.35
  -2   1   3   27.55    1.34
  -2  -1   3   28.71    1.16
   2  -1  -3   28.23    1.30
   2  -1  -3   26.75    1.43
   2  -1  -3   28.64    1.34
  -2  -1   3   27.44    1.13
  -2  -1   3   26.45    1.04
  -2  -1   3   28.98    0.95
  -2  -1   3   27.96    1.24
   2  -1  -3   27.42    1.33
   2   1  -2  985.17   18.29
  -2   1   2  985.47   18.44
   2   1  -2 1048.08   18.35
  -2   1   2 1008.09   18.53
   2   1  -2 1001.34   18.31
  -2   1   2 1010.12   18.48
  -2   1   2  982.50   18.45
   2   1  -2 1014.07   18.34
  -2   1   2 1021.85   18.47
  -2   1   2 1039.38   18.55
  -2  -1   2 1009.95   18.34
   2  -1  -2 1007.86   18.46
   2  -1  -2 1034.03   18.55
   2  -1  -2  984.44   18.46
   2  -1  -2  974.41   18.44
  -2  -1   2 1055.55   18.34
  -2  -1   2  992.67   18.30
   2  -1  -2 1011.33   18.54
   2  -1  -2  998.40   18.46
  -2   1   1    8.49    0.63
  -2   1   1    8.59    0.77
  -2   1   1    8.20    0.72
  -2   1   1   11.18    0.75
  -2   1   1   10.26    0.93
  -2   1   1    8.16    0.71
   2  -1  -1    9.58    0.95
   2  -1  -1   10.88    1.01
   2  -1  -1    9.23    0.82
   2  -1  -1    9.92    0.99
   2  -1  -1   10.38    0.98
   2  -1  -1    8.89    0.77
  -2   1   0  185.99    3.69
  -2   1   0  175.97    3.59
  -2   1   0  180.51    3.60
  -2   1   0  182.80    3.60
  -2   1   0  181.06    3.58
  -2   1   0  190.20    3.69
   2  -1   0  187.93    3.68
   2  -1   0  185.46    3.59
   2  -1   0  174.62    3.59
   2  -1   0  185.42    3.59
   2  -1   0  178.50    3.61
   2  -1   0  191.98    3.69
  -2  -1   0  181.24    3.41
  -2   1  -1  223.02    4.24
   2   1   1  211.35    4.06
   2   1   1  209.95    4.03
   2   1   1  211.02    4.04
   2   1   1  192.44    4.24
  -2   1  -1  221.80    4.15
  -2   1  -1  218.21    4.23
   2   1   1  208.62    4.06
  -2   1  -1  214.83    4.13
   2   1   1  217.09    4.11
  -2   1  -1  206.70    4.12
  -2   1  -1  206.66    4.13
  -2  -1  -1  212.50    4.10
   2  -1   1  216.07    4.24
   2  -1   1  223.75    4.15
  -2  -1  -1  209.75    4.01
  -2  -1  -1  211.01    4.04
   2  -1   1  209.32    4.13
   2  -1   1  208.25    4.21
  -2  -1  -1  213.15    4.04
   2  -1   1  211.82    4.13
   2  -1   1  208.37    4.12
  -2  -1  -1  215.76    4.01
  -2   1  -2   18.79    1.05
  -2   1  -2   17.90    1.20
   2   1   2   17.17    1.11
   2   1   2   15.52    1.02
  -2   1  -2   15.89    1.04
   2   1   2   17.60    1.07
   2   1   2   17.42    1.06
   2   1   2   18.19    1.17
   2   1   2   14.46    1.07
  -2   1  -2   16.33    1.09
  -2   1  -2   20.26    1.21
  -2   1  -2   16.93    1.01
   2  -1   2   17.64    1.12
  -2  -1  -2   17.91    1.10
  -2  -1  -2   16.15    1.05
   2  -1   2   17.35    1.25
   2  -1   2   17.45    1.05
  -2  -1  -2   19.01    1.13
  -2  -1  -2   17.36    1.01
   2  -1   2   18.25    1.17
   2  -1   2   17.37    1.06
  -2  -1  -2   18.59    1.06
  -2  -1  -2   19.42    1.02
   2  -1   2   16.41    1.04
  -2   1  -3  404.59    7.68
   2   1   3  392.70    7.68
   2   1   3  402.20    7.78
   2   1   3  392.69    7.64
   2   1   3  395.18    7.69
  -2   1  -3  406.27    7.79
  -2   1  -3  411.32    7.80
  -2   1  -3  404.97    7.69
   2   1   3  409.14    7.80
  -2   1  -3  401.30    7.69
   2   1   3  405.06    7.70
  -2   1  -3  396.16    7.66
   2  -1   3  414.83    7.82
   2  -1   3  399.35    7.66
  -2  -1  -3  399.13    7.66
  -2  -1  -3  411.22    7.79
   2  -1   3  394.86    7.67
   2  -1   3  396.29    7.67
   2  -1   3  393.45    7.67
  -2  -1  -3  418.94    7.81
  -2  -1  -3  404.41    7.68
  -2  -1  -3  401.20    7.68
  -2  -1  -3  398.56    7.66
   2  -1   3  417.07    7.81
   2   1   4   19.32    1.54
  -2   1  -4   17.13    1.55
  -2   1  -4   18.35    1.43
   2   1   4   20.76    1.62
   2   1   4   16.49    1.35
  -2   1  -4   18.65    1.41
   2   1   4   16.23    1.52
  -2   1  -4   20.10    1.62
  -2   1  -4   19.06    1.40
  -2   1  -4   17.69    1.31
   2  -1   4   17.85    1.53
  -2  -1  -4   20.31    1.58
   2  -1   4   20.78    1.34
   2  -1   4   21.06    1.60
   2  -1   4   20.66    1.39
  -2  -1  -4   17.20    1.42
   2  -1   4   20.35    1.58
  -2  -1  -4   17.75    1.44
  -2  -1  -4   21.65    1.56
  -2  -1  -4   19.01    1.41
  -2  -1  -4   21.59    1.45
   2  -1   4   19.89    1.46
  -2   1  -5  114.94    2.90
   2   1   5  104.46    2.99
   2   1   5  108.60    2.99
   2   1   5  111.94    2.91
  -2   1  -5  111.46    2.90
   2   1   5  106.19    3.13
  -2   1  -5  116.40    3.08
  -2   1  -5  113.37    2.89
   2   1   5  114.16    3.18
   2   1   5  106.32    2.99
  -2   1  -5  112.84    2.83
  -2   1  -5  111.35    3.06
   2  -1   5  117.62    3.14
  -2  -1  -5  110.78    2.90
  -2  -1  -5  113.60    3.09
   2  -1   5  116.83    2.94
  -2  -1  -5  106.60    2.91
   2  -1   5  118.02    2.86
   2  -1   5  116.65    3.07
   2  -1   5  109.06    2.89
  -2  -1  -5  111.55    3.07
  -2  -1  -5  108.64    2.91
   2  -1   5  113.44    2.89
  -2  -1  -5  113.88    2.91
  -2   1  -6   61.94    2.52
  -2   1  -6   61.95    2.32
  -2   1  -6   59.95    2.28
   2   1   6   60.11    2.41
  -2   1  -6   58.59    2.17
  -2   1  -6   61.28    2.54
  -2   1  -6   59.65    2.31
   2   1   6   61.19    2.42
   2   1   6   62.79    2.46
   2   1   6   58.37    2.62
   2   1   6   63.60    2.63
   2   1   6   64.32    2.27
   2  -1   6   58.92    2.35
   2  -1   6   60.81    2.23
  -2  -1  -6   60.25    2.28
   2  -1   6   58.73    2.39
  -2  -1  -6   59.98    2.32
  -2  -1  -6   60.96    2.43
   2  -1   6   60.36    2.29
  -2  -1  -6   62.13    2.29
  -2  -1  -6   59.28    2.33
   2  -1   6   60.89    2.52
   2  -1   6   55.34    2.56
  -2  -1  -6   62.70    2.54
   2   1   7  101.43    3.25
   2   1   7   96.59    3.42
  -2   1  -7   86.91    2.98
   2   1   7   99.09    3.20
   2   1   7   94.22    3.21
  -2   1  -7   93.35    3.04
  -2   1  -7   93.91    2.88
  -2   1  -7   90.29    3.15
   2   1   7   95.19    3.09
   2   1   7   95.24    3.42
  -2   1  -7   95.93    3.30
  -2   1  -7   94.52    2.97
   2  -1   7   93.87    2.94
  -2  -1  -7   93.21    3.06
  -2  -1  -7   93.56    2.99
  -2  -1  -7   97.07    3.05
   2  -1   7  100.05    3.07
   2  -1   7   95.33    3.28
  -2  -1  -7   97.55    3.25
   2  -1   7   90.29    3.18
  -2  -1  -7   94.77    3.01
   2  -1   7   91.53    3.40
  -2  -1  -7   93.93    3.28
   2  -1   7   95.65    3.12
  -2   1  -8   -0.67    1.40
   2   1   8    1.19    1.70
  -2   1  -8   -0.90    1.39
  -2   1  -8   -0.12    1.31
  -2   1  -8    0.83    1.35
   2   1   8   -0.91    1.50
   2   1   8    1.04    1.36
   2   1   8   -0.28    1.84
   2   1   8    0.06    1.77
  -2   1  -8    1.79    1.43
   2  -1   8   -0.34    1.58
   2  -1   8    0.45    1.44
  -2  -1  -8    1.18    1.34
   2  -1   8   -0.47    1.76
  -2  -1  -8    0.65    1.20
  -2  -1  -8   -0.55    1.34
   2  -1   8    0.31    1.38
   2  -1   8    1.30    1.58
  -2  -1  -8    1.83    1.51
   2  -1   8   -0.61    1.38
  -2  -1  -8    0.79    1.53
  -2   1  -9    0.69    1.54
   2   1   9    1.15    2.25
  -2   1  -9    1.82    1.69
   2   1   9    3.57    1.73
  -2   1  -9    1.37    1.58
   2   1   9    0.48    1.74
  -2   1  -9    1.22    1.64
   2   1   9    5.17    1.96
   2   1   9    0.78    1.63
   2   1   9    1.96    1.77
  -2   1  -9    1.09    1.57
  -2   1  -9    1.95    1.46
  -2  -1  -9    0.76    1.78
   2  -1   9   -2.26    1.82
  -2  -1  -9    2.31    1.51
   2  -1   9   -0.04    1.87
   2  -1   9    0.14    1.89
  -2  -1  -9    2.22    1.74
  -2  -1  -9   -1.87    1.77
   2  -1   9    1.81    1.59
   2  -1   9    3.69    2.01
  -2  -1  -9    1.68    1.85
   2  -1   9    0.25    1.64
  -2  -1  -9    0.25    1.37
   2   1  10    4.55    2.20
   2   1  10    8.49    2.29
   2   1  10    6.41    2.05
  -2   1 -10    6.39    1.90
   2   1  10    5.79    2.18
  -2   1 -10    6.54    1.95
   2   1  10    8.44    2.41
  -2   1 -10    7.02    2.06
   2   1  10    7.88    2.78
  -2   1 -10    8.70    2.10
  -2   1 -10    4.29    1.77
  -2   1 -10    6.91    1.91
   2  -1  10    9.06    2.22
   2  -1  10    6.49    2.07
  -2  -1 -10    6.10    1.69
  -2  -1 -10    3.49    1.95
  -2  -1 -10    6.24    2.15
  -2  -1 -10    4.49    1.94
   2  -1  10    7.76    2.39
   2  -1  10    4.21    1.95
  -2  -1 -10    5.40    2.29
  -2  -1 -10    2.53    1.88
   2  -1  10    4.14    2.45
   2  -1  10    8.13    2.51
   2   2 -10    2.85    1.73
  -2   2  10    1.19    2.14
   2   2 -10    1.64    1.61
  -2   2  10    1.49    2.11
   2   2 -10    1.88    1.69
   2   2 -10    2.80    1.82
  -2   2  10   -1.75    1.77
  -2   2  10   -1.15    1.93
   2   2 -10    1.58    1.70
   2   2 -10    1.33    1.87
  -2  -2  10    3.26    2.16
  -2  -2  10    0.55    2.02
   2  -2 -10    3.70    2.07
   2  -2 -10    4.04    1.83
   2  -2 -10   -0.50    1.68
  -2  -2  10    2.21    1.67
  -2  -2  10    0.80    2.16
   2  -2 -10    0.32    2.16
   2  -2 -10    3.16    2.06
  -2  -2  10    0.92    1.82
   2  -2 -10    1.20    1.65
  -2  -2  10   -0.02    1.55
   2   2  -9    7.37    1.73
   2   2  -9    7.16    1.60
  -2   2   9   10.86    2.16
   2   2  -9   10.55    1.66
  -2   2   9    9.99    2.04
   2   2  -9    7.88    1.74
  -2   2   9    9.90    1.98
   2   2  -9    9.91    1.52
   2   2  -9    6.81    1.55
  -2   2   9    7.97    1.89
  -2   2   9    9.88    1.90
  -2   2   9    8.88    1.72
  -2  -2   9    8.26    1.65
  -2  -2   9    6.84    1.42
  -2  -2   9    9.75    1.86
  -2  -2   9    7.21    1.87
   2  -2  -9    5.92    1.95
   2  -2  -9    6.30    1.54
  -2  -2   9    5.90    1.96
   2  -2  -9    7.38    1.76
   2  -2  -9    8.03    1.62
  -2  -2   9    6.91    1.42
   2  -2  -9    9.80    1.97
   2  -2  -9   10.25    1.70
   2   2  -8  169.80    4.47
   2   2  -8  173.61    4.35
  -2   2   8  170.99    4.70
  -2   2   8  174.02    4.59
   2   2  -8  173.54    4.28
  -2   2   8  165.04    4.90
  -2   2   8  168.38    4.81
   2   2  -8  168.74    4.34
  -2   2   8  156.18    6.26
   2   2  -8  168.23    4.52
  -2   2   8  157.37    5.05
  -2  -2   8  172.58    4.70
  -2  -2   8  173.68    3.95
  -2  -2   8  171.83    4.43
   2  -2  -8  173.91    4.78
   2  -2  -8  175.55    4.89
   2  -2  -8  167.45    4.54
   2  -2  -8  172.14    4.54
  -2  -2   8  160.79    4.51
  -2  -2   8  164.92    3.97
   2  -2  -8  169.36    4.67
  -2  -2   8  175.97    4.29
   2  -2  -8  166.05    4.52
  -2   2   7  100.51    3.32
   2   2  -7   93.88    3.08
  -2   2   7   97.57    3.18
  -2   2   7   93.17    3.27
   2   2  -7   95.66    2.95
   2   2  -7  103.76    2.90
   2   2  -7   94.08    2.95
  -2   2   7   98.13    3.17
   2   2  -7   98.49    2.80
  -2   2   7   97.85    3.45
   2   2  -7  103.58    3.08
  -2   2   7   93.47    3.55
   2  -2  -7   96.04    3.13
  -2  -2   7   98.47    2.56
  -2  -2   7   92.44    2.61
  -2  -2   7   94.57    3.20
   2  -2  -7   97.08    3.41
   2  -2  -7   94.40    3.17
   2  -2  -7   99.82    3.19
  -2  -2   7   93.51    2.87
   2  -2  -7  104.57    3.28
  -2  -2   7   95.43    3.05
   2  -2  -7   94.56    3.48
  -2   2   6   67.30    2.48
  -2   2   6   67.62    2.51
   2   2  -6   64.95    2.19
  -2   2   6   67.20    2.60
   2   2  -6   67.62    2.36
   2   2  -6   68.35    2.20
  -2   2   6   65.55    2.61
   2   2  -6   67.65    2.28
  -2   2   6   66.87    2.58
  -2   2   6   66.64    2.79
   2   2  -6   68.84    2.32
   2  -2  -6   64.73    2.46
  -2  -2   6   64.73    3.44
   2  -2  -6   65.22    2.50
  -2  -2   6   69.07    2.33
   2  -2  -6   67.45    2.72
   2  -2  -6   67.45    2.75
  -2  -2   6   62.91    2.45
   2  -2  -6   65.84    2.55
  -2  -2   6   67.99    2.19
  -2  -2   6   66.26    1.93
  -2  -2   6   68.43    1.89
   2  -2  -6   68.82    2.53
   2   2  -5    3.48    0.82
   2   2  -5    1.98    0.90
  -2   2   5    3.22    0.94
   2   2  -5    2.39    0.79
   2   2  -5    2.23    0.87
  -2   2   5    2.93    1.16
  -2   2   5    3.15    1.05
   2   2  -5    4.28    0.85
  -2   2   5    2.08    1.02
  -2   2   5    3.23    0.99
  -2   2   5    3.48    1.12
   2  -2  -5    2.38    0.91
  -2  -2   5    2.98    0.91
   2  -2  -5    2.23    1.00
  -2  -2   5    2.66    0.99
  -2  -2   5    2.63    0.79
   2  -2  -5    3.06    0.96
   2  -2  -5    3.68    1.05
   2  -2  -5    3.94    1.03
   2  -2  -5    3.47    1.06
  -2  -2   5    3.41    0.91
   2   2  -4    3.49    0.70
   2   2  -4    4.43    0.74
  -2   2   4    1.27    0.82
  -2   2   4    2.28    0.98
   2   2  -4    2.97    0.71
  -2   2   4    1.25    0.93
   2   2  -4    3.50    0.77
  -2   2   4    3.33    0.89
   2   2  -4    2.60    0.67
   2   2  -4    2.85    0.83
  -2   2   4    3.94    1.18
  -2   2   4    3.12    0.99
  -2  -2   4    2.86    0.72
   2  -2  -4    3.73    0.97
   2  -2  -4    2.01    0.85
  -2  -2   4    3.04    0.78
  -2  -2   4    1.57    0.63
   2  -2  -4    2.48    0.89
  -2  -2   4    2.91    0.83
   2  -2  -4    2.05    0.90
   2  -2  -4    1.81    0.82
   2  -2  -4    2.57    0.84
  -2   2   3   49.27    1.79
  -2   2   3   50.02    1.81
  -2   2   3   52.09    1.90
   2   2  -3   50.68    1.42
  -2   2   3   47.15    1.86
  -2   2   3   50.54    1.85
   2   2  -3   48.85    1.42
   2   2  -3   48.34    1.44
   2   2  -3   50.53    1.54
   2   2  -3   51.12    1.54
  -2   2   3   49.10    1.99
   2   2  -3   48.60    1.43
  -2  -2   3   49.77    1.45
   2  -2  -3   50.17    1.81
   2  -2  -3   49.64    1.92
   2  -2  -3   50.46    1.77
  -2  -2   3   49.94    1.56
  -2  -2   3   53.74    1.56
   2  -2  -3   50.10    1.78
   2  -2  -3   49.87    2.00
   2  -2  -3   48.77    1.77
  -2   2   2  286.64    5.68
  -2   2   2  277.23    5.70
  -2   2   2  293.70    5.82
   2   2  -2  302.58    5.53
  -2   2   2  292.12    5.83
   2   2  -2  287.51    5.44
   2   2  -2  285.49    5.44
  -2   2   2  281.18    5.71
   2   2  -2  275.65    5.43
   2   2  -2  296.93    5.52
  -2   2   2  290.80    5.74
  -2  -2   2  288.26    5.43
   2  -2  -2  294.52    5.86
   2  -2  -2  285.31    5.70
   2  -2  -2  291.09    5.71
   2  -2  -2  286.85    5.68
   2  -2  -2  283.73    5.69
  -2  -2   2  292.99    5.49
   2  -2  -2  291.37    5.83
  -2   2   1  127.34    2.95
   2   2  -1  124.70    2.54
  -2   2   1  123.68    2.83
  -2   2   1  123.50    2.81
   2   2  -1  127.72    2.61
  -2   2   1  123.39    2.82
  -2   2   1  126.50    2.81
  -2   2   1  127.58    2.93
   2   2  -1  129.80    2.62
  -2  -2   1  126.52    2.53
   2  -2  -1  125.11    2.79
   2  -2  -1  124.61    2.83
   2  -2  -1  124.80    2.96
   2  -2  -1  123.95    2.81
   2  -2  -1  123.92    2.96
   2  -2  -1  124.54    2.76
   2   2   0  111.14    2.37
  -2   2   0  109.02    2.49
  -2   2   0  107.78    2.51
   2   2   0  106.67    2.29
  -2   2   0  106.55    2.53
  -2   2   0  105.92    2.52
   2   2   0  107.13    2.37
  -2   2   0  110.53    2.64
   2   2   0  104.96    2.28
   2   2   0  110.12    2.29
  -2   2   0  111.14    2.65
   2  -2   0  109.30    2.57
  -2  -2   0  109.09    2.36
  -2  -2   0  109.91    2.30
   2  -2   0  107.41    2.49
   2  -2   0  114.16    2.65
  -2  -2   0  110.50    2.38
   2  -2   0  106.03    2.52
   2  -2   0  107.52    2.62
   2  -2   0  109.68    2.47
   2   2   1  814.52   14.92
   2   2   1  830.90   15.02
  -2   2  -1  843.10   15.15
   2   2   1  823.52   15.03
  -2   2  -1  808.93   15.02
  -2   2  -1  839.77   15.15
   2   2   1  791.39   14.93
   2   2   1  819.36   14.95
  -2   2  -1  798.33   15.03
  -2   2  -1  787.92   15.03
  -2   2  -1  804.12   15.04
   2   2   1  787.90   14.92
   2  -2   1  805.20   15.02
  -2  -2  -1  808.41   14.92
  -2  -2  -1  827.94   15.00
   2  -2   1  831.71   15.14
  -2  -2  -1  801.09   14.92
   2  -2   1  810.83   15.00
  -2  -2  -1  820.31   15.01
   2  -2   1  822.30   14.99
   2  -2   1  797.60   15.02
   2  -2   1  828.83   15.14
  -2   2  -2    0.43    0.77
  -2   2  -2    1.32    0.70
   2   2   2    0.81    0.70
   2   2   2    0.58    0.72
   2   2   2    0.84    0.79
   2   2   2    1.28    0.66
  -2   2  -2    0.48    0.76
   2   2   2    0.66    0.73
   2   2   2   -0.16    0.75
  -2   2  -2   -0.11    0.70
  -2   2  -2    0.82    0.89
  -2   2  -2   -0.06    0.65
  -2  -2  -2    0.88    0.61
  -2  -2  -2    0.25    0.61
   2  -2   2    0.76    0.85
   2  -2   2   -0.74    0.88
   2  -2   2    1.11    0.71
  -2  -2  -2    0.71    0.69
  -2  -2  -2    0.49    0.68
   2  -2   2   -0.59    0.77
   2  -2   2    0.30    0.72
  -2  -2  -2    0.34    0.73
   2  -2   2    0.11    0.71
  -2   2  -3   23.79    1.46
  -2   2  -3   24.42    1.41
   2   2   3   24.70    1.62
   2   2   3   21.76    1.45
   2   2   3   23.80    1.46
   2   2   3   24.35    1.51
  -2   2  -3   22.46    1.34
   2   2   3   22.81    1.38
  -2   2  -3   26.43    1.59
  -2   2  -3   22.16    1.41
   2   2   3   24.05    1.52
  -2   2  -3   24.48    1.54
   2  -2   3   24.20    1.60
  -2  -2  -3   22.96    1.39
   2  -2   3   24.41    1.38
  -2  -2  -3   23.86    1.53
  -2  -2  -3   21.90    1.33
   2  -2   3   24.22    1.45
  -2  -2  -3   25.01    1.44
   2  -2   3   24.28    1.63
   2  -2   3   22.57    1.39
  -2  -2  -3   22.09    1.50
   2  -2   3   22.88    1.40
  -2  -2  -3   22.21    1.42
  -2   2  -4    6.38    1.08
   2   2   4    5.69    1.06
   2   2   4    6.56    0.99
   2   2   4    3.92    0.93
   2   2   4    3.31    0.84
   2   2   4    3.95    1.07
  -2   2  -4    6.23    0.92
  -2   2  -4    3.74    1.08
  -2   2  -4    4.27    0.92
  -2   2  -4    4.56    0.89
  -2   2  -4    5.60    0.89
   2   2   4    5.27    1.02
  -2  -2  -4    4.42    0.88
  -2  -2  -4    6.42    0.93
   2  -2   4    4.36    0.94
   2  -2   4    4.04    0.88
   2  -2   4    3.54    0.90
  -2  -2  -4    4.54    0.90
  -2  -2  -4    5.52    1.05
  -2  -2  -4    4.75    0.88
   2  -2   4    4.58    1.08
   2  -2   4    4.09    0.94
  -2  -2  -4    5.87    1.08
   2  -2   4    3.79    1.06
  -2   2  -5  123.38    3.15
  -2   2  -5  122.41    3.30
  -2   2  -5  121.96    3.13
   2   2   5  118.73    3.14
   2   2   5  120.89    3.30
  -2   2  -5  130.23    3.37
   2   2   5  124.30    3.41
  -2   2  -5  120.17    3.14
   2   2   5  121.80    3.34
   2   2   5  119.01    3.18
  -2   2  -5  125.73    3.09
   2   2   5  121.16    3.26
  -2  -2  -5  122.95    3.40
   2  -2   5  124.91    3.02
  -2  -2  -5  121.35    3.15
   2  -2   5  123.14    3.30
  -2  -2  -5  122.58    3.12
  -2  -2  -5  122.52    3.35
   2  -2   5  122.44    3.12
   2  -2   5  122.10    3.18
   2  -2   5  119.02    3.11
  -2  -2  -5  124.66    3.18
   2  -2   5  119.55    3.34
  -2  -2  -5  118.87    3.18
   2   2   6   15.22    1.57
  -2   2  -6   15.97    1.47
   2   2   6   13.04    1.56
  -2   2  -6   14.06    1.31
  -2   2  -6   13.39    1.36
   2   2   6   12.23    1.42
  -2   2  -6   15.81    1.44
   2   2   6   16.94    1.51
   2   2   6   11.83    1.26
  -2   2  -6   16.70    1.44
  -2   2  -6   16.53    1.57
   2  -2   6   15.83    1.66
   2  -2   6   13.95    1.40
  -2  -2  -6   16.66    1.44
   2  -2   6   14.83    1.46
   2  -2   6   14.37    1.39
  -2  -2  -6   15.47    1.61
  -2  -2  -6   13.99    1.31
   2  -2   6   13.58    1.54
  -2  -2  -6   16.13    1.62
  -2  -2  -6   15.69    1.46
   2  -2   6   15.95    1.28
  -2  -2  -6   17.04    1.47
  -2   2  -7  207.42    4.86
  -2   2  -7  200.95    5.12
  -2   2  -7  201.52    4.81
  -2   2  -7  201.29    4.83
   2   2   7  177.75    5.95
  -2   2  -7  205.42    5.08
   2   2   7  205.19    4.95
   2   2   7  204.99    5.25
   2   2   7  199.84    5.04
  -2   2  -7  200.66    4.87
   2  -2   7  206.05    4.92
  -2  -2  -7  205.14    5.22
   2  -2   7  204.45    4.68
  -2  -2  -7  197.02    5.45
  -2  -2  -7  200.51    4.84
  -2  -2  -7  205.44    4.92
   2  -2   7  200.77    5.13
   2  -2   7  206.98    4.81
   2  -2   7  188.84    5.30
  -2  -2  -7  201.11    5.12
   2  -2   7  196.26    5.67
  -2  -2  -7  203.51    4.89
   2   2   8   31.98    3.05
  -2   2  -8   32.39    2.96
  -2   2  -8   35.98    2.79
   2   2   8   33.60    3.34
   2   2   8   36.62    3.14
   2   2   8   34.70    2.83
   2   2   8   35.91    3.27
  -2   2  -8   34.99    2.74
  -2   2  -8   34.57    2.69
   2   2   8   33.38    3.26
   2  -2   8   34.91    2.92
   2  -2   8   34.36    3.09
   2  -2   8   30.93    2.90
  -2  -2  -8   35.36    2.88
   2  -2   8   37.68    3.24
  -2  -2  -8   38.35    2.83
  -2  -2  -8   35.43    2.90
  -2  -2  -8   36.62    3.16
   2  -2   8   30.15    2.37
  -2  -2  -8   36.40    2.73
   2  -2   8   29.31    2.47
   2   2   9   19.57    2.16
   2   2   9   20.42    2.42
  -2   2  -9   21.94    1.95
  -2   2  -9   19.12    2.31
   2   2   9   19.64    2.35
   2   2   9   22.83    2.41
  -2   2  -9   19.60    2.05
  -2   2  -9   21.70    2.33
   2   2   9   20.62    2.13
  -2   2  -9   23.05    2.17
  -2   2  -9   20.77    2.05
   2   2   9   17.86    2.37
   2  -2   9   21.39    2.61
  -2  -2  -9   27.27    2.28
   2  -2   9   24.60    2.10
   2  -2   9   20.19    2.50
  -2  -2  -9   19.67    1.97
  -2  -2  -9   28.72    2.42
  -2  -2  -9   20.47    2.24
   2  -2   9   19.51    2.12
   2  -2   9   18.10    2.19
   2  -2   9   21.20    2.21
  -2  -2  -9   18.39    2.12
  -2  -2  -9   23.59    2.07
   2   3  -9    3.92    1.88
   2   3  -9    6.99    1.75
   2   3  -9    5.33    1.68
  -2   3   9    7.04    2.08
  -2   3   9    4.78    2.11
  -2   3   9    8.61    2.05
   2   3  -9    2.70    1.67
   2   3  -9    4.42    1.69
  -2   3   9    6.08    2.38
   2   3  -9    1.82    1.65
  -2   3   9    3.80    1.91
  -2   3   9    4.32    2.32
  -2  -3   9    6.49    2.07
   2  -3  -9    4.43    2.15
  -2  -3   9    4.26    1.93
   2  -3  -9    5.89    1.83
   2  -3  -9    5.66    2.26
  -2  -3   9    7.99    1.93
   2  -3  -9    6.24    1.96
   2  -3  -9    6.56    1.78
   2  -3  -9    7.94    2.39
  -2  -3   9    7.09    2.22
  -2   3   8   33.54    3.44
   2   3  -8   34.08    2.55
  -2   3   8   41.61    3.31
   2   3  -8   35.17    2.62
  -2   3   8   36.29    3.17
   2   3  -8   35.33    2.69
  -2   3   8   38.14    3.38
  -2   3   8   36.25    3.12
   2   3  -8   34.14    2.58
   2   3  -8   31.87    2.82
   2   3  -8   33.99    2.78
  -2   3   8   38.03    3.22
   2  -3  -8   35.21    3.47
  -2  -3   8   35.12    2.77
   2  -3  -8   38.45    3.22
   2  -3  -8   39.30    3.16
  -2  -3   8   34.26    3.20
   2  -3  -8   29.81    2.81
  -2  -3   8   36.54    2.94
   2  -3  -8   37.71    3.05
  -2  -3   8   35.88    2.82
  -2   3   7    4.75    1.49
  -2   3   7    4.14    1.84
   2   3  -7    6.41    1.50
   2   3  -7    6.73    1.42
  -2   3   7    3.26    1.62
  -2   3   7    6.25    1.54
   2   3  -7    5.69    1.34
  -2   3   7    5.82    1.61
   2   3  -7    7.47    2.34
  -2   3   7    8.69    1.63
  -2  -3   7    6.84    1.49
   2  -3  -7    5.41    1.55
   2  -3  -7    3.71    1.39
  -2  -3   7    8.38    1.39
   2  -3  -7    4.30    1.67
   2  -3  -7    3.69    1.42
  -2  -3   7    5.55    1.59
  -2  -3   7    6.96    1.54
   2  -3  -7    5.64    1.85
   2   3  -6   19.31    1.89
   2   3  -6   22.60    2.29
  -2   3   6   22.07    1.86
  -2   3   6   17.88    1.81
  -2   3   6   22.22    1.97
   2   3  -6   16.41    1.50
   2   3  -6   20.23    1.36
  -2   3   6   18.85    1.62
   2   3  -6   17.62    1.42
  -2   3   6   18.57    1.63
   2   3  -6   17.35    1.40
  -2   3   6   13.46    1.85
  -2  -3   6   18.10    1.84
   2  -3  -6   14.14    1.65
   2  -3  -6   16.68    1.49
  -2  -3   6   18.90    1.36
   2  -3  -6   17.30    1.51
   2  -3  -6   17.73    1.65
  -2  -3   6   18.79    1.59
   2  -3  -6   19.80    1.89
  -2  -3   6   20.10    1.45
   2  -3  -6   20.74    1.69
   2   3  -5   54.50    2.01
  -2   3   5   55.15    2.56
   2   3  -5   53.88    2.19
   2   3  -5   54.67    2.13
  -2   3   5   55.01    2.45
  -2   3   5   51.25    2.70
   2   3  -5   53.77    2.04
   2   3  -5   52.80    2.07
  -2   3   5   53.73    2.61
   2   3  -5   51.90    2.04
  -2   3   5   49.07    2.58
  -2   3   5   51.32    2.61
   2  -3  -5   50.24    2.56
  -2  -3   5   55.92    2.01
   2  -3  -5   54.99    2.69
   2  -3  -5   51.25    2.45
   2  -3  -5   52.04    2.66
  -2  -3   5   55.34    2.17
  -2  -3   5   54.12    2.29
   2  -3  -5   52.74    2.47
  -2  -3   5   54.97    2.08
   2  -3  -5   55.80    2.42
   2   3  -4   38.51    1.67
  -2   3   4   40.59    2.09
  -2   3   4   37.94    2.17
   2   3  -4   40.30    1.79
   2   3  -4   41.21    1.71
  -2   3   4   41.53    2.23
   2   3  -4   39.01    1.76
  -2   3   4   42.59    2.21
   2   3  -4   38.59    1.69
  -2   3   4   39.28    2.31
   2   3  -4   38.71    1.60
  -2   3   4   41.21    2.24
   2  -3  -4   38.47    2.27
  -2  -3   4   40.62    1.84
   2  -3  -4   42.09    2.30
   2  -3  -4   38.24    2.12
  -2  -3   4   40.08    1.61
  -2  -3   4   39.02    1.68
   2  -3  -4   41.69    2.16
   2  -3  -4   39.63    2.06
   2  -3  -4   39.81    1.97
  -2  -3   4   39.44    1.81
  -2   3   3    4.71    1.11
   2   3  -3    4.83    0.83
  -2   3   3    3.16    1.19
   2   3  -3    3.44    0.72
  -2   3   3    5.09    1.05
   2   3  -3    4.99    0.89
  -2   3   3    4.62    1.00
  -2   3   3    4.23    1.13
   2   3  -3    3.08    0.79
   2   3  -3    3.71    0.86
  -2   3   3    5.83    1.09
   2   3  -3    2.53    0.73
  -2  -3   3    3.12    0.88
   2  -3  -3    4.78    0.96
   2  -3  -3    3.96    1.13
   2  -3  -3    3.38    1.13
  -2  -3   3    3.41    0.73
  -2  -3   3    3.96    0.91
   2  -3  -3    4.43    1.02
   2  -3  -3    4.15    1.04
  -2  -3   3    3.67    0.77
   2   3  -2  422.74    8.02
   2   3  -2  422.79    8.04
   2   3  -2  437.16    8.15
  -2   3   2  412.97    8.33
   2   3  -2  432.40    8.13
  -2   3   2  429.17    8.36
   2   3  -2  431.75    8.03
  -2   3   2  428.70    8.30
   2   3  -2  418.75    8.06
  -2   3   2  430.37    8.48
  -2   3   2  417.40    8.31
  -2   3   2  426.56    8.50
   2  -3  -2  423.69    8.48
   2  -3  -2  422.63    8.32
   2  -3  -2  425.89    8.24
   2  -3  -2  423.71    8.22
  -2  -3   2  421.43    8.09
  -2  -3   2  436.86    8.02
   2  -3  -2  419.84    8.32
   2  -3  -2  429.03    8.48
   2   3  -1   46.08    1.51
   2   3  -1   51.41    1.66
   2   3  -1   49.97    1.56
  -2   3   1   49.64    1.90
  -2   3   1   50.41    2.06
  -2   3   1   45.50    1.92
   2   3  -1   49.03    1.51
  -2   3   1   46.40    1.94
  -2   3   1   49.85    2.01
  -2   3   1   49.63    1.88
   2   3  -1   51.58    1.68
   2   3  -1   47.57    1.59
  -2  -3   1   51.23    1.67
  -2  -3   1   46.77    1.47
   2  -3  -1   47.88    2.04
   2  -3  -1   48.29    2.10
  -2  -3   1   49.35    1.64
   2  -3  -1   48.48    1.83
  -2  -3   1   48.76    1.57
   2  -3  -1   47.64    1.77
   2  -3  -1   48.05    1.95
   2  -3  -1   47.44    1.99
   2   3   0   17.55    1.35
  -2   3   0   19.42    1.53
  -2   3   0   17.93    1.57
  -2   3   0   17.37    1.59
   2   3   0   15.96    1.29
   2   3   0   15.97    1.28
  -2   3   0   16.37    1.58
  -2   3   0   17.60    1.55
   2   3   0   17.25    1.24
   2   3   0   16.41    1.18
  -2   3   0   17.18    1.50
   2   3   0   15.22    1.26
   2  -3   0   17.38    1.64
  -2  -3   0   17.70    1.17
  -2  -3   0   17.76    1.30
   2  -3   0   18.04    1.52
   2  -3   0   17.15    1.31
  -2  -3   0   18.53    1.36
  -2  -3   0   18.22    1.32
   2  -3   0   17.16    1.36
   2  -3   0   17.53    1.55
   2  -3   0   16.13    1.61
  -2   3  -1   86.99    2.54
  -2   3  -1   87.02    2.51
  -2   3  -1   84.68    2.43
   2   3   1   80.61    2.24
   2   3   1   85.12    2.30
   2   3   1   82.90    2.28
   2   3   1   84.24    2.19
   2   3   1   86.05    2.33
  -2   3  -1   89.27    2.39
   2   3   1   81.18    2.34
  -2   3  -1   86.55    2.39
  -2   3  -1   86.62    2.34
  -2  -3  -1   86.91    2.33
   2  -3   1   88.29    2.44
  -2  -3  -1   83.94    2.19
   2  -3   1   81.03    2.47
  -2  -3  -1   84.81    2.33
  -2  -3  -1   81.80    2.25
   2  -3   1   85.45    2.37
   2  -3   1   85.26    2.23
   2  -3   1   87.80    2.25
   2  -3   1   85.51    2.53
  -2   3  -2  326.17    6.45
  -2   3  -2  323.83    6.47
   2   3   2  326.34    6.43
   2   3   2  329.33    6.46
  -2   3  -2  330.86    6.60
   2   3   2  329.48    6.37
  -2   3  -2  328.70    6.61
  -2   3  -2  329.66    6.44
  -2   3  -2  318.86    6.47
   2   3   2  327.14    6.51
   2   3   2  296.46    6.59
   2   3   2  322.44    6.39
  -2  -3  -2  316.78    6.48
  -2  -3  -2  323.55    6.51
  -2  -3  -2  326.30    6.38
  -2  -3  -2  320.08    6.18
   2  -3   2  324.93    6.46
   2  -3   2  329.62    6.60
   2  -3   2  332.81    6.32
   2  -3   2  323.89    6.31
   2  -3   2  283.00    6.51
  -2  -3  -2  325.34    6.37
   2  -3   2  324.43    6.46
  -2  -3  -2  328.21    6.17
  -2   3  -3   35.73    1.92
  -2   3  -3   35.67    1.78
   2   3   3   34.69    1.90
   2   3   3   37.84    1.93
   2   3   3   37.20    1.85
   2   3   3   35.81    1.97
   2   3   3   37.09    1.92
  -2   3  -3   35.64    1.94
  -2   3  -3   36.29    2.01
  -2   3  -3   33.84    1.84
   2   3   3   35.79    1.94
  -2   3  -3   34.70    1.87
   2  -3   3   34.43    1.73
   2  -3   3   35.04    2.07
  -2  -3  -3   39.56    1.67
   2  -3   3   35.22    1.88
   2  -3   3   33.30    1.95
   2  -3   3   34.81    1.96
   2  -3   3   38.25    1.67
  -2  -3  -3   38.76    1.93
  -2  -3  -3   36.92    1.59
  -2  -3  -3   37.70    1.85
  -2  -3  -3   40.15    1.85
   2   3   4    2.85    1.16
  -2   3  -4    2.08    1.04
   2   3   4    4.49    1.23
  -2   3  -4    5.11    1.13
  -2   3  -4    3.53    1.11
  -2   3  -4    2.28    1.01
   2   3   4    4.84    1.21
   2   3   4    2.85    1.19
  -2   3  -4    6.53    1.27
  -2   3  -4    3.62    1.08
   2   3   4    4.85    1.05
   2   3   4    1.48    1.10
  -2  -3  -4    3.55    0.96
   2  -3   4    4.67    1.34
   2  -3   4    3.33    1.03
   2  -3   4    3.34    1.18
  -2  -3  -4    3.82    1.06
  -2  -3  -4    4.18    1.24
  -2  -3  -4    2.51    1.02
   2  -3   4    4.25    0.98
   2  -3   4    4.02    1.11
  -2  -3  -4    4.29    0.99
   2  -3   4    3.46    1.12
  -2  -3  -4    3.65    1.17
   2   3   5    7.65    1.52
   2   3   5    9.01    1.44
  -2   3  -5    8.20    1.44
  -2   3  -5    8.39    1.30
   2   3   5    7.96    1.43
  -2   3  -5    7.66    1.24
  -2   3  -5    8.57    1.29
  -2   3  -5    7.84    1.32
   2   3   5    9.44    1.26
  -2   3  -5    7.17    1.31
   2   3   5    8.76    1.47
   2   3   5    8.49    1.48
   2  -3   5    8.17    1.37
   2  -3   5   11.12    1.39
  -2  -3  -5    8.64    1.23
  -2  -3  -5    6.95    1.20
   2  -3   5    8.66    1.25
   2  -3   5    9.62    1.19
  -2  -3  -5    8.17    1.35
  -2  -3  -5    8.13    1.21
   2  -3   5   10.42    1.57
  -2  -3  -5   10.54    1.45
   2  -3   5   10.61    1.56
  -2  -3  -5    6.20    1.41
  -2   3  -6    4.17    1.66
  -2   3  -6    3.40    1.27
   2   3   6    4.12    1.46
   2   3   6    4.38    1.35
  -2   3  -6    5.09    1.44
   2   3   6    4.19    1.59
   2   3   6    5.71    1.49
   2   3   6    1.54    1.53
   2   3   6    6.25    1.91
  -2   3  -6    1.66    1.47
  -2   3  -6    2.14    1.32
  -2   3  -6    4.78    2.31
   2  -3   6    3.82    1.33
  -2  -3  -6    2.45    1.49
  -2  -3  -6    3.83    1.31
   2  -3   6    5.05    1.51
  -2  -3  -6    3.67    1.31
   2  -3   6    4.92    1.67
   2  -3   6    2.49    1.53
  -2  -3  -6    1.32    1.29
  -2  -3  -6    3.40    1.22
   2  -3   6    5.32    1.28
   2  -3   6    1.86    1.65
  -2  -3  -6    1.52    1.46
   2   3   7   13.13    1.89
   2   3   7   15.39    1.96
  -2   3  -7   16.56    1.98
  -2   3  -7   11.38    1.70
   2   3   7   15.38    2.04
   2   3   7   17.98    1.77
  -2   3  -7   14.79    1.87
   2   3   7   13.96    1.79
  -2   3  -7   14.01    1.88
  -2   3  -7   16.10    1.72
   2   3   7   16.02    2.01
  -2   3  -7   15.11    1.78
   2  -3   7   14.71    1.67
  -2  -3  -7   14.00    1.77
   2  -3   7   14.14    1.78
  -2  -3  -7   15.96    1.69
   2  -3   7   11.55    2.06
  -2  -3  -7   16.03    1.95
   2  -3   7   13.50    1.85
  -2  -3  -7   15.26    1.98
   2  -3   7   11.15    1.92
  -2  -3  -7   15.11    1.64
   2  -3   7   15.57    1.58
  -2  -3  -7   14.70    1.88
   2   3   8   20.91    2.37
  -2   3  -8   17.71    2.16
   2   3   8   20.73    2.31
  -2   3  -8   18.53    2.02
  -2   3  -8   20.08    2.31
  -2   3  -8   18.82    1.91
  -2   3  -8   16.31    2.00
  -2   3  -8   18.25    2.13
   2   3   8   17.39    2.24
   2  -3   8   17.56    2.38
  -2  -3  -8   23.74    2.43
  -2  -3  -8   17.18    1.96
  -2  -3  -8   19.86    2.00
   2  -3   8   20.13    2.40
   2  -3   8   16.90    1.87
   2  -3   8   22.75    2.23
  -2  -3  -8   18.77    2.36
   2  -3   8   17.93    2.19
  -2  -3  -8   20.86    2.14
   2  -3   8   21.48    1.88
  -2  -3  -8   25.29    2.27
   2   4  -7  129.95    3.85
  -2   4   7  133.30    4.61
  -2   4   7  127.28    4.67
   2   4  -7  127.39    4.12
  -2   4   7  125.00    4.83
  -2   4   7  130.79    4.67
  -2   4   7  133.83    4.50
   2   4  -7  128.47    3.90
   2   4  -7  123.14    4.11
  -2   4   7  132.95    5.17
   2   4  -7  122.23    4.96
  -2  -4   7  120.20    4.25
  -2  -4   7  125.40    3.81
   2  -4  -7  133.15    4.48
   2  -4  -7  132.77    4.89
   2  -4  -7  121.19    4.45
   2  -4  -7  125.50    4.57
  -2  -4   7  135.89    4.03
  -2  -4   7  125.49    4.10
   2  -4  -7  136.41    4.19
   2  -4  -7  135.35    4.91
  -2   4   6    4.75    1.78
   2   4  -6    5.52    1.50
  -2   4   6    3.45    1.72
   2   4  -6    3.58    1.38
  -2   4   6    2.07    1.83
  -2   4   6    3.21    1.63
   2   4  -6    6.50    1.52
   2   4  -6    5.15    1.34
  -2   4   6    6.74    1.80
   2   4  -6    2.77    1.45
  -2   4   6    4.44    2.04
   2   4  -6    5.20    1.43
  -2  -4   6    4.73    1.67
   2  -4  -6    4.50    2.49
   2  -4  -6    2.94    1.87
   2  -4  -6    3.82    1.60
  -2  -4   6    4.67    1.41
  -2  -4   6    6.46    1.38
   2  -4  -6    2.59    1.62
   2  -4  -6    7.87    1.82
  -2  -4   6    5.64    1.49
   2  -4  -6    4.38    1.78
  -2   4   5    2.08    1.66
  -2   4   5   -0.71    1.54
  -2   4   5    0.60    1.47
   2   4  -5    0.84    1.19
  -2   4   5    0.03    1.42
   2   4  -5    0.13    1.24
  -2   4   5   -0.51    1.43
   2   4  -5    0.67    1.26
  -2   4   5    0.51    1.64
   2   4  -5   -1.39    1.05
   2   4  -5   -1.43    1.18
   2   4  -5   -0.35    1.26
  -2  -4   5    0.48    1.38
  -2  -4   5    1.30    1.09
   2  -4  -5    1.26    1.26
   2  -4  -5    1.59    1.51
   2  -4  -5    1.37    1.57
  -2  -4   5    4.37    1.32
   2  -4  -5   -2.97    1.67
  -2  -4   5    1.50    1.27
   2  -4  -5    1.68    1.74
  -2   4   4    1.64    1.51
   2   4  -4    1.92    1.00
  -2   4   4    3.08    1.30
   2   4  -4    1.12    1.21
   2   4  -4    1.28    1.08
  -2   4   4    0.26    1.53
   2   4  -4   -0.57    1.11
  -2   4   4    2.72    1.43
  -2   4   4    1.20    1.46
   2   4  -4    1.95    1.15
  -2   4   4    0.09    1.46
   2   4  -4    2.11    1.11
  -2  -4   4   -0.23    1.01
   2  -4  -4    3.25    1.24
  -2  -4   4    1.38    1.18
   2  -4  -4    3.00    1.44
   2  -4  -4    0.71    1.32
   2  -4  -4   -1.00    1.34
   2  -4  -4    1.01    1.50
   2  -4  -4    2.10    1.52
  -2  -4   4    1.55    1.07
  -2  -4   4    0.42    1.24
  -2   4   3    8.64    1.63
  -2   4   3   11.32    1.38
   2   4  -3    7.56    1.02
   2   4  -3   11.07    1.25
   2   4  -3    7.88    1.19
  -2   4   3   11.08    2.39
   2   4  -3    9.77    1.13
  -2   4   3   11.36    1.46
   2   4  -3    8.58    1.18
  -2   4   3    9.80    1.58
  -2   4   3   11.15    2.04
   2   4  -3    7.60    1.23
   2  -4  -3    7.49    1.50
  -2  -4   3    9.42    1.11
   2  -4  -3   11.24    1.45
   2  -4  -3    8.21    1.41
  -2  -4   3   10.08    1.08
   2  -4  -3    8.66    1.21
   2  -4  -3    8.42    1.59
  -2  -4   3    8.45    1.23
   2  -4  -3   11.90    1.34
  -2   4   2   23.24    2.33
   2   4  -2   19.46    1.56
  -2   4   2   22.84    2.27
  -2   4   2   26.44    2.28
   2   4  -2   18.23    1.79
  -2   4   2   25.29    2.31
   2   4  -2   21.30    1.71
   2   4  -2   25.38    1.70
  -2   4   2   26.02    2.21
  -2   4   2   27.12    2.30
   2   4  -2   21.45    1.36
   2   4  -2   20.08    1.84
   2  -4  -2   25.82    2.01
   2  -4  -2   25.75    1.91
  -2  -4   2   21.21    1.88
   2  -4  -2   21.82    2.43
  -2  -4   2   19.22    1.74
  -2  -4   2   20.78    1.77
   2  -4  -2   28.42    2.86
   2  -4  -2   24.12    2.34
  -2  -4   2   20.03    1.64
   2  -4  -2   22.81    2.20
  -2   4   1  176.19    4.37
  -2   4   1  171.10    4.24
  -2   4   1  172.87    4.33
   2   4  -1  169.94    3.97
   2   4  -1  170.44    3.80
  -2   4   1  183.47    4.18
  -2   4   1  174.02    4.19
   2   4  -1  175.03    4.00
   2   4  -1  169.48    3.94
   2   4  -1  168.21    4.00
   2   4  -1  173.20    3.83
  -2   4   1  177.83    4.30
   2  -4  -1  168.68    3.85
  -2  -4   1  174.83    3.82
   2  -4  -1  168.00    4.36
   2  -4  -1  173.06    3.90
  -2  -4   1  172.73    3.94
  -2  -4   1  171.94    3.97
   2  -4  -1  155.27    5.57
   2  -4  -1  177.84    4.20
  -2  -4   1  164.50    3.77
   2  -4  -1  177.54    4.26
   2   4   0    0.02    1.01
   2   4   0   -1.05    0.90
   2   4   0   -1.08    1.05
   2   4   0   -0.90    0.97
   2   4   0    0.29    1.05
  -2   4   0   -0.33    1.14
  -2   4   0   -0.22    1.13
  -2   4   0   -1.04    1.06
  -2   4   0    0.48    1.13
   2   4   0   -0.27    1.03
  -2   4   0    0.03    1.22
  -2   4   0   -0.80    1.22
  -2  -4   0    0.79    1.02
   2  -4   0   -1.11    0.93
   2  -4   0    0.95    0.96
  -2  -4   0   -0.04    1.07
   2  -4   0   -0.93    1.21
   2  -4   0    0.54    1.15
  -2  -4   0   -2.05    1.05
   2  -4   0   -0.61    1.25
  -2  -4   0    0.73    0.94
   2  -4   0   -0.87    1.61
  -2   4  -1   86.39    2.94
   2   4   1   86.96    2.67
   2   4   1   85.57    2.76
  -2   4  -1   82.30    2.73
   2   4   1   84.12    2.75
   2   4   1   86.42    2.58
   2   4   1   84.00    2.73
  -2   4  -1   87.58    2.93
  -2   4  -1   84.63    2.86
   2   4   1   84.63    2.74
  -2   4  -1   87.36    2.83
  -2  -4  -1   84.98    2.69
   2  -4   1   86.02    2.79
   2  -4   1   87.51    2.91
  -2  -4  -1   93.25    2.75
   2  -4   1   86.63    2.47
   2  -4   1   86.16    2.40
  -2  -4  -1   77.99    3.10
  -2  -4  -1   87.46    2.58
  -2   4  -2   33.25    2.26
  -2   4  -2   37.52    2.18
   2   4   2   32.92    2.21
  -2   4  -2   28.01    2.14
   2   4   2   33.23    2.12
   2   4   2   33.20    2.27
  -2   4  -2   31.08    2.84
   2   4   2   29.82    2.60
   2   4   2   31.24    2.25
  -2   4  -2   33.05    2.02
  -2   4  -2   30.32    2.23
   2   4   2   33.16    2.06
  -2  -4  -2   36.43    2.21
   2  -4   2   29.89    1.80
   2  -4   2   30.07    2.26
  -2  -4  -2   35.38    2.08
   2  -4   2   32.64    2.29
   2  -4   2   30.53    2.20
  -2  -4  -2   32.66    2.17
   2  -4   2   30.86    1.75
  -2  -4  -2   32.85    2.32
   2   4   3    5.28    1.34
   2   4   3    6.84    1.43
  -2   4  -3    6.13    1.35
  -2   4  -3    6.72    1.37
   2   4   3    8.23    1.28
  -2   4  -3    6.60    1.22
  -2   4  -3    6.08    1.41
  -2   4  -3    6.78    1.38
  -2   4  -3    6.53    1.35
   2   4   3    6.85    1.30
   2   4   3    5.17    1.42
   2   4   3    5.52    1.41
  -2  -4  -3    8.18    1.29
   2  -4   3    6.46    1.71
  -2  -4  -3    6.51    1.38
   2  -4   3    4.50    1.46
  -2  -4  -3    5.37    1.40
   2  -4   3    6.22    1.34
  -2   4  -4    1.98    1.36
   2   4   4    2.64    1.39
   2   4   4   -0.79    1.44
  -2   4  -4    0.17    1.43
  -2   4  -4    0.85    1.30
  -2   4  -4    1.40    1.38
   2   4   4    0.68    1.35
   2   4   4    0.55    1.34
   2   4   4   -0.65    1.49
  -2   4  -4    0.16    1.21
   2   4   4   -0.76    1.23
  -2   4  -4   -0.34    1.28
  -2  -4  -4    0.21    1.39
   2  -4   4    2.93    1.54
   2  -4   4    0.44    1.10
  -2  -4  -4    0.12    1.07
  -2  -4  -4    1.54    1.44
  -2  -4  -4    0.14    1.06
  -2  -4  -4   -1.42    1.26
   2  -4   4    0.91    1.02
   2  -4   4   -1.98    1.38
   2  -4   4   -0.39    1.36
  -2  -4  -4    0.80    1.35
   2   4   5    4.42    1.60
   2   4   5    6.05    1.66
   2   4   5    6.47    1.54
  -2   4  -5    7.59    1.65
   2   4   5    5.84    1.50
  -2   4  -5    5.57    1.71
  -2   4  -5    9.82    1.55
  -2   4  -5    6.32    1.48
   2   4   5    6.41    1.76
  -2   4  -5    5.64    1.68
   2   4   5    7.05    1.71
  -2   4  -5    4.26    1.51
   2  -4   5    6.86    1.80
  -2  -4  -5    6.36    1.50
  -2  -4  -5    7.58    1.64
  -2  -4  -5    3.69    1.50
  -2  -4  -5    5.30    1.76
  -2  -4  -5    7.66    1.31
   2  -4   5    6.48    1.66
   2  -4   5    7.97    1.68
   2   4   6    8.82    1.96
  -2   4  -6    7.64    1.89
  -2   4  -6    5.17    1.59
   2   4   6    7.62    1.88
   2   4   6    7.91    1.69
   2   4   6    4.73    1.94
   2   4   6    7.09    1.90
  -2   4  -6    7.89    1.74
   2   4   6    7.22    2.00
  -2   4  -6    6.06    1.66
  -2   4  -6   10.07    1.75
  -2   4  -6    7.22    1.65
  -2  -4  -6    7.46    1.50
   2  -4   6    6.84    1.40
   2  -4   6    6.50    2.10
   2  -4   6    6.32    1.79
  -2  -4  -6    8.90    1.86
  -2  -4  -6    5.25    1.72
  -2  -4  -6    8.55    1.88
  -2  -4  -6    5.99    1.55
  -2  -4  -6    8.54    1.74
   2  -4   6    7.10    1.89
   2   4   7   47.18    3.63
   2   4   7   44.07    3.75
  -2   4  -7   44.66    3.41
  -2   4  -7   51.62    3.34
   2   4   7   47.03    3.73
   2   4   7   47.76    4.01
  -2   4  -7   40.73    3.29
   2   4   7   42.52    3.66
  -2   4  -7   48.00    3.63
  -2   4  -7   41.46    3.18
   2   4   7   38.30    3.53
  -2   4  -7   46.63    3.49
  -2  -4  -7   43.86    3.50
  -2  -4  -7   38.85    3.62
   2  -4   7   37.54    2.99
  -2  -4  -7   42.74    3.75
  -2  -4  -7   40.84    3.55
   2  -4   7   53.08    3.71
   2  -4   7   48.99    3.67
  -2  -4  -7   33.98    3.38
   2  -4   7   43.68    3.88
  -2  -4  -7   45.89    3.71
  -2   5   4   34.89    3.48
  -2   5   4   35.83    3.30
   2   5  -4   33.47    2.50
  -2   5   4   35.55    3.45
  -2   5   4   40.60    3.51
   2   5  -4   30.80    2.17
   2   5  -4   35.95    2.84
  -2   5   4   36.16    3.44
   2   5  -4   34.47    2.73
  -2   5   4   41.58    3.53
   2   5  -4   31.39    2.73
   2   5  -4   33.71    2.74
   2  -5  -4   37.06    2.64
   2  -5  -4   41.73    3.61
   2  -5  -4   38.07    3.62
   2  -5  -4   33.70    3.01
  -2  -5   4   33.35    2.54
   2  -5  -4   36.35    3.40
  -2  -5   4   34.91    2.47
   2  -5  -4   37.06    2.64
  -2   5   3    6.43    1.84
   2   5  -3    9.19    1.48
   2   5  -3    8.53    1.40
  -2   5   3   10.53    1.95
  -2   5   3    8.00    2.01
   2   5  -3    7.38    1.60
   2   5  -3    6.48    1.55
   2   5  -3    7.79    1.51
  -2   5   3    9.63    1.77
  -2   5   3    5.51    1.86
  -2   5   3   10.30    1.88
   2   5  -3    8.94    1.20
   2  -5  -3    7.12    2.06
  -2  -5   3    6.38    1.36
   2  -5  -3   10.40    1.99
   2  -5  -3    9.95    1.50
   2  -5  -3    8.89    1.82
  -2  -5   3    9.88    1.43
   2  -5  -3    8.14    2.01
   2  -5  -3   12.62    1.59
   2   5  -2   23.83    2.33
   2   5  -2   20.78    1.94
  -2   5   2   25.46    2.13
  -2   5   2   30.77    2.95
   2   5  -2   22.33    2.24
   2   5  -2   25.46    2.54
  -2   5   2   24.11    2.20
  -2   5   2   31.60    3.15
  -2   5   2   25.59    2.00
   2   5  -2   25.81    2.58
   2   5  -2   27.77    2.70
  -2   5   2   30.91    2.97
  -2  -5   2   27.07    2.43
  -2  -5   2   25.32    2.24
   2  -5  -2   32.22    2.40
  -2  -5   2   26.98    2.46
  -2  -5   2   28.12    2.39
   2  -5  -2   24.43    2.08
   2  -5  -2   25.86    2.05
   2  -5  -2   27.48    2.26
   2  -5  -2   29.05    2.18
   2   5  -1   23.36    1.79
  -2   5   1   21.20    1.93
  -2   5   1   24.90    2.14
   2   5  -1   22.39    1.55
   2   5  -1   21.09    1.75
  -2   5   1   27.35    1.94
   2   5  -1   26.07    2.62
   2   5  -1   23.65    1.78
   2   5  -1   25.40    2.22
  -2   5   1   27.16    2.24
  -2   5   1   24.63    1.98
  -2   5   1   26.83    2.09
  -2  -5   1   24.05    2.44
   2  -5  -1   24.87    2.11
  -2  -5   1   26.26    2.42
  -2  -5   1   21.86    1.74
   2  -5  -1   24.40    2.16
   2  -5  -1   24.32    1.93
  -2  -5   1   25.54    2.22
  -2   5   0   15.79    1.71
   2   5   0   16.29    1.74
   2   5   0   16.21    1.68
  -2   5   0   13.41    2.02
  -2   5   0   16.49    1.77
  -2   5   0   14.89    1.82
   2   5   0   14.25    1.66
   2   5   0   16.54    1.48
   2   5   0   15.16    1.76
  -2   5   0   16.04    1.86
   2   5   0   16.22    1.50
  -2   5   0   13.30    1.94
   2  -5   0   16.84    2.03
   2  -5   0   12.07    1.89
  -2  -5   0   16.02    1.43
  -2  -5   0   16.08    1.74
  -2  -5   0   17.63    1.62
  -2  -5   0   15.48    1.68
   2  -5   0   13.73    2.33
   2  -5   0   16.41    1.80
  -2   5  -1   61.23    3.25
   2   5   1   59.46    3.01
  -2   5  -1   61.96    3.05
  -2   5  -1   53.39    3.84
   2   5   1   61.09    3.19
   2   5   1   58.92    2.97
   2   5   1   58.38    2.99
  -2   5  -1   63.25    3.14
   2   5   1   64.60    2.74
  -2   5  -1   57.40    2.80
   2   5   1   59.12    2.77
  -2  -5  -1   60.53    2.93
   2  -5   1   60.59    3.31
   2  -5   1   62.36    3.16
   2  -5   1   56.94    3.20
  -2  -5  -1   58.59    2.76
  -2  -5  -1   57.17    2.97
   2  -5   1   56.71    3.29
  -2  -5  -1   56.92    2.95
  -2   5  -2   30.56    2.48
  -2   5  -2   28.51    2.95
   2   5   2   33.56    2.76
  -2   5  -2   36.39    2.66
  -2   5  -2   33.67    2.87
   2   5   2   31.42    2.97
   2   5   2   36.19    2.61
   2   5   2   33.00    2.90
   2   5   2   39.48    2.84
   2   5   2   27.63    2.68
  -2   5  -2   32.23    2.92
  -2  -5  -2   36.00    2.90
   2  -5   2   33.75    3.16
   2  -5   2   33.44    2.94
   2  -5   2   32.14    3.01
  -2  -5  -2   35.74    2.66
  -2  -5  -2   31.49    2.84
   2  -5   2   35.45    3.11
  -2  -5  -2   32.51    2.97
  -2   5  -3   -2.31    1.58
  -2   5  -3    2.38    1.44
  -2   5  -3    2.83    1.81
   2   5   3    1.87    1.61
   2   5   3    4.18    1.66
  -2   5  -3    0.81    1.55
  -2   5  -3    2.43    1.65
   2   5   3    0.90    1.79
   2   5   3    2.96    1.57
  -2   5  -3    3.01    1.79
   2   5   3    1.09    1.76
   2   5   3    5.12    1.79
   2  -5   3    2.51    1.65
  -2  -5  -3    0.43    1.72
  -2  -5  -3    1.29    1.55
   2  -5   3    0.98    1.79
   2  -5   3    1.99    1.92
  -2  -5  -3    3.89    1.81
   2  -5   3    4.91    1.81
  -2  -5  -3    3.42    1.65
   2   5   4   16.15    1.96
  -2   5  -4   12.27    2.07
   2   5   4   14.14    1.92
  -2   5  -4   14.89    2.11
  -2   5  -4   19.49    1.97
   2   5   4   16.97    2.10
   2  -5   4   20.44    2.11
   2  -5   4   17.65    2.20
  -2  -5  -4   15.67    2.04
  -2  -5  -4   19.18    2.10
   2  -5   4   18.42    2.31
  -2  -5  -4   15.07    2.14
   3   0 -11    1.20    1.69
   3   0 -11   -2.04    2.00
   3   0 -11   -0.71    1.71
  -3   0  11    3.03    2.16
  -3   0  11   -0.79    1.78
  -3   0  11    0.67    2.24
  -3   0  11    0.48    2.34
   3   0 -11    1.63    1.90
   3   0 -11    0.07    1.97
   3   0 -11   -2.51    2.02
  -3   0  11   -3.62    1.95
  -3   0  11   -3.55    2.59
   3   0 -10    5.21    1.50
   3   0 -10    6.17    1.63
  -3   0  10   10.73    2.08
  -3   0  10    7.54    1.79
  -3   0  10    9.23    2.40
   3   0 -10    2.05    1.70
  -3   0  10    9.12    1.98
  -3   0  10    6.98    1.87
  -3   0  10   10.56    1.73
   3   0 -10    8.91    1.71
   3   0 -10    5.53    1.88
   3   0 -10    9.11    1.85
  -3   0   9   -2.00    1.62
   3   0  -9   -0.84    1.36
  -3   0   9   -2.10    1.40
  -3   0   9    1.53    1.47
   3   0  -9    1.11    1.34
   3   0  -9   -0.25    1.49
  -3   0   9   -2.95    1.33
  -3   0   9   -1.84    1.52
  -3   0   9   -3.09    3.00
   3   0  -9   -0.81    1.47
   3   0  -9    1.45    1.60
   3   0  -9    1.20    1.41
   3   0  -8   38.41    2.34
   3   0  -8   41.87    2.40
   3   0  -8   41.21    2.52
  -3   0   8   37.81    2.73
   3   0  -8   36.08    2.59
  -3   0   8   39.95    2.69
   3   0  -8   43.28    2.30
  -3   0   8   35.74    2.51
  -3   0   8   41.12    2.56
   3   0  -8   39.12    2.41
  -3   0   8   42.03    2.45
  -3   0   8   45.41    2.31
   3   0  -7   -0.68    1.18
  -3   0   7   -1.56    1.11
   3   0  -7   -1.89    0.96
  -3   0   7   -0.14    1.22
  -3   0   7   -1.45    1.01
   3   0  -7    0.11    0.99
   3   0  -7   -0.15    1.16
   3   0  -7    0.75    1.01
  -3   0   7   -0.19    0.98
   3   0  -7   -1.18    0.94
  -3   0   6   22.40    1.58
  -3   0   6   21.14    1.69
   3   0  -6   17.63    1.72
   3   0  -6   17.27    1.57
   3   0  -6   19.72    1.79
  -3   0   6   18.97    1.67
   3   0  -6   17.97    1.61
  -3   0   6   20.08    1.79
   3   0  -6   18.34    1.60
  -3   0   6   16.90    1.52
  -3   0   6   19.56    1.62
   3   0  -6   21.04    1.59
   3   0  -5    0.08    0.80
  -3   0   5    0.66    0.80
  -3   0   5   -0.36    0.93
  -3   0   5    0.98    0.79
   3   0  -5   -0.58    0.80
  -3   0   5   -0.18    0.71
   3   0  -5    0.16    0.70
  -3   0   5   -0.35    0.79
   3   0  -5   -0.63    0.83
   3   0  -5   -0.23    0.82
   3   0  -5   -0.01    0.82
  -3   0   5    0.39    0.72
   3   0  -4  165.96    3.47
  -3   0   4  165.12    3.40
  -3   0   4  160.61    3.40
  -3   0   4  166.76    3.52
   3   0  -4  165.07    3.44
  -3   0   4  162.51    3.44
   3   0  -4  164.25    3.55
  -3   0   4  160.99    3.39
   3   0  -4  161.93    3.43
   3   0  -4  159.08    3.41
  -3   0   4  161.84    3.55
   3   0  -4  164.16    3.52
  -3   0   3    0.06    0.53
  -3   0   3   -0.17    0.52
   3   0  -3    0.53    0.65
   3   0  -3    0.11    0.57
   3   0  -3    0.01    0.58
  -3   0   3    0.42    0.56
  -3   0   3    0.13    0.56
   3   0  -3    0.11    0.59
   3   0  -3   -0.21    0.57
  -3   0   3   -0.06    0.50
   3   0  -3    0.14    0.62
  -3   0   3    0.53    0.67
  -3   0   2 1793.13   32.02
   3   0  -2 1782.59   31.96
  -3   0   2 1734.89   31.87
   3   0  -2 1760.96   31.94
  -3   0   2 1732.96   31.93
   3   0  -2 1775.97   31.97
   3   0  -2 1723.30   31.87
   3   0  -2 1716.52   31.88
  -3   0   2 1782.44   32.00
  -3   0   2 1780.83   32.02
   3   0  -2 1777.50   31.93
   3   0  -1    0.39    0.39
  -3   0   1    0.24    0.37
  -3   0   1   -0.09    0.35
   3   0  -1   -0.15    0.40
   3   0  -1    0.41    0.42
   3   0  -1   -0.17    0.47
  -3   0   1    0.39    0.36
   3   0  -1   -0.19    0.47
  -3   0   1    0.14    0.38
  -3   0   1    0.20    0.44
   3   0  -1   -0.08    0.40
   3   0   0    7.43    0.74
  -3   0   0    4.74    0.43
   3   0   0    4.25    0.50
  -3   0   0    6.72    0.61
   3   0   0    4.94    0.45
   3   0   0    5.40    0.46
   3   0   0    6.66    0.64
   3   0   0    6.72    0.62
  -3   0   0    7.00    0.62
  -3   0   0    5.23    0.42
  -3   0   0    7.59    0.72
  -3   0  -1   -0.24    0.47
   3   0   1   -0.64    0.53
  -3   0  -1    0.05    0.48
   3   0   1   -0.12    0.47
   3   0   1   -0.85    0.48
  -3   0  -1   -0.19    0.44
   3   0   1    0.17    0.54
  -3   0  -1    0.46    0.48
  -3   0  -1    0.34    0.47
  -3   0  -1    0.08    0.53
   3   0   1   -0.02    0.45
   3   0   1    0.40    0.54
  -3   0  -2  137.26    2.96
   3   0   2  129.88    2.83
  -3   0  -2  135.40    2.94
   3   0   2  134.72    2.85
   3   0   2  134.68    2.94
  -3   0  -2  131.82    2.81
  -3   0  -2  134.01    2.80
   3   0   2  133.47    2.83
   3   0   2  138.49    2.97
  -3   0  -2  130.43    2.82
  -3   0  -2  133.50    2.85
   3   0   2  134.16    2.83
  -3   0  -3    0.43    0.67
   3   0   3    1.92    0.88
  -3   0  -3    0.64    0.78
   3   0   3    0.13    0.63
   3   0   3    0.35    0.78
   3   0   3    0.11    0.69
  -3   0  -3    0.38    0.60
  -3   0  -3    0.05    0.65
   3   0   3   -0.40    0.67
  -3   0  -3   -0.01    0.64
  -3   0  -3    0.09    0.74
   3   0   3    0.03    0.66
   3   0   4  657.19   12.55
   3   0   4  661.20   12.54
   3   0   4  672.91   12.57
  -3   0  -4  664.94   12.55
  -3   0  -4  683.82   12.69
  -3   0  -4  671.45   12.56
   3   0   4  666.61   12.56
  -3   0  -4  657.51   12.52
   3   0   4  668.95   12.69
   3   0   4  681.26   12.71
  -3   0  -4  661.23   12.53
   3   0   5    0.68    1.01
  -3   0  -5    0.11    0.81
   3   0   5    0.90    1.10
  -3   0  -5   -0.94    0.99
  -3   0  -5    0.38    0.90
  -3   0  -5    0.32    0.80
  -3   0  -5    0.79    0.79
   3   0   5    0.81    0.86
  -3   0  -5    0.40    0.92
   3   0   5    2.56    1.05
   3   0   5    0.66    1.02
   3   0   5    0.35    0.83
   3   0   6    3.36    1.12
  -3   0  -6    2.78    1.07
  -3   0  -6    0.45    1.03
   3   0   6    3.58    1.23
   3   0   6    3.13    1.05
  -3   0  -6    1.50    0.97
   3   0   6    2.95    1.31
   3   0   6    3.34    1.26
  -3   0  -6    3.01    1.10
  -3   0  -6    1.51    0.89
  -3   0  -6    0.40    1.15
   3   0   6    2.51    1.14
  -3   0  -7   -1.21    1.23
   3   0   7   -0.70    1.21
   3   0   7   -1.14    1.14
  -3   0  -7    0.05    1.04
   3   0   7   -1.94    1.38
  -3   0  -7   -0.69    1.21
   3   0   7    1.40    1.35
  -3   0  -7    2.64    1.19
  -3   0  -7    0.24    1.23
  -3   0  -7    0.21    1.03
   3   0   7    0.34    1.53
   3   0   7    1.20    1.24
   3   0   8   95.23    3.29
  -3   0  -8   91.44    3.23
  -3   0  -8   84.74    3.24
   3   0   8   86.42    3.70
  -3   0  -8   88.14    3.61
   3   0   8   84.52    3.96
   3   0   8   89.51    3.42
   3   0   8   84.33    3.76
  -3   0  -8   90.64    3.43
  -3   0  -8   88.29    3.13
  -3   0  -9   -0.57    1.51
   3   0   9    1.56    1.74
   3   0   9    1.69    2.00
  -3   0  -9   -1.34    1.50
  -3   0  -9   -4.14    1.60
   3   0   9    1.05    1.72
  -3   0  -9    1.82    1.83
   3   0   9    1.51    2.10
   3   0   9    1.83    2.49
   3   0   9   -0.47    1.87
  -3   0  -9    0.64    1.48
  -3   0  -9    0.23    1.37
  -3   0 -10   64.07    3.94
   3   0  10   52.05    4.12
   3   0  10   54.43    3.94
   3   0  10   42.95    4.01
  -3   0 -10   53.23    3.73
   3   0  10   53.83    3.94
   3   0  10   48.24    4.51
  -3   0 -10   54.06    3.53
  -3   0 -10   48.83    3.40
  -3   0 -10   47.76    3.62
   3   0  10   51.77    3.72
  -3   0 -10   51.09    3.42
  -3   1  11    1.85    2.12
  -3   1  11    2.35    2.49
   3   1 -11    1.62    2.19
   3   1 -11   -0.80    1.62
  -3   1  11    2.51    2.40
  -3   1  11    5.06    2.25
   3   1 -11    0.77    1.88
  -3   1  11    2.86    2.23
  -3   1  11    1.80    2.35
   3   1 -11    1.95    1.85
   3   1 -11    2.89    2.02
   3   1 -11   -1.56    2.02
  -3  -1  11    2.47    2.24
   3  -1 -11    2.16    1.91
  -3  -1  11    1.84    1.83
  -3  -1  11    3.04    1.96
  -3  -1  11    0.60    2.34
   3  -1 -11    3.79    2.12
   3  -1 -11    3.60    2.02
   3  -1 -11    2.02    2.15
  -3  -1  11    0.72    2.10
   3  -1 -11   -0.90    2.22
  -3  -1  11    0.64    2.33
   3  -1 -11   -0.06    1.72
   3   1 -10    0.94    1.59
   3   1 -10    4.10    1.86
  -3   1  10    0.65    1.84
   3   1 -10    2.68    1.75
  -3   1  10    1.97    2.30
  -3   1  10   -0.15    2.00
   3   1 -10    0.78    1.57
   3   1 -10    1.51    1.64
  -3   1  10    1.35    1.81
  -3   1  10    2.31    1.83
   3   1 -10    3.50    1.59
  -3   1  10    3.99    1.89
  -3  -1  10    3.79    1.55
  -3  -1  10    1.57    1.66
   3  -1 -10    0.21    1.56
   3  -1 -10   -0.18    1.65
   3  -1 -10   -0.51    1.89
  -3  -1  10    3.29    1.91
   3  -1 -10    1.23    1.99
  -3  -1  10   -1.25    1.99
  -3  -1  10    8.39    2.13
   3  -1 -10    5.13    1.75
   3  -1 -10    3.80    1.87
  -3  -1  10    3.95    1.93
   3   1  -9  128.30    4.09
   3   1  -9  134.44    3.87
   3   1  -9  135.18    4.17
  -3   1   9  132.77    4.52
   3   1  -9  127.08    3.94
  -3   1   9  131.54    4.11
   3   1  -9  128.16    3.73
   3   1  -9  135.16    4.70
  -3   1   9  130.30    4.16
  -3   1   9  135.39    4.02
   3  -1  -9  127.26    4.18
  -3  -1   9  127.18    4.26
   3  -1  -9  137.79    4.37
   3  -1  -9  130.04    3.96
  -3  -1   9  122.35    3.71
   3  -1  -9  133.68    3.98
   3  -1  -9  132.21    4.02
  -3  -1   9  134.15    3.67
   3  -1  -9  133.99    4.10
  -3  -1   9  135.08    4.02
  -3  -1   9  128.29    4.20
  -3  -1   9  132.00    4.08
   3   1  -8    2.40    1.17
  -3   1   8    1.32    1.23
  -3   1   8    1.31    1.26
   3   1  -8    1.25    1.08
   3   1  -8   -1.05    1.32
   3   1  -8    1.10    1.35
  -3   1   8    1.15    1.43
   3   1  -8   -0.78    1.23
   3   1  -8    0.82    1.15
  -3   1   8   -2.46    1.28
  -3   1   8    1.78    1.57
  -3   1   8    1.16    1.29
  -3  -1   8   -1.46    1.17
  -3  -1   8    2.21    1.12
   3  -1  -8   -0.58    1.20
   3  -1  -8    0.41    1.47
   3  -1  -8    1.61    1.48
  -3  -1   8    0.57    1.47
  -3  -1   8   -0.49    1.26
  -3  -1   8   -0.76    1.33
   3  -1  -8   -0.17    1.16
   3  -1  -8   -0.63    1.34
  -3  -1   8   -1.21    1.37
   3  -1  -8    0.53    1.11
  -3   1   7   51.33    2.50
  -3   1   7   54.46    2.46
  -3   1   7   52.48    2.66
   3   1  -7   54.09    2.17
   3   1  -7   56.11    2.23
   3   1  -7   54.52    2.39
  -3   1   7   55.34    2.51
   3   1  -7   55.42    2.13
   3   1  -7   55.40    2.36
   3   1  -7   54.61    2.24
  -3   1   7   56.81    2.40
  -3  -1   7   52.37    2.31
   3  -1  -7   54.64    2.35
   3  -1  -7   55.43    2.31
   3  -1  -7   59.36    2.63
   3  -1  -7   56.61    2.42
  -3  -1   7   57.97    2.25
  -3  -1   7   54.82    2.08
  -3  -1   7   56.16    2.41
   3  -1  -7   54.40    2.51
   3  -1  -7   54.94    2.38
  -3  -1   7   53.37    2.49
  -3  -1   7   55.66    2.04
  -3   1   6  325.20    6.81
   3   1  -6  329.97    6.61
   3   1  -6  322.99    6.46
   3   1  -6  318.91    6.46
   3   1  -6  327.69    6.43
  -3   1   6  324.54    6.57
  -3   1   6  319.73    6.61
   3   1  -6  322.37    6.42
  -3   1   6  323.02    6.54
   3   1  -6  323.44    6.56
  -3   1   6  314.70    6.59
  -3   1   6  324.57    6.75
  -3  -1   6  316.25    6.33
   3  -1  -6  324.26    6.62
  -3  -1   6  320.29    6.58
  -3  -1   6  315.35    6.43
   3  -1  -6  326.84    6.78
   3  -1  -6  324.20    6.58
  -3  -1   6  320.88    6.61
   3  -1  -6  321.24    6.58
  -3  -1   6  330.64    6.33
   3  -1  -6  330.24    6.79
  -3  -1   6  320.87    6.46
   3  -1  -6  318.35    6.57
  -3   1   5   46.48    2.09
  -3   1   5   48.06    1.98
   3   1  -5   50.03    1.77
   3   1  -5   48.68    1.64
   3   1  -5   48.60    1.81
  -3   1   5   45.69    1.92
  -3   1   5   47.51    1.88
   3   1  -5   49.20    1.69
  -3   1   5   46.12    1.91
   3   1  -5   46.39    1.67
   3   1  -5   48.29    1.67
  -3   1   5   49.19    1.87
   3  -1  -5   46.48    1.86
   3  -1  -5   47.49    2.02
  -3  -1   5   49.97    1.72
   3  -1  -5   47.45    1.88
   3  -1  -5   47.21    2.04
  -3  -1   5   47.95    1.58
   3  -1  -5   48.88    1.93
   3  -1  -5   47.35    1.84
  -3  -1   5   48.41    1.51
  -3  -1   5   48.04    1.83
  -3  -1   5   49.16    1.70
  -3   1   4  310.91    6.14
  -3   1   4  301.98    6.11
  -3   1   4  308.63    6.09
   3   1  -4  298.86    5.95
   3   1  -4  313.63    6.04
  -3   1   4  308.06    6.12
   3   1  -4  311.20    5.94
   3   1  -4  316.00    5.97
   3   1  -4  308.46    6.05
   3   1  -4  308.36    5.93
  -3   1   4  317.48    6.29
  -3   1   4  317.55    6.24
   3  -1  -4  312.24    6.15
  -3  -1   4  302.24    5.95
  -3  -1   4  314.98    5.83
   3  -1  -4  312.57    6.13
   3  -1  -4  321.10    6.27
  -3  -1   4  305.27    5.83
  -3  -1   4  306.06    5.95
   3  -1  -4  313.47    6.26
  -3  -1   4  306.56    6.07
   3  -1  -4  309.97    6.11
  -3  -1   4  310.72    6.04
   3  -1  -4  305.28    6.11
   3   1  -3   13.20    0.87
   3   1  -3   12.35    0.85
   3   1  -3   12.85    0.98
   3   1  -3   13.06    0.85
   3   1  -3   11.03    0.84
  -3   1   3    9.85    0.83
  -3   1   3   13.61    1.20
   3   1  -3   10.89    0.95
  -3   1   3   12.35    1.18
  -3   1   3   12.88    1.20
  -3   1   3   13.31    1.34
  -3   1   3   11.27    1.00
   3  -1  -3   10.67    0.92
   3  -1  -3   12.46    1.21
  -3  -1   3   13.06    0.98
   3  -1  -3   13.09    1.35
   3  -1  -3   12.93    1.21
  -3  -1   3   12.81    0.92
   3  -1  -3   14.90    1.22
  -3  -1   3   13.25    1.00
   3  -1  -3   13.24    1.20
  -3   1   2    5.05    0.77
  -3   1   2    5.28    0.71
  -3   1   2    5.41    0.68
  -3   1   2    6.76    0.82
  -3   1   2    6.53    0.70
  -3   1   2    6.98    0.72
   3   1  -2    5.62    0.47
   3  -1  -2    6.57    0.75
   3  -1  -2    5.07    0.72
   3  -1  -2    6.14    0.76
   3  -1  -2    5.45    0.86
   3  -1  -2    5.40    0.76
   3  -1  -2    6.25    0.74
  -3   1   1 3971.81   71.82
  -3   1   1 3907.18   71.58
  -3   1   1 3974.33   71.56
  -3   1   1 3922.55   71.66
  -3   1   1 3829.05   71.67
  -3   1   1 3957.47   71.65
   3  -1  -1 3969.21   71.80
   3  -1  -1 3885.78   71.48
   3  -1  -1 3924.01   71.52
   3  -1  -1 3876.04   71.68
   3  -1  -1 3862.23   71.58
   3  -1  -1 3982.56   71.41
  -3   1   0 1045.75   19.30
  -3   1   0 1036.53   19.29
  -3   1   0 1067.87   19.37
  -3   1   0 1035.27   19.29
  -3   1   0 1057.61   19.30
  -3   1   0 1093.47   19.39
   3  -1   0 1033.38   19.29
   3  -1   0 1054.89   19.30
   3  -1   0 1081.74   19.39
   3  -1   0 1089.82   19.39
   3  -1   0 1053.94   19.29
   3  -1   0 1032.29   19.29
   3   1   1    9.81    0.81
  -3   1  -1   11.90    0.96
  -3   1  -1   10.15    0.86
   3   1   1   11.27    0.86
  -3   1  -1    8.44    0.67
   3   1   1   11.51    0.85
  -3   1  -1    7.85    0.68
  -3   1  -1   10.48    0.92
   3   1   1    7.59    0.68
  -3   1  -1   11.76    1.01
   3   1   1   11.69    0.84
  -3  -1  -1   10.29    0.71
  -3  -1  -1   11.04    0.75
   3  -1   1    8.29    0.72
  -3  -1  -1   10.91    0.69
  -3  -1  -1    9.89    0.78
   3  -1   1    8.18    0.69
   3  -1   1    8.39    0.78
  -3  -1  -1    8.25    0.76
   3  -1   1    9.41    0.86
  -3  -1  -1    8.28    0.64
   3  -1   1   12.91    1.02
  -3   1  -2   43.29    1.44
   3   1   2   41.92    1.46
  -3   1  -2   42.15    1.43
  -3   1  -2   43.69    1.47
  -3   1  -2   42.66    1.44
  -3   1  -2   46.69    1.59
   3   1   2   44.33    1.37
   3   1   2   44.76    1.54
   3   1   2   41.58    1.40
   3   1   2   43.13    1.41
  -3   1  -2   44.77    1.59
   3  -1   2   44.34    1.44
  -3  -1  -2   43.37    1.33
  -3  -1  -2   43.36    1.36
  -3  -1  -2   43.46    1.34
  -3  -1  -2   44.26    1.36
   3  -1   2   41.09    1.44
   3  -1   2   43.52    1.62
   3  -1   2   42.50    1.51
   3  -1   2   44.71    1.61
  -3  -1  -2   43.80    1.47
   3  -1   2   42.28    1.43
   3   1   3  552.37   10.42
  -3   1  -3  539.58   10.31
  -3   1  -3  544.51   10.43
  -3   1  -3  546.35   10.31
   3   1   3  544.06   10.42
   3   1   3  541.24   10.30
   3   1   3  538.07   10.27
   3   1   3  553.03   10.31
  -3   1  -3  538.38   10.29
  -3   1  -3  557.08   10.46
  -3   1  -3  550.69   10.32
   3  -1   3  554.36   10.45
   3  -1   3  549.59   10.31
   3  -1   3  547.41   10.32
   3  -1   3  552.40   10.44
  -3  -1  -3  558.54   10.40
   3  -1   3  537.55   10.30
  -3  -1  -3  531.83   10.24
  -3  -1  -3  546.53   10.27
  -3  -1  -3  559.46   10.41
  -3  -1  -3  552.88   10.26
   3  -1   3  551.44   10.31
  -3  -1  -3  540.98   10.27
  -3   1  -4    1.00    0.99
   3   1   4    0.30    0.77
  -3   1  -4   -0.23    0.72
  -3   1  -4    0.84    0.83
  -3   1  -4    0.71    0.93
   3   1   4   -0.86    0.84
   3   1   4   -1.05    0.81
   3   1   4    1.28    0.93
  -3   1  -4    0.66    0.77
   3   1   4    0.55    1.04
  -3   1  -4    0.59    0.81
   3   1   4    0.13    0.82
   3  -1   4    0.71    0.94
  -3  -1  -4    0.19    0.71
   3  -1   4    1.17    0.95
  -3  -1  -4    0.69    0.77
   3  -1   4    0.35    0.84
   3  -1   4   -0.21    0.90
  -3  -1  -4    1.35    0.87
  -3  -1  -4    1.52    0.71
   3  -1   4    0.82    0.89
   3  -1   4   -0.05    0.79
  -3  -1  -4    1.44    0.80
  -3  -1  -4    1.23    0.95
   3   1   5 1078.32   20.27
  -3   1  -5 1120.78   20.49
  -3   1  -5 1095.44   20.29
  -3   1  -5 1093.60   20.28
  -3   1  -5 1061.23   20.24
   3   1   5 1107.63   20.48
   3   1   5 1103.31   20.50
   3   1   5 1100.22   20.31
  -3   1  -5 1095.71   20.45
   3   1   5 1077.79   20.30
  -3   1  -5 1077.38   20.28
   3   1   5 1099.33   20.31
   3  -1   5 1100.96   20.27
  -3  -1  -5 1094.51   20.26
  -3  -1  -5 1075.04   20.23
  -3  -1  -5 1113.49   20.44
   3  -1   5 1073.71   20.26
  -3  -1  -5 1072.25   20.27
   3  -1   5 1064.38   20.27
   3  -1   5 1083.65   20.25
   3  -1   5 1085.07   20.45
  -3  -1  -5 1126.89   20.47
  -3  -1  -5 1107.78   20.27
   3  -1   5 1081.09   20.44
   3   1   6    6.49    1.34
  -3   1  -6    9.24    1.27
   3   1   6    6.82    1.27
  -3   1  -6    8.01    1.33
   3   1   6    8.93    1.24
  -3   1  -6    7.68    1.13
   3   1   6    7.22    1.21
  -3   1  -6    7.37    1.02
  -3   1  -6    8.10    1.28
   3   1   6    8.73    1.29
   3   1   6   10.11    1.51
  -3   1  -6    8.57    1.18
   3  -1   6    8.16    1.31
  -3  -1  -6    8.81    1.25
  -3  -1  -6    6.89    1.08
  -3  -1  -6    7.65    1.06
  -3  -1  -6    8.91    1.10
   3  -1   6    6.50    1.10
  -3  -1  -6    8.65    1.20
   3  -1   6    8.95    1.40
   3  -1   6    7.05    1.40
   3  -1   6    9.22    1.10
  -3  -1  -6    7.68    1.40
   3  -1   6    8.51    1.37
  -3   1  -7   28.06    2.27
   3   1   7   30.08    2.69
   3   1   7   30.91    2.49
  -3   1  -7   32.62    2.15
  -3   1  -7   29.40    2.22
   3   1   7   30.04    2.46
   3   1   7   28.01    2.74
   3   1   7   32.75    2.55
  -3   1  -7   28.50    2.50
   3   1   7   32.52    2.36
  -3  -1  -7   28.69    2.56
  -3  -1  -7   32.15    2.30
  -3  -1  -7   30.36    2.20
  -3  -1  -7   30.89    2.41
   3  -1   7   28.44    2.18
   3  -1   7   30.80    2.52
   3  -1   7   27.77    2.57
   3  -1   7   27.14    2.67
   3  -1   7   29.03    2.30
   3  -1   7   28.40    2.57
  -3  -1  -7   30.34    2.29
  -3  -1  -7   31.33    2.31
   3   1   8    1.22    1.47
   3   1   8   -0.22    1.59
   3   1   8    0.74    1.96
  -3   1  -8    0.06    1.61
   3   1   8   -2.35    1.78
  -3   1  -8    2.30    1.39
  -3   1  -8   -1.16    1.22
   3   1   8   -0.52    1.80
  -3   1  -8   -0.34    1.32
  -3   1  -8   -1.51    1.34
  -3   1  -8   -1.73    1.35
   3   1   8   -0.29    1.65
  -3  -1  -8   -1.44    1.59
  -3  -1  -8   -0.17    1.31
  -3  -1  -8   -1.14    1.20
   3  -1   8   -0.37    1.61
   3  -1   8   -0.02    1.90
   3  -1   8   -0.74    1.35
   3  -1   8    0.65    1.65
   3  -1   8   -0.32    1.81
  -3  -1  -8    0.12    1.41
  -3  -1  -8    1.17    1.55
   3  -1   8   -0.23    1.35
  -3   1  -9    8.90    1.77
   3   1   9    7.54    1.93
   3   1   9    8.01    2.02
  -3   1  -9    7.34    1.99
  -3   1  -9    5.16    1.89
   3   1   9   10.97    2.46
   3   1   9    7.59    2.29
  -3   1  -9    7.89    1.67
  -3   1  -9    7.79    1.86
   3   1   9    7.84    1.79
  -3   1  -9    5.38    1.67
   3   1   9    7.27    2.11
  -3  -1  -9    4.67    1.61
   3  -1   9    5.84    2.34
  -3  -1  -9    7.08    1.79
  -3  -1  -9    8.19    1.81
  -3  -1  -9    7.79    2.01
   3  -1   9    7.04    2.08
  -3  -1  -9    8.38    1.97
   3  -1   9    8.68    1.95
   3  -1   9    7.33    1.86
   3  -1   9    9.42    1.84
   3  -1   9    4.93    2.25
  -3  -1  -9    7.68    1.55
  -3   1 -10    2.09    2.10
  -3   1 -10    1.48    2.06
   3   1  10    2.80    2.25
  -3   1 -10    3.23    2.24
   3   1  10    1.06    2.45
  -3   1 -10   -0.05    1.84
  -3   1 -10    3.82    1.70
   3   1  10    4.16    2.48
   3   1  10    0.97    4.72
   3   1  10    4.01    2.15
  -3   1 -10   -0.05    1.68
   3   1  10    3.08    2.21
  -3  -1 -10   -0.23    1.85
   3  -1  10    3.32    2.23
  -3  -1 -10    5.03    2.07
   3  -1  10    2.26    2.14
  -3  -1 -10    5.45    1.86
  -3  -1 -10    1.51    1.89
   3  -1  10    0.32    1.97
  -3  -1 -10    1.55    2.12
  -3  -1 -10    2.30    2.19
   3  -1  10    3.28    2.46
   3  -1  10    2.74    2.48
   3  -1  10    3.50    2.10
   3   2 -10    2.85    1.69
  -3   2  10    6.54    2.34
   3   2 -10    6.39    1.80
   3   2 -10    5.40    1.90
   3   2 -10    3.18    1.83
  -3   2  10    7.33    2.09
   3   2 -10    5.69    1.70
  -3   2  10    1.06    1.91
  -3   2  10    6.64    2.11
   3   2 -10    5.24    1.73
  -3   2  10   -3.28    2.31
  -3   2  10    4.67    1.95
  -3  -2  10    1.86    1.41
  -3  -2  10    3.74    2.01
  -3  -2  10    7.38    2.23
  -3  -2  10    1.09    1.87
  -3  -2  10    6.26    2.03
  -3  -2  10    4.22    1.50
   3  -2 -10    3.02    2.11
   3  -2 -10    5.19    3.06
   3  -2 -10    3.28    1.81
   3  -2 -10    3.48    1.85
   3  -2 -10    2.10    1.77
   3  -2 -10    1.40    2.08
   3   2  -9   21.69    1.83
  -3   2   9   24.04    2.10
  -3   2   9   24.24    2.06
   3   2  -9   23.56    1.84
  -3   2   9   25.87    2.64
   3   2  -9   27.41    2.50
  -3   2   9   24.93    2.10
  -3   2   9   21.81    2.14
   3   2  -9   24.20    2.06
   3   2  -9   22.34    1.94
  -3   2   9   27.48    2.31
  -3  -2   9   26.59    1.99
  -3  -2   9   19.53    1.94
   3  -2  -9   22.11    2.10
   3  -2  -9   20.83    1.98
   3  -2  -9   24.85    2.39
   3  -2  -9   24.73    2.24
  -3  -2   9   20.76    2.09
   3  -2  -9   23.99    2.21
  -3  -2   9   22.78    2.06
  -3  -2   9   23.13    2.24
   3  -2  -9   19.14    1.88
  -3  -2   9   26.80    2.20
   3   2  -8   15.57    1.53
  -3   2   8   14.93    1.63
   3   2  -8   19.73    1.53
  -3   2   8   20.39    2.18
   3   2  -8   17.97    1.55
   3   2  -8   18.79    1.70
   3   2  -8   16.79    2.53
  -3   2   8   13.58    1.90
  -3   2   8   12.56    1.81
   3   2  -8   19.04    1.69
  -3   2   8   16.45    1.74
  -3  -2   8   17.43    1.66
   3  -2  -8   18.44    1.94
  -3  -2   8   15.71    1.73
   3  -2  -8   16.17    1.78
   3  -2  -8   14.77    1.62
  -3  -2   8   15.04    1.24
  -3  -2   8   15.77    1.62
   3  -2  -8   14.41    1.85
   3  -2  -8   13.70    1.59
   3  -2  -8   16.99    1.89
  -3  -2   8   15.81    1.53
  -3   2   7  188.30    4.66
   3   2  -7  182.62    4.22
  -3   2   7  188.91    4.95
  -3   2   7  188.33    4.81
   3   2  -7  184.70    4.46
  -3   2   7  186.21    4.65
   3   2  -7  189.59    4.26
  -3   2   7  191.69    4.56
   3   2  -7  188.79    4.33
  -3   2   7  189.28    4.60
   3   2  -7  183.16    4.36
  -3  -2   7  178.35    3.92
  -3  -2   7  184.68    4.54
  -3  -2   7  178.74    4.21
   3  -2  -7  190.93    4.55
  -3  -2   7  183.02    4.35
   3  -2  -7  189.80    4.64
  -3  -2   7  178.47    4.49
   3  -2  -7  183.55    4.56
   3  -2  -7  187.06    4.59
  -3  -2   7  190.30    3.91
   3  -2  -7  184.97    4.82
   3  -2  -7  186.78    4.85
  -3   2   6   21.03    2.08
  -3   2   6   24.68    2.35
   3   2  -6   24.05    1.56
  -3   2   6   23.00    2.08
   3   2  -6   24.45    1.77
   3   2  -6   24.47    1.66
   3   2  -6   23.99    1.74
  -3   2   6   21.07    2.05
  -3   2   6   23.82    1.96
   3   2  -6   25.17    1.72
   3   2  -6   24.56    1.78
  -3   2   6   24.23    2.14
  -3  -2   6   23.11    1.72
   3  -2  -6   25.41    1.93
  -3  -2   6   25.78    1.57
   3  -2  -6   23.65    2.16
   3  -2  -6   25.51    2.24
  -3  -2   6   25.14    1.79
   3  -2  -6   22.94    2.03
   3  -2  -6   24.25    2.04
  -3  -2   6   23.14    1.91
   3  -2  -6   22.67    2.06
  -3   2   5   53.50    2.28
  -3   2   5   52.45    2.22
   3   2  -5   55.82    1.75
  -3   2   5   56.63    2.15
   3   2  -5   52.79    1.82
  -3   2   5   54.43    2.38
  -3   2   5   55.70    2.15
   3   2  -5   51.53    1.89
  -3   2   5   54.44    2.21
   3   2  -5   54.35    1.82
   3   2  -5   57.15    1.76
  -3  -2   5   54.34    1.70
  -3  -2   5   52.22    1.84
   3  -2  -5   54.66    2.19
   3  -2  -5   53.98    2.29
  -3  -2   5   51.80    1.94
  -3  -2   5   55.06    1.91
   3  -2  -5   58.38    2.10
   3  -2  -5   52.29    2.29
   3  -2  -5   55.25    2.16
   3  -2  -5   54.52    2.15
  -3   2   4  591.05   11.29
   3   2  -4  585.13   10.96
  -3   2   4  575.16   11.26
  -3   2   4  596.80   11.47
  -3   2   4  596.86   11.30
   3   2  -4  586.04   10.99
  -3   2   4  595.08   11.42
   3   2  -4  589.69   10.99
   3   2  -4  592.71   11.07
  -3   2   4  592.30   11.24
   3   2  -4  594.45   11.09
   3  -2  -4  578.77   11.23
   3  -2  -4  600.72   11.27
   3  -2  -4  603.09   11.44
  -3  -2   4  605.70   11.05
  -3  -2   4  587.40   10.98
  -3  -2   4  587.86   10.96
   3  -2  -4  585.09   11.28
  -3  -2   4  587.56   11.06
   3  -2  -4  586.63   11.26
   3  -2  -4  598.39   11.45
  -3   2   3   14.49    1.43
   3   2  -3   13.02    1.01
  -3   2   3   12.93    1.24
   3   2  -3   13.95    0.92
  -3   2   3   12.13    1.08
  -3   2   3   12.85    1.02
   3   2  -3   10.66    1.05
   3   2  -3   13.12    0.87
  -3   2   3   13.03    1.05
  -3   2   3   13.01    1.04
   3  -2  -3   13.30    1.09
   3  -2  -3   12.33    1.20
   3  -2  -3   14.96    1.12
   3  -2  -3   11.29    1.09
  -3  -2   3   13.17    0.93
   3  -2  -3   12.02    1.02
   3  -2  -3   11.71    0.94
  -3   2   2  377.34    7.39
  -3   2   2  369.29    7.28
  -3   2   2  373.55    7.27
  -3   2   2  372.60    7.28
  -3   2   2  378.65    7.41
  -3   2   2  371.48    7.25
   3  -2  -2  378.89    7.41
   3  -2  -2  373.32    7.27
   3  -2  -2  366.24    7.25
   3  -2  -2  377.87    7.28
   3  -2  -2  376.08    7.39
   3  -2  -2  381.42    7.26
  -3   2   1  420.38    7.96
  -3   2   1  416.55    7.96
  -3   2   1  412.63    7.82
  -3   2   1  416.72    7.87
  -3   2   1  404.10    7.83
  -3   2   1  389.29    7.81
   3  -2  -1  407.49    7.82
   3  -2  -1  417.13    7.97
   3  -2  -1  404.16    7.79
   3  -2  -1  396.12    7.81
   3  -2  -1  399.97    7.82
   3  -2  -1  419.57    7.97
   3   2   0  270.86    5.24
   3   2   0  268.39    5.16
  -3   2   0  277.71    5.43
  -3   2   0  282.78    5.58
   3   2   0  272.54    5.23
  -3   2   0  281.04    5.57
  -3   2   0  274.67    5.44
  -3   2   0  277.03    5.44
  -3   2   0  272.47    5.45
  -3  -2   0  275.39    5.17
   3  -2   0  269.78    5.45
   3  -2   0  278.10    5.42
   3  -2   0  274.54    5.42
   3  -2   0  276.45    5.58
   3  -2   0  268.10    5.43
   3  -2   0  280.88    5.59
  -3   2  -1    9.40    0.88
   3   2   1   11.25    1.03
   3   2   1   11.21    1.12
  -3   2  -1    9.78    0.89
   3   2   1   10.37    0.98
   3   2   1   11.74    0.96
   3   2   1   11.62    0.97
  -3   2  -1   10.94    1.07
  -3   2  -1   10.01    0.91
  -3   2  -1   10.95    0.92
  -3   2  -1   12.62    1.13
   3   2   1   13.41    1.06
   3  -2   1   11.38    1.15
   3  -2   1    9.74    0.88
  -3  -2  -1   12.00    1.01
   3  -2   1   10.74    1.00
  -3  -2  -1   11.38    1.09
  -3  -2  -1   11.07    0.93
   3  -2   1    9.99    0.87
   3  -2   1   10.37    0.90
   3  -2   1   10.49    1.02
  -3  -2  -1   11.54    1.03
  -3   2  -2  546.50   10.44
   3   2   2  559.77   10.43
   3   2   2  554.97   10.35
   3   2   2  540.04   10.34
  -3   2  -2  551.68   10.55
  -3   2  -2  541.09   10.40
  -3   2  -2  565.46   10.58
  -3   2  -2  546.52   10.42
  -3   2  -2  559.03   10.43
   3   2   2  552.89   10.30
   3   2   2  550.57   10.32
   3  -2   2  543.45   10.41
  -3  -2  -2  563.60   10.42
   3  -2   2  558.62   10.39
  -3  -2  -2  545.69   10.31
   3  -2   2  555.29   10.56
   3  -2   2  552.52   10.57
  -3  -2  -2  554.89   10.22
   3  -2   2  541.74   10.42
  -3  -2  -2  552.48   10.30
   3  -2   2  552.00   10.39
  -3  -2  -2  553.62   10.23
   3   2   3  268.16    5.32
   3   2   3  275.88    5.51
   3   2   3  267.90    5.40
  -3   2  -3  264.74    5.38
  -3   2  -3  266.02    5.58
  -3   2  -3  265.65    5.42
  -3   2  -3  264.28    5.43
  -3   2  -3  272.42    5.57
   3   2   3  269.26    5.39
   3   2   3  262.36    5.46
  -3   2  -3  264.71    5.40
   3   2   3  270.11    5.37
  -3  -2  -3  267.90    5.46
   3  -2   3  261.38    5.57
   3  -2   3  264.86    5.39
  -3  -2  -3  267.15    5.28
   3  -2   3  252.97    5.38
  -3  -2  -3  272.55    5.27
  -3  -2  -3  268.25    5.34
   3  -2   3  264.04    5.58
  -3  -2  -3  267.30    5.33
   3  -2   3  261.06    5.42
   3  -2   3  271.59    5.39
  -3  -2  -3  270.30    5.46
   3   2   4   16.66    1.59
  -3   2  -4   16.39    1.58
  -3   2  -4   17.42    1.52
   3   2   4   16.63    1.51
   3   2   4   16.99    1.70
  -3   2  -4   18.31    1.74
  -3   2  -4   17.64    1.71
   3   2   4   16.91    1.76
  -3   2  -4   15.67    1.48
  -3   2  -4   17.94    1.59
   3   2   4   15.65    1.63
   3   2   4   18.34    1.66
   3  -2   4   17.87    1.45
   3  -2   4   18.19    1.60
  -3  -2  -4   16.53    1.53
   3  -2   4   19.06    1.61
  -3  -2  -4   19.20    1.57
   3  -2   4   19.38    1.53
  -3  -2  -4   17.28    1.70
   3  -2   4   16.03    1.30
  -3  -2  -4   15.48    1.47
   3  -2   4   15.08    1.19
  -3  -2  -4   17.84    1.48
  -3  -2  -4   17.28    1.33
  -3   2  -5  182.80    4.16
  -3   2  -5  181.47    4.43
  -3   2  -5  181.35    4.20
   3   2   5  179.95    4.24
  -3   2  -5  185.20    4.41
   3   2   5  177.48    4.33
   3   2   5  182.64    4.22
  -3   2  -5  183.41    4.20
   3   2   5  183.62    4.45
   3   2   5  177.50    4.28
  -3   2  -5  182.28    4.21
   3  -2   5  178.43    4.22
   3  -2   5  183.26    4.41
  -3  -2  -5  181.41    4.15
  -3  -2  -5  180.76    4.34
  -3  -2  -5  187.76    4.13
  -3  -2  -5  179.27    4.16
   3  -2   5  177.93    4.46
   3  -2   5  182.45    4.19
  -3  -2  -5  187.25    4.20
  -3  -2  -5  183.99    4.41
   3  -2   5  185.43    4.21
   3  -2   5  184.74    4.11
  -3   2  -6    8.09    1.48
  -3   2  -6    8.23    1.24
   3   2   6   10.34    1.53
  -3   2  -6    8.34    1.31
   3   2   6    8.96    1.34
  -3   2  -6    9.96    1.57
   3   2   6    8.18    1.43
  -3   2  -6    7.20    1.24
   3   2   6    7.63    1.21
  -3   2  -6    6.04    1.26
   3   2   6    8.83    1.38
   3  -2   6   10.21    1.49
  -3  -2  -6    8.67    1.51
   3  -2   6    7.69    1.50
  -3  -2  -6    7.75    1.23
  -3  -2  -6    8.10    1.28
   3  -2   6    7.90    1.55
  -3  -2  -6    8.50    1.34
   3  -2   6    7.64    1.40
   3  -2   6    8.93    1.23
  -3  -2  -6    9.02    1.33
   3  -2   6    7.53    1.40
  -3  -2  -6   10.26    1.37
   3   2   7   43.48    3.06
  -3   2  -7   48.70    2.86
   3   2   7   48.28    3.14
  -3   2  -7   42.31    2.64
   3   2   7   43.00    3.05
  -3   2  -7   43.48    2.90
   3   2   7   50.63    3.09
   3   2   7   47.46    2.90
  -3   2  -7   49.90    2.67
   3  -2   7   46.88    2.84
   3  -2   7   49.96    2.80
  -3  -2  -7   50.19    2.85
  -3  -2  -7   48.12    2.76
   3  -2   7   44.88    2.87
   3  -2   7   45.09    3.00
   3  -2   7   41.47    4.22
  -3  -2  -7   48.72    2.71
  -3  -2  -7   47.66    2.64
  -3  -2  -7   42.84    2.95
   3  -2   7   46.02    2.49
  -3  -2  -7   47.31    2.58
  -3   2  -8   60.59    3.37
  -3   2  -8   57.72    3.44
   3   2   8   57.88    3.71
   3   2   8   66.99    4.32
   3   2   8   66.82    3.70
  -3   2  -8   59.45    3.14
   3   2   8   69.35    3.57
  -3   2  -8   63.89    3.24
   3   2   8   66.20    3.48
   3   2   8   70.27    3.32
  -3   2  -8   63.67    3.18
  -3  -2  -8   62.14    3.24
  -3  -2  -8   72.75    3.27
  -3  -2  -8   62.80    3.39
   3  -2   8   62.10    3.50
  -3  -2  -8   65.20    3.12
   3  -2   8   59.70    3.72
   3  -2   8   60.92    2.98
   3  -2   8   60.57    3.68
   3  -2   8   59.59    3.46
  -3  -2  -8   66.99    3.32
   3  -2   8   67.47    3.37
  -3  -2  -8   63.73    3.49
  -3   2  -9   11.46    2.00
  -3   2  -9   14.14    2.00
  -3   2  -9   17.39    1.97
   3   2   9   17.71    2.23
  -3   2  -9   15.78    1.94
   3   2   9   10.78    2.40
   3   2   9   17.99    2.44
   3   2   9   16.54    2.40
  -3   2  -9   12.84    2.23
   3   2   9   14.83    2.46
  -3   2  -9   14.35    2.29
   3   2   9   14.46    2.10
   3  -2   9   10.55    2.12
  -3  -2  -9   16.81    1.91
  -3  -2  -9   14.82    1.91
   3  -2   9   13.84    1.89
  -3  -2  -9   14.92    2.46
   3  -2   9   18.62    2.45
  -3  -2  -9   12.97    1.94
  -3  -2  -9   14.30    1.95
   3  -2   9   15.89    2.32
   3  -2   9   12.06    2.42
   3  -2   9   12.83    2.43
  -3  -2  -9   13.47    2.13
  -3   3   9    4.75    1.95
  -3   3   9    0.16    1.82
  -3   3   9    3.86    2.48
   3   3  -9    1.99    1.60
  -3   3   9    8.38    2.38
   3   3  -9    4.45    1.85
  -3   3   9    6.30    1.87
   3   3  -9    1.81    1.59
   3   3  -9    1.85    1.54
   3   3  -9    4.33    1.65
   3   3  -9    4.41    1.85
  -3   3   9    5.31    2.25
   3  -3  -9    4.66    1.90
   3  -3  -9    6.13    2.06
   3  -3  -9    4.91    1.82
  -3  -3   9    1.34    1.84
  -3  -3   9    4.49    1.80
   3  -3  -9    3.04    1.96
   3  -3  -9    5.42    2.24
  -3  -3   9    8.78    2.13
  -3  -3   9    9.32    1.90
   3  -3  -9    3.30    1.88
   3   3  -8   -0.77    1.32
   3   3  -8   -0.87    1.46
   3   3  -8    0.51    1.38
  -3   3   8    0.65    1.70
  -3   3   8    0.31    1.59
  -3   3   8    2.37    2.03
   3   3  -8    3.67    1.54
   3   3  -8    1.21    1.42
  -3   3   8    2.30    3.16
  -3   3   8    3.67    1.71
  -3   3   8    1.88    1.57
   3   3  -8    2.01    1.40
  -3  -3   8    1.93    1.44
   3  -3  -8    0.95    1.84
  -3  -3   8    3.04    1.59
  -3  -3   8    1.97    1.80
   3  -3  -8    0.99    1.62
   3  -3  -8    1.55    1.68
   3  -3  -8    1.61    1.51
  -3  -3   8    1.03    1.53
   3  -3  -8    2.61    1.86
   3  -3  -8    2.10    1.81
   3   3  -7   22.90    2.17
  -3   3   7   22.89    1.99
   3   3  -7   22.08    2.15
  -3   3   7   24.25    1.84
  -3   3   7   29.99    2.04
   3   3  -7   24.62    2.29
   3   3  -7   29.11    2.30
   3   3  -7   21.87    2.23
  -3   3   7   23.53    1.93
  -3   3   7   22.19    2.11
   3   3  -7   25.09    2.09
  -3   3   7   29.87    2.97
  -3  -3   7   25.64    2.14
   3  -3  -7   30.39    3.00
   3  -3  -7   26.06    3.51
  -3  -3   7   24.63    1.90
   3  -3  -7   30.99    2.14
   3  -3  -7   27.95    2.73
   3  -3  -7   27.13    2.70
   3  -3  -7   25.17    2.15
  -3  -3   7   24.94    2.38
   3   3  -6   32.83    1.95
   3   3  -6   32.66    2.02
  -3   3   6   34.44    2.75
  -3   3   6   31.84    2.65
  -3   3   6   32.19    2.64
  -3   3   6   31.13    2.62
   3   3  -6   28.85    2.06
  -3   3   6   31.70    2.54
  -3   3   6   31.76    2.52
   3   3  -6   33.20    2.05
   3  -3  -6   33.31    2.35
   3  -3  -6   33.21    2.56
  -3  -3   6   33.25    1.87
   3  -3  -6   30.86    2.72
  -3  -3   6   34.04    2.14
   3  -3  -6   34.51    2.69
   3  -3  -6   34.17    2.57
  -3  -3   6   33.61    2.15
   3  -3  -6   33.59    2.55
   3   3  -5   13.10    1.10
  -3   3   5   13.84    1.49
  -3   3   5   13.09    1.43
  -3   3   5   12.99    1.69
  -3   3   5   13.07    1.68
   3   3  -5   12.57    1.12
   3   3  -5   12.86    1.04
  -3   3   5   13.11    1.52
   3   3  -5   11.32    1.18
   3   3  -5   14.48    1.17
  -3   3   5   14.83    1.51
   3   3  -5   13.02    1.11
   3  -3  -5   13.26    1.34
   3  -3  -5   12.49    1.40
  -3  -3   5   11.25    1.11
   3  -3  -5   11.22    1.36
   3  -3  -5   13.37    1.53
  -3  -3   5   14.84    1.21
  -3  -3   5   12.57    1.01
   3  -3  -5   10.69    1.47
  -3  -3   5   13.15    1.23
   3  -3  -5   16.08    1.76
  -3   3   4   11.48    1.24
  -3   3   4   10.11    1.19
   3   3  -4    9.59    1.01
   3   3  -4   11.93    0.96
   3   3  -4   12.91    1.28
  -3   3   4   11.73    1.35
  -3   3   4   11.57    1.46
   3   3  -4   10.49    1.03
  -3   3   4    8.71    1.21
  -3   3   4   10.93    1.40
   3   3  -4   10.65    0.83
   3   3  -4   11.58    0.95
   3  -3  -4    8.93    1.41
  -3  -3   4    9.02    1.02
   3  -3  -4   10.41    1.23
   3  -3  -4   11.71    1.28
   3  -3  -4   10.81    1.25
   3  -3  -4   13.54    1.58
   3  -3  -4    8.10    1.20
  -3  -3   4   10.73    0.92
  -3   3   3    3.44    1.12
  -3   3   3    4.33    1.15
   3   3  -3    3.33    0.82
   3   3  -3    3.67    0.77
  -3   3   3    3.31    1.14
  -3   3   3    2.61    1.12
   3   3  -3    3.97    0.72
   3   3  -3    3.22    0.72
   3   3  -3    4.86    0.81
  -3   3   3    3.41    1.08
  -3   3   3    4.77    1.08
   3  -3  -3    5.13    1.28
  -3  -3   3    4.23    0.72
   3  -3  -3    2.98    0.97
   3  -3  -3    4.48    1.03
   3  -3  -3    5.29    1.02
   3  -3  -3    3.57    1.21
  -3   3   2   66.08    2.29
  -3   3   2   64.18    2.33
  -3   3   2   65.67    2.43
   3   3  -2   67.39    1.74
   3   3  -2   62.68    1.71
  -3   3   2   64.61    2.27
   3   3  -2   64.77    1.73
  -3   3   2   67.41    2.36
  -3   3   2   69.80    2.45
   3  -3  -2   68.74    2.20
   3  -3  -2   64.65    2.32
   3  -3  -2   67.10    2.46
  -3  -3   2   60.09    1.79
   3  -3  -2   66.08    2.28
   3  -3  -2   69.43    2.50
   3  -3  -2   68.71    2.18
   3   3  -1  148.52    3.16
   3   3  -1  141.33    3.08
   3   3  -1  151.17    3.14
  -3   3   1  146.36    3.48
  -3   3   1  142.40    3.47
  -3   3   1  150.03    3.51
  -3   3   1  147.26    3.61
  -3   3   1  148.05    3.64
  -3   3   1  143.06    3.44
   3   3  -1  144.91    3.04
   3   3  -1  143.52    3.03
  -3  -3   1  148.63    3.04
   3  -3  -1  143.54    3.50
   3  -3  -1  147.44    3.49
   3  -3  -1  147.92    3.38
   3  -3  -1  148.58    3.67
   3  -3  -1  147.75    3.63
   3  -3  -1  149.88    3.40
  -3   3   0   -0.76    0.84
  -3   3   0   -1.08    0.98
   3   3   0    0.17    0.71
   3   3   0    0.24    0.62
  -3   3   0   -0.35    0.92
  -3   3   0    0.07    0.98
   3   3   0   -0.21    0.76
   3   3   0    0.67    0.72
   3   3   0   -0.33    0.62
  -3   3   0    0.83    0.94
  -3   3   0   -1.38    0.93
   3   3   0    0.30    0.69
  -3  -3   0    0.40    0.52
   3  -3   0   -0.85    0.90
  -3  -3   0    2.30    0.68
   3  -3   0   -1.68    0.97
  -3  -3   0    0.13    0.73
  -3  -3   0    1.01    0.72
   3  -3   0   -1.11    0.76
   3  -3   0    0.41    0.92
   3  -3   0   -0.35    0.97
   3  -3   0   -2.75    0.82
  -3   3  -1   44.49    2.03
   3   3   1   43.67    1.70
   3   3   1   43.31    1.64
  -3   3  -1   45.05    1.85
   3   3   1   44.50    1.70
  -3   3  -1   45.65    1.92
  -3   3  -1   44.17    1.89
  -3   3  -1   45.09    1.88
   3   3   1   43.24    1.59
   3   3   1   45.45    1.67
   3   3   1   44.78    1.69
  -3   3  -1   46.87    2.08
   3  -3   1   42.09    2.04
   3  -3   1   46.66    2.10
   3  -3   1   48.57    1.98
  -3  -3  -1   42.91    1.63
   3  -3   1   46.62    1.94
   3  -3   1   45.39    1.80
  -3  -3  -1   45.33    1.69
   3  -3   1   43.83    1.77
  -3  -3  -1   45.93    1.57
  -3  -3  -1   44.62    1.70
  -3   3  -2  238.38    5.17
   3   3   2  239.22    4.99
  -3   3  -2  233.60    5.03
   3   3   2  235.01    4.91
  -3   3  -2  240.17    5.02
   3   3   2  241.15    4.96
  -3   3  -2  236.84    4.99
  -3   3  -2  242.88    5.19
   3   3   2  229.57    4.88
   3   3   2  241.75    4.86
  -3   3  -2  244.48    5.05
   3   3   2  229.97    5.01
   3  -3   2  233.44    5.03
   3  -3   2  231.66    5.17
   3  -3   2  238.54    5.20
  -3  -3  -2  238.91    4.98
   3  -3   2  241.44    4.91
  -3  -3  -2  233.04    4.85
  -3  -3  -2  234.17    4.97
  -3  -3  -2  236.87    4.83
   3  -3   2  242.16    4.93
   3  -3   2  239.48    5.04
  -3   3  -3   42.40    2.19
   3   3   3   44.00    2.01
  -3   3  -3   43.22    1.99
  -3   3  -3   42.88    2.19
  -3   3  -3   41.75    2.07
   3   3   3   46.00    1.90
   3   3   3   41.58    2.00
  -3   3  -3   39.26    1.91
   3   3   3   43.33    2.05
   3   3   3   43.39    1.96
  -3   3  -3   39.89    2.02
   3   3   3   42.23    2.00
  -3  -3  -3   43.01    1.67
  -3  -3  -3   40.94    1.87
  -3  -3  -3   41.67    1.89
   3  -3   3   42.11    1.92
   3  -3   3   45.04    2.24
   3  -3   3   41.13    2.05
   3  -3   3   40.82    2.13
  -3  -3  -3   42.21    1.97
  -3  -3  -3   45.34    1.60
   3  -3   3   41.11    2.21
   3  -3   3   40.66    1.88
  -3   3  -4    6.07    1.12
  -3   3  -4    6.32    1.26
   3   3   4    6.52    1.22
   3   3   4    5.73    1.25
   3   3   4    5.17    1.24
   3   3   4    8.21    1.20
  -3   3  -4    6.41    1.23
  -3   3  -4    6.69    1.16
   3   3   4    4.94    1.25
   3   3   4    5.91    1.13
  -3   3  -4    7.15    1.41
  -3   3  -4    6.23    1.29
  -3  -3  -4    7.17    1.09
  -3  -3  -4    6.85    1.22
   3  -3   4    6.85    1.14
   3  -3   4    7.00    1.22
  -3  -3  -4    5.96    1.01
   3  -3   4    6.39    1.38
  -3  -3  -4    5.64    1.20
  -3  -3  -4    6.92    1.16
  -3  -3  -4    7.70    1.00
   3  -3   4    6.24    1.22
   3  -3   4    6.28    1.15
   3  -3   4    6.55    1.47
  -3   3  -5   91.08    3.27
   3   3   5   89.36    3.18
  -3   3  -5   90.02    3.01
  -3   3  -5   87.29    2.97
   3   3   5   90.54    3.25
   3   3   5   87.13    3.04
   3   3   5   91.93    3.07
   3   3   5   87.41    3.12
  -3   3  -5   88.20    2.93
   3   3   5   87.74    2.95
  -3   3  -5   92.65    3.03
  -3   3  -5   89.04    3.26
   3  -3   5   88.44    3.59
  -3  -3  -5   73.62    4.43
   3  -3   5   92.37    2.87
   3  -3   5   89.00    3.27
   3  -3   5   92.61    2.94
   3  -3   5   92.31    3.11
  -3  -3  -5   91.13    3.19
  -3  -3  -5   81.32    3.33
  -3  -3  -5   91.46    2.79
  -3  -3  -5   85.57    2.74
  -3  -3  -5   90.73    2.97
   3  -3   5   86.96    4.78
   3   3   6   40.94    2.96
  -3   3  -6   46.15    2.64
   3   3   6   38.50    2.88
  -3   3  -6   40.17    2.84
  -3   3  -6   45.22    2.68
  -3   3  -6   42.99    2.90
   3   3   6   43.49    3.00
   3   3   6   46.32    2.69
   3   3   6   41.05    2.81
  -3   3  -6   35.49    3.29
   3   3   6   40.34    2.95
  -3   3  -6   46.87    2.64
  -3  -3  -6   40.64    2.94
  -3  -3  -6   41.18    2.67
   3  -3   6   42.69    3.00
  -3  -3  -6   44.54    2.73
   3  -3   6   46.47    2.64
  -3  -3  -6   41.97    2.52
   3  -3   6   46.00    2.90
   3  -3   6   48.90    2.53
  -3  -3  -6   39.22    2.45
  -3  -3  -6   38.36    2.77
   3  -3   6   38.29    3.08
   3  -3   6   44.34    2.89
   3   3   7   15.24    2.01
   3   3   7   17.03    1.87
  -3   3  -7   17.84    1.82
   3   3   7   16.85    1.98
  -3   3  -7   16.68    2.10
  -3   3  -7   13.07    1.71
  -3   3  -7   16.79    1.73
  -3   3  -7   15.68    1.85
   3   3   7   16.63    2.03
  -3   3  -7   17.46    2.02
   3  -3   7   17.90    1.77
   3  -3   7   20.44    1.92
   3  -3   7   17.15    2.26
  -3  -3  -7   16.05    1.97
   3  -3   7   15.14    2.12
  -3  -3  -7   14.02    1.69
  -3  -3  -7   16.50    1.82
  -3  -3  -7   17.49    1.72
   3  -3   7   13.62    1.94
  -3  -3  -7   18.01    1.92
  -3  -3  -7   18.32    1.93
   3  -3   7   20.65    2.02
  -3   3  -8   20.00    2.00
  -3   3  -8   18.86    2.29
   3   3   8   27.74    2.74
   3   3   8   22.27    2.64
   3   3   8   23.41    2.73
  -3   3  -8   19.35    2.31
   3   3   8   20.29    2.16
  -3   3  -8   19.07    2.09
   3   3   8   17.66    2.25
  -3   3  -8   19.78    2.18
   3   3   8   23.03    2.50
  -3   3  -8   21.24    2.22
   3  -3   8   19.17    2.44
  -3  -3  -8   19.03    1.94
  -3  -3  -8   20.57    2.20
   3  -3   8   20.88    2.23
   3  -3   8   22.24    2.16
   3  -3   8   21.45    2.53
  -3  -3  -8   19.08    2.35
  -3  -3  -8   22.36    2.08
   3  -3   8   18.83    2.45
  -3  -3  -8   21.08    2.27
  -3  -3  -8   17.43    2.28
   3  -3   8   21.98    2.04
   3   4  -7  106.53    3.85
  -3   4   7  124.61    4.37
   3   4  -7  122.34    3.58
  -3   4   7  122.77    4.83
  -3   4   7  127.34    4.42
  -3   4   7  126.11    4.54
   3   4  -7  117.15    3.75
   3   4  -7  111.55    3.65
  -3   4   7  122.31    4.56
  -3   4   7  111.12    4.52
   3  -4  -7  112.07    4.46
  -3  -4   7  114.25    3.82
   3  -4  -7  118.82    4.31
  -3  -4   7  115.93    3.51
  -3  -4   7  125.10    3.76
   3  -4  -7  119.28    4.76
  -3  -4   7  110.30    3.90
   3  -4  -7  112.09    4.07
   3  -4  -7  122.62    6.91
   3  -4  -7  116.76    4.71
  -3   4   6   15.93    2.02
  -3   4   6   16.10    1.91
  -3   4   6   16.13    2.00
   3   4  -6   14.13    1.62
   3   4  -6   12.49    1.54
   3   4  -6   13.86    1.52
  -3   4   6   21.50    2.28
  -3   4   6   19.54    2.21
   3   4  -6   13.73    1.64
  -3   4   6   10.61    1.97
   3  -4  -6   15.38    2.21
  -3  -4   6   17.15    1.62
   3  -4  -6   13.78    1.79
   3  -4  -6   14.89    1.76
  -3  -4   6   13.61    1.68
  -3  -4   6   17.55    1.52
   3  -4  -6   15.91    2.22
   3  -4  -6   16.87    1.90
   3  -4  -6   14.86    1.89
  -3  -4   6   15.28    1.38
  -3   4   5    2.00    1.57
  -3   4   5    1.11    1.50
   3   4  -5    1.26    1.25
   3   4  -5    2.19    1.18
  -3   4   5    1.55    1.70
   3   4  -5    2.56    1.20
  -3   4   5    1.71    1.54
   3   4  -5    1.72    1.00
   3   4  -5    1.27    1.12
  -3   4   5    0.21    1.53
  -3   4   5    0.38    1.52
   3   4  -5    0.06    1.18
   3  -4  -5    2.63    1.69
   3  -4  -5    1.08    1.44
   3  -4  -5    1.80    1.70
   3  -4  -5    0.81    1.54
   3  -4  -5    1.15    1.32
  -3  -4   5    1.34    1.08
  -3  -4   5    1.21    1.15
   3   4  -4    6.06    1.08
   3   4  -4    7.80    1.04
  -3   4   4    7.30    1.61
  -3   4   4    7.33    1.58
  -3   4   4    9.42    1.60
   3   4  -4    8.67    1.22
   3   4  -4    5.35    1.33
  -3   4   4    7.47    1.51
  -3   4   4    5.51    1.71
   3   4  -4    6.77    1.13
   3   4  -4    5.40    1.16
   3  -4  -4    5.17    1.49
   3  -4  -4    8.82    1.50
   3  -4  -4    6.25    1.60
   3  -4  -4    7.40    1.50
  -3  -4   4    8.52    1.09
   3  -4  -4    5.89    1.31
   3  -4  -4    6.90    1.61
   3   4  -3   35.12    1.90
   3   4  -3   41.09    1.94
  -3   4   3   37.47    3.04
   3   4  -3   34.87    1.80
  -3   4   3   38.42    3.25
   3   4  -3   38.17    1.95
  -3   4   3   32.65    3.20
  -3   4   3   40.21    2.71
  -3   4   3   42.90    2.63
  -3   4   3   35.92    2.59
   3  -4  -3   40.68    2.76
  -3  -4   3   34.22    1.75
   3  -4  -3   38.45    2.26
   3  -4  -3   37.91    2.56
   3  -4  -3   37.89    2.38
   3  -4  -3   31.47    2.67
   3  -4  -3   31.91    2.66
   3   4  -2   20.31    1.70
  -3   4   2   23.76    2.29
  -3   4   2   24.91    2.34
  -3   4   2   28.39    2.43
   3   4  -2   20.34    1.58
   3   4  -2   24.31    1.68
   3   4  -2   19.21    1.74
  -3   4   2   24.44    2.21
  -3   4   2   26.49    2.25
   3   4  -2   20.56    1.67
  -3   4   2   23.83    1.77
   3   4  -2   22.85    1.85
  -3  -4   2   22.49    1.60
   3  -4  -2   25.50    2.14
   3  -4  -2   25.78    2.34
   3  -4  -2   23.57    2.31
   3  -4  -2   22.52    1.79
   3  -4  -2   25.79    2.03
   3  -4  -2   22.48    2.17
  -3   4   1  210.45    4.87
   3   4  -1  198.53    4.40
  -3   4   1  194.88    4.77
   3   4  -1  196.42    4.37
   3   4  -1  199.84    4.42
  -3   4   1  197.51    4.92
  -3   4   1  200.66    4.73
   3   4  -1  202.14    4.23
   3   4  -1  202.92    4.40
   3   4  -1  201.16    4.21
  -3   4   1  202.36    4.68
  -3   4   1  204.68    4.93
  -3  -4   1  201.81    4.22
   3  -4  -1  205.48    4.51
   3  -4  -1  204.02    4.50
   3  -4  -1  204.60    4.76
   3  -4  -1  199.60    5.15
   3  -4  -1  200.23    4.95
   3   4   0    0.09    1.01
  -3   4   0   -2.25    1.21
  -3   4   0   -0.48    1.28
  -3   4   0   -1.18    1.32
   3   4   0    1.47    0.87
   3   4   0    1.37    1.01
   3   4   0    0.60    0.89
   3   4   0    0.87    1.03
  -3   4   0    0.18    1.15
  -3   4   0    0.82    1.24
  -3   4   0   -1.78    1.16
   3   4   0    1.83    1.05
   3  -4   0   -0.29    1.05
  -3  -4   0    1.31    0.87
   3  -4   0   -1.59    1.39
   3  -4   0   -0.99    1.23
  -3  -4   0    1.44    1.03
  -3  -4   0    0.87    0.97
   3  -4   0   -2.43    1.07
  -3  -4   0    0.16    0.97
   3  -4   0   -1.13    1.38
  -3   4  -1   16.29    1.47
  -3   4  -1   15.01    1.59
  -3   4  -1   13.84    1.45
   3   4   1   12.80    1.15
   3   4   1   15.56    1.35
   3   4   1   15.25    1.30
   3   4   1   13.95    1.32
   3   4   1   15.74    1.33
   3   4   1   16.81    1.23
  -3   4  -1   12.73    1.33
  -3   4  -1   14.35    1.55
   3  -4   1   14.39    1.27
   3  -4   1   15.15    1.66
  -3  -4  -1   15.66    1.17
   3  -4   1   15.70    1.62
  -3  -4  -1   18.59    1.81
  -3  -4  -1   15.39    1.25
   3  -4   1   14.10    1.22
   3  -4   1   16.73    1.50
  -3  -4  -1   15.37    1.67
   3  -4   1   14.87    2.05
   3   4   2   38.41    2.33
   3   4   2   37.40    2.11
  -3   4  -2   38.77    2.16
   3   4   2   37.20    2.33
  -3   4  -2   35.83    2.33
  -3   4  -2   35.32    2.38
   3   4   2   36.81    2.16
  -3   4  -2   33.73    2.33
  -3   4  -2   37.48    2.27
   3   4   2   35.58    2.23
   3  -4   2   36.95    2.38
  -3  -4  -2   41.31    2.23
  -3  -4  -2   39.03    2.25
   3  -4   2   31.52    2.78
  -3  -4  -2   37.13    2.25
   3  -4   2   35.99    2.05
   3  -4   2   35.26    2.43
   3  -4   2   45.34    2.63
   3  -4   2   34.58    2.00
  -3  -4  -2   35.95    2.10
   3   4   3   -0.16    1.32
  -3   4  -3    0.15    1.52
  -3   4  -3    2.63    1.18
  -3   4  -3    0.71    1.41
  -3   4  -3   -1.27    1.35
   3   4   3    6.23    1.42
   3   4   3    0.24    1.32
   3   4   3   -0.02    1.19
   3   4   3    1.44    1.28
  -3   4  -3    1.65    1.29
   3   4   3    2.13    1.20
  -3   4  -3    0.80    1.34
   3  -4   3   -0.82    1.31
  -3  -4  -3    0.65    1.17
  -3  -4  -3    2.00    2.41
  -3  -4  -3    2.42    1.29
  -3  -4  -3    1.62    1.33
   3  -4   3    0.29    1.18
   3  -4   3    3.84    1.41
   3  -4   3    0.72    1.48
   3  -4   3    0.97    1.11
   3  -4   3    3.22    1.53
  -3   4  -4    3.00    1.55
  -3   4  -4    0.59    1.45
   3   4   4    0.75    1.41
   3   4   4    3.14    1.30
   3   4   4    2.60    1.35
   3   4   4    0.41    1.34
  -3   4  -4    3.87    1.41
   3   4   4    4.20    1.50
  -3   4  -4    3.07    1.31
   3   4   4    3.37    1.53
  -3   4  -4    5.23    1.50
   3  -4   4    2.85    1.71
   3  -4   4    4.53    1.71
   3  -4   4    1.85    1.43
   3  -4   4    2.24    1.15
   3  -4   4    2.12    1.47
  -3  -4  -4    3.41    1.37
   3  -4   4    2.73    1.29
  -3  -4  -4    2.89    1.40
  -3  -4  -4   -0.42    1.46
   3   4   5    0.16    1.61
   3   4   5    0.56    1.63
  -3   4  -5   -0.32    1.49
   3   4   5   -0.56    1.43
   3   4   5   -0.08    1.48
  -3   4  -5   -1.36    1.52
   3   4   5    1.92    1.66
  -3   4  -5    0.63    1.64
   3   4   5    0.72    1.67
  -3   4  -5    0.04    1.64
  -3   4  -5   -0.06    1.45
  -3   4  -5    1.76    1.48
   3  -4   5    1.77    1.41
   3  -4   5    2.39    1.76
   3  -4   5    1.92    1.70
   3  -4   5    2.08    1.71
   3  -4   5   -1.31    1.26
  -3  -4  -5   -0.88    1.56
  -3  -4  -5    0.67    1.17
   3  -4   5    2.12    1.85
  -3  -4  -5    0.92    1.59
  -3  -4  -5    0.53    1.44
  -3  -4  -5    1.00    1.43
   3   4   6   -2.59    1.77
  -3   4  -6   -0.64    1.64
   3   4   6   -3.64    1.74
  -3   4  -6   -1.54    1.57
   3   4   6    4.54    1.96
  -3   4  -6    4.03    1.99
  -3   4  -6    2.84    1.84
   3   4   6    0.71    1.70
   3   4   6   -2.41    1.65
  -3   4  -6    0.52    1.61
   3   4   6    2.57    1.93
  -3   4  -6    1.69    1.65
   3  -4   6    2.15    1.95
  -3  -4  -6   -0.35    1.67
  -3  -4  -6    3.11    1.75
  -3  -4  -6    2.03    1.52
   3  -4   6   -0.08    1.86
   3  -4   6   -0.32    1.57
  -3  -4  -6    3.12    1.39
   3  -4   6   -0.60    1.81
  -3  -4  -6    6.08    1.82
   3  -4   6    1.34    2.11
   3  -4   6   -0.23    1.39
  -3  -4  -6    2.78    1.80
  -3   5   4   18.17    2.29
  -3   5   4   19.47    2.16
   3   5  -4   15.93    1.66
  -3   5   4   18.91    2.09
  -3   5   4   15.65    2.26
   3   5  -4   18.11    1.72
   3   5  -4   16.01    1.49
  -3   5   4   18.55    2.39
  -3   5   4   21.27    2.39
   3   5  -4   19.84    1.87
   3  -5  -4   21.11    1.99
   3  -5  -4   17.59    2.48
  -3  -5   4   16.51    1.49
  -3  -5   4   17.02    1.38
   3  -5  -4   14.57    1.73
   3  -5  -4   20.77    2.21
   3  -5  -4   18.42    2.11
   3  -5  -4   17.20    2.38
  -3   5   3    1.54    1.80
  -3   5   3    0.88    1.87
  -3   5   3   -1.27    1.77
  -3   5   3    2.43    1.73
   3   5  -3   -1.50    1.39
  -3   5   3   -1.21    1.87
   3   5  -3   -0.18    1.31
   3   5  -3    1.24    1.39
  -3   5   3    3.95    1.81
   3   5  -3    0.66    1.28
   3  -5  -3    0.58    1.39
   3  -5  -3    1.29    2.02
   3  -5  -3    0.52    1.90
   3  -5  -3   -0.79    1.64
   3  -5  -3    1.19    1.64
   3  -5  -3   -1.59    2.00
   3   5  -2   34.84    2.46
   3   5  -2   30.21    2.33
   3   5  -2   32.91    2.56
   3   5  -2   34.38    2.69
  -3   5   2   38.03    3.08
  -3   5   2   32.96    3.12
   3   5  -2   32.11    2.49
  -3   5   2   37.34    3.34
  -3   5   2   35.25    3.22
  -3   5   2   36.35    2.45
  -3   5   2   32.83    3.10
   3  -5  -2   33.26    2.46
   3  -5  -2   37.45    3.21
   3  -5  -2   34.60    3.39
   3  -5  -2   32.44    3.23
   3  -5  -2   35.67    2.40
   3  -5  -2   32.19    2.32
   3   5  -1   41.09    2.50
   3   5  -1   44.65    2.64
   3   5  -1   41.64    2.05
  -3   5   1   48.41    3.12
  -3   5   1   41.05    3.07
  -3   5   1   47.24    3.38
   3   5  -1   48.12    3.74
  -3   5   1   41.57    3.20
  -3   5   1   46.80    3.08
  -3   5   1   52.16    3.24
   3   5  -1   47.11    2.62
   3   5  -1   51.63    2.77
   3  -5  -1   47.05    3.31
   3  -5  -1   47.11    3.40
  -3  -5   1   45.06    3.07
   3  -5  -1   42.90    3.18
   3  -5  -1   47.23    2.46
   3  -5  -1   44.31    2.44
   3  -5  -1   44.57    3.31
   3   5   0   31.67    2.49
   3   5   0   27.91    2.45
  -3   5   0   31.94    2.81
  -3   5   0   31.66    2.84
  -3   5   0   31.39    2.30
  -3   5   0   25.81    2.08
   3   5   0   27.85    2.69
   3   5   0   28.20    2.58
  -3   5   0   30.27    2.98
   3   5   0   34.10    2.12
  -3   5   0   30.16    3.04
   3   5   0   33.35    2.32
  -3  -5   0   28.01    2.42
   3  -5   0   24.43    2.28
   3  -5   0   31.20    2.24
   3  -5   0   31.40    2.13
  -3  -5   0   27.73    2.35
   3  -5   0   30.28    2.30
   3  -5   0   23.88    2.27
  -3  -5   0   29.20    2.47
  -3  -5   0   31.15    2.24
   3  -5   0   24.82    2.18
  -3   5  -1   24.69    2.17
   3   5   1   24.94    1.68
  -3   5  -1   16.42    1.82
   3   5   1   21.96    1.61
   3   5   1   22.94    1.82
  -3   5  -1   18.48    1.92
   3   5   1   20.29    1.75
  -3   5  -1   19.21    2.12
  -3   5  -1   15.13    1.85
  -3   5  -1   22.75    1.82
   3   5   1   20.94    1.92
   3   5   1   24.65    2.51
   3  -5   1   22.83    2.00
  -3  -5  -1   24.39    2.48
  -3  -5  -1   21.97    1.55
   3  -5   1   16.63    2.10
   3  -5   1   19.38    1.98
  -3  -5  -1   21.06    1.72
  -3  -5  -1   24.22    1.84
   3   5   2   18.39    3.24
   3   5   2   27.66    2.59
   3   5   2   23.89    1.77
  -3   5  -2   20.50    1.99
  -3   5  -2   23.06    1.89
  -3   5  -2   20.75    1.96
   3   5   2   21.50    1.92
   3   5   2   22.64    2.01
  -3   5  -2   19.85    1.98
   3   5   2   21.12    1.90
  -3   5  -2   18.00    2.08
   3  -5   2   24.20    2.12
  -3  -5  -2   24.81    2.47
   3  -5   2   19.85    2.16
  -3  -5  -2   20.77    1.82
  -3  -5  -2   22.08    1.81
   3  -5   2   20.42    1.97
  -3  -5  -2   17.92    1.94
  -3   5  -3    0.74    1.68
  -3   5  -3    3.44    1.90
  -3   5  -3    6.36    1.73
  -3   5  -3    3.92    1.57
   3   5   3    0.61    1.78
   3   5   3    3.85    1.57
  -3   5  -3    5.23    1.80
  -3   5  -3    6.95    1.78
   3   5   3    5.10    1.62
   3   5   3    1.57    1.73
   3   5   3    6.09    1.74
   3   5   3    5.22    1.74
   3  -5   3    0.96    2.01
   3  -5   3    6.85    1.81
  -3  -5  -3    4.06    1.78
  -3  -5  -3    5.59    1.54
  -3  -5  -3    3.62    1.70
   3  -5   3    5.33    1.99
   3  -5   3    3.05    3.20
  -3  -5  -3    4.26    1.83
   4   0 -11   -1.57    2.07
   4   0 -11    1.46    1.76
  -4   0  11    0.98    1.98
  -4   0  11   -0.25    2.54
   4   0 -11    0.90    1.97
   4   0 -11    0.36    1.88
  -4   0  11   -0.82    3.07
  -4   0  11   -0.17    2.03
   4   0 -11    0.28    2.02
  -4   0  11   -1.92    2.30
  -4   0  11   -0.59    1.71
   4   0 -11   -1.56    1.85
   4   0 -10   -0.05    1.60
   4   0 -10    3.55    1.69
  -4   0  10    1.74    1.71
   4   0 -10   -0.88    1.65
  -4   0  10   -0.02    2.00
   4   0 -10   -1.26    1.60
  -4   0  10    2.12    1.97
  -4   0  10    0.47    1.69
   4   0 -10    0.39    1.44
   4   0 -10    2.75    1.49
  -4   0  10   -0.41    1.76
   4   0  -9   -1.59    1.38
  -4   0   9    0.63    1.45
   4   0  -9   -0.73    1.30
  -4   0   9   -3.58    1.43
   4   0  -9   -0.57    1.16
   4   0  -9    1.61    1.46
   4   0  -9   -1.33    1.42
  -4   0   9    2.04    1.63
  -4   0   9   -1.04    1.65
  -4   0   9   -0.07    1.33
  -4   0   9    2.70    1.43
  -4   0   8  246.28    5.60
  -4   0   8  243.07    5.49
   4   0  -8  243.98    5.74
   4   0  -8  253.99    5.56
  -4   0   8  254.84    5.48
   4   0  -8  244.10    5.51
   4   0  -8  249.40    5.51
  -4   0   8  248.07    5.85
   4   0  -8  249.73    5.79
   4   0  -8  252.01    5.60
   4   0  -7   -0.30    1.03
  -4   0   7   -0.39    0.96
  -4   0   7   -0.59    1.00
  -4   0   7    0.03    1.16
  -4   0   7    0.50    0.95
  -4   0   7    0.03    1.00
  -4   0   7   -0.21    1.02
   4   0  -7   -0.59    1.09
   4   0  -7   -2.10    1.01
   4   0  -7   -0.68    0.87
   4   0  -7   -0.18    0.94
   4   0  -7   -0.95    1.16
   4   0  -6  270.46    5.69
  -4   0   6  264.84    5.51
   4   0  -6  266.21    5.52
   4   0  -6  270.66    5.67
  -4   0   6  268.11    5.48
  -4   0   6  269.77    5.45
   4   0  -6  267.41    5.49
  -4   0   6  267.23    5.46
  -4   0   6  266.13    5.62
   4   0  -6  263.91    5.53
   4   0  -6  264.38    5.48
  -4   0   6  267.25    5.68
   4   0  -5   -0.11    0.81
  -4   0   5   -1.08    0.75
  -4   0   5    0.88    0.91
   4   0  -5   -1.40    0.72
  -4   0   5    0.19    0.76
   4   0  -5    0.10    0.75
  -4   0   5   -1.02    0.68
  -4   0   5    0.11    0.84
  -4   0   5    0.57    0.74
   4   0  -5   -1.09    0.78
   4   0  -5   -1.34    0.81
   4   0  -5   -1.22    0.70
   4   0  -4   12.77    1.16
  -4   0   4   12.85    1.32
  -4   0   4   14.01    1.05
  -4   0   4   13.72    1.17
   4   0  -4   13.78    1.24
   4   0  -4   12.69    1.18
  -4   0   4   13.10    1.17
   4   0  -4   14.09    1.30
  -4   0   4   13.05    1.19
   4   0  -4   14.28    1.20
   4   0  -4   15.48    1.18
  -4   0   4   14.21    1.14
  -4   0   3   -0.41    0.44
  -4   0   3   -0.07    0.56
  -4   0   3   -0.36    0.50
   4   0  -3    0.46    0.56
   4   0  -3    0.38    0.58
   4   0  -3   -0.03    0.61
  -4   0   3    0.02    0.67
   4   0  -3   -0.06    0.62
   4   0  -3    0.30    0.55
  -4   0   3    0.56    0.54
  -4   0   3   -0.37    0.54
   4   0  -3    0.85    0.59
   4   0  -2  111.49    2.37
  -4   0   2  116.61    2.32
   4   0  -2  110.42    2.44
  -4   0   2  112.62    2.33
  -4   0   2  114.86    2.37
   4   0  -2  111.43    2.35
   4   0  -2  115.03    2.35
  -4   0   2  112.15    2.35
  -4   0   2  111.21    2.44
   4   0  -2  114.02    2.36
   4   0  -2  110.09    2.43
   4   0  -1   -0.51    0.58
  -4   0   1   -0.81    0.48
  -4   0   1    0.10    0.40
  -4   0   1   -0.96    0.44
   4   0  -1   -0.68    0.46
   4   0  -1   -0.91    0.45
   4   0  -1   -1.08    0.52
   4   0  -1   -1.14    0.48
  -4   0   1   -0.82    0.44
   4   0  -1    0.06    0.46
  -4   0   1   -0.14    0.52
   4   0   0 9967.56  178.10
   4   0   0 9559.47  177.63
   4   0   0 9842.00  177.79
   4   0   0 9600.31  177.66
  -4   0   0 9793.61  177.68
  -4   0   0 9954.36  178.14
   4   0   0 9706.56  177.73
   4   0   0 9999.00  178.15
  -4   0   0 9863.10  177.78
   4   0   1   -0.27    0.56
  -4   0  -1   -0.40    0.57
  -4   0  -1    0.43    0.60
   4   0   1   -0.18    0.58
   4   0   1   -0.27    0.61
   4   0   1   -0.35    0.51
   4   0   1   -0.76    0.48
  -4   0  -1   -0.15    0.45
  -4   0  -1   -0.40    0.51
  -4   0  -1    0.37    0.54
  -4   0  -1   -0.05    0.50
   4   0   1   -0.38    0.65
   4   0   2  191.50    3.96
  -4   0  -2  198.89    3.99
  -4   0  -2  198.46    3.96
   4   0   2  198.39    4.09
  -4   0  -2  199.18    4.10
   4   0   2  197.55    4.00
   4   0   2  196.73    3.99
  -4   0  -2  201.21    4.09
  -4   0  -2  201.23    3.96
  -4   0  -2  196.22    3.97
   4   0   2  196.37    3.98
   4   0   3    0.59    0.82
   4   0   3    0.75    0.74
   4   0   3    0.16    0.76
   4   0   3   -0.19    0.74
  -4   0  -3    1.61    0.75
  -4   0  -3    0.61    0.68
  -4   0  -3   -0.21    0.84
   4   0   3   -0.35    0.89
  -4   0  -3   -0.09    0.71
  -4   0  -3    0.60    0.80
   4   0   3   -1.29    0.65
  -4   0  -3    0.36    0.72
   4   0   4   81.35    2.35
   4   0   4   81.34    2.32
  -4   0  -4   84.45    2.32
  -4   0  -4   81.94    2.50
  -4   0  -4   81.33    2.34
   4   0   4   83.16    2.36
  -4   0  -4   85.51    2.53
  -4   0  -4   83.89    2.34
  -4   0  -4   82.71    2.26
   4   0   4   83.80    2.40
   4   0   4   82.44    2.57
   4   0   4   82.61    2.51
  -4   0  -5   -0.82    1.05
   4   0   5    1.49    1.06
   4   0   5    0.61    1.07
   4   0   5   -0.08    1.19
  -4   0  -5    0.62    0.88
   4   0   5    1.88    1.06
  -4   0  -5   -0.38    0.85
   4   0   5    1.13    0.88
  -4   0  -5    0.49    0.87
   4   0   5    1.30    0.99
   4   0   6  291.25    6.18
  -4   0  -6  290.64    6.09
   4   0   6  292.39    6.42
   4   0   6  293.78    6.19
   4   0   6  291.09    6.14
   4   0   6  289.92    6.37
  -4   0  -6  279.89    6.05
   4   0   6  286.25    6.17
  -4   0  -6  289.26    6.29
  -4   0  -6  297.58    6.37
  -4   0  -6  285.27    6.10
  -4   0  -6  289.20    6.09
   4   0   7    0.55    1.46
  -4   0  -7   -1.81    1.33
   4   0   7   -0.33    1.54
  -4   0  -7    0.53    1.30
  -4   0  -7   -1.09    1.04
  -4   0  -7   -0.20    1.14
  -4   0  -7    0.21    1.19
   4   0   7    0.27    1.28
   4   0   7   -2.07    1.20
   4   0   7   -0.46    1.41
  -4   0  -7    0.43    1.13
   4   0   7   -0.13    1.65
   4   0   8   34.84    3.24
   4   0   8   33.73    3.22
   4   0   8   33.02    3.21
   4   0   8   36.29    2.73
  -4   0  -8   39.24    2.59
   4   0   8   39.05    3.15
  -4   0  -8   38.60    2.73
  -4   0  -8   34.76    2.94
  -4   0  -8   35.88    2.53
  -4   0  -8   32.86    2.74
   4   0   8   32.03    2.86
  -4   0  -9   -1.18    1.52
   4   0   9    2.68    1.80
  -4   0  -9    1.86    1.92
  -4   0  -9   -0.41    1.71
  -4   0  -9    0.11    1.40
  -4   0  -9   -0.16    1.68
   4   0   9   -2.01    1.87
   4   0   9   -3.53    1.60
   4   0   9   -1.86    2.22
   4   0   9    3.42    1.94
  -4   0  -9   -0.40    1.63
   4   0   9   -0.45    1.99
   4   0  10   34.01    2.82
   4   0  10   33.20    3.03
  -4   0 -10   40.96    3.64
  -4   0 -10   41.40    3.81
   4   0  10   38.18    2.99
  -4   0 -10   38.87    2.97
  -4   0 -10   41.09    2.77
   4   0  10   32.80    2.88
  -4   0 -10   42.20    3.61
   4   0  10   40.88    4.02
  -4   0 -10   34.44    3.37
   4   0  10   44.63    3.99
  -4   1  11    4.82    2.91
   4   1 -11    8.68    2.14
   4   1 -11    8.51    2.10
   4   1 -11    5.61    1.84
  -4   1  11   11.35    2.33
  -4   1  11   13.89    2.59
  -4   1  11    9.74    2.10
   4   1 -11    6.28    1.95
  -4   1  11   11.44    2.25
   4   1 -11    8.50    2.08
  -4   1  11   13.72    2.30
   4   1 -11    7.26    2.09
  -4  -1  11    7.36    2.29
   4  -1 -11    7.66    2.14
   4  -1 -11    8.68    2.27
  -4  -1  11   10.66    2.30
  -4  -1  11   11.81    2.20
  -4  -1  11    6.20    2.42
   4  -1 -11    9.47    1.92
  -4  -1  11    7.51    2.04
  -4  -1  11    8.60    2.64
   4  -1 -11   14.52    2.33
   4  -1 -11    7.84    1.91
   4  -1 -11    4.91    2.00
  -4   1  10    0.12    1.80
   4   1 -10    0.24    1.64
   4   1 -10    0.50    1.64
  -4   1  10   -1.43    1.84
   4   1 -10   -0.57    1.52
   4   1 -10    0.58    1.61
   4   1 -10   -0.39    1.40
  -4   1  10   -0.32    1.73
   4   1 -10   -1.59    1.66
  -4   1  10   -0.02    1.81
  -4  -1  10    2.97    1.96
   4  -1 -10   -1.32    1.62
  -4  -1  10   -0.24    2.07
  -4  -1  10   -0.57    1.69
  -4  -1  10    0.28    1.54
   4  -1 -10   -0.60    1.74
   4  -1 -10   -2.49    1.81
   4  -1 -10    3.69    1.62
  -4  -1  10    0.20    1.80
   4  -1 -10    1.91    1.54
   4  -1 -10    3.44    1.76
  -4  -1  10    0.47    1.45
   4   1  -9  252.45    5.80
  -4   1   9  249.54    6.18
  -4   1   9  247.68    6.45
   4   1  -9  250.95    5.99
  -4   1   9  254.91    5.88
   4   1  -9  249.26    5.66
   4   1  -9  250.83    6.02
  -4   1   9  254.76    5.97
   4   1  -9  247.88    5.70
   4   1  -9  246.37    5.88
  -4   1   9  255.07    6.01
   4  -1  -9  258.85    6.27
  -4  -1   9  249.12    5.51
  -4  -1   9  238.83    5.53
  -4  -1   9  250.86    6.11
   4  -1  -9  241.30    5.85
  -4  -1   9  255.73    5.86
  -4  -1   9  251.36    5.91
   4  -1  -9  253.37    5.90
   4  -1  -9  254.51    6.18
   4  -1  -9  251.11    6.03
  -4  -1   9  245.52    6.07
   4  -1  -9  258.12    5.89
   4   1  -8   16.16    1.46
   4   1  -8   17.77    1.61
  -4   1   8   21.33    1.62
  -4   1   8   18.83    1.61
   4   1  -8   17.50    1.45
  -4   1   8   19.28    1.79
  -4   1   8   20.70    1.70
  -4   1   8   18.08    1.71
   4   1  -8   21.13    1.63
   4   1  -8   19.61    1.61
  -4   1   8   19.00    1.67
   4   1  -8   21.00    1.50
   4  -1  -8   19.78    1.55
   4  -1  -8   22.13    2.08
  -4  -1   8   22.03    1.76
   4  -1  -8   18.37    1.64
  -4  -1   8   16.97    1.72
  -4  -1   8   18.52    1.85
   4  -1  -8   20.03    1.76
   4  -1  -8   22.13    1.82
  -4  -1   8   19.06    1.50
  -4  -1   8   20.07    1.62
  -4  -1   8   21.83    1.93
   4  -1  -8   18.92    1.51
   4   1  -7    0.13    1.02
  -4   1   7    0.35    1.09
   4   1  -7   -0.56    0.91
   4   1  -7   -0.08    0.96
   4   1  -7   -0.55    0.97
  -4   1   7    0.52    1.27
  -4   1   7    1.08    1.15
  -4   1   7    0.52    1.14
  -4   1   7   -0.34    1.08
  -4   1   7   -0.70    1.19
   4   1  -7    0.30    1.01
   4   1  -7   -0.29    1.04
  -4  -1   7   -1.10    1.08
   4  -1  -7   -2.10    1.08
  -4  -1   7   -0.16    1.16
   4  -1  -7    0.58    1.04
   4  -1  -7   -1.51    1.08
  -4  -1   7    0.13    1.13
  -4  -1   7   -0.15    0.85
   4  -1  -7   -1.20    1.11
   4  -1  -7   -0.35    1.03
  -4  -1   7    0.19    0.89
   4  -1  -7   -1.66    1.26
  -4  -1   7   -0.09    1.05
   4   1  -6  451.66    8.70
  -4   1   6  458.02    9.00
   4   1  -6  456.19    8.67
  -4   1   6  455.10    9.07
   4   1  -6  446.85    8.71
  -4   1   6  451.04    8.85
  -4   1   6  454.00    8.84
   4   1  -6  449.94    8.66
   4   1  -6  452.37    8.80
  -4   1   6  445.41    8.85
   4   1  -6  454.16    8.84
  -4   1   6  453.04    8.81
   4  -1  -6  454.42    9.03
  -4  -1   6  452.81    8.54
   4  -1  -6  448.52    8.90
  -4  -1   6  440.76    8.81
  -4  -1   6  440.70    8.68
   4  -1  -6  451.83    8.85
  -4  -1   6  439.90    8.68
   4  -1  -6  445.13    8.82
   4  -1  -6  451.40    8.82
   4  -1  -6  453.88    9.04
  -4  -1   6  447.62    8.54
  -4   1   5    7.13    0.93
   4   1  -5    6.27    0.80
  -4   1   5    6.28    0.94
   4   1  -5    6.76    0.80
  -4   1   5    7.16    0.95
   4   1  -5    6.19    0.91
  -4   1   5    7.30    1.01
  -4   1   5    8.26    1.02
   4   1  -5    7.78    0.80
   4   1  -5    7.54    0.85
   4   1  -5    6.02    1.03
  -4   1   5    7.72    1.11
  -4  -1   5    5.79    0.86
   4  -1  -5    3.64    0.85
  -4  -1   5    5.60    0.95
  -4  -1   5    6.73    0.87
  -4  -1   5    8.27    0.68
  -4  -1   5    7.01    0.82
   4  -1  -5    6.98    1.03
   4  -1  -5    9.36    1.20
  -4  -1   5    6.34    0.70
   4  -1  -5    6.97    0.99
   4  -1  -5    6.54    0.94
   4  -1  -5    7.24    0.95
  -4   1   4  317.73    6.28
   4   1  -4  316.75    6.17
   4   1  -4  318.87    6.08
  -4   1   4  321.27    6.29
   4   1  -4  327.49    6.11
   4   1  -4  321.36    6.19
   4   1  -4  322.37    6.09
   4   1  -4  316.99    6.09
  -4   1   4  317.87    6.26
  -4   1   4  320.53    6.40
  -4   1   4  318.41    6.29
  -4   1   4  321.77    6.44
   4  -1  -4  315.30    6.31
   4  -1  -4  315.17    6.43
  -4  -1   4  318.53    6.08
   4  -1  -4  325.36    6.32
  -4  -1   4  312.05    6.16
   4  -1  -4  321.51    6.43
  -4  -1   4  317.81    6.09
  -4  -1   4  316.20    6.17
   4  -1  -4  317.09    6.28
   4  -1  -4  314.36    6.29
   4   1  -3 2207.50   41.86
   4   1  -3 2292.44   41.87
  -4   1   3 2313.42   42.09
  -4   1   3 2289.87   42.07
  -4   1   3 2338.52   42.10
   4   1  -3 2350.64   41.92
  -4   1   3 2305.75   42.19
  -4   1   3 2293.56   42.06
   4   1  -3 2279.48   41.88
  -4   1   3 2344.59   42.20
   4   1  -3 2330.91   41.93
   4   1  -3 2362.74   41.95
  -4  -1   3 2325.36   41.88
   4  -1  -3 2319.85   42.19
  -4  -1   3 2386.20   41.94
  -4  -1   3 2298.04   41.93
   4  -1  -3 2334.50   42.09
   4  -1  -3 2334.86   42.10
   4  -1  -3 2231.62   42.06
   4  -1  -3 2321.38   42.11
   4  -1  -3 2366.36   42.21
  -4   1   2  170.66    3.57
  -4   1   2  161.16    3.41
  -4   1   2  167.99    3.55
  -4   1   2  163.03    3.44
  -4   1   2  166.98    3.44
  -4   1   2  160.45    3.44
   4  -1  -2  171.33    3.56
   4  -1  -2  161.43    3.44
   4  -1  -2  161.28    3.43
   4  -1  -2  159.71    3.44
   4  -1  -2  171.42    3.60
   4  -1  -2  161.65    3.44
  -4   1   1  126.13    2.83
  -4   1   1  122.52    2.73
  -4   1   1  128.70    2.84
  -4   1   1  125.71    2.73
  -4   1   1  122.46    2.73
   4  -1  -1  125.33    2.73
   4  -1  -1  120.41    2.74
   4  -1  -1  125.11    2.74
   4  -1  -1  130.01    2.89
   4  -1  -1  129.84    2.87
  -4   1   0  620.52   11.76
  -4   1   0  646.57   11.87
  -4   1   0  618.20   11.75
  -4   1   0  637.63   11.78
   4   1   0  561.81   11.64
  -4   1   0  655.72   11.88
  -4   1   0  651.84   11.78
   4   1   0  634.03   11.57
   4  -1   0  660.72   11.89
   4  -1   0  647.21   11.78
   4  -1   0  629.87   11.77
   4  -1   0  645.73   11.88
   4  -1   0  648.96   11.79
   4  -1   0  640.80   11.78
  -4   1  -1  421.19    8.18
   4   1   1  432.95    8.06
  -4   1  -1  430.16    8.21
  -4   1  -1  437.52    8.31
  -4   1  -1  433.23    8.21
   4   1   1  442.17    8.16
  -4   1  -1  437.43    8.31
   4   1   1  438.94    8.07
  -4   1  -1  413.27    8.19
   4   1   1  435.62    8.08
   4   1   1  428.64    8.07
   4   1   1  444.99    8.15
  -4  -1  -1  438.88    8.06
   4  -1   1  431.83    8.30
   4  -1   1  432.76    8.21
  -4  -1  -1  448.33    8.13
  -4  -1  -1  433.45    8.06
   4  -1   1  426.54    8.20
   4  -1   1  451.45    8.34
   4  -1   1  435.05    8.21
  -4  -1  -1  444.17    8.14
   4   1   2   38.81    1.43
  -4   1  -2   37.82    1.47
   4   1   2   37.42    1.38
   4   1   2   36.38    1.52
  -4   1  -2   38.54    1.45
  -4   1  -2   38.17    1.60
   4   1   2   37.39    1.30
   4   1   2   38.09    1.38
  -4   1  -2   38.75    1.43
  -4   1  -2   39.53    1.42
  -4   1  -2   37.56    1.60
   4   1   2   37.65    1.51
  -4  -1  -2   37.16    1.30
  -4  -1  -2   37.75    1.31
   4  -1   2   37.47    1.47
   4  -1   2   35.45    1.65
   4  -1   2   40.27    1.52
   4  -1   2   37.68    1.47
  -4  -1  -2   38.76    1.32
  -4  -1  -2   40.06    1.43
   4  -1   2   37.93    1.44
  -4  -1  -2   38.63    1.26
   4  -1   2   40.39    1.62
  -4   1  -3   95.02    2.41
  -4   1  -3   90.03    2.37
   4   1   3   90.96    2.52
   4   1   3   91.43    2.33
  -4   1  -3   91.15    2.37
  -4   1  -3   90.94    2.54
  -4   1  -3   91.02    2.38
  -4   1  -3   94.87    2.57
   4   1   3   95.85    2.43
   4   1   3   94.89    2.53
   4   1   3   90.12    2.33
   4   1   3   94.19    2.38
  -4  -1  -3   92.92    2.46
  -4  -1  -3   92.55    2.32
   4  -1   3   92.12    2.43
   4  -1   3   95.53    2.42
   4  -1   3   91.72    2.61
   4  -1   3   89.58    2.54
  -4  -1  -3   93.20    2.33
   4  -1   3   91.29    2.38
  -4  -1  -3   91.87    2.29
  -4  -1  -3   89.72    2.27
  -4  -1  -3   90.37    2.43
  -4   1  -4    1.31    0.81
   4   1   4    0.57    0.90
   4   1   4    0.68    1.07
  -4   1  -4    0.33    0.85
   4   1   4   -0.81    0.85
  -4   1  -4    0.83    0.79
   4   1   4    1.42    0.87
   4   1   4    0.47    0.99
  -4   1  -4    0.01    1.01
  -4   1  -4    1.42    1.03
   4   1   4    0.40    1.07
  -4   1  -4    1.22    0.84
  -4  -1  -4   -0.41    0.79
   4  -1   4    2.06    0.92
  -4  -1  -4    0.25    0.77
   4  -1   4    1.54    0.99
   4  -1   4    1.44    0.88
  -4  -1  -4    0.53    0.89
   4  -1   4    0.71    0.91
  -4  -1  -4    1.54    0.82
   4  -1   4    0.90    0.90
  -4  -1  -4    0.94    0.90
   4  -1   4    0.52    1.00
  -4  -1  -4    0.80    0.73
  -4   1  -5  215.44    4.95
  -4   1  -5  210.35    4.70
   4   1   5  223.94    4.99
  -4   1  -5  216.56    4.72
  -4   1  -5  218.22    4.90
   4   1   5  203.91    4.69
   4   1   5  215.37    4.74
   4   1   5  214.24    4.73
  -4   1  -5  213.62    4.69
   4   1   5  214.64    4.94
  -4   1  -5  217.48    4.69
   4   1   5  210.62    4.74
   4  -1   5  209.25    4.75
  -4  -1  -5  210.94    4.62
   4  -1   5  215.69    4.93
   4  -1   5  212.82    4.73
  -4  -1  -5  215.54    4.65
  -4  -1  -5  223.73    4.90
  -4  -1  -5  217.69    4.68
   4  -1   5  216.72    4.68
  -4  -1  -5  212.55    4.84
   4  -1   5  211.86    4.93
  -4  -1  -5  215.91    4.67
   4  -1   5  212.98    4.75
   4   1   6   18.58    1.67
  -4   1  -6   15.96    1.52
  -4   1  -6   15.25    1.31
  -4   1  -6   17.24    1.49
   4   1   6   15.43    1.39
   4   1   6   16.65    1.44
   4   1   6   15.13    1.49
   4   1   6   17.02    1.40
  -4   1  -6   15.07    1.25
   4   1   6   18.36    1.79
  -4   1  -6   14.76    1.51
  -4   1  -6   15.29    1.31
  -4  -1  -6   16.93    1.37
  -4  -1  -6   16.14    1.43
   4  -1   6   13.61    1.58
  -4  -1  -6   15.43    1.34
   4  -1   6   14.35    1.34
  -4  -1  -6   15.26    1.29
  -4  -1  -6   20.13    1.49
  -4  -1  -6   17.88    1.55
   4  -1   6   16.04    1.47
   4  -1   6   15.08    1.37
   4  -1   6   13.84    1.35
   4  -1   6   13.21    1.68
   4   1   7   28.44    2.71
  -4   1  -7   25.49    2.34
  -4   1  -7   30.28    2.24
   4   1   7   31.45    2.86
   4   1   7   28.21    2.57
   4   1   7   28.32    2.46
  -4   1  -7   27.00    2.57
   4   1   7   30.72    2.76
  -4   1  -7   28.60    2.34
   4   1   7   24.87    2.50
   4  -1   7   27.27    2.28
   4  -1   7   27.78    2.75
   4  -1   7   28.69    2.71
  -4  -1  -7   26.89    2.61
  -4  -1  -7   29.01    2.29
  -4  -1  -7   25.49    2.38
   4  -1   7   29.38    2.60
  -4  -1  -7   28.55    2.36
   4  -1   7   30.41    2.66
  -4  -1  -7   25.03    2.29
  -4  -1  -7   28.70    2.29
   4  -1   7   27.90    2.37
  -4   1  -8   -0.95    1.51
  -4   1  -8    0.66    1.52
   4   1   8    3.20    1.82
   4   1   8   -2.71    1.73
   4   1   8    2.17    1.56
  -4   1  -8   -0.08    1.56
  -4   1  -8   -1.43    1.48
   4   1   8   -0.27    1.58
  -4   1  -8   -0.40    1.30
   4   1   8    0.49    2.05
  -4   1  -8    1.06    1.59
   4   1   8    0.18    1.56
   4  -1   8   -0.58    1.74
  -4  -1  -8   -0.66    1.58
   4  -1   8   -0.44    1.78
  -4  -1  -8    0.94    1.37
   4  -1   8   -3.93    1.98
  -4  -1  -8    1.68    1.64
  -4  -1  -8   -0.11    1.45
   4  -1   8    1.04    1.47
  -4  -1  -8   -0.59    1.51
  -4  -1  -8    0.81    1.38
   4  -1   8   -0.77    1.79
   4   1   9   13.23    2.15
  -4   1  -9   13.80    1.84
  -4   1  -9   11.65    1.87
  -4   1  -9   15.53    2.22
   4   1   9   13.17    1.98
  -4   1  -9   13.07    2.01
   4   1   9    9.22    2.35
   4   1   9   14.47    2.45
  -4   1  -9   15.54    1.95
   4   1   9   13.67    2.08
   4   1   9   15.33    2.48
  -4   1  -9   11.83    1.85
   4  -1   9   10.79    4.18
  -4  -1  -9   13.48    2.23
  -4  -1  -9   11.10    1.95
   4  -1   9   10.23    2.04
  -4  -1  -9   12.65    1.99
  -4  -1  -9   12.55    1.70
  -4  -1  -9   12.93    1.92
   4  -1   9   10.42    1.84
   4  -1   9   13.08    2.34
   4  -1   9   13.52    2.22
  -4  -1  -9   14.43    1.87
   4  -1   9   10.57    2.27
   4   1  10   -2.44    2.07
  -4   1 -10    3.52    2.06
   4   1  10   -1.87    2.26
   4   1  10   -0.64    2.72
   4   1  10   -4.00    3.03
  -4   1 -10    0.39    1.98
  -4   1 -10    1.99    2.24
  -4   1 -10    0.43    1.86
  -4   1 -10   -0.72    2.22
  -4   1 -10    0.11    2.04
   4   1  10    2.60    2.41
   4   1  10    0.35    2.49
  -4  -1 -10    2.58    2.05
  -4  -1 -10    0.53    2.21
   4  -1  10    3.75    2.44
  -4  -1 -10   -3.14    1.94
   4  -1  10   -4.31    2.46
   4  -1  10    2.03    2.55
  -4  -1 -10    2.89    1.77
   4  -1  10    8.53    2.93
  -4  -1 -10   -0.81    1.99
   4  -1  10    0.00    2.12
   4  -1  10   -2.52    1.90
  -4  -1 -10   -3.31    1.94
  -4   2  10    6.05    2.21
  -4   2  10    6.57    1.94
  -4   2  10    5.92    2.07
   4   2 -10    4.53    1.66
   4   2 -10    2.24    1.64
   4   2 -10    3.29    1.71
   4   2 -10    4.51    1.94
   4   2 -10    6.32    1.76
  -4   2  10    3.07    2.17
  -4   2  10    2.64    2.09
  -4   2  10    3.17    1.96
   4   2 -10    2.05    1.67
   4  -2 -10    5.11    1.95
  -4  -2  10    8.88    2.15
   4  -2 -10    0.87    1.71
  -4  -2  10    5.85    2.19
   4  -2 -10    4.56    1.93
   4  -2 -10    6.86    2.04
  -4  -2  10    1.37    1.97
   4  -2 -10    0.64    2.31
  -4  -2  10    3.94    1.84
   4   2  -9   32.07    2.55
   4   2  -9   36.37    2.75
   4   2  -9   34.97    2.67
   4   2  -9   34.97    2.52
  -4   2   9   35.02    3.01
   4   2  -9   35.71    2.90
   4   2  -9   36.21    2.63
  -4   2   9   42.03    3.45
  -4   2   9   37.15    3.13
  -4   2   9   34.82    3.32
  -4   2   9   35.88    3.23
  -4   2   9   32.62    3.17
   4  -2  -9   32.75    3.32
   4  -2  -9   37.57    2.92
   4  -2  -9   38.28    3.05
   4  -2  -9   34.42    3.14
   4  -2  -9   37.08    2.96
  -4  -2   9   35.40    1.95
   4  -2  -9   31.90    3.12
  -4  -2   9   32.27    2.90
  -4  -2   9   37.89    2.67
  -4  -2   9   35.57    2.97
  -4   2   8    5.10    1.42
   4   2  -8    4.83    1.41
  -4   2   8    3.43    1.65
   4   2  -8    6.15    1.32
   4   2  -8    5.64    1.31
  -4   2   8    4.59    1.75
  -4   2   8    5.24    1.61
   4   2  -8    4.25    1.26
  -4   2   8    3.92    1.48
  -4   2   8    2.65    1.67
   4   2  -8    3.87    1.27
  -4  -2   8    3.80    1.44
   4  -2  -8    5.57    1.55
   4  -2  -8    4.07    1.38
  -4  -2   8    5.82    1.54
   4  -2  -8    6.49    1.69
   4  -2  -8    4.27    1.51
  -4  -2   8    5.22    1.31
  -4  -2   8    4.36    1.64
   4  -2  -8    5.15    1.43
   4  -2  -8    4.19    2.03
  -4   2   7   19.61    1.65
  -4   2   7   22.46    1.67
  -4   2   7   18.59    1.58
   4   2  -7   19.49    1.81
  -4   2   7   22.61    1.72
   4   2  -7   19.54    2.00
   4   2  -7   19.11    1.84
  -4   2   7   21.21    1.83
   4   2  -7   19.82    1.92
   4   2  -7   20.32    2.02
   4   2  -7   20.34    1.36
  -4   2   7   19.56    1.79
   4  -2  -7   18.60    1.63
   4  -2  -7   22.53    2.19
  -4  -2   7   19.92    1.79
   4  -2  -7   19.04    1.54
   4  -2  -7   24.44    1.95
  -4  -2   7   21.53    1.98
  -4  -2   7   17.15    1.56
   4  -2  -7   22.61    1.92
   4  -2  -7   19.06    1.66
  -4  -2   7   22.27    2.05
  -4   2   6  102.55    3.35
  -4   2   6   97.49    3.08
   4   2  -6  100.65    2.65
   4   2  -6   99.46    2.74
   4   2  -6  101.21    2.59
   4   2  -6   98.14    2.65
  -4   2   6  100.31    3.02
  -4   2   6  100.69    3.11
  -4   2   6   94.41    3.00
  -4   2   6   99.90    3.21
   4   2  -6   96.65    2.57
   4   2  -6   95.98    2.77
   4  -2  -6  103.68    3.29
  -4  -2   6  103.01    2.67
  -4  -2   6  103.67    2.76
  -4  -2   6   98.58    2.78
   4  -2  -6   97.62    2.98
   4  -2  -6  100.33    3.04
   4  -2  -6  101.25    3.06
  -4  -2   6   98.28    2.55
   4  -2  -6   98.87    3.19
   4  -2  -6  100.54    3.07
   4   2  -5    5.39    0.84
   4   2  -5    5.94    0.78
   4   2  -5    6.34    0.77
  -4   2   5    4.29    1.01
  -4   2   5    6.88    1.17
  -4   2   5    5.12    1.27
  -4   2   5    4.78    1.12
  -4   2   5    5.47    1.20
   4   2  -5    6.67    0.89
   4   2  -5    5.30    0.85
   4   2  -5    5.49    0.83
  -4   2   5    6.72    1.04
   4  -2  -5    6.51    1.06
  -4  -2   5    5.44    0.90
   4  -2  -5    7.50    1.18
  -4  -2   5    5.12    0.83
   4  -2  -5    3.96    1.14
  -4  -2   5    4.71    0.93
   4  -2  -5    4.04    1.08
   4  -2  -5    5.16    1.07
  -4  -2   5    5.48    0.74
   4  -2  -5    5.03    1.02
   4   2  -4  453.25    8.52
   4   2  -4  457.29    8.61
  -4   2   4  461.15    9.09
   4   2  -4  458.87    8.52
  -4   2   4  471.04    8.89
   4   2  -4  460.99    8.55
   4   2  -4  460.52    8.61
  -4   2   4  449.45    8.90
   4   2  -4  450.80    8.55
  -4   2   4  465.25    9.06
  -4   2   4  462.53    8.93
  -4   2   4  439.85    8.88
  -4  -2   4  447.10    8.52
   4  -2  -4  463.33    9.09
   4  -2  -4  445.53    8.89
   4  -2  -4  464.70    8.90
  -4  -2   4  463.47    8.58
   4  -2  -4  464.65    8.91
   4  -2  -4  455.59    9.06
   4  -2  -4  444.44    8.87
  -4   2   3   65.80    2.10
  -4   2   3   65.87    2.11
  -4   2   3   65.97    2.27
  -4   2   3   66.28    2.11
  -4   2   3   64.06    2.15
  -4   2   3   68.09    2.25
   4  -2  -3   64.03    2.14
   4  -2  -3   67.09    2.14
   4  -2  -3   61.95    2.12
   4  -2  -3   65.13    2.13
   4  -2  -3   66.00    2.27
   4  -2  -3   63.67    2.33
  -4   2   2  318.85    6.41
  -4   2   2  333.06    6.50
  -4   2   2  321.30    6.59
  -4   2   2  330.52    6.47
  -4   2   2  328.37    6.58
  -4   2   2  324.81    6.44
   4  -2  -2  330.92    6.60
   4  -2  -2  322.26    6.44
   4  -2  -2  319.51    6.45
   4  -2  -2  328.47    6.61
   4  -2  -2  333.12    6.45
  -4   2   1    0.99    0.81
  -4   2   1    2.10    0.90
  -4   2   1    0.16    0.93
  -4   2   1    1.09    0.85
  -4   2   1    0.14    0.78
  -4   2   1    0.99    0.82
   4  -2  -1   -0.29    0.85
   4  -2  -1    0.85    0.87
   4  -2  -1   -0.29    0.83
   4  -2  -1    0.39    0.81
   4  -2  -1    1.54    0.80
   4  -2  -1    1.40    1.00
  -4   2   0  884.11   16.36
  -4   2   0  866.78   16.37
  -4   2   0  894.96   16.49
  -4   2   0  881.11   16.36
  -4   2   0  898.84   16.51
  -4   2   0  864.14   16.34
   4  -2   0  867.01   16.34
   4  -2   0  894.60   16.51
   4  -2   0  885.62   16.34
   4  -2   0  877.68   16.36
   4  -2   0  884.82   16.36
   4  -2   0  898.44   16.51
  -4   2  -1   11.52    1.04
  -4   2  -1   13.63    1.03
  -4   2  -1   13.48    0.99
   4   2   1   14.88    1.04
  -4   2  -1   14.94    1.23
   4   2   1   13.34    0.98
  -4   2  -1   11.92    0.95
   4   2   1   14.76    1.12
   4   2   1   14.55    1.08
  -4   2  -1   12.03    0.91
   4   2   1   12.64    1.02
   4   2   1   14.24    1.00
  -4  -2  -1   14.14    1.06
   4  -2   1   13.95    1.25
   4  -2   1   11.25    1.00
  -4  -2  -1   11.27    0.88
  -4  -2  -1   13.62    0.99
   4  -2   1   12.56    1.20
   4  -2   1   12.00    0.96
  -4  -2  -1   12.48    1.13
   4  -2   1   11.54    0.97
   4  -2   1   13.63    1.08
  -4   2  -2  510.49    9.76
   4   2   2  511.49    9.42
   4   2   2  491.32    9.44
   4   2   2  497.12    9.46
  -4   2  -2  499.98    9.61
  -4   2  -2  514.15    9.75
  -4   2  -2  505.06    9.58
   4   2   2  490.32    9.45
   4   2   2  497.21    9.55
  -4   2  -2  495.56    9.59
   4   2   2  512.38    9.56
  -4   2  -2  503.38    9.60
   4  -2   2  505.89    9.58
   4  -2   2  499.69    9.57
   4  -2   2  502.39    9.74
   4  -2   2  505.47    9.77
  -4  -2  -2  505.14    9.30
  -4  -2  -2  499.66    9.52
  -4  -2  -2  499.75    9.42
   4  -2   2  495.06    9.58
  -4  -2  -2  496.63    9.31
   4  -2   2  497.32    9.60
  -4  -2  -2  519.19    9.56
  -4  -2  -2  504.58    9.44
  -4   2  -3   64.00    2.12
  -4   2  -3   62.49    2.04
   4   2   3   64.18    2.07
   4   2   3   64.05    2.04
   4   2   3   63.79    2.11
  -4   2  -3   67.66    2.28
  -4   2  -3   63.90    2.06
   4   2   3   61.74    2.02
  -4   2  -3   64.03    2.06
   4   2   3   63.58    2.01
  -4   2  -3   66.26    2.29
  -4  -2  -3   64.89    2.07
   4  -2   3   60.88    2.11
   4  -2   3   62.35    2.13
  -4  -2  -3   64.01    1.98
  -4  -2  -3   65.70    1.97
   4  -2   3   63.59    2.33
  -4  -2  -3   65.18    1.86
  -4  -2  -3   65.82    1.84
   4  -2   3   63.07    2.12
   4  -2   3   65.19    2.30
   4  -2   3   66.33    2.07
   4   2   4   66.13    2.24
  -4   2  -4   64.93    2.43
  -4   2  -4   65.52    2.26
   4   2   4   61.64    2.29
  -4   2  -4   60.76    2.40
   4   2   4   64.80    2.14
  -4   2  -4   60.84    2.20
  -4   2  -4   60.15    2.17
   4   2   4   62.93    2.32
  -4   2  -4   62.27    2.24
   4  -2   4   62.20    2.23
   4  -2   4   65.15    2.26
  -4  -2  -4   63.44    2.24
  -4  -2  -4   62.57    2.18
  -4  -2  -4   60.48    2.07
   4  -2   4   61.63    2.52
  -4  -2  -4   65.68    2.13
  -4  -2  -4   65.02    2.04
  -4  -2  -4   63.69    2.30
   4  -2   4   65.01    2.16
   4  -2   4   64.01    2.28
   4  -2   4   59.31    2.47
  -4   2  -5   70.45    2.55
   4   2   5   68.78    2.76
  -4   2  -5   74.10    2.54
  -4   2  -5   71.33    2.54
   4   2   5   73.26    2.61
   4   2   5   70.79    2.46
   4   2   5   73.13    2.76
  -4   2  -5   73.46    2.74
  -4   2  -5   69.19    2.76
   4   2   5   72.52    2.61
   4   2   5   72.61    2.66
  -4   2  -5   73.81    2.51
   4  -2   5   71.10    2.44
  -4  -2  -5   72.54    2.63
   4  -2   5   69.83    2.66
   4  -2   5   71.46    2.84
  -4  -2  -5   72.70    2.49
   4  -2   5   75.12    2.63
  -4  -2  -5   69.83    2.46
  -4  -2  -5   71.65    2.44
   4  -2   5   71.16    2.60
  -4  -2  -5   70.54    2.39
  -4  -2  -5   71.51    2.69
   4  -2   5   72.74    2.82
   4   2   6   46.19    2.70
  -4   2  -6   41.52    2.70
   4   2   6   41.36    2.57
   4   2   6   44.66    2.52
  -4   2  -6   44.63    2.40
  -4   2  -6   41.18    2.37
   4   2   6   43.28    2.43
  -4   2  -6   40.94    2.33
   4   2   6   41.44    2.64
   4   2   6   44.08    2.78
  -4   2  -6   44.57    2.48
  -4   2  -6   46.26    2.64
   4  -2   6   41.81    2.56
  -4  -2  -6   41.93    2.40
  -4  -2  -6   45.60    2.61
  -4  -2  -6   44.07    2.51
   4  -2   6   38.77    2.74
  -4  -2  -6   47.32    2.41
  -4  -2  -6   43.93    2.39
   4  -2   6   42.59    2.56
   4  -2   6   45.03    2.29
   4  -2   6   45.43    2.61
  -4  -2  -6   45.24    2.31
   4  -2   6   43.28    2.70
   4   2   7   10.14    2.07
   4   2   7   12.13    1.75
   4   2   7   11.59    1.64
  -4   2  -7    9.49    1.65
  -4   2  -7   12.85    1.67
   4   2   7   12.29    1.82
  -4   2  -7   10.91    1.68
  -4   2  -7   12.39    1.82
  -4   2  -7    9.67    1.67
   4   2   7   10.69    1.79
   4   2   7   10.79    1.86
  -4  -2  -7   10.98    1.74
   4  -2   7   10.02    1.74
  -4  -2  -7   13.74    1.51
  -4  -2  -7   11.62    1.52
   4  -2   7   11.89    2.06
   4  -2   7    9.50    1.67
  -4  -2  -7   10.13    1.58
   4  -2   7    8.72    3.26
   4  -2   7    9.69    1.50
  -4  -2  -7   11.77    1.48
   4  -2   7   10.17    1.68
  -4   2  -8   45.83    3.45
  -4   2  -8   45.02    3.23
   4   2   8   50.96    3.36
  -4   2  -8   48.35    3.13
   4   2   8   50.72    3.75
  -4   2  -8   51.39    3.20
  -4   2  -8   49.94    3.54
   4   2   8   53.57    3.73
   4   2   8   51.51    3.58
   4   2   8   55.48    3.50
   4   2   8   52.50    3.40
  -4   2  -8   45.69    3.10
   4  -2   8   47.94    4.71
  -4  -2  -8   47.73    3.53
   4  -2   8   50.45    3.53
  -4  -2  -8   50.74    2.97
  -4  -2  -8   52.40    3.22
   4  -2   8   52.18    3.45
  -4  -2  -8   50.43    3.29
   4  -2   8   46.65    3.73
  -4  -2  -8   49.18    3.18
   4  -2   8   46.70    3.50
  -4  -2  -8   49.08    3.17
   4  -2   8   43.36    3.68
   4   2   9    7.01    2.53
   4   2   9    2.19    2.39
  -4   2  -9    5.41    2.06
  -4   2  -9    5.44    1.95
   4   2   9    8.82    2.31
  -4   2  -9    4.02    1.87
   4   2   9    4.41    2.26
   4   2   9    5.81    2.15
   4   2   9    5.05    2.46
  -4   2  -9    7.73    1.97
   4  -2   9    6.81    2.18
  -4  -2  -9    7.54    2.11
  -4  -2  -9    8.61    1.85
   4  -2   9    2.91    2.20
   4  -2   9    8.54    2.59
  -4  -2  -9    8.56    1.90
   4  -2   9    4.98    1.87
  -4  -2  -9    5.41    1.96
   4  -2   9    2.38    2.58
   4  -2   9    5.46    2.31
  -4  -2  -9    5.78    2.18
  -4  -2  -9    7.21    2.17
   4   3  -9   -0.76    1.68
   4   3  -9    1.11    1.68
  -4   3   9    4.03    2.35
  -4   3   9    1.50    2.34
   4   3  -9    0.47    1.51
   4   3  -9    1.00    1.48
   4   3  -9   -0.16    1.57
   4   3  -9   -0.11    1.56
  -4   3   9    0.97    1.80
  -4   3   9    0.16    1.83
  -4   3   9    3.90    2.14
  -4   3   9    2.99    2.11
   4  -3  -9    1.30    2.33
  -4  -3   9    3.25    1.82
   4  -3  -9    2.08    1.82
   4  -3  -9    1.96    1.96
   4  -3  -9   -1.09    1.77
  -4  -3   9    1.66    1.70
   4  -3  -9    3.30    2.13
   4  -3  -9    1.78    1.83
  -4  -3   9    0.85    1.99
  -4  -3   9    1.43    1.79
   4   3  -8    4.77    1.55
   4   3  -8    3.75    1.46
  -4   3   8    4.50    1.95
   4   3  -8    6.28    1.47
   4   3  -8    5.10    1.40
  -4   3   8    6.75    2.20
  -4   3   8    4.57    2.04
   4   3  -8    1.25    1.31
   4   3  -8    7.56    1.43
  -4   3   8    4.16    1.75
  -4   3   8    4.18    1.84
  -4   3   8    8.16    1.77
   4  -3  -8    4.65    1.57
  -4  -3   8    6.58    1.50
   4  -3  -8    5.30    1.86
  -4  -3   8    7.34    1.55
  -4  -3   8    6.42    1.61
   4  -3  -8    6.56    1.67
   4  -3  -8    2.73    1.89
  -4  -3   8    3.31    1.72
   4  -3  -8    2.82    2.01
   4  -3  -8    4.52    1.58
   4   3  -7   34.45    2.29
  -4   3   7   31.74    2.92
  -4   3   7   30.98    2.84
   4   3  -7   33.18    2.14
  -4   3   7   28.97    2.21
   4   3  -7   31.70    2.19
   4   3  -7   32.09    2.29
   4   3  -7   32.09    2.17
  -4   3   7   36.69    2.90
  -4   3   7   31.80    2.84
   4   3  -7   29.26    2.28
  -4   3   7   35.12    3.04
   4  -3  -7   32.46    2.78
  -4  -3   7   33.71    2.27
   4  -3  -7   34.75    2.82
   4  -3  -7   35.87    2.68
  -4  -3   7   32.31    2.12
   4  -3  -7   30.11    3.09
   4  -3  -7   31.23    3.15
  -4  -3   7   30.44    2.46
  -4  -3   7   32.58    2.33
   4  -3  -7   32.24    2.81
  -4   3   6   49.62    2.84
   4   3  -6   51.04    2.17
   4   3  -6   46.90    2.09
  -4   3   6   48.72    2.82
   4   3  -6   43.52    2.12
   4   3  -6   48.48    2.02
  -4   3   6   47.19    2.89
  -4   3   6   44.85    2.95
   4   3  -6   44.49    2.13
  -4   3   6   42.87    4.01
  -4   3   6   51.13    2.87
   4   3  -6   45.93    1.96
   4  -3  -6   54.12    2.58
   4  -3  -6   46.92    2.73
  -4  -3   6   47.40    2.19
   4  -3  -6   46.69    2.73
  -4  -3   6   39.07    3.56
   4  -3  -6   47.36    2.93
   4  -3  -6   49.20    2.93
  -4  -3   6   50.13    1.93
  -4  -3   6   44.30    2.15
   4  -3  -6   44.92    2.74
   4   3  -5    7.57    0.95
  -4   3   5    6.10    1.46
  -4   3   5    5.13    1.22
   4   3  -5    6.08    0.96
   4   3  -5    5.79    0.94
   4   3  -5    6.94    1.02
  -4   3   5    6.78    1.42
  -4   3   5    6.49    1.29
  -4   3   5    4.34    1.33
  -4   3   5    7.97    1.44
  -4  -3   5    8.16    0.98
   4  -3  -5    7.71    1.47
   4  -3  -5    5.72    1.44
   4  -3  -5    5.90    1.29
   4  -3  -5    7.55    1.26
   4  -3  -5    6.42    1.43
   4  -3  -5    4.58    1.31
  -4   3   4    0.69    1.10
   4   3  -4   -0.11    0.74
  -4   3   4    2.22    1.08
  -4   3   4   -0.81    1.00
  -4   3   4    2.18    1.21
  -4   3   4    1.23    1.17
   4   3  -4   -1.01    0.73
  -4   3   4    1.56    1.28
   4  -3  -4    0.89    1.11
   4  -3  -4    2.74    1.25
   4  -3  -4    0.68    1.24
   4  -3  -4   -0.20    1.08
   4  -3  -4    0.75    1.14
   4  -3  -4   -0.45    1.18
  -4   3   3  127.94    3.38
  -4   3   3  124.29    3.36
  -4   3   3  127.88    3.36
  -4   3   3  126.32    3.31
  -4   3   3  124.76    3.54
  -4   3   3  124.45    3.48
   4  -3  -3  123.56    3.51
   4  -3  -3  127.59    3.26
   4  -3  -3  129.02    3.38
   4  -3  -3  125.13    3.56
   4  -3  -3  129.00    3.33
  -4   3   2   -0.52    0.93
  -4   3   2    1.10    1.04
  -4   3   2    0.87    1.06
  -4   3   2   -0.55    1.05
  -4   3   2    0.65    0.91
  -4   3   2    0.60    1.01
   4  -3  -2    1.46    1.26
   4  -3  -2    0.75    0.96
   4  -3  -2    1.33    0.97
   4  -3  -2   -0.06    0.99
   4  -3  -2    0.58    1.00
   4  -3  -2    2.20    1.17
  -4   3   1   53.30    2.14
  -4   3   1   53.39    2.09
  -4   3   1   49.18    2.14
  -4   3   1   51.70    2.09
  -4   3   1   54.72    2.27
  -4   3   1   52.17    2.23
   4  -3  -1   50.74    2.31
   4  -3  -1   49.36    2.04
   4  -3  -1   49.07    2.19
   4  -3  -1   51.53    2.03
   4  -3  -1   55.38    2.38
   4  -3  -1   52.28    2.19
   4   3   0   17.30    1.16
  -4   3   0   17.93    1.22
   4   3   0   16.72    1.21
  -4   3   0   19.65    1.38
   4   3   0   18.15    1.21
  -4   3   0   18.43    1.30
   4   3   0   17.37    1.11
  -4   3   0   18.12    1.30
  -4   3   0   18.82    1.40
  -4   3   0   16.10    1.31
   4  -3   0   16.58    1.19
   4  -3   0   17.24    1.61
   4  -3   0   13.87    1.32
   4  -3   0   16.46    1.29
   4  -3   0   20.19    1.55
  -4  -3   0   16.12    1.16
   4  -3   0   18.03    1.26
  -4   3  -1   19.58    1.69
   4   3   1   22.52    1.39
   4   3   1   21.39    1.41
  -4   3  -1   20.54    1.89
   4   3   1   22.58    1.31
  -4   3  -1   21.46    1.66
   4   3   1   20.73    1.35
  -4   3  -1   22.61    1.74
   4   3   1   21.88    1.42
  -4   3  -1   22.01    1.88
  -4   3  -1   19.45    1.71
   4   3   1   23.02    1.29
   4  -3   1   23.35    1.97
  -4  -3  -1   20.23    1.35
   4  -3   1   21.46    1.84
   4  -3   1   21.66    1.89
   4  -3   1   20.73    1.78
  -4  -3  -1   23.05    1.43
  -4  -3  -1   20.90    1.25
   4  -3   1   21.02    1.63
   4  -3   1   22.67    1.66
  -4  -3  -1   21.51    1.44
   4   3   2   28.17    1.69
   4   3   2   27.22    1.68
   4   3   2   27.98    1.64
   4   3   2   26.43    1.60
  -4   3  -2   26.00    1.97
  -4   3  -2   26.56    1.76
  -4   3  -2   26.99    1.90
  -4   3  -2   28.18    1.89
  -4   3  -2   27.76    1.96
  -4   3  -2   26.67    1.76
   4   3   2   26.04    1.63
   4   3   2   26.34    1.53
  -4  -3  -2   27.73    1.52
  -4  -3  -2   27.87    1.54
   4  -3   2   27.54    1.89
   4  -3   2   27.44    2.07
   4  -3   2   25.68    1.99
  -4  -3  -2   27.44    1.64
   4  -3   2   28.43    1.97
   4  -3   2   26.37    1.76
  -4  -3  -2   29.14    1.68
   4  -3   2   27.29    1.75
   4   3   3   41.46    1.99
   4   3   3   40.54    1.88
   4   3   3   41.18    2.01
   4   3   3   39.72    2.12
  -4   3  -3   40.70    2.27
  -4   3  -3   39.93    2.25
   4   3   3   40.62    1.92
  -4   3  -3   43.14    2.08
   4   3   3   31.62    2.71
  -4   3  -3   41.05    2.03
  -4   3  -3   38.91    2.08
  -4   3  -3   44.14    2.18
   4  -3   3   43.13    2.18
   4  -3   3   37.84    2.21
  -4  -3  -3   40.47    1.53
   4  -3   3   45.23    2.07
   4  -3   3   39.06    1.98
   4  -3   3   37.40    2.30
  -4  -3  -3   42.80    1.88
   4  -3   3   39.93    2.36
  -4  -3  -3   39.32    1.88
  -4  -3  -3   39.28    2.01
  -4  -3  -3   41.97    1.97
   4   3   4   58.20    2.30
  -4   3  -4   52.45    2.44
   4   3   4   57.52    2.55
  -4   3  -4   52.17    2.31
  -4   3  -4   52.04    2.38
  -4   3  -4   54.60    2.62
  -4   3  -4   54.13    2.45
   4   3   4   55.01    2.41
   4   3   4   54.20    2.36
   4   3   4   54.83    2.40
  -4   3  -4   53.27    2.65
   4   3   4   54.18    2.44
  -4  -3  -4   53.51    2.02
  -4  -3  -4   53.68    2.28
   4  -3   4   54.52    2.51
  -4  -3  -4   55.47    2.39
  -4  -3  -4   52.01    2.35
  -4  -3  -4   54.55    2.00
   4  -3   4   54.35    2.37
   4  -3   4   54.27    2.76
   4  -3   4   54.58    2.61
  -4  -3  -4   56.42    2.31
   4  -3   4   53.51    2.70
   4  -3   4   55.99    2.35
  -4   3  -5  111.80    3.35
  -4   3  -5  111.05    3.46
   4   3   5  105.17    3.59
  -4   3  -5  106.69    3.41
   4   3   5  111.83    3.42
   4   3   5  106.02    3.52
  -4   3  -5  111.80    3.64
   4   3   5  110.50    3.53
   4   3   5  109.03    3.36
  -4   3  -5  107.27    3.62
  -4   3  -5  105.47    3.78
   4  -3   5  110.11    3.71
  -4  -3  -5  110.70    3.03
  -4  -3  -5  110.98    3.32
   4  -3   5  106.85    3.32
  -4  -3  -5   96.70    4.79
   4  -3   5  111.22    3.50
  -4  -3  -5  108.64    3.49
   4  -3   5  109.98    3.26
   4  -3   5  108.79    3.59
  -4  -3  -5  105.17    3.05
  -4  -3  -5  107.84    3.45
   4  -3   5   95.75    5.08
  -4   3  -6  205.98    5.38
  -4   3  -6  203.65    5.08
  -4   3  -6  202.28    5.37
  -4   3  -6  208.17    5.02
   4   3   6  196.14    5.39
  -4   3  -6  198.70    5.96
   4   3   6  204.58    5.26
  -4   3  -6  204.30    5.14
   4   3   6  212.94    5.14
   4  -3   6  208.26    5.05
  -4  -3  -6  203.90    5.04
  -4  -3  -6  210.41    4.80
  -4  -3  -6  210.23    5.12
   4  -3   6  197.43    5.43
  -4  -3  -6  202.02    5.25
   4  -3   6  211.02    5.27
   4  -3   6  213.88    4.95
  -4  -3  -6  205.95    4.91
   4  -3   6  197.28    5.50
  -4  -3  -6  203.78    5.33
   4  -3   6  214.59    5.23
   4   3   7   12.62    2.22
  -4   3  -7   10.10    2.07
   4   3   7    9.47    1.95
   4   3   7   11.33    2.10
  -4   3  -7   10.21    1.65
   4   3   7    9.33    2.09
  -4   3  -7    7.82    1.77
   4   3   7    9.76    1.86
   4   3   7   12.82    1.97
  -4   3  -7    7.77    1.92
  -4   3  -7   11.23    1.76
  -4   3  -7    7.54    1.80
   4  -3   7   11.03    2.23
  -4  -3  -7    8.71    1.87
  -4  -3  -7    7.24    1.62
  -4  -3  -7   10.98    1.59
   4  -3   7    8.61    1.97
   4  -3   7    9.72    1.73
   4  -3   7   13.36    2.11
  -4  -3  -7   12.31    1.69
   4  -3   7   11.11    1.96
   4  -3   7   10.68    2.40
  -4  -3  -7    7.37    1.88
  -4  -3  -7   10.04    1.73
   4   3   8   11.43    2.51
  -4   3  -8    9.43    2.08
   4   3   8    9.38    2.18
   4   3   8    8.25    2.38
  -4   3  -8    4.41    2.16
   4   3   8   11.44    2.20
  -4   3  -8   10.09    2.27
  -4   3  -8    7.66    2.01
   4   3   8    6.71    2.39
  -4   3  -8    5.51    1.87
  -4   3  -8   10.92    2.26
   4   3   8    6.10    2.05
  -4  -3  -8    9.23    2.17
   4  -3   8   11.55    3.44
  -4  -3  -8   11.65    2.06
  -4  -3  -8    7.52    1.79
  -4  -3  -8    8.52    2.00
   4  -3   8    6.17    2.22
   4  -3   8    6.81    2.10
  -4  -3  -8    8.16    1.91
   4  -3   8   10.05    2.56
  -4  -3  -8    6.74    1.90
   4  -3   8    7.32    2.28
   4  -3   8   10.41    2.60
  -4   4   7   20.99    2.60
  -4   4   7   19.90    2.24
  -4   4   7   27.45    2.27
  -4   4   7   18.96    2.32
  -4   4   7   24.59    2.44
   4   4  -7   28.32    2.22
   4   4  -7   22.56    1.81
   4   4  -7   18.56    1.84
   4   4  -7   22.32    1.75
   4   4  -7   22.10    1.68
   4   4  -7   17.77    1.81
  -4   4   7   24.65    2.61
   4  -4  -7   21.04    2.31
   4  -4  -7   25.73    2.44
   4  -4  -7   22.38    2.15
  -4  -4   7   23.14    1.74
  -4  -4   7   24.11    1.83
   4  -4  -7   25.66    2.82
   4  -4  -7   23.49    2.28
   4  -4  -7   24.42    2.41
  -4  -4   7   20.61    1.95
  -4  -4   7   20.79    1.57
  -4   4   6   21.47    1.94
   4   4  -6   17.94    1.61
   4   4  -6   24.02    2.18
  -4   4   6   26.83    2.27
  -4   4   6   21.02    2.25
   4   4  -6   19.22    1.60
   4   4  -6   18.39    1.41
  -4   4   6   23.08    2.49
  -4   4   6   19.90    2.11
  -4   4   6   18.65    2.04
  -4  -4   6   24.26    2.15
   4  -4  -6   19.03    2.04
   4  -4  -6   23.42    2.44
   4  -4  -6   20.84    2.32
   4  -4  -6   18.84    1.82
   4  -4  -6   21.88    2.11
   4  -4  -6   21.23    1.97
  -4   4   5   20.32    1.88
  -4   4   5   23.43    2.03
  -4   4   5   18.85    2.08
  -4   4   5   24.39    2.02
   4   4  -5   21.48    1.97
  -4   4   5   21.62    2.10
   4   4  -5   20.72    1.44
  -4   4   5   21.04    2.08
   4   4  -5   18.06    1.80
   4   4  -5   20.61    1.52
   4  -4  -5   23.53    1.86
   4  -4  -5   23.74    2.03
   4  -4  -5   19.94    1.83
   4  -4  -5   24.01    2.33
   4  -4  -5   22.57    2.01
  -4   4   4   13.67    1.69
  -4   4   4   10.99    1.61
  -4   4   4    8.09    1.61
   4   4  -4    8.99    1.01
  -4   4   4   10.43    1.65
   4   4  -4    9.00    1.17
  -4   4   4   12.23    1.71
   4   4  -4   10.29    1.15
  -4   4   4    8.68    1.72
   4  -4  -4    9.57    1.56
   4  -4  -4    9.97    1.53
   4  -4  -4    8.53    1.44
   4  -4  -4   10.96    1.88
   4  -4  -4   11.19    1.78
   4  -4  -4    9.28    1.61
  -4   4   3  147.24    5.02
  -4   4   3  158.31    4.27
  -4   4   3  157.98    4.16
  -4   4   3  147.50    4.48
   4   4  -3  150.00    3.50
   4   4  -3  151.40    3.53
  -4   4   3  153.41    4.42
  -4   4   3  152.64    4.19
   4  -4  -3  152.56    4.45
   4  -4  -3  155.41    3.99
   4  -4  -3  148.08    4.41
   4  -4  -3  161.59    4.25
   4  -4  -3  153.61    4.03
   4  -4  -3  156.96    4.28
  -4   4   2   -0.73    1.21
  -4   4   2    1.47    2.27
  -4   4   2    1.45    1.28
  -4   4   2    0.28    1.38
  -4   4   2    0.22    1.37
  -4   4   2    1.34    1.32
   4   4  -2   -1.76    0.86
   4   4  -2   -0.66    0.92
   4  -4  -2    0.54    1.17
   4  -4  -2    0.21    1.30
   4  -4  -2    0.63    1.67
   4  -4  -2    0.37    1.50
   4  -4  -2    2.65    1.50
   4  -4  -2   -1.60    1.23
  -4   4   1  115.14    3.61
  -4   4   1  120.83    3.38
  -4   4   1  118.25    3.67
   4   4  -1  112.72    2.91
   4   4  -1  117.01    2.95
  -4   4   1  114.28    3.42
  -4   4   1  119.27    3.56
  -4   4   1  115.36    3.49
   4  -4  -1  100.34    4.10
   4  -4  -1  117.71    3.30
   4  -4  -1  114.32    3.73
   4  -4  -1  117.77    3.22
   4  -4  -1  120.60    3.54
   4  -4  -1  106.73    5.57
  -4   4   0   15.08    1.56
  -4   4   0   13.69    1.57
  -4   4   0   17.52    1.73
   4   4   0   16.74    1.68
  -4   4   0   15.76    1.47
   4   4   0   18.55    1.57
   4   4   0   16.13    1.49
  -4   4   0   16.64    1.67
  -4   4   0   15.59    1.64
   4   4   0   14.19    1.22
   4   4   0   14.88    1.20
   4   4   0   16.77    1.64
   4  -4   0   17.88    1.43
   4  -4   0   12.35    2.14
   4  -4   0   16.13    1.44
   4  -4   0   16.80    1.56
   4  -4   0   13.04    1.70
  -4  -4   0   16.50    1.61
  -4   4  -1   -2.66    1.55
   4   4   1   -0.91    1.02
  -4   4  -1    0.63    1.35
   4   4   1   -0.38    1.08
   4   4   1   -0.31    0.97
   4   4   1    1.51    1.09
  -4   4  -1    1.17    1.28
  -4   4  -1    0.65    1.12
   4   4   1    1.61    1.13
   4   4   1   -0.13    0.93
  -4   4  -1   -1.34    1.29
   4  -4   1   -1.96    1.10
  -4  -4  -1   -0.44    0.88
   4  -4   1   -1.88    1.10
  -4  -4  -1    1.32    1.05
  -4  -4  -1    1.24    1.78
   4  -4   1    0.06    1.50
   4  -4   1    0.42    1.33
   4  -4   1    1.43    1.40
   4  -4   1   -0.80    1.42
  -4  -4  -1    1.22    1.06
  -4   4  -2   13.60    1.62
  -4   4  -2   14.11    1.56
   4   4   2   14.98    1.58
  -4   4  -2   14.80    1.43
   4   4   2   13.55    1.45
   4   4   2   17.00    1.46
   4   4   2   16.97    1.32
   4   4   2   15.19    1.45
  -4   4  -2   13.32    2.46
  -4   4  -2   16.76    1.62
   4   4   2   16.49    1.34
  -4   4  -2   14.51    1.97
   4  -4   2   14.99    1.41
  -4  -4  -2   14.50    1.42
  -4  -4  -2   16.85    1.26
   4  -4   2   18.64    1.68
   4  -4   2   16.32    1.70
  -4  -4  -2   16.62    1.34
   4  -4   2   14.82    1.72
  -4  -4  -2   17.36    1.47
   4  -4   2   15.22    1.38
   4  -4   2   15.60    1.74
  -4   4  -3   18.62    2.86
   4   4   3   20.24    1.64
   4   4   3   21.86    2.10
  -4   4  -3   21.31    1.91
  -4   4  -3   19.01    1.64
  -4   4  -3   20.19    1.93
   4   4   3   16.18    1.61
  -4   4  -3   23.54    2.22
   4   4   3   19.39    1.52
  -4   4  -3   20.82    1.76
   4   4   3   19.93    1.70
   4   4   3   16.06    1.63
  -4  -4  -3   19.80    1.67
  -4  -4  -3   20.19    1.47
   4  -4   3   18.80    1.72
   4  -4   3   20.11    1.79
  -4  -4  -3   19.12    1.66
   4  -4   3   22.47    2.15
   4  -4   3   22.70    2.08
   4  -4   3   18.49    1.55
   4  -4   3   22.92    2.04
   4   4   4   13.01    1.71
   4   4   4   17.13    1.73
  -4   4  -4   16.18    1.81
   4   4   4   16.57    1.80
   4   4   4   16.31    1.60
  -4   4  -4   13.35    1.56
  -4   4  -4   14.92    1.68
   4   4   4   16.89    1.57
   4   4   4   15.23    2.89
  -4   4  -4   12.91    2.79
  -4   4  -4   12.13    1.80
  -4   4  -4   13.48    1.89
   4  -4   4   15.83    1.86
  -4  -4  -4   11.34    1.53
  -4  -4  -4   16.52    1.69
   4  -4   4   14.49    1.76
   4  -4   4   13.65    1.94
   4  -4   4   15.27    1.95
   4  -4   4   11.62    1.47
   4  -4   4   14.87    1.57
  -4  -4  -4   14.52    1.65
  -4  -4  -4   17.66    1.55
  -4   4  -5    1.71    1.76
   4   4   5   -0.24    1.62
   4   4   5   -0.94    1.52
   4   4   5   -0.91    1.63
  -4   4  -5   -0.48    1.47
  -4   4  -5    2.57    1.58
   4   4   5    0.88    1.53
   4   4   5   -0.12    1.47
  -4   4  -5   -0.34    1.67
  -4   4  -5   -0.48    1.77
  -4   4  -5   -0.08    1.59
   4   4   5    2.14    1.69
   4  -4   5   -1.74    1.72
  -4  -4  -5    0.45    1.45
   4  -4   5    1.31    1.84
  -4  -4  -5    0.63    1.48
   4  -4   5    0.67    1.57
  -4  -4  -5    1.65    1.62
   4  -4   5    3.13    1.72
   4  -4   5    0.83    1.86
   4  -4   5    1.62    1.42
  -4  -4  -5   -0.82    1.63
   4   4   6   -0.18    1.73
  -4   4  -6   -1.65    1.79
   4   4   6    4.15    1.95
  -4   4  -6    2.86    1.89
   4   4   6    3.00    1.88
   4   4   6   -0.30    1.77
  -4   4  -6    1.49    1.80
   4   4   6   -2.15    1.83
  -4   4  -6   -1.71    1.66
  -4   4  -6    1.53    1.79
  -4   4  -6    2.05    2.02
   4  -4   6    0.88    1.63
   4  -4   6    1.17    2.18
   4  -4   6   -0.97    2.06
  -4  -4  -6   -0.22    1.38
  -4  -4  -6   -0.54    1.61
   4  -4   6   -1.40    2.03
  -4  -4  -6   -1.42    1.67
   4  -4   6   -0.91    1.71
  -4  -4  -6   -2.04    1.77
  -4  -4  -6   -1.29    1.38
  -4  -4  -6    0.51    1.68
   4  -4   6   -0.83    1.88
   4   5  -4    2.88    1.49
  -4   5   4    3.93    2.00
   4   5  -4    1.11    1.42
  -4   5   4    2.96    1.85
  -4   5   4    1.83    1.99
  -4   5   4    2.48    2.21
  -4   5   4    3.94    1.92
  -4   5   4    2.78    2.18
   4  -5  -4    3.61    2.03
   4  -5  -4    3.83    2.19
   4  -5  -4    2.93    1.90
   4  -5  -4    3.77    2.25
   4  -5  -4    6.15    2.28
  -4   5   3   -0.56    1.81
  -4   5   3   -1.01    1.70
  -4   5   3    1.89    1.82
   4   5  -3    0.28    1.26
  -4   5   3    0.53    1.67
   4   5  -3    1.12    1.44
  -4   5   3   -1.43    1.93
  -4   5   3    4.43    2.11
   4  -5  -3    0.75    1.92
   4  -5  -3    0.36    1.96
   4  -5  -3   -1.13    1.93
   4  -5  -3    2.90    2.10
   4  -5  -3    0.77    1.68
   4  -5  -3   -0.02    1.46
  -4   5   2    6.93    1.90
  -4   5   2    8.90    2.10
  -4   5   2    4.54    1.82
   4   5  -2    7.87    1.47
   4   5  -2    8.03    1.57
  -4   5   2    9.97    1.99
  -4   5   2    5.93    1.83
  -4   5   2    9.83    1.88
   4  -5  -2    5.54    1.52
   4  -5  -2    8.47    1.97
   4  -5  -2    4.40    2.00
   4  -5  -2    6.92    1.52
   4  -5  -2    6.36    2.11
   4  -5  -2    6.73    1.82
  -4   5   1   30.35    3.01
   4   5  -1   35.36    2.44
   4   5  -1   28.68    1.92
  -4   5   1   34.42    3.12
  -4   5   1   31.44    2.45
  -4   5   1   39.53    3.24
  -4   5   1   34.37    3.11
  -4   5   1   36.29    2.57
   4   5  -1   33.55    2.58
   4  -5  -1   31.34    2.56
   4  -5  -1   33.72    2.55
   4  -5  -1   29.89    2.39
   4  -5  -1   33.52    2.35
   4  -5  -1   27.58    2.43
   4  -5  -1   33.80    3.23
   4   5   0   16.93    1.56
   4   5   0   16.79    1.76
  -4   5   0   12.63    1.77
  -4   5   0    9.53    1.86
  -4   5   0   14.21    1.81
   4   5   0   15.06    1.55
   4   5   0   19.36    1.90
  -4   5   0   14.07    1.88
  -4   5   0   16.86    2.13
   4   5   0   14.00    1.60
  -4   5   0   11.29    2.08
   4   5   0   17.66    1.70
   4  -5   0   15.84    1.58
   4  -5   0   10.56    2.15
   4  -5   0   15.03    2.06
   4  -5   0   15.11    2.01
  -4  -5   0   12.55    2.04
   4  -5   0   17.88    1.61
   4  -5   0   12.90    2.16
  -4   5  -1   -1.99    1.80
  -4   5  -1    2.00    1.81
   4   5   1    1.37    1.41
  -4   5  -1    1.19    1.63
  -4   5  -1   -0.52    1.70
   4   5   1    1.05    1.20
  -4   5  -1    1.50    1.48
  -4   5  -1    0.37    1.62
   4   5   1    1.50    1.30
   4   5   1   -1.17    1.53
   4   5   1    3.54    1.44
   4   5   1    2.13    1.52
   4  -5   1    1.25    1.95
  -4  -5  -1    1.59    1.21
   4  -5   1    0.89    1.87
  -4  -5  -1    0.69    1.35
   4  -5   1    1.80    1.76
   4  -5   1   -1.07    1.39
   4  -5   1   -0.01    1.86
  -4  -5  -1    3.06    1.41
   4   5   2    1.26    1.35
  -4   5  -2   -1.69    1.62
  -4   5  -2    1.54    1.67
  -4   5  -2    1.56    1.78
  -4   5  -2    3.27    1.89
   4   5   2    0.61    1.65
   4   5   2    0.06    1.51
   4   5   2   -5.42    2.95
   4   5   2   -0.02    1.62
   4   5   2    0.01    1.33
  -4   5  -2    2.13    1.65
  -4  -5  -2   -0.32    1.52
   4  -5   2    0.69    1.99
  -4  -5  -2    0.25    1.51
  -4  -5  -2    1.82    1.61
   4  -5   2   -1.46    1.98
   4  -5   2    2.79    1.89
  -4  -5  -2   -0.07    1.30
   4  -5   2    2.01    1.78
   4   5   3    9.23    1.88
  -4   5  -3    7.68    2.02
   4   5   3   14.31    2.00
   4   5   3   10.10    1.64
  -4   5  -3   12.52    1.91
  -4   5  -3   11.71    1.74
   4   5   3   14.68    1.94
   4   5   3    8.41    1.65
   4   5   3   10.14    1.97
  -4   5  -3   10.59    1.95
  -4   5  -3    9.03    1.95
  -4   5  -3   11.38    2.18
   4  -5   3    9.71    2.20
  -4  -5  -3   10.98    1.77
   4  -5   3    9.26    2.03
  -4  -5  -3    9.00    1.89
  -4  -5  -3   12.32    1.63
   4  -5   3   11.98    2.28
   4  -5   3    9.73    2.17
  -4  -5  -3   11.18    1.82
  -5   0  11   -0.82    1.76
  -5   0  11   -3.42    2.26
  -5   0  11   -0.59    2.10
   5   0 -11   -1.04    1.90
   5   0 -11    1.32    1.91
   5   0 -11   -0.73    1.86
   5   0 -11    0.04    1.67
   5   0 -11    0.64    1.81
  -5   0  11   -1.72    2.32
  -5   0  11   -2.06    2.17
  -5   0  11   -0.13    1.91
   5   0 -11    2.19    1.86
   5   0 -10    9.62    1.79
  -5   0  10   13.43    2.16
   5   0 -10   11.53    1.59
   5   0 -10   13.22    1.82
   5   0 -10    9.73    1.86
  -5   0  10   10.08    1.65
   5   0 -10    9.97    1.87
  -5   0  10   10.28    2.23
  -5   0  10   14.20    2.06
  -5   0  10    9.29    1.96
   5   0 -10   14.14    1.85
  -5   0   9   -3.09    1.70
   5   0  -9   -0.81    1.40
  -5   0   9   -2.47    1.66
  -5   0   9   -1.97    1.40
   5   0  -9    0.71    1.50
  -5   0   9   -0.13    1.32
  -5   0   9   -0.34    1.32
   5   0  -9   -1.11    1.41
   5   0  -9    0.42    1.34
  -5   0   9    0.12    1.52
  -5   0   8  503.40    9.95
   5   0  -8  507.40   10.18
   5   0  -8  492.25    9.93
   5   0  -8  499.66   10.13
  -5   0   8  508.59    9.84
   5   0  -8  503.55    9.90
  -5   0   8  490.92    9.81
   5   0  -8  496.42    9.98
   5   0  -8  496.70    9.89
  -5   0   8  500.77   10.19
   5   0  -7    0.39    0.96
  -5   0   7   -0.83    1.04
   5   0  -7   -0.91    1.14
   5   0  -7   -1.73    1.01
   5   0  -7   -2.11    0.98
  -5   0   7   -0.83    1.16
   5   0  -7    1.22    1.08
   5   0  -7    0.57    1.03
  -5   0   7   -0.65    0.99
  -5   0   7    0.54    0.99
  -5   0   7    0.78    1.07
  -5   0   7    0.67    1.06
  -5   0   6  363.02    7.38
  -5   0   6  372.21    7.15
   5   0  -6  362.45    7.22
  -5   0   6  355.43    7.12
   5   0  -6  367.30    7.36
   5   0  -6  373.65    7.40
   5   0  -6  361.50    7.19
   5   0  -6  360.51    7.24
  -5   0   6  362.57    7.17
  -5   0   6  363.80    7.22
  -5   0   6  366.11    7.32
   5   0  -6  356.80    7.17
   5   0  -5    0.01    0.74
  -5   0   5   -0.53    0.73
   5   0  -5   -0.32    0.81
  -5   0   5    0.01    0.76
   5   0  -5   -0.17    0.72
   5   0  -5    0.03    0.87
  -5   0   5   -0.01    0.76
   5   0  -5    0.25    0.81
  -5   0   5    0.36    0.78
  -5   0   5   -0.48    0.94
  -5   0   5    0.09    0.70
   5   0  -5    0.33    0.71
   5   0  -4 1107.38   20.16
  -5   0   4 1110.09   20.11
   5   0  -4 1108.05   20.24
  -5   0   4 1113.09   20.12
   5   0  -4 1089.53   20.24
   5   0  -4 1087.95   20.11
   5   0  -4 1114.59   20.15
  -5   0   4 1087.32   20.12
  -5   0   4 1109.41   20.23
  -5   0   4 1106.76   20.09
  -5   0   4 1030.21   20.19
   5   0  -4 1100.29   20.13
   5   0  -3    0.85    0.63
  -5   0   3   -0.16    0.35
  -5   0   3   -0.57    0.68
  -5   0   3   -0.26    0.52
  -5   0   3   -0.31    0.55
  -5   0   3   -0.03    0.54
   5   0  -3   -0.72    0.67
   5   0  -3    0.23    0.58
   5   0  -3    0.21    0.65
  -5   0   3   -0.09    0.62
   5   0  -3   -0.49    0.61
   5   0  -3    0.36    0.59
  -5   0   2 2600.74   47.21
   5   0  -2 2583.18   47.26
   5   0  -2 2569.40   47.30
   5   0  -2 2560.89   47.29
   5   0  -2 2563.73   47.19
  -5   0   2 2665.68   47.41
  -5   0   2 2668.48   47.42
  -5   0   2 2625.73   47.33
  -5   0   2 2612.05   47.19
   5   0  -2 2561.21   47.33
   5   0  -2 2636.11   47.28
  -5   0   1   -0.51    0.50
  -5   0   1    0.39    0.57
   5   0  -1   -0.06    0.58
   5   0  -1   -1.01    0.55
  -5   0   1   -0.14    0.44
   5   0  -1   -0.87    0.61
  -5   0   1   -0.64    0.51
   5   0  -1   -0.48    0.50
   5   0  -1   -0.57    0.52
  -5   0   1    0.21    0.49
   5   0  -1   -0.38    0.52
  -5   0   0 1088.31   19.93
  -5   0   0 1077.59   19.94
   5   0   0 1091.07   19.95
   5   0   0 1086.18   19.94
   5   0   0 1076.34   19.93
   5   0   0 1085.63   19.94
   5   0   0 1104.72   20.02
  -5   0   0 1116.71   20.01
   5   0   0 1113.67   20.02
  -5   0   0 1103.56   19.93
   5   0   1   -0.26    0.71
   5   0   1    0.00    0.61
  -5   0  -1   -0.09    0.56
  -5   0  -1    1.15    0.70
   5   0   1   -0.42    0.65
   5   0   1    0.57    0.75
   5   0   1   -0.06    0.56
  -5   0  -1   -0.39    0.54
  -5   0  -1    0.61    0.66
  -5   0  -1    0.41    0.51
  -5   0  -1   -0.61    0.54
   5   0   1   -0.63    0.51
   5   0   2   17.67    1.18
  -5   0  -2   17.43    1.20
  -5   0  -2   18.74    1.15
  -5   0  -2   16.57    1.14
   5   0   2   17.65    1.35
  -5   0  -2   17.90    1.29
  -5   0  -2   16.87    1.17
   5   0   2   20.58    1.20
   5   0   2   19.13    1.39
   5   0   2   17.45    1.28
   5   0   2   16.14    1.19
  -5   0  -2   17.95    1.31
  -5   0  -3    0.53    0.89
  -5   0  -3   -0.08    0.63
   5   0   3   -0.08    0.75
   5   0   3   -0.52    0.92
  -5   0  -3    0.35    0.74
  -5   0  -3    0.89    0.92
   5   0   3   -0.55    0.81
   5   0   3    0.91    0.98
   5   0   3    0.88    0.66
   5   0   3   -1.21    0.74
  -5   0  -3   -0.47    0.68
  -5   0  -3    0.21    0.73
   5   0   4   48.47    1.91
   5   0   4   51.70    2.14
   5   0   4   51.23    2.05
  -5   0  -4   47.93    1.93
  -5   0  -4   50.46    1.91
   5   0   4   50.19    2.17
  -5   0  -4   51.42    2.11
   5   0   4   49.04    1.92
   5   0   4   49.28    1.94
  -5   0  -4   52.84    1.92
  -5   0  -4   47.09    1.83
  -5   0  -4   48.86    2.08
  -5   0  -5    0.46    0.90
   5   0   5    0.53    1.10
   5   0   5    0.23    1.06
   5   0   5   -0.68    1.02
  -5   0  -5   -1.35    1.12
  -5   0  -5    0.47    0.84
   5   0   5    0.31    1.28
  -5   0  -5    0.66    0.90
  -5   0  -5    0.34    1.02
   5   0   5   -0.17    1.03
  -5   0  -5   -1.42    0.87
   5   0   5   -1.84    1.04
   5   0   6   79.38    2.71
  -5   0  -6   76.46    2.59
   5   0   6   77.21    2.89
   5   0   6   74.56    2.88
   5   0   6   73.50    3.10
   5   0   6   74.93    2.77
  -5   0  -6   81.00    2.95
  -5   0  -6   76.88    2.65
   5   0   6   77.70    2.98
  -5   0  -6   75.68    2.83
  -5   0  -6   75.96    2.59
   5   0   7   -1.32    1.34
   5   0   7   -1.10    1.47
  -5   0  -7   -0.50    1.30
  -5   0  -7    1.04    1.19
  -5   0  -7    1.52    1.45
   5   0   7   -1.75    1.66
  -5   0  -7   -1.41    1.03
   5   0   7   -1.14    1.31
  -5   0  -7   -0.70    1.18
   5   0   7   -0.91    1.56
  -5   0  -7   -1.60    1.18
   5   0   7    0.34    1.28
   5   0   8    5.21    1.93
  -5   0  -8   12.50    1.74
  -5   0  -8   10.00    1.87
  -5   0  -8    9.78    1.69
   5   0   8    7.41    1.66
   5   0   8   11.21    2.04
  -5   0  -8    8.65    2.35
  -5   0  -8    8.24    1.73
   5   0   8   11.61    1.91
  -5   0  -8    8.92    1.57
   5   0   8   12.19    2.08
   5   0   8    5.64    2.80
   5   0   9    0.42    2.31
  -5   0  -9    2.22    1.91
  -5   0  -9   -0.80    1.69
   5   0   9   -2.46    2.43
  -5   0  -9   -1.17    1.63
   5   0   9    1.13    2.01
   5   0   9    0.66    2.18
  -5   0  -9   -3.43    1.55
   5   0   9    1.18    2.09
  -5   0  -9    1.04    1.72
  -5   0  -9   -0.41    1.61
   5   0   9    0.88    1.89
   5   0  10   10.77    2.82
  -5   0 -10   11.07    2.43
   5   0  10    6.95    2.73
   5   0  10   11.17    2.38
  -5   0 -10    7.26    1.99
  -5   0 -10    7.65    2.29
  -5   0 -10    7.49    2.12
  -5   0 -10    4.47    1.94
  -5   0 -10    6.67    2.11
   5   0  10    7.04    2.25
   5   0  10    8.39    2.53
   5   0  10    6.72    2.50
   5   1 -11   19.49    2.37
  -5   1  11   12.69    2.36
  -5  -1  11   12.76    2.55
   5  -1 -11   15.27    2.38
  -5  -1  11   23.53    2.79
   5   1 -10    1.58    1.49
  -5   1  10   -3.06    1.79
  -5   1  10    0.55    1.96
   5   1 -10   -0.47    1.61
  -5   1  10   -0.62    1.69
  -5   1  10    1.45    1.72
  -5   1  10    2.09    1.74
   5   1 -10    3.76    1.73
   5   1 -10   -2.53    1.45
   5   1 -10    4.14    1.67
   5   1 -10    0.93    1.73
  -5  -1  10    1.51    1.43
  -5  -1  10    1.46    1.91
   5  -1 -10    0.91    1.60
   5  -1 -10    0.91    1.53
   5  -1 -10    5.67    1.89
   5  -1 -10   -0.07    1.82
  -5  -1  10    1.39    1.71
  -5  -1  10    0.94    2.02
  -5  -1  10   -0.55    1.45
   5  -1 -10   -0.29    1.63
   5  -1 -10    1.78    1.71
  -5  -1  10    0.97    2.02
   5   1  -9  152.25    4.14
  -5   1   9  155.13    4.69
   5   1  -9  159.28    4.42
   5   1  -9  156.84    4.08
  -5   1   9  156.30    4.40
  -5   1   9  147.05    4.44
   5   1  -9  135.83    5.74
   5   1  -9  159.62    4.19
  -5   1   9  129.05    6.66
  -5   1   9  163.45    4.42
   5   1  -9  155.38    4.41
   5  -1  -9  159.58    4.37
  -5  -1   9  157.74    3.89
  -5  -1   9  159.31    4.24
  -5  -1   9  158.75    4.36
  -5  -1   9  156.65    4.55
   5  -1  -9  161.77    4.73
   5  -1  -9  154.55    4.35
   5  -1  -9  157.56    4.33
   5  -1  -9  154.48    4.53
  -5  -1   9  149.69    3.91
   5  -1  -9  152.52    4.54
  -5  -1   9  155.70    4.52
   5   1  -8   45.66    2.35
  -5   1   8   48.27    2.92
  -5   1   8   45.41    2.64
  -5   1   8   43.66    2.36
  -5   1   8   46.84    2.60
  -5   1   8   51.49    2.78
   5   1  -8   43.96    2.48
   5   1  -8   46.37    2.38
   5   1  -8   47.31    2.50
  -5   1   8   45.01    3.19
   5   1  -8   48.97    2.27
   5   1  -8   45.53    2.33
   5  -1  -8   48.42    2.57
   5  -1  -8   47.26    2.57
  -5  -1   8   44.49    2.09
  -5  -1   8   48.87    2.44
   5  -1  -8   50.25    2.81
  -5  -1   8   47.81    2.54
   5  -1  -8   47.64    2.75
  -5  -1   8   47.72    2.04
  -5  -1   8   50.32    2.64
   5  -1  -8   47.01    2.52
   5   1  -7   -0.13    0.98
  -5   1   7   -0.92    1.37
  -5   1   7   -1.19    1.15
   5   1  -7    0.53    0.99
  -5   1   7    1.27    1.04
  -5   1   7   -0.10    1.03
   5   1  -7   -0.62    0.87
   5   1  -7    0.35    0.97
   5   1  -7    0.37    0.96
  -5   1   7    0.05    1.20
   5   1  -7    0.17    1.02
  -5   1   7   -1.53    1.13
   5  -1  -7    1.46    1.17
   5  -1  -7   -0.59    1.29
   5  -1  -7   -0.86    1.24
   5  -1  -7   -1.50    0.99
   5  -1  -7   -0.60    1.06
  -5  -1   7   -0.59    1.01
  -5  -1   7    0.34    0.85
   5  -1  -7    1.12    1.02
  -5  -1   7   -0.58    0.85
  -5  -1   7   -0.27    1.15
  -5  -1   7    1.54    1.06
  -5  -1   7   -0.56    1.12
  -5   1   6   87.09    2.71
   5   1  -6   86.26    2.33
  -5   1   6   85.79    2.61
   5   1  -6   86.94    2.41
  -5   1   6   84.90    2.57
  -5   1   6   83.56    2.63
   5   1  -6   84.89    2.36
  -5   1   6   87.07    2.88
   5   1  -6   89.26    2.55
  -5   1   6   88.28    2.58
   5   1  -6   86.56    2.39
  -5  -1   6   87.03    2.39
   5  -1  -6   83.62    2.80
   5  -1  -6   88.04    2.84
   5  -1  -6   84.58    2.62
   5  -1  -6   83.51    2.60
  -5  -1   6   83.92    2.53
   5  -1  -6   84.55    2.59
  -5  -1   6   87.13    2.12
  -5  -1   6   81.90    2.41
   5  -1  -6   84.54    2.67
  -5  -1   6   85.59    2.12
   5   1  -5   67.83    1.92
   5   1  -5   66.30    1.89
   5   1  -5   68.50    2.00
   5   1  -5   69.50    1.91
  -5   1   5   69.74    2.15
   5   1  -5   69.24    2.06
  -5   1   5   66.73    2.19
  -5   1   5   69.14    2.28
  -5   1   5   66.11    2.38
  -5   1   5   70.18    2.15
  -5   1   5   69.78    2.22
   5   1  -5   69.66    1.91
   5  -1  -5   68.86    2.34
   5  -1  -5   65.44    2.19
   5  -1  -5   69.45    2.36
   5  -1  -5   70.78    2.17
  -5  -1   5   65.88    2.03
  -5  -1   5   69.25    1.94
  -5  -1   5   69.83    1.93
   5  -1  -5   67.79    2.19
  -5  -1   5   68.12    2.02
   5  -1  -5   67.60    2.18
   5   1  -4   41.61    1.38
  -5   1   4   44.71    1.90
  -5   1   4   40.90    1.68
   5   1  -4   39.26    1.41
   5   1  -4   42.55    1.50
  -5   1   4   44.13    1.71
   5   1  -4   39.85    1.30
  -5   1   4   42.77    1.68
  -5   1   4   43.38    1.81
  -5   1   4   41.12    1.73
   5   1  -4   39.04    1.32
   5   1  -4   40.83    1.33
   5  -1  -4   41.63    1.73
   5  -1  -4   41.39    1.67
  -5  -1   4   40.18    1.47
   5  -1  -4   42.77    1.71
  -5  -1   4   42.46    1.39
   5  -1  -4   38.33    1.78
   5  -1  -4   43.54    1.75
   5  -1  -4   40.84    1.87
  -5   1   3 1200.89   21.87
  -5   1   3 1198.38   21.87
   5   1  -3 1167.40   21.56
   5   1  -3 1183.69   21.51
  -5   1   3 1197.53   21.76
   5   1  -3 1179.75   21.57
  -5   1   3 1199.19   21.77
  -5   1   3 1174.08   21.74
  -5   1   3 1180.53   21.73
   5   1  -3 1103.09   21.52
   5  -1  -3 1220.33   21.90
   5  -1  -3 1194.57   21.76
   5  -1  -3 1183.93   21.74
   5  -1  -3 1202.99   21.77
   5  -1  -3 1194.66   21.88
  -5  -1   3 1176.69   21.50
   5  -1  -3 1177.51   21.78
  -5   1   2 1230.10   22.84
  -5   1   2 1222.95   22.82
  -5   1   2 1264.95   22.94
  -5   1   2 1246.88   22.93
  -5   1   2 1269.16   22.84
  -5   1   2 1221.39   22.81
   5  -1  -2 1224.73   22.85
   5  -1  -2 1215.83   22.81
   5  -1  -2 1265.13   22.85
   5  -1  -2 1247.21   22.94
   5  -1  -2 1243.17   22.83
   5  -1  -2 1312.90   22.98
  -5   1   1   44.06    1.61
  -5   1   1   40.99    1.53
  -5   1   1   44.71    1.50
  -5   1   1   42.92    1.62
  -5   1   1   42.24    1.52
   5  -1  -1   43.54    1.47
   5  -1  -1   41.94    1.51
   5  -1  -1   42.41    1.67
   5   1   0   52.29    1.33
  -5   1   0   52.68    1.77
  -5   1   0   51.71    1.54
   5   1   0   52.84    1.33
  -5   1   0   47.85    1.55
  -5   1   0   51.63    1.63
  -5   1   0   51.53    1.60
   5   1   0   52.11    1.24
   5   1   0   46.58    1.37
  -5   1   0   50.32    1.72
  -5  -1   0   52.16    1.26
   5  -1   0   51.98    1.77
   5  -1   0   51.20    1.63
   5  -1   0   50.08    1.75
   5  -1   0   50.34    1.65
  -5  -1   0   53.04    1.32
   5  -1   0   50.95    1.62
  -5   1  -1  337.76    6.55
  -5   1  -1  335.45    6.54
  -5   1  -1  349.63    6.69
  -5   1  -1  341.51    6.67
   5   1   1  333.82    6.38
  -5   1  -1  328.68    6.54
  -5   1  -1  340.75    6.55
   5   1   1  340.16    6.39
   5   1   1  339.17    6.40
   5   1   1  339.46    6.48
   5   1   1  342.68    6.48
   5   1   1  342.62    6.39
   5  -1   1  330.60    6.55
  -5  -1  -1  341.71    6.37
   5  -1   1  333.71    6.66
  -5  -1  -1  339.44    6.29
   5  -1   1  349.46    6.70
   5  -1   1  330.91    6.54
   5  -1   1  335.05    6.54
  -5  -1  -1  354.62    6.47
  -5   1  -2   44.10    1.60
  -5   1  -2   44.06    1.58
   5   1   2   41.69    1.63
  -5   1  -2   45.34    1.77
   5   1   2   43.69    1.52
   5   1   2   42.94    1.47
   5   1   2   43.30    1.62
  -5   1  -2   43.05    1.60
  -5   1  -2   43.32    1.78
   5   1   2   43.79    1.49
   5   1   2   42.96    1.51
   5  -1   2   42.18    1.59
   5  -1   2   43.29    1.66
   5  -1   2   41.40    1.77
  -5  -1  -2   40.29    1.51
  -5  -1  -2   41.48    1.43
  -5  -1  -2   44.94    1.42
   5  -1   2   43.58    1.86
  -5  -1  -2   42.87    1.37
   5  -1   2   41.57    1.65
  -5  -1  -2   44.15    1.42
  -5   1  -3  175.22    3.84
   5   1   3  177.42    3.97
  -5   1  -3  175.57    4.01
  -5   1  -3  174.00    3.83
   5   1   3  178.06    3.80
   5   1   3  173.86    3.79
  -5   1  -3  179.13    3.87
  -5   1  -3  180.35    4.03
  -5   1  -3  176.63    3.85
   5   1   3  173.85    3.81
   5   1   3  181.31    3.97
   5   1   3  174.64    3.80
   5  -1   3  178.12    4.07
  -5  -1  -3  177.91    3.89
   5  -1   3  172.07    3.86
  -5  -1  -3  177.82    3.76
  -5  -1  -3  177.33    3.75
   5  -1   3  181.11    4.04
   5  -1   3  174.24    3.88
  -5  -1  -3  175.04    3.70
  -5  -1  -3  179.21    3.89
  -5  -1  -3  178.51    3.75
   5  -1   3  173.86    3.85
   5  -1   3  179.37    3.87
   5   1   4   61.87    2.29
   5   1   4   61.34    2.09
  -5   1  -4   59.72    2.12
  -5   1  -4   63.76    2.29
   5   1   4   57.23    2.09
  -5   1  -4   62.16    2.12
  -5   1  -4   59.08    2.28
  -5   1  -4   60.12    2.09
   5   1   4   60.88    2.11
   5   1   4   57.75    2.20
  -5   1  -4   59.23    2.10
   5   1   4   57.33    2.33
  -5  -1  -4   61.15    2.03
  -5  -1  -4   60.95    2.02
  -5  -1  -4   59.10    2.14
   5  -1   4   58.37    2.11
  -5  -1  -4   58.44    1.97
   5  -1   4   56.22    2.30
   5  -1   4   59.54    2.12
   5  -1   4   57.73    2.20
   5  -1   4   62.44    2.39
  -5  -1  -4   54.57    1.94
  -5  -1  -4   61.07    2.19
   5  -1   4   61.17    2.18
   5   1   5   -0.52    1.11
   5   1   5   -0.21    1.12
   5   1   5    0.81    1.13
  -5   1  -5    0.73    0.94
   5   1   5    0.04    1.09
   5   1   5    0.79    1.10
   5   1   5    1.47    1.25
  -5   1  -5    0.63    0.90
  -5   1  -5    0.38    1.02
  -5   1  -5    1.22    1.27
  -5   1  -5    0.23    0.91
  -5   1  -5    1.57    1.06
   5  -1   5    0.93    1.01
  -5  -1  -5   -0.54    0.91
   5  -1   5    1.56    1.12
   5  -1   5   -0.69    1.15
  -5  -1  -5   -0.60    1.00
   5  -1   5    1.17    1.16
  -5  -1  -5    0.30    0.88
   5  -1   5    1.17    1.09
  -5  -1  -5    0.88    0.95
  -5  -1  -5    1.59    1.04
  -5  -1  -5    1.27    1.00
   5  -1   5    1.39    1.13
   5   1   6   12.49    1.44
   5   1   6    9.07    1.28
   5   1   6   10.42    1.70
  -5   1  -6   10.19    1.39
   5   1   6   11.93    1.36
  -5   1  -6   11.45    1.30
  -5   1  -6   12.74    1.41
  -5   1  -6   10.17    1.26
  -5   1  -6   15.73    1.74
   5   1   6   10.69    1.55
  -5   1  -6   10.68    1.45
   5   1   6   11.75    1.55
   5  -1   6    9.26    1.32
  -5  -1  -6   10.60    1.20
   5  -1   6    8.95    1.52
  -5  -1  -6   12.15    1.45
   5  -1   6   10.84    1.57
  -5  -1  -6    9.03    1.24
   5  -1   6    8.95    1.57
  -5  -1  -6    9.69    1.18
  -5  -1  -6   10.72    1.37
  -5  -1  -6   11.57    1.37
   5  -1   6   10.96    1.45
   5  -1   6   11.95    1.51
  -5   1  -7    0.20    1.55
  -5   1  -7    3.41    1.39
  -5   1  -7    1.27    1.36
  -5   1  -7    0.45    1.47
  -5   1  -7    2.39    1.61
   5   1   7    0.94    1.57
   5   1   7   -1.31    1.30
   5   1   7    1.46    1.86
   5   1   7    1.41    1.80
  -5   1  -7    0.61    1.26
   5   1   7    2.14    1.45
   5   1   7   -0.92    1.39
  -5  -1  -7    1.83    2.33
  -5  -1  -7    1.21    1.58
  -5  -1  -7    1.13    1.31
   5  -1   7    1.35    1.39
   5  -1   7    0.95    1.78
  -5  -1  -7    2.24    1.33
   5  -1   7    3.84    1.93
   5  -1   7    2.48    1.49
   5  -1   7    1.72    1.87
  -5  -1  -7    1.91    1.31
   5  -1   7    4.51    1.63
  -5  -1  -7    1.54    1.19
   5   1   8    0.72    2.20
   5   1   8    1.61    1.91
  -5   1  -8    0.91    1.54
   5   1   8    3.50    1.60
  -5   1  -8    0.43    1.55
   5   1   8    0.78    1.64
  -5   1  -8    1.63    1.51
   5   1   8   -0.49    1.80
  -5   1  -8    3.00    1.83
   5   1   8    3.03    1.95
  -5  -1  -8    0.74    1.59
   5  -1   8    1.54    1.85
  -5  -1  -8   -2.85    1.67
   5  -1   8    1.62    1.76
  -5  -1  -8    3.87    1.47
  -5  -1  -8    3.91    1.47
   5  -1   8   -0.07    1.93
   5  -1   8    4.06    2.16
  -5  -1  -8    1.02    1.58
  -5  -1  -8    0.47    1.48
   5  -1   8    1.95    1.68
   5  -1   8   -0.19    1.61
  -5   1  -9    8.26    1.87
  -5   1  -9    5.24    1.74
  -5   1  -9    5.95    1.84
  -5   1  -9    5.42    2.14
   5   1   9    4.81    2.13
   5   1   9    7.61    2.15
  -5   1  -9    7.07    1.98
   5   1   9    4.51    2.31
  -5   1  -9    2.78    1.86
   5   1   9    5.25    1.95
   5   1   9    4.82    2.26
   5   1   9   10.13    2.89
  -5  -1  -9   11.55    1.93
   5  -1   9    5.51    2.48
  -5  -1  -9    8.17    1.94
   5  -1   9    8.23    2.08
   5  -1   9    7.00    2.48
  -5  -1  -9    6.20    1.94
   5  -1   9    8.37    1.96
  -5  -1  -9    6.84    2.12
  -5  -1  -9    6.78    1.85
   5  -1   9    4.50    2.20
   5  -1   9    6.41    2.29
  -5  -1  -9    6.66    2.17
   5   2 -10    6.18    1.70
  -5   2  10    0.76    2.07
  -5   2  10    3.78    2.02
   5   2 -10    2.15    1.80
   5   2 -10    4.37    1.64
  -5   2  10    1.54    2.14
  -5   2  10   -0.71    1.83
  -5   2  10    2.20    1.94
  -5   2  10    1.08    2.07
   5   2 -10    2.38    1.61
   5   2 -10    1.37    1.68
   5   2 -10    2.09    1.65
   5  -2 -10    2.36    1.99
  -5  -2  10    3.18    2.09
  -5  -2  10    1.34    1.71
  -5  -2  10   -0.86    1.92
   5  -2 -10    2.09    2.13
   5  -2 -10    2.28    1.69
   5  -2 -10    0.78    1.76
   5  -2 -10    4.86    2.19
   5  -2 -10   -0.45    1.72
   5   2  -9   14.66    1.58
   5   2  -9   12.33    1.62
  -5   2   9   10.75    1.84
   5   2  -9    7.99    2.56
  -5   2   9   17.80    3.14
  -5   2   9   10.98    1.80
  -5   2   9   11.78    2.09
  -5   2   9    9.84    1.74
   5   2  -9   14.28    1.54
  -5   2   9   14.11    1.89
   5   2  -9   13.80    1.76
   5  -2  -9   17.44    2.12
   5  -2  -9    9.04    1.62
  -5  -2   9   12.31    1.62
  -5  -2   9   11.50    1.75
   5  -2  -9   13.17    1.94
   5  -2  -9   11.87    1.92
  -5  -2   9   12.09    1.82
  -5  -2   9   11.80    1.91
   5  -2  -9   14.52    1.95
   5  -2  -9   13.03    2.02
  -5   2   8   44.18    2.79
   5   2  -8   46.28    2.26
   5   2  -8   50.44    2.42
  -5   2   8   49.74    3.17
  -5   2   8   44.52    2.96
  -5   2   8   40.72    2.83
  -5   2   8   47.13    2.97
   5   2  -8   45.93    2.51
   5   2  -8   42.02    2.33
   5   2  -8   47.12    2.35
  -5   2   8   45.43    2.93
   5   2  -8   42.65    2.50
   5  -2  -8   42.06    2.79
   5  -2  -8   44.77    2.94
   5  -2  -8   40.42    3.09
  -5  -2   8   41.83    2.36
  -5  -2   8   45.26    2.66
   5  -2  -8   45.28    3.01
  -5  -2   8   44.43    2.50
   5   2  -7   -0.61    1.03
  -5   2   7    0.92    1.57
   5   2  -7    0.95    1.08
   5   2  -7    2.26    1.08
   5   2  -7    0.06    0.97
  -5   2   7    0.48    1.39
   5   2  -7    1.12    1.00
  -5   2   7    0.91    1.42
   5   2  -7    1.55    1.10
  -5   2   7    0.16    1.25
  -5   2   7    1.71    1.31
  -5   2   7    1.14    1.32
  -5  -2   7    1.75    1.03
   5  -2  -7   -0.87    1.38
  -5  -2   7    1.21    1.18
   5  -2  -7    1.11    1.21
  -5  -2   7    0.42    1.10
   5  -2  -7    0.08    1.23
  -5  -2   7   -0.34    1.12
   5  -2  -7    0.11    1.28
   5  -2  -7    1.10    1.35
   5  -2  -7   -0.41    1.27
   5   2  -6   55.92    2.06
   5   2  -6   55.94    2.10
   5   2  -6   55.14    2.00
  -5   2   6   59.60    2.55
  -5   2   6   56.88    2.61
   5   2  -6   56.14    1.92
   5   2  -6   54.92    2.02
   5   2  -6   57.58    1.89
  -5   2   6   52.87    2.50
  -5   2   6   58.48    2.78
  -5   2   6   58.13    2.41
  -5   2   6   58.75    2.49
   5  -2  -6   57.84    2.50
   5  -2  -6   56.40    2.41
   5  -2  -6   54.93    2.65
  -5  -2   6   54.07    2.01
  -5  -2   6   56.36    2.04
   5  -2  -6   54.01    2.41
   5  -2  -6   58.50    2.68
  -5  -2   6   56.31    1.85
   5  -2  -6   57.14    2.53
  -5  -2   6   56.02    2.09
  -5   2   5    0.75    1.05
  -5   2   5    0.91    0.94
  -5   2   5    0.19    1.03
  -5   2   5    1.31    1.11
  -5   2   5   -0.03    1.16
   5   2  -5    0.44    0.74
   5   2  -5   -0.09    0.81
   5   2  -5    0.58    0.67
   5   2  -5    0.06    0.69
   5   2  -5   -0.76    0.65
   5   2  -5    1.02    0.73
  -5   2   5    2.41    1.18
  -5  -2   5    0.91    0.54
  -5  -2   5   -0.44    0.73
   5  -2  -5   -0.65    0.89
  -5  -2   5   -0.79    0.71
  -5  -2   5    0.96    0.76
   5  -2  -5    1.66    1.03
   5  -2  -5   -0.44    1.17
   5  -2  -5    0.87    1.04
   5  -2  -5    1.33    0.95
   5  -2  -5    0.25    1.07
  -5   2   4   17.32    1.29
  -5   2   4   19.93    1.53
  -5   2   4   14.08    1.21
  -5   2   4   16.07    1.30
  -5   2   4   15.83    1.25
  -5   2   4   16.29    1.25
   5  -2  -4   17.02    1.60
   5  -2  -4   16.30    1.30
   5  -2  -4   16.26    1.25
   5  -2  -4   15.42    1.23
   5  -2  -4   17.22    1.46
   5  -2  -4   14.81    1.22
  -5   2   3  302.44    6.12
  -5   2   3  306.03    6.10
  -5   2   3  302.38    6.28
  -5   2   3  302.38    6.13
  -5   2   3  302.27    6.27
  -5   2   3  301.64    6.13
   5  -2  -3  303.76    6.15
   5  -2  -3  302.59    6.30
   5  -2  -3  310.96    6.13
   5  -2  -3  293.89    6.10
   5  -2  -3  295.76    6.12
   5  -2  -3  298.27    6.26
  -5   2   2   98.62    2.56
  -5   2   2   96.22    2.71
  -5   2   2   97.06    2.59
  -5   2   2   94.91    2.54
  -5   2   2   98.73    2.77
   5  -2  -2   96.10    2.60
   5  -2  -2   97.38    2.79
   5  -2  -2   97.29    2.76
   5  -2  -2   98.03    2.56
   5  -2  -2   95.59    2.58
  -5   2   1   71.44    2.16
  -5   2   1   72.01    2.18
  -5   2   1   75.29    2.21
  -5   2   1   73.53    2.34
  -5   2   1   74.10    2.30
   5  -2  -1   73.55    2.17
   5  -2  -1   72.46    2.15
   5  -2  -1   73.61    2.21
   5  -2  -1   71.64    2.33
   5  -2  -1   71.25    2.32
   5  -2  -1   75.06    2.23
  -5   2   0   20.42    1.50
  -5   2   0   18.23    1.44
  -5   2   0   20.62    1.58
  -5   2   0   18.66    1.47
  -5   2   0   19.87    1.68
   5  -2   0   19.26    1.46
   5  -2   0   21.09    1.50
   5  -2   0   19.95    1.74
   5  -2   0   19.92    1.55
   5  -2   0   20.42    1.60
   5  -2   0   19.85    1.56
  -5   2  -1  287.84    5.94
  -5   2  -1  309.73    6.12
   5   2   1  298.90    5.69
  -5   2  -1  296.59    5.96
  -5   2  -1  291.76    5.93
   5   2   1  295.66    5.68
   5   2   1  296.75    5.76
  -5   2  -1  294.27    5.95
  -5   2  -1  304.44    6.15
   5   2   1  291.89    5.66
   5   2   1  296.24    5.68
  -5  -2  -1  304.59    5.75
   5  -2   1  295.83    5.94
  -5  -2  -1  296.97    5.72
   5  -2   1  298.30    6.13
  -5  -2  -1  292.73    5.64
   5  -2   1  297.30    5.98
   5  -2   1  297.85    6.14
   5  -2   1  299.79    5.95
   5  -2   1  289.56    5.94
   5   2   2  326.72    6.45
  -5   2  -2  342.53    6.83
  -5   2  -2  332.51    6.65
  -5   2  -2  326.66    6.62
   5   2   2  340.78    6.48
  -5   2  -2  328.08    6.63
  -5   2  -2  333.05    6.80
   5   2   2  333.28    6.57
  -5   2  -2  330.33    6.65
   5   2   2  336.12    6.48
   5   2   2  332.76    6.44
   5  -2   2  336.30    6.65
  -5  -2  -2  333.78    6.41
   5  -2   2  326.84    6.80
   5  -2   2  322.78    6.63
  -5  -2  -2  340.97    6.42
  -5  -2  -2  339.71    6.53
  -5  -2  -2  343.47    6.55
   5  -2   2  328.64    6.65
   5  -2   2  328.72    6.62
   5   2   3   -0.53    0.77
  -5   2  -3   -1.46    1.08
   5   2   3    0.46    0.88
  -5   2  -3   -0.12    0.95
  -5   2  -3   -0.31    1.01
   5   2   3   -0.07    0.91
  -5   2  -3    0.68    0.87
  -5   2  -3   -0.62    0.87
   5   2   3   -0.50    0.84
  -5   2  -3    0.30    0.82
   5   2   3   -0.44    0.88
   5   2   3    1.03    0.86
   5  -2   3   -0.15    1.04
   5  -2   3    0.44    1.20
  -5  -2  -3    0.53    0.74
  -5  -2  -3    0.01    0.85
   5  -2   3   -0.04    1.08
   5  -2   3    1.64    1.03
   5  -2   3   -0.32    1.00
  -5  -2  -3   -0.45    0.72
   5  -2   3   -0.35    0.90
  -5  -2  -3    0.01    0.79
  -5  -2  -3    0.50    0.71
   5   2   4   43.60    2.06
   5   2   4   45.72    2.06
  -5   2  -4   41.71    2.11
   5   2   4   42.55    1.97
   5   2   4   44.23    2.19
   5   2   4   45.28    2.23
  -5   2  -4   45.03    2.28
   5   2   4   45.50    2.06
  -5   2  -4   42.55    2.04
  -5   2  -4   42.73    1.99
  -5   2  -4   44.12    2.29
  -5   2  -4   42.35    2.04
   5  -2   4   42.25    2.15
  -5  -2  -4   45.49    2.06
   5  -2   4   45.14    2.16
  -5  -2  -4   43.72    1.82
   5  -2   4   45.61    2.40
  -5  -2  -4   44.56    2.09
  -5  -2  -4   44.29    1.94
   5  -2   4   47.20    2.20
  -5  -2  -4   41.34    1.82
   5  -2   4   47.87    2.47
  -5  -2  -4   41.44    1.90
   5  -2   4   45.74    2.02
   5   2   5   21.73    2.15
   5   2   5   21.37    1.78
   5   2   5   18.80    1.75
  -5   2  -5   18.91    1.73
  -5   2  -5   19.74    1.49
  -5   2  -5   21.07    1.96
   5   2   5   21.49    1.93
  -5   2  -5   21.16    1.62
   5   2   5   22.13    1.69
  -5   2  -5   22.02    1.85
  -5   2  -5   20.44    2.00
   5   2   5   21.26    2.11
  -5  -2  -5   19.75    1.97
  -5  -2  -5   19.95    1.59
  -5  -2  -5   20.95    1.56
  -5  -2  -5   19.71    1.89
   5  -2   5   20.21    1.94
   5  -2   5   16.93    1.50
   5  -2   5   23.29    2.39
   5  -2   5   23.41    2.02
  -5  -2  -5   22.92    1.82
  -5  -2  -5   19.71    1.91
   5  -2   5   19.35    1.57
   5  -2   5   19.94    1.64
   5   2   6    6.52    1.78
   5   2   6    8.10    1.40
  -5   2  -6    5.64    1.29
   5   2   6    9.10    1.72
  -5   2  -6    6.82    1.46
   5   2   6    5.86    1.52
  -5   2  -6    7.63    1.66
  -5   2  -6    5.57    1.29
  -5   2  -6    5.71    1.57
   5   2   6   10.43    1.61
  -5   2  -6    6.05    1.60
   5   2   6    8.28    1.64
   5  -2   6    3.38    1.34
   5  -2   6    6.11    1.49
  -5  -2  -6    8.48    1.35
   5  -2   6    7.66    1.49
  -5  -2  -6    5.06    1.47
   5  -2   6    9.81    1.96
  -5  -2  -6    7.78    1.27
  -5  -2  -6    5.15    1.42
  -5  -2  -6    6.07    1.30
   5  -2   6    6.90    1.76
  -5   2  -7  150.92    4.64
  -5   2  -7  148.88    4.56
   5   2   7  143.95    4.46
  -5   2  -7  151.98    4.27
   5   2   7  154.54    4.40
   5   2   7  151.08    4.64
  -5   2  -7  155.45    4.32
   5   2   7  155.24    4.57
  -5   2  -7  148.37    4.37
  -5   2  -7  148.38    4.36
   5   2   7  144.86    5.82
   5   2   7  148.77    4.47
  -5  -2  -7  152.01    4.22
  -5  -2  -7  145.19    4.19
   5  -2   7  146.08    4.78
  -5  -2  -7  143.96    4.38
   5  -2   7  147.20    4.74
   5  -2   7  159.18    4.57
  -5  -2  -7  156.69    4.21
   5  -2   7  149.13    4.57
   5  -2   7  155.94    4.22
  -5  -2  -7  149.64    4.57
  -5  -2  -7  154.48    4.11
   5   2   8   23.95    2.39
  -5   2  -8   23.82    2.29
   5   2   8   18.41    2.45
  -5   2  -8   23.09    2.15
   5   2   8   24.98    2.19
  -5   2  -8   25.41    2.01
   5   2   8   29.28    2.55
  -5   2  -8   22.25    2.20
  -5   2  -8   28.05    2.50
   5   2   8   21.58    2.34
   5   2   8   23.91    2.29
  -5   2  -8   27.73    2.25
  -5  -2  -8   23.31    2.08
   5  -2   8   25.14    2.26
  -5  -2  -8   34.65    2.88
   5  -2   8   24.04    2.10
   5  -2   8   25.20    2.81
  -5  -2  -8   24.95    2.35
  -5  -2  -8   26.55    2.44
   5  -2   8   20.27    2.51
  -5  -2  -8   25.51    2.06
   5  -2   8   24.63    2.33
  -5  -2  -8   24.29    2.08
   5  -2   8   22.94    2.46
   5   2   9    3.01    2.54
   5   2   9    4.95    1.94
   5   2   9    2.52    2.34
  -5   2  -9    5.02    2.11
  -5   2  -9    0.61    2.15
  -5   2  -9   -0.24    1.93
   5   2   9    0.22    2.48
   5   2   9   -2.52    2.16
  -5   2  -9    4.90    2.12
   5   2   9    3.11    2.42
   5  -2   9   -3.91    2.19
   5  -2   9    4.56    2.62
   5  -2   9    0.69    2.34
   5  -2   9   -1.27    2.22
  -5  -2  -9    0.96    1.77
  -5  -2  -9    1.03    2.33
  -5  -2  -9    0.61    1.97
  -5  -2  -9   -0.72    1.81
   5  -2   9   -1.44    1.85
   5  -2   9    4.26    2.36
  -5  -2  -9   -1.96    1.85
  -5  -2  -9   -0.47    1.75
  -5   3   9    0.19    1.88
  -5   3   9    2.45    2.19
   5   3  -9    0.69    1.63
   5   3  -9    1.18    1.54
   5   3  -9   -0.29    1.47
   5   3  -9   -0.22    1.50
   5   3  -9   -0.48    1.66
  -5   3   9    4.61    2.03
  -5   3   9   -0.08    2.03
  -5   3   9   -1.56    1.84
   5  -3  -9    0.46    2.08
   5  -3  -9    2.21    1.85
  -5  -3   9   -0.08    1.72
  -5  -3   9    2.42    1.93
   5  -3  -9    1.26    1.74
  -5  -3   9   -0.22    1.67
   5  -3  -9   -2.27    2.33
   5  -3  -9    1.47    1.89
   5  -3  -9   -3.19    1.93
  -5  -3   9   -0.76    1.52
   5   3  -8   14.18    1.45
  -5   3   8   15.23    2.01
   5   3  -8   12.75    1.52
  -5   3   8   16.49    2.11
  -5   3   8   19.69    2.22
   5   3  -8   15.57    1.59
  -5   3   8   16.25    1.98
   5   3  -8   14.56    1.60
   5   3  -8   12.96    1.52
  -5   3   8   15.27    2.18
   5   3  -8   11.29    1.61
  -5   3   8   14.15    1.92
   5  -3  -8   15.31    1.87
   5  -3  -8   12.36    2.00
   5  -3  -8   15.54    2.14
  -5  -3   8   13.26    1.59
  -5  -3   8   15.52    1.51
   5  -3  -8   12.63    2.01
   5  -3  -8   15.26    1.89
  -5  -3   8   16.78    1.84
   5  -3  -8   17.50    2.00
  -5  -3   8   18.00    1.74
   5   3  -7   11.48    1.30
  -5   3   7   12.22    2.38
   5   3  -7    9.40    1.35
  -5   3   7   10.73    1.87
  -5   3   7   11.03    1.74
  -5   3   7   11.27    1.71
   5   3  -7   11.72    1.35
   5   3  -7   10.14    1.35
  -5   3   7   13.74    1.87
   5   3  -7   10.07    1.20
  -5   3   7   11.89    1.73
   5   3  -7   10.50    1.37
   5  -3  -7   10.93    1.56
  -5  -3   7    9.27    1.46
  -5  -3   7   12.54    1.48
   5  -3  -7    9.14    1.67
   5  -3  -7   10.73    1.60
   5  -3  -7   11.67    2.00
   5  -3  -7   11.58    1.86
  -5  -3   7   11.74    1.34
   5  -3  -7   12.96    2.06
  -5  -3   7   12.08    1.24
  -5   3   6    0.62    1.47
  -5   3   6    1.27    1.52
  -5   3   6   -2.64    2.47
   5   3  -6    1.24    0.99
   5   3  -6    1.05    1.03
  -5   3   6   -0.57    1.44
   5   3  -6    0.08    0.91
   5   3  -6   -0.25    1.00
   5   3  -6   -0.29    0.82
  -5   3   6    1.68    1.53
  -5   3   6    0.87    1.34
   5   3  -6   -1.97    1.00
  -5  -3   6    1.84    0.99
   5  -3  -6   -0.80    1.55
   5  -3  -6    0.27    1.44
   5  -3  -6   -0.79    1.28
   5  -3  -6   -1.59    1.41
   5  -3  -6   -0.42    1.28
   5   3  -5    8.57    0.97
  -5   3   5   10.70    1.64
   5   3  -5    6.29    0.90
   5   3  -5    8.42    0.90
   5   3  -5    8.75    0.95
  -5   3   5    6.86    1.54
  -5   3   5    9.90    1.47
  -5   3   5    8.02    1.46
  -5   3   5    8.48    1.32
  -5   3   5    7.60    1.37
   5  -3  -5    9.36    1.70
   5  -3  -5    8.07    1.44
   5  -3  -5    8.46    1.52
   5  -3  -5    7.57    1.34
   5  -3  -5    8.43    1.32
   5  -3  -5    8.56    1.36
  -5   3   4   54.31    2.66
  -5   3   4   57.01    2.55
  -5   3   4   56.24    2.57
  -5   3   4   55.78    2.49
  -5   3   4   55.63    2.47
  -5   3   4   58.77    2.67
   5  -3  -4   53.96    2.71
   5  -3  -4   54.09    2.68
   5  -3  -4   58.82    2.60
   5  -3  -4   55.75    2.57
   5  -3  -4   55.80    2.42
   5  -3  -4   54.59    2.49
  -5   3   3   16.04    1.37
  -5   3   3   16.85    1.68
  -5   3   3   14.03    1.36
  -5   3   3   16.50    1.55
  -5   3   3   15.30    1.38
  -5   3   3   14.29    1.35
   5  -3  -3   17.20    1.42
   5  -3  -3   15.41    1.38
   5  -3  -3   17.54    1.66
   5  -3  -3   14.87    1.39
   5  -3  -3   14.07    1.44
   5  -3  -3   15.48    1.35
  -5   3   2  252.58    5.52
  -5   3   2  252.77    5.38
  -5   3   2  240.36    5.33
  -5   3   2  240.15    5.51
  -5   3   2  252.08    5.31
  -5   3   2  239.41    5.33
   5  -3  -2  243.66    5.29
   5  -3  -2  248.24    5.56
   5  -3  -2  253.77    5.31
   5  -3  -2  240.31    5.35
   5  -3  -2  249.31    5.58
   5  -3  -2  254.51    5.39
  -5   3   1   94.57    2.92
  -5   3   1   92.27    2.79
  -5   3   1   89.46    2.78
  -5   3   1   93.91    2.94
  -5   3   1   91.16    2.81
  -5   3   1   96.54    2.79
   5  -3  -1   98.06    2.76
   5  -3  -1   91.68    2.96
   5  -3  -1   92.38    2.73
   5  -3  -1   91.81    2.81
   5  -3  -1   93.99    2.99
   5  -3  -1   92.10    2.91
  -5   3   0   87.76    2.64
  -5   3   0   88.22    2.83
  -5   3   0   84.78    2.64
   5   3   0   87.46    2.10
  -5   3   0   87.55    2.80
  -5   3   0   83.70    2.64
  -5   3   0   86.42    2.74
   5  -3   0   87.68    2.60
   5  -3   0   85.42    2.69
   5  -3   0   85.95    2.74
   5  -3   0   85.59    2.61
   5  -3   0   87.96    2.90
   5  -3   0   86.25    2.85
   5   3   1   19.04    1.36
   5   3   1   18.39    1.36
  -5   3  -1   18.91    1.41
   5   3   1   18.71    1.26
   5   3   1   17.99    1.26
  -5   3  -1   17.79    1.76
   5   3   1   17.80    1.37
  -5   3  -1   17.88    1.45
  -5   3  -1   17.25    1.45
  -5   3  -1   14.82    1.20
   5   3   1   18.13    1.40
  -5   3  -1   17.35    1.26
   5  -3   1   18.57    1.41
  -5  -3  -1   17.97    1.30
   5  -3   1   18.29    1.78
   5  -3   1   20.64    1.61
   5  -3   1   16.02    1.49
  -5  -3  -1   19.40    1.33
   5  -3   1   16.17    1.30
  -5  -3  -1   18.00    1.39
   5  -3   1   17.36    1.33
  -5   3  -2   13.65    1.54
  -5   3  -2   12.86    1.31
  -5   3  -2   11.07    1.21
  -5   3  -2   10.63    1.32
  -5   3  -2   11.81    1.24
   5   3   2   11.88    1.10
   5   3   2   11.96    0.99
   5   3   2   11.12    1.12
   5   3   2   11.66    1.09
   5   3   2   11.87    1.02
  -5   3  -2   13.14    1.27
   5   3   2   12.19    1.10
  -5  -3  -2   11.85    1.09
   5  -3   2   12.58    1.35
   5  -3   2   11.30    1.39
  -5  -3  -2   12.32    0.98
   5  -3   2    8.92    1.36
  -5  -3  -2   11.27    1.06
   5  -3   2   11.95    1.25
   5  -3   2   10.51    1.21
  -5  -3  -2   12.20    0.99
   5  -3   2   11.46    1.33
  -5   3  -3    1.51    1.12
   5   3   3    1.76    0.96
  -5   3  -3    0.83    1.27
   5   3   3    2.59    1.09
   5   3   3    2.30    1.03
  -5   3  -3    0.69    1.06
   5   3   3    1.26    1.01
  -5   3  -3    0.55    1.18
  -5   3  -3    1.33    1.20
   5   3   3    1.02    1.09
  -5   3  -3    2.22    1.38
   5  -3   3    1.12    1.17
   5  -3   3   -0.47    1.14
   5  -3   3    0.40    1.21
  -5  -3  -3    0.45    0.92
  -5  -3  -3    0.91    0.93
   5  -3   3    1.99    1.38
  -5  -3  -3    1.80    1.01
   5  -3   3    1.25    1.21
   5  -3   3    0.63    1.39
  -5  -3  -3    0.22    1.03
  -5   3  -4   10.16    1.48
  -5   3  -4    7.56    1.24
  -5   3  -4    7.59    1.34
   5   3   4    8.15    1.30
   5   3   4    8.48    1.24
  -5   3  -4    8.89    1.32
  -5   3  -4   10.89    1.47
  -5   3  -4    9.03    1.56
   5   3   4    8.05    1.34
   5   3   4    7.75    1.39
   5  -3   4    6.29    1.53
  -5  -3  -4   11.08    1.06
   5  -3   4    9.21    1.39
   5  -3   4    7.80    1.57
  -5  -3  -4    9.47    1.24
  -5  -3  -4    8.09    1.23
  -5  -3  -4    9.38    1.04
   5  -3   4   10.22    1.66
  -5  -3  -4    4.81    1.42
   5  -3   4    9.33    1.60
   5  -3   4    9.58    1.42
  -5   3  -5   90.74    3.55
   5   3   5   84.80    3.37
  -5   3  -5   82.77    3.42
   5   3   5   81.84    3.08
  -5   3  -5   72.36    3.58
   5   3   5   86.15    3.09
  -5   3  -5   84.32    3.22
   5   3   5   82.73    3.34
  -5   3  -5   84.19    3.08
  -5   3  -5   88.70    3.29
  -5  -3  -5   81.80    2.98
   5  -3   5   81.21    3.05
   5  -3   5   86.81    3.11
  -5  -3  -5   85.75    2.98
  -5  -3  -5   79.86    2.75
  -5  -3  -5   83.60    2.71
  -5  -3  -5   80.82    3.14
  -5  -3  -5   81.98    3.19
   5  -3   5   84.22    3.34
   5  -3   5   84.75    3.50
   5  -3   5   88.40    3.35
   5  -3   5   73.67    3.45
   5   3   6  163.90    4.51
  -5   3  -6  166.85    4.49
  -5   3  -6  153.21    4.73
   5   3   6  162.91    4.59
   5   3   6  159.57    4.76
   5   3   6  157.81    4.90
   5   3   6  157.61    4.70
  -5   3  -6  167.54    4.56
  -5   3  -6  155.35    4.46
   5   3   6  150.80    4.62
  -5   3  -6  155.73    4.79
  -5   3  -6  156.45    4.37
   5  -3   6  149.90    4.90
   5  -3   6  165.11    4.37
  -5  -3  -6  152.74    4.35
  -5  -3  -6  156.87    4.18
  -5  -3  -6  156.69    4.53
  -5  -3  -6  161.82    4.06
   5  -3   6  155.30    4.63
  -5  -3  -6  162.15    4.62
   5  -3   6  159.19    4.46
   5  -3   6  159.17    4.88
   5  -3   6  161.77    4.64
  -5  -3  -6  165.51    4.41
  -5   3  -7    4.22    1.88
   5   3   7    8.47    1.96
  -5   3  -7    8.40    1.98
  -5   3  -7    7.79    1.87
   5   3   7    4.44    2.12
   5   3   7    6.39    1.82
  -5   3  -7    8.07    1.66
  -5   3  -7    7.79    2.15
   5   3   7    5.80    1.92
  -5   3  -7    5.08    2.03
   5   3   7    6.80    2.03
   5   3   7    5.93    2.06
  -5  -3  -7    8.78    1.96
   5  -3   7    3.06    1.99
   5  -3   7    9.02    2.06
  -5  -3  -7    5.90    1.67
   5  -3   7    8.16    2.43
  -5  -3  -7    8.22    1.67
  -5  -3  -7    7.21    1.72
  -5  -3  -7    4.97    1.77
   5  -3   7    6.33    2.40
   5  -3   7    7.48    1.87
  -5  -3  -7    9.78    1.58
   5  -3   7    8.05    2.49
  -5   3  -8    3.14    1.77
   5   3   8    0.60    2.02
   5   3   8   -5.31    2.25
   5   3   8    1.02    2.54
  -5   3  -8   -1.39    2.02
  -5   3  -8   -2.41    1.93
   5   3   8   -2.75    2.31
   5   3   8    2.17    2.18
  -5   3  -8    1.86    2.05
   5   3   8    0.14    1.99
  -5   3  -8    1.34    2.31
  -5   3  -8    1.09    3.19
  -5  -3  -8    2.55    1.79
  -5  -3  -8   -0.13    1.78
   5  -3   8    1.17    2.14
  -5  -3  -8   -1.43    2.21
  -5  -3  -8    3.19    2.09
   5  -3   8    1.81    2.56
   5  -3   8    1.60    1.97
   5  -3   8   -0.91    2.59
  -5  -3  -8    2.67    1.73
   5  -3   8    1.46    2.20
   5  -3   8    1.53    2.39
  -5  -3  -8    1.42    1.89
   5   4  -7    4.02    1.14
  -5   4   7    3.00    2.24
  -5   4   7    9.17    2.03
   5   4  -7    5.35    1.42
  -5   4   7    3.12    2.17
  -5   4   7    5.71    2.04
   5   4  -7    5.09    1.47
   5   4  -7    5.62    1.37
  -5   4   7    6.64    2.18
  -5   4   7    6.43    2.01
   5   4  -7    3.46    1.55
   5  -4  -7    6.87    2.09
   5  -4  -7    3.96    1.75
   5  -4  -7    6.50    2.29
   5  -4  -7    5.26    2.20
   5  -4  -7    2.77    2.02
   5  -4  -7    6.66    2.03
  -5   4   6    5.40    1.85
  -5   4   6    4.46    1.83
   5   4  -6    3.95    1.35
  -5   4   6    5.99    1.80
  -5   4   6    4.15    2.04
  -5   4   6    7.98    2.15
   5   4  -6    4.92    1.27
  -5   4   6    3.53    1.99
   5  -4  -6    4.47    2.00
   5  -4  -6    5.36    2.02
   5  -4  -6    8.35    1.85
   5  -4  -6    8.18    2.04
   5  -4  -6    4.76    1.73
   5  -4  -6    9.04    1.78
   5   4  -5   15.20    1.29
  -5   4   5   15.23    1.94
  -5   4   5   17.54    1.88
   5   4  -5   12.28    1.28
  -5   4   5   16.83    2.02
  -5   4   5   15.29    2.07
  -5   4   5   14.37    1.76
  -5   4   5   14.93    1.94
   5  -4  -5   10.45    2.02
   5  -4  -5   14.03    1.89
   5  -4  -5   11.42    1.89
   5  -4  -5   11.59    2.04
   5  -4  -5   12.16    2.02
  -5   4   4    8.33    1.54
  -5   4   4   10.45    1.72
  -5   4   4   12.59    1.83
  -5   4   4   10.04    1.98
  -5   4   4    7.96    1.74
  -5   4   4    8.41    1.58
   5  -4  -4    9.71    1.87
   5  -4  -4   11.26    1.73
   5  -4  -4    9.45    1.67
   5  -4  -4    9.52    1.69
   5  -4  -4    8.76    1.78
   5  -4  -4   11.05    1.59
  -5   4   3  174.88    4.59
  -5   4   3  168.70    4.56
  -5   4   3  166.29    4.75
  -5   4   3  171.49    4.50
  -5   4   3  154.55    6.15
   5  -4  -3  169.09    4.83
   5  -4  -3  171.95    4.37
   5  -4  -3  176.27    4.34
   5  -4  -3  179.14    4.54
   5  -4  -3  170.64    4.56
   5  -4  -3  169.81    4.77
  -5   4   2   11.99    1.78
  -5   4   2    7.77    1.59
  -5   4   2   11.28    2.05
  -5   4   2   12.07    1.68
  -5   4   2    8.66    1.57
  -5   4   2   10.78    1.54
   5  -4  -2   12.98    1.60
   5  -4  -2   10.81    1.79
   5  -4  -2   11.07    1.41
   5  -4  -2   11.07    1.65
   5  -4  -2   12.28    1.70
   5  -4  -2    9.41    1.71
  -5   4   1   21.79    1.80
  -5   4   1   24.63    2.49
  -5   4   1   24.81    1.98
  -5   4   1   23.05    1.73
   5   4  -1   21.91    1.69
  -5   4   1   22.90    1.95
   5  -4  -1   28.32    2.31
   5  -4  -1   25.60    2.07
   5  -4  -1   22.77    1.66
   5  -4  -1   26.77    2.22
   5  -4  -1   22.34    1.81
   5  -4  -1   26.84    1.89
   5   4   0   23.86    1.80
   5   4   0   24.77    1.52
  -5   4   0   21.92    1.94
   5   4   0   29.26    1.81
  -5   4   0   25.91    1.97
  -5   4   0   25.00    1.87
   5   4   0   23.78    1.57
  -5   4   0   24.61    1.75
  -5   4   0   24.78    1.87
   5  -4   0   21.25    1.62
   5  -4   0   20.92    1.82
   5  -4   0   22.68    2.03
   5  -4   0   22.64    1.62
   5  -4   0   21.83    2.00
   5  -4   0   23.25    1.81
  -5   4  -1    0.05    1.21
   5   4   1    2.02    1.11
   5   4   1    3.18    0.96
   5   4   1    1.35    1.12
   5   4   1    2.43    1.26
   5   4   1    2.89    0.93
   5   4   1    1.46    1.10
  -5   4  -1    2.40    1.54
  -5   4  -1    3.64    1.58
  -5   4  -1    1.19    1.51
   5  -4   1    1.96    1.59
  -5  -4  -1    0.75    1.01
   5  -4   1   -0.38    1.33
   5  -4   1   -0.17    1.61
   5  -4   1    0.25    1.42
   5  -4   1   -0.94    1.26
   5  -4   1   -0.35    1.25
  -5  -4  -1    1.01    1.01
   5   4   2   -1.55    1.04
  -5   4  -2    1.45    1.25
  -5   4  -2    1.64    1.42
   5   4   2    1.85    1.23
   5   4   2   -0.48    1.20
  -5   4  -2    1.72    1.48
  -5   4  -2   -0.68    1.55
   5   4   2    0.83    1.19
   5   4   2    1.89    1.12
  -5   4  -2    1.47    1.33
  -5   4  -2    1.33    2.41
   5   4   2   -0.34    1.14
  -5  -4  -2    1.35    1.18
   5  -4   2    0.79    1.36
   5  -4   2   -1.49    1.26
   5  -4   2    1.57    1.60
   5  -4   2   -0.88    1.46
   5  -4   2    3.01    1.27
  -5  -4  -2    1.78    1.15
  -5  -4  -2    1.46    1.00
   5  -4   2    3.39    1.54
  -5  -4  -2    2.79    1.10
  -5   4  -3   77.52    4.95
   5   4   3   82.30    2.90
  -5   4  -3   84.67    3.13
   5   4   3   86.54    3.16
   5   4   3   86.51    3.09
  -5   4  -3   91.87    3.31
   5   4   3   88.63    2.96
  -5   4  -3   84.06    3.52
  -5   4  -3   85.97    3.30
   5   4   3   87.12    3.08
   5   4   3   81.60    3.03
  -5   4  -3   83.86    3.37
   5  -4   3   89.83    3.04
   5  -4   3   90.74    3.42
   5  -4   3   88.36    3.53
   5  -4   3   90.66    3.48
  -5  -4  -3   70.02    3.49
  -5  -4  -3   86.93    2.86
   5  -4   3   85.89    3.70
   5  -4   3   87.26    3.12
  -5  -4  -3   86.23    3.06
  -5  -4  -3   84.16    3.03
   5   4   4    8.78    1.65
   5   4   4   11.88    1.78
  -5   4  -4    9.97    1.67
  -5   4  -4   11.01    1.87
   5   4   4   13.02    1.70
   5   4   4   12.82    1.55
  -5   4  -4   12.04    1.85
  -5   4  -4    9.67    1.80
  -5   4  -4   13.04    1.73
   5   4   4   13.74    1.68
  -5   4  -4   12.38    1.81
  -5  -4  -4   12.75    1.56
   5  -4   4   10.30    1.66
  -5  -4  -4   10.99    1.66
   5  -4   4   10.74    1.78
   5  -4   4   12.27    1.66
   5  -4   4   13.69    1.83
  -5  -4  -4   13.20    1.66
  -5  -4  -4   12.93    1.53
   5  -4   4    8.53    1.95
   5  -4   4    9.03    1.90
   5   4   5   13.45    1.83
  -5   4  -5   13.95    1.95
  -5   4  -5   13.23    2.00
   5   4   5   16.24    1.99
  -5   4  -5   12.07    2.02
  -5   4  -5   13.30    1.95
   5   4   5   14.49    1.93
   5   4   5   14.10    1.80
  -5   4  -5   14.71    1.89
  -5   4  -5   13.43    1.94
  -5  -4  -5   14.32    1.90
   5  -4   5   14.29    1.84
  -5  -4  -5   15.36    1.80
   5  -4   5   14.31    2.01
   5  -4   5   12.32    1.74
   5  -4   5   11.61    2.15
  -5  -4  -5   12.73    1.73
   5  -4   5   12.97    2.06
   5  -4   5   11.64    2.23
   5   4   6   -0.08    1.86
   5   4   6    1.63    2.02
   5   4   6    0.14    1.92
  -5   4  -6   -2.38    1.72
  -5   4  -6    1.35    1.89
  -5   4  -6    0.78    2.16
  -5   4  -6   -1.01    1.80
   5   4   6   -4.22    1.68
   5   4   6    0.10    1.93
  -5   4  -6    1.47    1.91
  -5   4  -6    3.11    2.05
   5  -4   6   -0.95    1.78
  -5  -4  -6   -1.97    1.77
   5  -4   6    5.26    2.32
  -5  -4  -6   -1.97    1.62
   5  -4   6    1.23    2.14
   5  -4   6    2.50    1.93
   5  -4   6   -0.09    2.16
  -5  -4  -6   -1.19    1.72
  -5  -4  -6    3.21    1.91
  -5  -4  -6    1.38    1.44
   5  -4   6   -1.42    2.19
   5   5  -3    2.88    1.33
  -5   5   3    4.19    1.93
  -5   5   3    0.77    1.79
  -5   5   3    0.68    1.95
  -5   5   3    1.36    1.90
  -5   5   3    3.03    1.91
  -5   5   3    6.24    2.12
   5  -5  -3    5.64    2.20
   5  -5  -3    2.88    2.23
   5  -5  -3    6.05    2.05
   5  -5  -3    2.78    1.97
   5  -5  -3    1.80    1.90
   5  -5  -3   -0.99    2.27
  -5   5   2   12.36    2.05
  -5   5   2    9.37    1.87
  -5   5   2   14.72    1.95
  -5   5   2   11.05    2.13
  -5   5   2    8.17    2.09
   5   5  -2    9.31    1.47
  -5   5   2   13.34    2.15
   5  -5  -2    8.77    2.21
   5  -5  -2   12.28    2.34
   5  -5  -2    8.83    2.05
   5  -5  -2   12.01    1.75
   5  -5  -2   12.34    2.04
   5  -5  -2   11.80    1.73
   5   5  -1    7.41    1.46
  -5   5   1    4.56    1.68
  -5   5   1    7.28    1.92
  -5   5   1    8.86    1.95
  -5   5   1    6.65    2.10
   5   5  -1    6.53    1.41
  -5   5   1    5.63    1.94
  -5   5   1    5.55    1.90
   5  -5  -1    4.39    1.88
   5  -5  -1    8.14    2.06
   5  -5  -1    6.45    1.56
   5  -5  -1    4.27    1.60
   5  -5  -1    5.62    2.04
   5  -5  -1    4.36    2.03
  -5   5   0    0.35    1.68
  -5   5   0   -0.94    1.73
  -5   5   0   -4.01    1.69
  -5   5   0   -2.98    1.91
   5   5   0    2.57    1.55
   5   5   0   -0.20    1.10
  -5   5   0   -1.33    1.80
  -5   5   0   -2.54    1.60
   5   5   0    0.54    1.39
   5  -5   0   -2.95    1.41
   5  -5   0    2.72    2.05
   5  -5   0    1.23    1.84
   5  -5   0   -0.44    1.48
   5  -5   0   -1.10    1.96
   5  -5   0    2.26    2.04
  -5   5  -1    5.77    1.74
  -5   5  -1    5.55    1.85
  -5   5  -1    3.14    1.61
   5   5   1    5.93    1.63
   5   5   1    5.61    1.52
  -5   5  -1    6.85    1.92
   5   5   1    3.49    1.14
  -5   5  -1    3.68    1.91
   5   5   1    3.62    1.46
  -5   5  -1    6.27    1.93
   5   5   1    5.08    1.45
   5   5   1    5.55    1.34
   5  -5   1    5.71    1.59
   5  -5   1    2.71    1.95
   5  -5   1    5.21    2.09
  -5  -5  -1    4.13    1.40
   5  -5   1    3.83    1.89
   5  -5   1    6.19    1.62
   5  -5   1    7.69    2.21
   5   5   2   10.89    1.46
  -5   5  -2   10.22    2.09
   5   5   2    8.18    1.56
   5   5   2   10.78    2.06
   5   5   2   10.28    1.68
   5   5   2   10.89    1.72
  -5   5  -2   11.31    2.01
  -5   5  -2   10.61    2.00
   5   5   2   11.99    2.15
  -5   5  -2    9.92    2.06
  -5   5  -2    9.70    1.81
  -5  -5  -2   11.27    1.43
   5  -5   2   10.56    2.17
   5  -5   2   10.71    1.99
   5  -5   2   11.46    1.66
  -5  -5  -2   10.39    1.63
   5  -5   2    7.77    2.12
   5  -5   2   12.05    2.14
   5  -5   2   10.84    1.68
  -5  -5  -2   10.12    1.60
  -5  -5  -2   11.32    1.69
   6   0 -11   -0.18    2.15
  -6   0  11    0.54    1.75
  -6   0  11   -0.08    2.12
  -6   0  11    3.59    2.33
   6   0 -11   -0.23    1.71
  -6   0  11    1.71    2.12
   6   0 -11   -2.51    1.89
  -6   0  11    3.52    1.85
  -6   0  11   -1.64    2.13
   6   0 -11    2.94    1.95
   6   0 -11   -2.44    1.90
   6   0 -10   45.10    3.23
  -6   0  10   38.24    3.31
  -6   0  10   44.17    3.37
  -6   0  10   44.74    2.83
   6   0 -10   42.62    3.02
   6   0 -10   44.84    3.25
  -6   0  10   51.03    3.29
   6   0 -10   44.07    3.33
  -6   0  10   41.47    3.57
   6   0 -10   50.50    2.98
   6   0 -10   44.65    2.95
  -6   0  10   43.81    3.38
   6   0  -9    0.24    1.30
  -6   0   9    0.11    1.52
  -6   0   9    1.45    1.33
  -6   0   9    3.09    1.32
   6   0  -9    1.24    1.27
  -6   0   9    1.14    1.68
   6   0  -9   -0.26    1.46
   6   0  -9    0.06    1.61
   6   0  -9   -2.08    1.38
   6   0  -8  203.69    5.01
   6   0  -8  199.27    4.80
  -6   0   8  213.34    4.79
   6   0  -8  201.08    4.88
  -6   0   8  206.74    4.90
   6   0  -8  203.83    4.76
   6   0  -8  203.27    4.76
  -6   0   8  202.93    4.66
  -6   0   8  203.05    4.98
   6   0  -8  209.71    5.06
  -6   0   8  199.59    4.68
  -6   0   8  207.27    5.06
   6   0  -7    0.65    1.11
   6   0  -7   -1.36    1.04
  -6   0   7    0.28    1.10
   6   0  -7    0.26    1.00
   6   0  -7    1.42    1.06
  -6   0   7    0.74    0.96
  -6   0   7   -0.88    1.20
   6   0  -7   -0.38    0.99
  -6   0   7    0.81    1.01
   6   0  -7    0.98    1.00
  -6   0   7   -1.62    1.02
  -6   0   7   -1.19    0.99
   6   0  -6  198.77    4.39
   6   0  -6  200.94    4.45
   6   0  -6  205.80    4.56
  -6   0   6  203.41    4.32
   6   0  -6  205.94    4.58
   6   0  -6  200.05    4.42
  -6   0   6  207.81    4.54
  -6   0   6  210.52    4.37
   6   0  -6  205.57    4.39
  -6   0   6  207.06    4.31
  -6   0   6  196.86    4.41
  -6   0   6  203.00    4.61
   6   0  -5    0.34    0.82
  -6   0   5    0.38    0.72
   6   0  -5   -0.54    0.75
   6   0  -5    0.95    0.82
   6   0  -5   -0.23    0.80
  -6   0   5   -0.54    0.76
  -6   0   5   -0.26    0.76
  -6   0   5    0.28    0.72
   6   0  -5   -0.47    0.74
   6   0  -5    0.87    0.75
  -6   0   5   -0.33    0.86
  -6   0   5   -0.89    0.62
   6   0  -4  539.24   10.13
   6   0  -4  535.95   10.11
  -6   0   4  541.15   10.12
   6   0  -4  531.45   10.03
  -6   0   4  538.82    9.96
  -6   0   4  539.71    9.95
   6   0  -4  525.23   10.03
  -6   0   4  528.11    9.98
  -6   0   4  530.38   10.00
   6   0  -4  520.44    9.98
   6   0  -4  526.89   10.00
   6   0  -3   -0.83    0.71
  -6   0   3   -0.30    0.64
  -6   0   3   -0.82    0.58
  -6   0   3   -0.29    0.57
   6   0  -3   -0.41    0.63
   6   0  -3   -0.22    0.73
  -6   0   3   -0.49    0.53
   6   0  -3   -0.68    0.61
  -6   0   3    0.13    0.72
   6   0  -3   -0.01    0.64
   6   0  -3    0.20    0.61
  -6   0   2  518.46    9.40
  -6   0   2  502.18    9.30
   6   0  -2  504.31    9.32
   6   0  -2  503.95    9.32
  -6   0   2  494.40    9.29
   6   0  -2  495.58    9.41
  -6   0   2  507.36    9.26
  -6   0   2  489.48    9.26
   6   0  -2  492.08    9.30
   6   0  -2  490.91    9.32
   6   0  -2  506.54    9.40
   6   0  -1    0.32    0.66
  -6   0   1    0.00    0.63
  -6   0   1    0.58    0.53
  -6   0   1    0.88    0.56
  -6   0   1    0.79    0.51
   6   0  -1   -0.13    0.58
   6   0  -1    0.67    0.69
   6   0  -1   -0.09    0.58
   6   0  -1    0.08    0.60
   6   0  -1   -0.18    0.56
  -6   0   1   -0.10    0.55
  -6   0   0 4275.53   79.13
   6   0   0 4333.65   78.83
   6   0   0 4334.89   78.99
  -6   0   0 4231.70   78.96
   6   0   0 4246.27   79.10
  -6   0   0 4406.14   79.34
   6   0   0 4528.81   79.39
  -6   0   0 4415.35   79.30
   6   0   0 4351.92   79.11
   6   0   0 4269.05   78.98
   6   0   1   -1.09    0.64
  -6   0  -1   -1.16    0.58
   6   0   1   -0.60    0.77
   6   0   1   -0.94    0.66
  -6   0  -1   -1.17    0.73
  -6   0  -1   -0.45    0.56
   6   0   1   -1.49    0.61
  -6   0  -1   -1.29    0.60
   6   0   1   -0.19    0.63
   6   0   1   -0.79    0.72
  -6   0  -1    0.61    0.71
  -6   0  -1   -0.69    0.66
   6   0   2  138.01    3.21
  -6   0  -2  134.46    3.02
  -6   0  -2  138.14    3.03
   6   0   2  136.46    3.05
  -6   0  -2  140.69    3.18
   6   0   2  129.69    3.02
  -6   0  -2  136.85    3.15
  -6   0  -2  135.65    2.99
  -6   0  -2  133.72    3.02
   6   0   2  136.24    3.20
   6   0   2  133.45    3.03
   6   0   2  131.06    3.03
   6   0   3    0.10    0.87
   6   0   3    1.03    1.00
  -6   0  -3    0.40    0.83
  -6   0  -3   -0.21    0.71
   6   0   3   -0.41    0.81
  -6   0  -3    0.03    0.91
  -6   0  -3   -0.83    0.73
   6   0   3    0.28    0.76
  -6   0  -3    1.14    0.79
  -6   0  -3    0.70    0.87
   6   0   3   -0.38    0.97
   6   0   3   -0.74    0.81
  -6   0  -4  360.57    7.21
   6   0   4  353.20    7.21
  -6   0  -4  366.08    7.18
  -6   0  -4  370.81    7.20
   6   0   4  356.52    7.24
  -6   0  -4  368.54    7.39
  -6   0  -4  366.60    7.41
   6   0   4  358.95    7.23
  -6   0  -4  370.90    7.25
   6   0   4  355.80    7.42
   6   0   4  360.57    7.42
   6   0   4  361.34    7.26
  -6   0  -5   -1.78    0.97
   6   0   5   -1.60    0.94
   6   0   5   -0.09    1.20
   6   0   5    0.36    1.20
  -6   0  -5   -1.60    0.88
  -6   0  -5   -2.08    1.02
   6   0   5   -0.73    1.17
  -6   0  -5   -1.75    0.85
  -6   0  -5   -0.87    1.01
   6   0   5   -1.09    1.07
  -6   0  -5   -0.69    1.04
   6   0   5    0.40    0.96
   6   0   6   22.71    1.70
  -6   0  -6   21.92    2.05
  -6   0  -6   23.47    2.01
   6   0   6   20.79    1.78
   6   0   6   23.91    2.23
   6   0   6   21.40    1.66
   6   0   6   21.62    1.69
  -6   0  -6   24.06    1.87
   6   0   6   22.71    1.94
  -6   0  -6   22.47    1.53
  -6   0  -7    1.15    2.34
   6   0   7   -0.74    1.83
   6   0   7    0.25    1.62
  -6   0  -7   -0.62    1.26
  -6   0  -7   -0.03    1.30
  -6   0  -7    1.04    1.58
   6   0   7   -2.15    1.50
   6   0   7   -1.49    1.51
  -6   0  -7    0.33    1.52
   6   0   7    1.09    1.60
   6   0   7    0.43    1.57
  -6   0  -7   -1.14    1.46
  -6   0  -8    3.26    1.73
   6   0   8    5.93    2.12
   6   0   8    6.92    1.75
  -6   0  -8    5.97    1.65
   6   0   8    7.55    1.72
  -6   0  -8    6.00    1.61
  -6   0  -8    7.62    1.68
  -6   0  -8    8.18    1.86
   6   0   8    6.57    1.98
   6   0   8    5.95    2.25
  -6   0  -8    5.74    1.88
   6   0   8    5.27    2.20
  -6   0  -9    0.28    1.87
  -6   0  -9    4.41    1.86
  -6   0  -9   -1.23    2.68
  -6   0  -9    0.87    1.66
  -6   0  -9   -0.46    2.10
   6   0   9    2.18    2.44
   6   0   9    2.06    1.94
   6   0   9    2.38    2.36
  -6   0  -9   -3.25    1.94
   6   0   9    1.55    2.20
   6   0   9   -0.72    1.94
   6   0   9   -4.33    2.53
  -6   1  10    9.50    1.74
   6   1 -10    8.80    1.68
  -6   1  10   10.29    1.88
   6   1 -10    3.37    1.85
  -6   1  10    3.85    3.40
  -6   1  10    7.83    2.03
   6   1 -10    8.00    1.86
  -6   1  10    6.38    1.94
   6   1 -10    5.65    1.53
   6   1 -10    4.97    1.74
   6   1 -10    6.47    1.65
  -6   1  10    5.82    2.11
   6  -1 -10    6.65    1.95
  -6  -1  10    5.81    1.47
   6  -1 -10    9.17    1.87
  -6  -1  10    7.12    1.83
  -6  -1  10    8.80    1.48
   6  -1 -10    6.56    1.67
  -6  -1  10    4.47    2.06
   6  -1 -10    5.92    1.58
   6  -1 -10    7.72    1.89
  -6  -1  10    7.30    2.05
   6  -1 -10    9.47    1.92
  -6  -1  10    6.11    1.86
   6   1  -9   18.35    1.76
  -6   1   9   19.13    2.22
  -6   1   9   21.25    1.89
  -6   1   9   21.07    2.01
   6   1  -9   19.32    1.61
  -6   1   9   19.22    1.96
   6   1  -9   18.55    1.59
   6   1  -9   21.11    1.95
  -6   1   9   22.61    1.95
  -6   1   9   20.00    1.88
   6   1  -9   17.65    1.63
   6  -1  -9   21.28    1.77
  -6  -1   9   18.05    2.00
  -6  -1   9   20.00    1.78
  -6  -1   9   21.76    1.77
  -6  -1   9   18.05    1.93
   6  -1  -9   18.86    1.91
  -6  -1   9   23.88    2.02
   6  -1  -9   18.96    2.08
  -6  -1   9   19.73    1.48
   6  -1  -9   20.14    1.76
   6  -1  -9   20.84    2.01
   6  -1  -9   17.08    1.83
  -6   1   8   94.16    3.24
   6   1  -8   95.74    2.94
  -6   1   8   97.05    3.11
   6   1  -8   94.30    3.02
  -6   1   8   96.58    3.45
   6   1  -8   93.47    2.97
   6   1  -8   97.96    3.15
   6   1  -8   93.80    2.91
  -6   1   8   97.81    3.57
  -6   1   8   98.60    3.22
   6   1  -8   94.82    3.06
  -6  -1   8   92.84    2.66
  -6  -1   8   92.39    3.04
  -6  -1   8   95.58    3.03
   6  -1  -8   98.26    3.20
  -6  -1   8   84.72    3.69
   6  -1  -8   92.47    3.20
   6  -1  -8   95.06    3.47
   6  -1  -8   92.28    3.18
  -6  -1   8   95.23    2.61
   6  -1  -8   91.23    3.44
   6   1  -7   11.02    1.26
  -6   1   7   11.40    1.42
   6   1  -7   10.10    1.20
   6   1  -7   10.49    1.10
   6   1  -7    8.84    1.09
   6   1  -7   10.77    1.20
   6   1  -7    9.83    1.19
  -6   1   7    9.48    1.31
  -6   1   7   10.41    1.30
  -6   1   7    9.94    1.31
  -6   1   7   11.37    1.62
  -6   1   7    8.62    1.25
  -6  -1   7   11.10    0.94
  -6  -1   7   11.28    0.93
   6  -1  -7   11.37    1.32
   6  -1  -7    7.04    1.36
   6  -1  -7   10.68    1.54
   6  -1  -7   10.62    1.40
  -6  -1   7    9.79    1.15
   6  -1  -7    9.54    1.43
  -6  -1   7   10.39    1.19
   6  -1  -7    9.76    1.26
  -6  -1   7    7.16    1.25
   6   1  -6   29.42    1.73
   6   1  -6   31.17    1.61
   6   1  -6   31.73    1.75
  -6   1   6   33.29    1.97
   6   1  -6   32.03    1.65
   6   1  -6   32.16    1.61
  -6   1   6   33.35    1.91
  -6   1   6   31.80    1.80
  -6   1   6   28.93    2.12
   6   1  -6   32.01    1.59
  -6   1   6   35.56    2.03
  -6   1   6   30.69    1.89
  -6  -1   6   29.92    1.72
   6  -1  -6   32.99    1.90
   6  -1  -6   30.76    1.98
   6  -1  -6   31.31    1.90
   6  -1  -6   34.03    1.95
   6  -1  -6   33.50    1.94
  -6  -1   6   31.27    1.79
  -6  -1   6   30.94    1.69
   6  -1  -6   30.23    2.03
   6   1  -5   14.56    1.22
   6   1  -5   15.59    1.23
  -6   1   5   18.12    1.80
  -6   1   5   16.81    1.52
  -6   1   5   16.77    1.63
   6   1  -5   16.69    1.39
  -6   1   5   16.93    1.20
   6   1  -5   17.99    1.24
   6   1  -5   15.89    1.29
  -6   1   5   18.79    1.26
   6   1  -5   18.39    1.24
  -6   1   5   16.22    1.56
   6  -1  -5   17.68    1.26
   6  -1  -5   18.40    1.58
   6  -1  -5   17.25    1.60
  -6  -1   5   17.03    1.31
   6  -1  -5   15.43    1.54
   6  -1  -5   18.74    1.72
  -6  -1   5   15.00    1.41
   6  -1  -5   17.16    1.72
  -6   1   4  276.44    5.72
  -6   1   4  280.83    5.55
   6   1  -4  273.20    5.38
   6   1  -4  272.30    5.27
  -6   1   4  278.08    5.69
  -6   1   4  281.42    5.57
   6   1  -4  264.68    5.28
   6   1  -4  280.19    5.29
   6   1  -4  277.01    5.30
  -6   1   4  280.85    5.55
  -6   1   4  272.23    5.56
   6   1  -4  269.49    5.36
   6  -1  -4  273.30    5.56
   6  -1  -4  278.23    5.74
   6  -1  -4  276.23    5.72
  -6  -1   4  272.53    5.35
   6  -1  -4  270.61    5.53
   6  -1  -4  271.74    5.60
  -6  -1   4  280.31    5.35
   6  -1  -4  274.57    5.58
  -6  -1   4  270.06    5.25
  -6  -1   4  271.42    5.27
  -6   1   3    5.46    0.85
  -6   1   3    4.67    0.99
   6   1  -3    4.46    0.62
  -6   1   3    4.56    0.89
  -6   1   3    4.96    0.90
  -6   1   3    5.81    0.93
   6   1  -3    4.31    0.55
  -6   1   3    5.43    0.81
   6  -1  -3    5.49    0.91
  -6  -1   3    4.54    0.55
   6  -1  -3    4.58    0.86
   6  -1  -3    5.24    0.82
   6  -1  -3    4.46    1.04
   6  -1  -3    4.53    0.81
   6  -1  -3    4.13    0.93
  -6   1   2 2918.52   54.24
  -6   1   2 3105.88   54.83
  -6   1   2 3075.83   54.61
  -6   1   2 3052.60   54.38
  -6   1   2 3052.96   54.39
  -6   1   2 2952.39   54.27
   6  -1  -2 3003.28   54.38
   6  -1  -2 2977.14   54.27
   6  -1  -2 2958.20   54.25
   6  -1  -2 2909.33   54.28
   6  -1  -2 2917.39   54.25
   6  -1  -2 2967.22   54.36
  -6   1   1    6.91    0.83
  -6   1   1    8.15    0.96
  -6   1   1    5.12    0.91
  -6   1   1    5.42    0.91
  -6   1   1    5.08    0.94
  -6   1   1    6.30    0.85
   6  -1  -1    6.96    0.77
   6  -1  -1    5.50    1.01
   6  -1  -1    3.96    0.79
   6  -1  -1    5.65    0.89
   6  -1  -1    3.94    0.78
   6  -1  -1    5.87    1.01
  -6   1   0  547.20   10.47
   6   1   0  557.39   10.27
  -6   1   0  565.59   10.62
   6   1   0  553.69   10.26
  -6   1   0  566.94   10.62
  -6   1   0  549.81   10.48
   6   1   0  564.09   10.33
   6   1   0  556.70   10.26
   6   1   0  563.65   10.33
   6   1   0  550.70   10.24
  -6   1   0  563.37   10.50
  -6   1   0  554.24   10.49
  -6  -1   0  561.86   10.33
   6  -1   0  553.49   10.51
  -6  -1   0  556.31   10.27
  -6  -1   0  584.10   10.33
   6  -1   0  555.89   10.61
   6  -1   0  540.47   10.48
   6  -1   0  565.16   10.64
   6  -1   0  565.31   10.50
   6  -1   0  554.54   10.50
   6   1   1   28.59    1.15
  -6   1  -1   28.90    1.39
   6   1   1   29.66    1.18
   6   1   1   29.68    1.21
  -6   1  -1   28.50    1.56
   6   1   1   30.38    1.23
   6   1   1   31.78    1.33
  -6   1  -1   30.33    1.50
   6   1   1   29.11    1.34
  -6   1  -1   28.81    1.61
  -6   1  -1   28.89    1.42
  -6   1  -1   28.10    1.48
   6  -1   1   29.14    1.44
  -6  -1  -1   31.61    1.28
   6  -1   1   28.62    1.64
  -6  -1  -1   30.03    1.03
   6  -1   1   28.21    1.60
  -6  -1  -1   29.87    1.29
  -6  -1  -1   30.42    1.14
  -6  -1  -1   30.68    1.24
   6  -1   1   27.67    1.51
  -6  -1  -1   32.52    1.01
  -6   1  -2    4.49    0.91
  -6   1  -2    3.85    0.94
  -6   1  -2    4.93    0.88
  -6   1  -2    4.86    0.85
   6   1   2    4.08    0.84
  -6   1  -2    3.43    0.81
   6   1   2    6.15    0.88
   6   1   2    3.64    0.78
  -6   1  -2    3.98    0.82
   6   1   2    3.83    0.77
   6   1   2    3.24    0.75
   6   1   2    3.76    0.76
   6  -1   2    4.57    0.96
   6  -1   2    4.49    0.89
  -6  -1  -2    4.01    0.71
   6  -1   2    3.53    0.84
  -6  -1  -2    4.96    0.65
   6  -1   2    5.05    1.14
  -6  -1  -2    4.35    0.70
   6  -1   2    4.16    0.91
   6  -1   2    3.76    0.82
   6   1   3  229.65    4.80
   6   1   3  231.28    4.80
   6   1   3  230.74    4.93
  -6   1  -3  231.27    4.84
  -6   1  -3  234.83    5.03
  -6   1  -3  233.08    4.86
   6   1   3  231.79    4.95
  -6   1  -3  230.89    4.85
   6   1   3  227.70    4.78
   6   1   3  230.67    4.81
  -6   1  -3  237.53    5.05
  -6   1  -3  229.26    4.87
   6  -1   3  233.21    5.05
  -6  -1  -3  233.82    4.68
  -6  -1  -3  228.25    4.72
  -6  -1  -3  234.60    4.88
  -6  -1  -3  235.73    4.90
   6  -1   3  231.65    4.87
  -6  -1  -3  229.75    4.73
   6  -1   3  233.63    5.06
  -6  -1  -3  229.37    4.70
   6  -1   3  225.94    4.87
   6  -1   3  227.08    4.85
   6   1   4  156.96    3.64
   6   1   4  153.96    3.85
   6   1   4  152.46    3.62
  -6   1  -4  152.72    3.67
   6   1   4  155.35    3.65
  -6   1  -4  153.94    3.65
  -6   1  -4  156.92    3.86
  -6   1  -4  154.03    3.66
  -6   1  -4  156.68    3.87
   6   1   4  154.69    3.82
   6   1   4  154.35    3.67
  -6   1  -4  153.72    3.66
  -6  -1  -4  152.51    3.74
  -6  -1  -4  151.11    3.69
   6  -1   4  147.89    3.90
   6  -1   4  150.08    3.65
  -6  -1  -4  150.94    3.54
  -6  -1  -4  148.98    3.51
  -6  -1  -4  156.93    3.56
  -6  -1  -4  154.87    3.54
   6  -1   4  153.87    3.90
   6  -1   4  154.67    3.71
   6  -1   4  156.96    3.74
   6   1   5   70.01    2.82
  -6   1  -5   71.82    2.84
  -6   1  -5   71.67    2.56
  -6   1  -5   70.90    2.55
  -6   1  -5   70.12    2.70
   6   1   5   70.56    2.55
  -6   1  -5   70.06    2.50
  -6   1  -5   69.89    2.52
   6   1   5   65.23    2.54
   6   1   5   68.34    2.68
   6   1   5   70.26    2.76
   6   1   5   69.50    2.57
  -6  -1  -5   69.54    2.43
   6  -1   5   72.53    2.55
  -6  -1  -5   74.41    2.41
  -6  -1  -5   70.85    2.38
  -6  -1  -5   71.34    2.69
  -6  -1  -5   65.76    2.38
   6  -1   5   67.36    2.62
  -6  -1  -5   70.04    2.61
   6  -1   5   72.42    2.85
   6  -1   5   67.01    2.62
   6  -1   5   70.77    2.68
   6  -1   5   67.39    2.83
  -6   1  -6    2.83    1.37
   6   1   6    4.49    1.73
  -6   1  -6    2.19    1.17
   6   1   6    4.07    1.48
  -6   1  -6    2.51    1.29
   6   1   6    5.30    1.75
  -6   1  -6    3.83    1.43
  -6   1  -6    2.69    1.18
   6   1   6    4.46    1.47
   6   1   6    3.51    1.24
   6   1   6    2.96    1.29
  -6   1  -6    2.95    1.23
  -6  -1  -6    3.13    1.21
   6  -1   6    2.33    1.26
  -6  -1  -6    2.68    1.23
  -6  -1  -6    3.08    1.30
   6  -1   6    3.32    1.26
   6  -1   6    2.09    1.49
  -6  -1  -6    2.29    1.27
  -6  -1  -6    2.37    1.33
   6  -1   6    3.29    1.44
  -6  -1  -6    4.98    1.16
   6  -1   6    3.65    1.46
   6  -1   6    2.40    1.48
  -6   1  -7   35.51    2.69
   6   1   7   39.74    2.93
   6   1   7   31.79    3.59
  -6   1  -7   38.48    2.74
  -6   1  -7   42.62    3.14
  -6   1  -7   37.37    3.07
   6   1   7   40.38    3.15
   6   1   7   43.63    3.07
   6   1   7   49.47    3.21
  -6   1  -7   41.33    2.97
  -6   1  -7   40.08    2.71
  -6  -1  -7   39.97    2.62
   6  -1   7   43.67    3.08
   6  -1   7   40.47    3.19
  -6  -1  -7   43.43    2.99
   6  -1   7   43.31    2.86
   6  -1   7   42.34    3.20
  -6  -1  -7   41.10    2.61
  -6  -1  -7   36.43    2.67
   6  -1   7   42.91    3.27
  -6  -1  -7   38.29    2.75
   6  -1   7   36.90    3.19
  -6  -1  -7   38.20    2.56
  -6   1  -8    8.05    1.99
  -6   1  -8    6.05    1.78
   6   1   8    7.80    2.31
   6   1   8    8.81    1.91
   6   1   8    6.53    3.09
   6   1   8    6.83    2.10
  -6   1  -8    4.14    1.62
   6   1   8    7.87    2.08
   6   1   8    7.98    2.06
  -6   1  -8    7.09    1.63
  -6  -1  -8    7.23    1.74
   6  -1   8    8.27    2.25
   6  -1   8    5.69    1.94
  -6  -1  -8    8.29    1.73
  -6  -1  -8    6.66    1.57
   6  -1   8    8.25    2.14
  -6  -1  -8    5.67    1.95
   6  -1   8    9.76    2.03
   6  -1   8    9.78    3.25
  -6  -1  -8    6.82    1.71
  -6  -1  -8    7.17    1.98
   6  -1   8    2.16    3.17
  -6   1  -9    2.14    1.76
  -6   1  -9   -0.43    1.96
   6   1   9    1.74    2.07
   6   1   9    2.76    2.27
   6   1   9    1.53    2.41
  -6   1  -9    5.48    1.94
  -6   1  -9    4.90    2.20
  -6   1  -9    1.03    2.03
  -6   1  -9    2.38    1.88
   6   1   9    1.32    2.06
   6   1   9    2.08    2.01
   6   1   9    2.60    2.30
   6  -1   9    3.84    2.37
   6  -1   9    1.57    2.13
   6  -1   9    7.12    2.46
  -6  -1  -9    3.32    1.82
  -6  -1  -9    4.83    2.08
   6  -1   9    3.58    2.32
  -6  -1  -9    2.19    1.90
   6  -1   9    6.99    2.01
  -6  -1  -9    4.09    1.96
  -6  -1  -9    2.56    2.09
   6  -1   9   -0.31    2.07
  -6  -1  -9    4.63    1.95
  -6   2  10    1.57    2.03
   6   2 -10    2.88    1.56
  -6   2  10    0.36    2.03
  -6   2  10   -2.12    2.09
   6   2 -10    0.23    1.67
   6   2 -10    2.15    1.71
   6   2 -10   -1.56    1.59
  -6   2  10    1.93    1.98
   6   2 -10    0.36    1.56
  -6   2  10    1.88    2.29
  -6   2  10   -5.11    1.90
   6  -2 -10   -2.60    1.64
  -6  -2  10    3.27    2.06
   6  -2 -10    2.76    2.21
   6  -2 -10   -0.14    2.10
  -6  -2  10    1.17    1.73
   6  -2 -10    1.82    1.82
   6  -2 -10    0.51    1.83
  -6  -2  10    3.39    1.92
  -6  -2  10   -0.78    1.86
   6  -2 -10    0.21    1.79
   6   2  -9    3.61    1.36
  -6   2   9    0.39    2.08
   6   2  -9    0.77    1.44
   6   2  -9    1.40    1.37
   6   2  -9    0.55    1.37
   6   2  -9    1.27    2.33
  -6   2   9    0.94    1.63
  -6   2   9   -0.17    1.80
  -6   2   9    2.46    1.72
  -6   2   9    0.93    1.55
   6   2  -9    1.34    1.49
  -6   2   9    1.17    1.72
  -6  -2   9    1.55    1.77
  -6  -2   9    2.60    1.58
   6  -2  -9    3.30    1.85
   6  -2  -9    1.68    1.85
  -6  -2   9    2.26    1.45
  -6  -2   9    0.89    1.56
   6  -2  -9    5.02    1.82
   6  -2  -9    2.62    1.88
   6  -2  -9    1.98    1.72
   6  -2  -9    1.44    1.70
   6   2  -8   28.37    2.07
  -6   2   8   29.02    2.84
   6   2  -8   24.70    2.21
   6   2  -8   26.60    2.26
  -6   2   8   28.72    2.61
  -6   2   8   30.71    2.85
  -6   2   8   29.32    2.71
   6   2  -8   23.38    2.16
  -6   2   8   28.20    2.32
  -6   2   8   29.09    2.80
   6   2  -8   28.26    2.10
   6   2  -8   24.76    2.32
  -6  -2   8   26.53    2.11
   6  -2  -8   27.63    2.31
  -6  -2   8   30.24    2.48
   6  -2  -8   24.00    1.87
   6  -2  -8   25.35    1.96
   6  -2  -8   25.99    2.29
   6  -2  -8   30.11    2.59
  -6  -2   8   23.45    2.30
   6   2  -7    1.73    0.98
   6   2  -7    1.91    1.10
  -6   2   7    2.89    1.27
  -6   2   7    2.59    1.30
   6   2  -7    2.61    1.11
   6   2  -7    2.17    1.02
  -6   2   7    3.06    1.49
   6   2  -7    0.65    1.03
  -6   2   7    3.89    1.39
   6   2  -7    2.31    1.01
  -6   2   7   -0.44    1.53
  -6   2   7    0.72    1.37
  -6  -2   7    1.71    1.13
  -6  -2   7    1.94    1.10
   6  -2  -7    0.08    1.36
  -6  -2   7    1.19    0.96
  -6  -2   7    1.86    1.24
   6  -2  -7    0.55    1.35
   6  -2  -7   -0.29    1.22
   6  -2  -7    2.58    1.38
   6  -2  -7    2.20    1.40
  -6   2   6    0.59    1.32
   6   2  -6    0.62    0.84
  -6   2   6    2.22    1.12
   6   2  -6    0.85    0.80
  -6   2   6    0.57    1.29
   6   2  -6    1.21    0.92
  -6   2   6   -0.42    1.19
   6   2  -6    0.00    0.78
  -6   2   6   -0.40    1.07
  -6   2   6    1.30    1.23
   6   2  -6    0.71    0.94
   6   2  -6    0.11    0.89
   6  -2  -6   -0.47    1.11
   6  -2  -6    0.16    1.07
  -6  -2   6    0.72    0.92
   6  -2  -6    0.93    1.17
  -6  -2   6    1.71    0.95
   6  -2  -6   -0.18    1.26
  -6  -2   6   -0.25    0.89
   6  -2  -6    0.38    1.33
  -6  -2   6    0.18    0.74
   6  -2  -6    0.65    1.16
  -6   2   5  149.58    3.74
   6   2  -5  152.63    3.24
   6   2  -5  151.01    3.28
   6   2  -5  144.97    3.18
  -6   2   5  152.96    3.92
  -6   2   5  149.37    3.79
   6   2  -5  152.14    3.31
   6   2  -5  149.09    3.24
  -6   2   5  154.74    4.01
  -6   2   5  155.11    3.75
   6   2  -5  152.57    3.17
  -6   2   5  152.92    3.73
  -6  -2   5  153.42    3.19
   6  -2  -5  156.31    3.75
   6  -2  -5  146.57    3.73
   6  -2  -5  152.19    3.77
   6  -2  -5  154.02    4.00
   6  -2  -5  155.46    3.76
   6  -2  -5  152.92    4.03
  -6   2   4   37.47    1.91
  -6   2   4   38.29    2.00
  -6   2   4   36.39    2.04
  -6   2   4   35.82    1.88
  -6   2   4   36.48    2.10
  -6   2   4   34.43    1.88
   6  -2  -4   37.24    1.88
   6  -2  -4   34.60    1.98
   6  -2  -4   34.49    2.05
   6  -2  -4   34.10    2.16
   6  -2  -4   33.55    1.90
   6  -2  -4   35.65    1.94
  -6   2   3   34.55    1.78
  -6   2   3   34.28    1.95
  -6   2   3   34.89    1.81
  -6   2   3   34.01    1.78
  -6   2   3   32.69    1.80
  -6   2   3   32.18    1.94
   6  -2  -3   31.91    1.93
   6  -2  -3   36.42    1.89
   6  -2  -3   35.40    1.78
   6  -2  -3   32.85    1.88
   6  -2  -3   33.52    1.84
   6  -2  -3   31.37    2.02
  -6   2   2   74.68    2.33
  -6   2   2   78.20    2.48
  -6   2   2   74.58    2.27
  -6   2   2   72.94    2.28
  -6   2   2   79.43    2.52
  -6   2   2   75.63    2.27
   6  -2  -2   74.63    2.35
   6  -2  -2   76.16    2.49
   6  -2  -2   77.56    2.38
   6  -2  -2   73.51    2.31
   6  -2  -2   73.72    2.50
   6  -2  -2   77.43    2.30
  -6   2   1   75.99    2.30
  -6   2   1   75.73    2.32
  -6   2   1   77.06    2.32
  -6   2   1   76.73    2.44
  -6   2   1   78.22    2.47
   6  -2  -1   78.20    2.42
   6  -2  -1   76.31    2.33
   6  -2  -1   76.39    2.51
   6  -2  -1   75.61    2.28
   6  -2  -1   75.08    2.26
   6  -2  -1   77.21    2.51
  -6   2   0   18.58    1.70
  -6   2   0   18.94    1.55
  -6   2   0   17.96    1.48
  -6   2   0   17.37    1.59
  -6   2   0   20.12    1.77
   6  -2   0   18.52    1.58
   6  -2   0   17.44    1.73
   6  -2   0   16.58    1.66
   6  -2   0   18.63    1.65
   6  -2   0   17.11    1.34
   6  -2   0   18.18    1.54
   6   2   1  497.81    9.25
   6   2   1  498.02    9.27
   6   2   1  484.97    9.16
   6   2   1  499.67    9.17
  -6   2  -1  473.76    9.42
  -6   2  -1  508.98    9.66
  -6   2  -1  482.32    9.46
   6   2   1  489.71    9.16
   6   2   1  484.94    9.13
  -6   2  -1  488.19    9.44
  -6   2  -1  485.05    9.45
  -6   2  -1  509.24    9.64
  -6  -2  -1  496.84    9.21
   6  -2   1  492.18    9.47
   6  -2   1  487.26    9.44
   6  -2   1  491.68    9.64
   6  -2   1  485.59    9.61
   6  -2   1  478.85    9.44
   6  -2   1  492.63    9.49
  -6  -2  -1  484.86    9.12
  -6  -2  -1  490.90    9.20
  -6   2  -2   87.45    2.48
   6   2   2   86.49    2.23
  -6   2  -2   83.84    2.54
  -6   2  -2   85.13    2.70
  -6   2  -2   83.61    2.51
   6   2   2   86.28    2.26
  -6   2  -2   86.51    2.52
   6   2   2   86.14    2.23
   6   2   2   87.68    2.30
   6   2   2   84.00    2.39
  -6   2  -2   85.85    2.69
   6   2   2   91.25    2.39
  -6  -2  -2   86.01    2.16
  -6  -2  -2   88.96    2.31
  -6  -2  -2   88.20    2.30
   6  -2   2   82.59    2.77
   6  -2   2   82.92    2.55
   6  -2   2   85.09    2.55
   6  -2   2   84.76    2.53
  -6  -2  -2   86.81    2.18
   6  -2   2   83.74    2.73
   6  -2   2   86.03    2.54
   6   2   3    6.46    1.05
  -6   2  -3    4.80    0.97
   6   2   3    6.64    1.12
  -6   2  -3    4.55    1.33
  -6   2  -3    6.95    1.18
   6   2   3    5.07    0.98
  -6   2  -3    5.66    1.16
  -6   2  -3    5.61    0.97
  -6   2  -3    6.18    1.10
   6   2   3    5.70    1.07
   6   2   3    5.78    0.93
   6   2   3    5.39    0.97
  -6  -2  -3    5.86    0.78
   6  -2   3    4.63    1.19
   6  -2   3    4.16    1.39
  -6  -2  -3    4.88    0.85
   6  -2   3    5.30    1.05
  -6  -2  -3    5.91    1.01
   6  -2   3    5.73    1.09
  -6  -2  -3    6.27    0.89
   6  -2   3    7.52    1.08
  -6  -2  -3    6.04    0.79
   6  -2   3    6.36    1.20
  -6   2  -4   76.30    2.81
  -6   2  -4   74.49    2.55
   6   2   4   74.83    2.43
  -6   2  -4   74.44    2.59
   6   2   4   72.10    2.74
  -6   2  -4   72.35    2.55
  -6   2  -4   75.03    2.63
   6   2   4   76.46    2.55
   6   2   4   70.37    2.65
  -6   2  -4   76.96    2.81
   6   2   4   73.06    2.50
   6   2   4   74.98    2.56
   6  -2   4   77.01    2.98
   6  -2   4   76.54    2.55
   6  -2   4   73.89    2.70
   6  -2   4   73.99    2.73
   6  -2   4   73.05    2.70
  -6  -2  -4   72.72    2.37
  -6  -2  -4   74.38    2.53
  -6  -2  -4   77.97    2.23
   6  -2   4   77.14    2.94
  -6  -2  -4   75.28    2.55
  -6  -2  -4   76.28    2.26
  -6  -2  -4   74.52    2.40
   6   2   5   39.52    2.42
  -6   2  -5   45.21    2.61
   6   2   5   40.19    2.63
   6   2   5   40.98    2.47
  -6   2  -5   45.66    2.39
  -6   2  -5   43.50    2.45
  -6   2  -5   46.00    2.64
  -6   2  -5   46.71    2.38
   6   2   5   43.07    2.30
  -6   2  -5   39.61    2.43
   6   2   5   45.79    2.60
   6   2   5   45.24    2.43
   6  -2   5   44.36    2.63
  -6  -2  -5   43.09    2.46
  -6  -2  -5   42.92    2.23
   6  -2   5   42.85    2.62
   6  -2   5   40.47    2.84
   6  -2   5   43.83    2.79
  -6  -2  -5   42.23    2.39
   6  -2   5   44.82    2.33
  -6  -2  -5   46.35    2.26
   6  -2   5   45.05    2.55
  -6  -2  -5   42.23    2.16
  -6  -2  -5   41.93    2.16
   6   2   6   -2.11    1.31
   6   2   6   -0.93    1.32
   6   2   6    0.03    1.56
   6   2   6    0.90    1.69
  -6   2  -6   -0.13    1.68
  -6   2  -6    0.87    1.40
  -6   2  -6    0.94    1.66
  -6   2  -6   -0.73    1.49
  -6   2  -6    1.45    1.33
   6   2   6   -0.10    2.00
  -6   2  -6   -1.92    1.39
   6  -2   6    0.56    1.61
  -6  -2  -6    1.50    1.23
  -6  -2  -6   -0.60    2.69
  -6  -2  -6   -0.13    1.23
  -6  -2  -6    0.07    1.17
   6  -2   6    0.15    1.61
   6  -2   6    0.99    1.59
  -6  -2  -6    0.10    1.45
   6  -2   6    2.38    1.45
   6  -2   6    0.00    1.38
   6  -2   6    0.01    1.61
  -6  -2  -6    1.63    1.29
  -6   2  -7  144.50    4.34
   6   2   7  146.45    4.44
  -6   2  -7  140.16    5.11
   6   2   7  144.68    4.68
   6   2   7  152.85    4.49
   6   2   7  140.82    4.77
  -6   2  -7  140.12    4.69
  -6   2  -7  142.52    4.32
   6   2   7  144.19    4.55
   6   2   7  142.68    4.44
  -6   2  -7  143.99    4.34
  -6   2  -7  139.08    4.38
  -6  -2  -7  142.78    4.21
   6  -2   7  151.03    4.58
  -6  -2  -7  138.07    4.15
   6  -2   7  140.93    4.86
   6  -2   7  133.15    4.80
  -6  -2  -7  147.43    4.06
   6  -2   7  138.94    4.53
   6  -2   7  144.93    4.57
  -6  -2  -7  150.77    4.23
  -6  -2  -7  138.65    4.42
   6  -2   7  132.55    4.78
  -6  -2  -7  148.35    4.59
   6   2   8    2.31    2.14
   6   2   8    3.51    2.28
   6   2   8    0.12    2.33
  -6   2  -8    4.12    2.17
  -6   2  -8    2.01    1.83
  -6   2  -8    2.21    1.84
  -6   2  -8    3.45    2.01
  -6   2  -8    2.44    1.60
   6   2   8    1.59    2.00
   6   2   8    4.63    2.33
   6   2   8    5.59    2.00
  -6   2  -8    0.66    1.68
   6  -2   8    3.42    1.77
  -6  -2  -8    0.76    1.63
  -6  -2  -8   -1.62    1.55
   6  -2   8   -0.56    2.05
  -6  -2  -8    4.15    1.83
   6  -2   8    4.14    2.20
   6  -2   8    1.41    2.00
   6  -2   8    0.85    2.19
  -6  -2  -8    1.63    1.63
  -6  -2  -8    3.60    1.78
  -6  -2  -8    0.35    1.89
   6   3  -9    6.56    1.54
   6   3  -9    4.22    1.73
  -6   3   9    6.03    2.05
  -6   3   9    7.19    2.27
   6   3  -9    6.61    1.72
  -6   3   9    7.34    2.35
  -6   3   9    2.05    2.20
  -6   3   9    6.05    2.19
   6   3  -9    5.47    1.43
   6   3  -9    4.29    1.70
   6   3  -9    3.03    1.54
  -6   3   9    4.99    2.05
  -6  -3   9    5.27    1.89
   6  -3  -9    3.69    2.06
  -6  -3   9    5.20    1.65
   6  -3  -9    8.69    2.10
   6  -3  -9    6.43    1.95
   6  -3  -9    7.83    2.07
   6  -3  -9    3.49    2.07
   6  -3  -9   10.31    2.45
  -6  -3   9    2.25    1.71
  -6  -3   9    7.54    1.75
  -6   3   8   19.15    2.05
  -6   3   8   22.80    2.18
   6   3  -8   21.74    1.68
   6   3  -8   12.99    1.58
  -6   3   8   17.63    2.58
  -6   3   8   23.77    2.37
   6   3  -8   18.44    1.62
   6   3  -8   16.52    1.46
   6   3  -8   15.90    1.58
  -6   3   8   21.16    2.29
   6   3  -8   17.60    1.58
  -6   3   8   20.25    2.08
  -6  -3   8   17.97    1.59
  -6  -3   8   21.03    1.74
   6  -3  -8   17.53    2.06
   6  -3  -8   19.21    1.99
  -6  -3   8   17.02    1.49
   6  -3  -8   17.20    2.04
  -6  -3   8   16.34    1.70
   6  -3  -8   20.67    2.26
   6  -3  -8   16.56    2.27
   6  -3  -8   17.76    2.21
  -6   3   7   -0.78    1.58
   6   3  -7    0.57    0.96
   6   3  -7   -0.83    1.13
  -6   3   7   -0.32    1.59
   6   3  -7   -1.38    1.09
  -6   3   7    1.08    1.60
  -6   3   7   -0.57    1.54
   6   3  -7    0.99    1.16
  -6   3   7   -0.81    1.63
  -6   3   7   -2.63    1.77
   6   3  -7   -1.17    1.16
   6   3  -7    1.07    1.08
   6  -3  -7    1.23    1.66
   6  -3  -7   -1.64    1.58
   6  -3  -7    1.95    1.52
   6  -3  -7    2.04    1.71
   6  -3  -7   -0.27    1.61
  -6  -3   7   -1.19    1.12
  -6   3   6    1.08    2.46
  -6   3   6    1.47    1.62
   6   3  -6    0.53    0.97
  -6   3   6    0.15    1.47
   6   3  -6    1.85    0.88
  -6   3   6    0.86    1.52
  -6   3   6    0.99    1.59
   6   3  -6    2.42    1.02
   6   3  -6    1.91    1.06
  -6   3   6    2.90    1.45
   6  -3  -6   -0.47    1.43
   6  -3  -6    0.84    1.33
   6  -3  -6    3.98    1.67
   6  -3  -6    3.12    1.60
   6  -3  -6    1.67    1.40
  -6   3   5   11.37    1.50
  -6   3   5    9.39    1.51
  -6   3   5   11.98    1.51
  -6   3   5   10.57    1.66
  -6   3   5   13.10    1.61
   6  -3  -5    9.85    1.61
   6  -3  -5   12.89    1.51
   6  -3  -5   12.32    1.45
   6  -3  -5   11.41    1.42
   6  -3  -5   11.26    1.63
   6  -3  -5   13.02    1.81
  -6   3   4   43.29    2.46
  -6   3   4   46.71    2.43
  -6   3   4   41.84    2.46
  -6   3   4   42.46    2.62
  -6   3   4   48.56    2.64
  -6   3   4   42.58    2.34
   6  -3  -4   48.38    2.49
   6  -3  -4   46.48    2.31
   6  -3  -4   42.00    2.53
   6  -3  -4   43.01    2.56
   6  -3  -4   45.02    2.72
   6  -3  -4   43.91    2.52
  -6   3   3    2.76    1.27
  -6   3   3    2.90    1.36
  -6   3   3    3.23    1.46
  -6   3   3    3.40    1.13
  -6   3   3    2.40    1.23
  -6   3   3    2.97    1.27
   6  -3  -3    3.24    1.19
   6  -3  -3    3.41    1.30
   6  -3  -3    2.73    1.25
   6  -3  -3    3.95    1.22
   6  -3  -3    4.11    1.17
   6  -3  -3    0.78    1.27
  -6   3   2  569.80   11.20
  -6   3   2  570.00   11.19
  -6   3   2  565.44   11.38
  -6   3   2  562.04   11.15
  -6   3   2  585.08   11.16
  -6   3   2  569.31   11.35
   6  -3  -2  585.76   11.21
   6  -3  -2  576.10   11.17
   6  -3  -2  580.74   11.40
   6  -3  -2  583.20   11.16
   6  -3  -2  587.98   11.42
   6  -3  -2  570.62   11.12
  -6   3   1   51.43    2.47
  -6   3   1   51.34    2.32
  -6   3   1   52.75    2.39
  -6   3   1   54.27    2.32
  -6   3   1   54.34    2.37
  -6   3   1   53.90    2.51
   6  -3  -1   52.88    2.58
   6  -3  -1   51.91    2.34
   6  -3  -1   52.26    2.49
   6  -3  -1   47.86    2.53
   6  -3  -1   48.87    2.30
   6  -3  -1   51.38    2.35
  -6   3   0    1.56    1.21
  -6   3   0    1.01    1.29
  -6   3   0    0.20    1.12
  -6   3   0    0.93    1.08
  -6   3   0   -0.83    1.09
  -6   3   0    0.95    1.12
   6  -3   0   -1.85    1.08
   6  -3   0   -0.52    1.34
   6  -3   0    1.28    1.06
   6  -3   0    1.53    1.22
   6  -3   0   -0.57    1.31
   6  -3   0    0.37    1.07
   6   3   1   42.48    1.66
   6   3   1   37.30    1.65
  -6   3  -1   35.55    2.05
  -6   3  -1   36.81    2.06
  -6   3  -1   39.48    2.07
   6   3   1   38.19    1.48
  -6   3  -1   42.02    2.37
  -6   3  -1   38.84    2.16
  -6   3  -1   42.27    2.39
   6   3   1   39.95    1.59
  -6  -3  -1   43.08    1.53
   6  -3   1   36.70    2.47
   6  -3   1   37.33    2.08
   6  -3   1   39.32    2.28
   6  -3   1   38.23    2.17
   6  -3   1   34.86    2.22
   6  -3   1   36.88    2.37
   6   3   2    5.44    1.03
   6   3   2    4.36    0.89
  -6   3  -2    3.60    1.14
  -6   3  -2    4.07    1.23
   6   3   2    4.32    0.96
  -6   3  -2    4.43    1.17
   6   3   2    5.56    1.01
  -6   3  -2    3.44    1.36
   6   3   2    4.31    1.02
  -6   3  -2    4.19    1.04
  -6   3  -2    5.53    1.41
   6  -3   2    3.22    1.17
   6  -3   2    6.10    1.51
   6  -3   2    4.49    1.38
  -6  -3  -2    5.05    1.00
   6  -3   2    3.34    1.27
  -6  -3  -2    4.71    0.96
  -6  -3  -2    4.32    0.82
   6  -3   2    4.84    1.35
   6  -3   2    4.94    1.18
   6   3   3    0.91    1.14
  -6   3  -3   -1.24    1.22
  -6   3  -3    1.72    1.41
  -6   3  -3    1.59    1.15
  -6   3  -3    2.36    1.29
  -6   3  -3    1.56    1.31
   6   3   3    3.01    1.03
   6   3   3    3.17    1.09
  -6   3  -3    2.92    1.29
   6   3   3    0.63    1.07
   6   3   3    1.38    1.13
   6  -3   3    0.97    1.30
   6  -3   3   -1.56    1.36
  -6  -3  -3    1.43    1.00
  -6  -3  -3    2.61    0.96
   6  -3   3    1.28    1.55
   6  -3   3    3.31    1.38
  -6  -3  -3    2.82    1.13
  -6  -3  -3    0.59    1.08
   6  -3   3    1.73    1.22
   6  -3   3    1.49    1.28
  -6   3  -4    4.76    1.74
   6   3   4    7.93    1.37
   6   3   4    7.84    1.41
  -6   3  -4    7.73    1.39
   6   3   4    7.23    1.38
  -6   3  -4    9.23    1.38
   6   3   4    8.37    1.45
   6   3   4    9.50    1.63
  -6   3  -4    9.74    1.58
  -6   3  -4    5.95    1.35
   6   3   4    9.76    1.34
  -6   3  -4    8.10    1.60
   6  -3   4    8.29    1.61
   6  -3   4    7.43    1.63
  -6  -3  -4    7.47    1.23
  -6  -3  -4    8.17    0.98
   6  -3   4    6.79    1.64
   6  -3   4    8.29    1.49
  -6  -3  -4    6.11    1.35
   6  -3   4    6.30    1.47
  -6  -3  -4    7.33    1.21
   6  -3   4    5.19    1.45
  -6   3  -5   18.30    3.54
   6   3   5   21.03    1.70
  -6   3  -5   20.29    1.91
   6   3   5   25.60    2.46
   6   3   5   22.22    2.02
   6   3   5   20.89    1.80
  -6   3  -5   22.66    1.89
   6   3   5   20.43    1.91
  -6   3  -5   19.81    1.90
   6   3   5   24.40    1.87
  -6   3  -5   21.10    1.93
  -6   3  -5   25.33    1.90
  -6  -3  -5   20.80    1.76
   6  -3   5   23.93    1.89
  -6  -3  -5   20.95    1.63
  -6  -3  -5   20.95    1.79
   6  -3   5   18.65    1.95
   6  -3   5   23.98    1.93
  -6  -3  -5   20.62    1.58
  -6  -3  -5   23.61    2.06
  -6  -3  -5   22.33    2.03
   6  -3   5   22.85    2.27
   6  -3   5   16.50    1.78
   6  -3   5   21.22    1.85
   6   3   6   11.81    2.02
   6   3   6   11.79    1.85
  -6   3  -6    9.93    1.74
   6   3   6   10.43    2.02
  -6   3  -6   13.60    1.78
   6   3   6   10.66    1.90
  -6   3  -6    9.35    1.89
  -6   3  -6   14.73    1.77
   6   3   6    9.97    1.67
  -6   3  -6    7.49    2.10
   6   3   6   12.33    1.95
  -6   3  -6   12.67    1.87
   6  -3   6   12.61    2.19
  -6  -3  -6   11.04    1.82
   6  -3   6   11.79    1.82
   6  -3   6    9.69    2.15
  -6  -3  -6   13.57    1.77
  -6  -3  -6   14.70    1.70
   6  -3   6   15.36    2.02
   6  -3   6   13.26    2.00
   6  -3   6   15.62    3.68
  -6  -3  -6   13.44    1.73
  -6  -3  -6   15.33    1.60
  -6  -3  -6   12.91    1.51
   6   3   7   -0.83    1.86
   6   3   7    1.96    2.04
   6   3   7    5.77    2.34
   6   3   7    6.56    1.88
  -6   3  -7    7.10    1.97
   6   3   7    7.43    1.98
  -6   3  -7    2.17    2.18
  -6   3  -7    5.69    2.11
  -6   3  -7    4.26    1.82
  -6   3  -7    2.69    1.84
  -6   3  -7    1.81    1.74
   6   3   7    5.99    2.12
   6  -3   7    3.27    1.88
  -6  -3  -7   -0.21    1.89
  -6  -3  -7    4.71    1.68
  -6  -3  -7    4.98    1.64
   6  -3   7    2.88    2.07
   6  -3   7    1.79    2.39
   6  -3   7    1.44    2.28
   6  -3   7    2.49    2.09
  -6  -3  -7    2.74    1.60
   6  -3   7    0.99    2.06
  -6  -3  -7    4.38    1.70
  -6  -3  -7    4.23    1.90
  -6   4   7   43.17    3.98
   6   4  -7   44.91    2.76
   6   4  -7   46.51    2.59
  -6   4   7   44.36    3.73
  -6   4   7   49.15    4.04
  -6   4   7   44.28    3.69
  -6   4   7   44.14    3.66
  -6   4   7   47.91    3.84
   6  -4  -7   50.13    4.22
   6  -4  -7   48.68    3.78
   6  -4  -7   45.01    3.93
   6  -4  -7   47.70    3.37
   6  -4  -7   42.44    3.74
   6  -4  -7   45.01    3.89
   6   4  -6    3.51    1.17
  -6   4   6    3.83    1.88
  -6   4   6    0.58    1.71
   6   4  -6    1.34    1.26
  -6   4   6    2.72    1.83
  -6   4   6    4.68    2.08
  -6   4   6    3.92    1.85
  -6   4   6    0.29    1.66
   6  -4  -6   -0.38    1.99
   6  -4  -6    1.81    1.95
   6  -4  -6   -0.26    1.63
   6  -4  -6    3.07    2.91
   6  -4  -6    3.13    2.05
  -6   4   5    0.22    1.65
  -6   4   5    1.64    1.91
  -6   4   5    2.62    1.64
  -6   4   5    0.46    1.70
  -6   4   5    0.74    1.63
  -6   4   5    1.10    1.74
   6  -4  -5    0.23    1.67
   6  -4  -5    0.88    1.97
   6  -4  -5   -0.64    1.47
   6  -4  -5   -1.99    1.59
   6  -4  -5   -2.79    1.65
   6  -4  -5    0.09    2.04
  -6   4   4    9.68    1.99
  -6   4   4    7.58    1.76
  -6   4   4    9.08    1.61
  -6   4   4   11.42    1.72
  -6   4   4   14.35    1.93
  -6   4   4   11.22    1.76
   6  -4  -4    9.59    1.78
   6  -4  -4   11.41    1.76
   6  -4  -4   13.36    1.91
   6  -4  -4    9.58    1.77
   6  -4  -4   14.52    1.82
   6  -4  -4    8.80    1.90
  -6   4   3    8.02    1.60
  -6   4   3    9.60    3.05
  -6   4   3    9.13    1.59
  -6   4   3    7.98    1.58
  -6   4   3    9.40    1.67
  -6   4   3   11.20    1.60
   6  -4  -3    8.59    1.57
   6  -4  -3    7.00    1.49
   6  -4  -3    6.22    1.69
   6  -4  -3    7.00    1.47
   6  -4  -3    7.38    1.94
   6  -4  -3    8.80    1.78
  -6   4   2    5.69    1.58
  -6   4   2    7.61    1.62
  -6   4   2   11.86    1.72
  -6   4   2    5.94    1.61
  -6   4   2    6.48    1.52
   6  -4  -2    6.86    1.61
   6  -4  -2    5.93    1.49
   6  -4  -2    9.88    1.94
   6  -4  -2    6.02    1.52
   6  -4  -2    5.55    1.71
   6  -4  -2    9.23    1.54
  -6   4   1   50.13    2.86
  -6   4   1   55.83    2.81
  -6   4   1   56.03    2.98
  -6   4   1   53.28    2.74
  -6   4   1   55.91    3.17
  -6   4   1   52.93    3.12
   6  -4  -1   53.78    3.00
   6  -4  -1   48.75    3.01
   6  -4  -1   54.57    2.99
   6  -4  -1   46.85    2.70
   6  -4  -1   54.10    3.23
   6  -4  -1   54.65    2.67
  -6   4   0    7.51    1.66
   6   4   0    5.86    1.05
   6   4   0    6.36    1.09
  -6   4   0    3.85    1.39
  -6   4   0    6.31    1.94
  -6   4   0    2.93    1.41
  -6   4   0    4.74    1.55
  -6   4   0    3.71    1.53
   6  -4   0    3.62    1.41
   6  -4   0    3.07    1.75
   6  -4   0    5.38    1.52
   6  -4   0    3.16    1.57
   6  -4   0    5.48    1.42
   6  -4   0    3.09    1.64
   6   4   1   -0.04    1.10
  -6   4  -1    1.49    1.90
   6   4   1    0.45    1.36
  -6   4  -1    1.68    1.36
  -6   4  -1   -1.07    1.44
   6   4   1    0.13    1.08
   6   4   1    0.21    1.07
  -6   4  -1   -2.32    1.46
  -6   4  -1   -1.40    1.20
   6  -4   1   -2.14    1.54
   6  -4   1   -0.44    1.33
   6  -4   1   -0.95    1.54
   6  -4   1    0.70    1.49
  -6  -4  -1   -1.06    0.97
   6  -4   1    0.26    1.32
   6  -4   1   -1.64    1.52
   6   4   2    8.15    1.30
  -6   4  -2    7.72    1.68
   6   4   2   10.18    1.18
  -6   4  -2    7.43    1.61
  -6   4  -2    9.04    1.63
   6   4   2    8.23    1.36
  -6   4  -2    8.48    1.56
   6   4   2    8.07    1.36
  -6   4  -2   10.24    1.89
  -6   4  -2    7.93    1.36
   6   4   2   10.07    1.37
  -6  -4  -2    9.55    1.28
  -6  -4  -2    8.66    1.30
   6  -4   2    9.16    1.52
  -6  -4  -2    9.79    1.27
   6  -4   2    8.06    1.44
   6  -4   2    8.28    1.92
   6  -4   2    7.75    1.81
   6  -4   2    8.18    1.64
   6  -4   2    9.57    1.61
  -6  -4  -2    8.38    1.11
  -6   4  -3   67.25    3.18
  -6   4  -3   62.01    3.33
  -6   4  -3   69.53    2.98
   6   4   3   64.90    2.70
   6   4   3   68.18    2.95
   6   4   3   54.78    2.80
   6   4   3   69.07    2.89
  -6   4  -3   65.66    3.14
  -6   4  -3   66.06    3.16
  -6   4  -3   59.82    3.33
  -6  -4  -3   64.65    2.64
   6  -4   3   69.86    3.37
  -6  -4  -3   63.84    2.78
   6  -4   3   66.40    3.62
  -6  -4  -3   68.66    2.61
   6  -4   3   67.75    3.01
   6  -4   3   70.48    3.49
   6  -4   3   65.73    3.39
  -6  -4  -3   64.12    2.84
   6  -4   3   69.24    3.00
   6   4   4    5.78    1.49
  -6   4  -4   -0.19    1.71
  -6   4  -4    3.70    1.74
   6   4   4   -0.04    2.45
   6   4   4    2.63    1.58
  -6   4  -4    3.80    1.69
  -6   4  -4    1.93    1.47
  -6   4  -4    0.52    1.82
   6   4   4    2.92    1.59
   6   4   4    1.48    1.52
  -6   4  -4    4.13    1.76
   6  -4   4    4.60    1.98
  -6  -4  -4    1.09    1.36
  -6  -4  -4    3.84    1.47
   6  -4   4    2.51    1.78
   6  -4   4    0.74    1.57
   6  -4   4    6.04    2.21
   6  -4   4    2.15    1.66
   6  -4   4    0.05    1.84
  -6  -4  -4    6.34    1.55
  -6  -4  -4    3.33    1.42
  -6   4  -5   14.73    2.34
  -6   4  -5   12.33    1.95
   6   4   5   13.32    1.97
   6   4   5    9.86    1.85
   6   4   5   15.01    1.99
  -6   4  -5   13.77    1.99
  -6   4  -5   13.91    2.10
   6   4   5   10.71    2.15
   6   4   5   14.62    1.80
   6   4   5   13.57    1.92
  -6   4  -5   14.37    2.35
  -6   4  -5   12.34    2.00
   6  -4   5   13.85    2.37
   6  -4   5   13.24    2.29
  -6  -4  -5   12.64    1.80
  -6  -4  -5   15.45    1.93
  -6  -4  -5   14.64    1.78
  -6  -4  -5   15.23    1.88
   6  -4   5   16.58    2.23
   6  -4   5   13.71    1.94
   6  -4   5   10.59    2.40
   6  -4   5   15.23    2.18
  -6   5   3    6.51    1.91
  -6   5   3    4.56    1.88
  -6   5   3    7.82    2.28
  -6   5   3    5.74    2.06
  -6   5   3    5.80    2.02
  -6   5   3    6.91    2.12
   6  -5  -3    4.36    1.79
   6  -5  -3    5.20    2.19
   6  -5  -3    0.80    2.22
   6  -5  -3    2.03    1.92
   6  -5  -3    5.04    1.90
   6  -5  -3    3.89    2.23
  -6   5   2   30.35    2.26
  -6   5   2   27.34    2.24
  -6   5   2   27.70    2.46
  -6   5   2   27.49    2.60
  -6   5   2   36.69    3.42
  -6   5   2   30.41    2.43
   6  -5  -2   25.54    2.53
   6  -5  -2   30.68    2.94
   6  -5  -2   31.78    2.36
   6  -5  -2   31.99    2.46
   6  -5  -2   36.73    3.67
  -6   5   1    3.02    1.94
  -6   5   1   -1.05    1.96
  -6   5   1   -0.63    1.76
  -6   5   1   -0.18    1.92
  -6   5   1    0.11    1.91
   6   5  -1    1.25    1.30
   6   5  -1    1.19    1.41
  -6   5   1   -1.10    1.66
   6  -5  -1    1.87    1.96
   6  -5  -1   -2.07    2.13
   6  -5  -1   -0.81    2.09
   6  -5  -1   -1.51    1.58
   6  -5  -1   -1.61    2.05
   6  -5  -1    0.43    2.08
  -6   5   0    0.49    1.78
  -6   5   0    2.04    1.98
  -6   5   0   -0.32    2.04
   6   5   0    3.37    1.54
   6   5   0    3.34    1.48
  -6   5   0    2.45    1.90
  -6   5   0    6.67    1.99
  -6   5   0   -0.82    1.71
   6  -5   0    0.98    1.92
   6  -5   0    0.25    2.12
   6  -5   0    3.72    2.19
   6  -5   0    1.09    1.60
   6  -5   0    1.95    2.02
   6  -5   0    0.07    1.58
  -6   5  -1    7.48    1.91
   6   5   1    8.34    1.49
   6   5   1   13.08    1.72
  -6   5  -1   10.26    2.05
  -6   5  -1   10.37    1.96
  -6   5  -1   12.32    2.12
   6   5   1    8.73    1.78
  -6   5  -1    9.44    2.23
  -6   5  -1   14.19    2.11
   6   5   1   11.35    1.35
   6  -5   1    6.53    2.21
   6  -5   1   11.37    2.26
   6  -5   1    9.63    2.17
   6  -5   1   11.01    1.75
   6  -5   1    9.29    2.04
   6  -5   1   12.31    1.79
   6   5   2    3.51    1.59
  -6   5  -2    5.20    2.09
   6   5   2    5.37    1.76
  -6   5  -2    7.87    2.29
  -6   5  -2    4.18    1.77
   6   5   2    6.74    1.62
  -6   5  -2    5.55    2.15
  -6   5  -2    5.79    2.06
  -6   5  -2    5.97    1.90
  -6  -5  -2    8.02    1.52
  -6  -5  -2    6.84    1.64
   6  -5   2    4.90    2.27
   6  -5   2   11.08    2.33
   6  -5   2    3.77    1.72
   6  -5   2   10.17    2.42
   7   0 -11   -0.04    2.04
  -7   0  11    1.39    2.24
   7   0 -11   -1.08    1.85
  -7   0  11    1.81    2.09
   7   0 -11    0.96    1.79
   7   0 -11    0.23    2.04
  -7   0  11   -1.18    1.70
   7   0 -11   -1.21    1.88
  -7   0  11   -1.93    2.05
  -7   0  11    2.93    2.43
   7   0 -11   -0.47    1.89
  -7   0  11    0.16    1.83
   7   0 -10  110.25    3.83
  -7   0  10  111.15    3.66
  -7   0  10  115.73    4.09
  -7   0  10  114.44    3.78
   7   0 -10  106.15    4.12
  -7   0  10  116.14    4.46
   7   0 -10  110.40    4.19
   7   0 -10  114.80    3.90
   7   0 -10  114.14    3.89
  -7   0  10  107.97    4.29
   7   0 -10  115.69    4.00
   7   0  -9   -0.96    1.37
  -7   0   9    0.13    1.59
  -7   0   9    1.89    1.29
   7   0  -9    2.58    1.55
   7   0  -9    1.76    1.44
  -7   0   9   -1.52    1.39
   7   0  -9   -0.17    1.28
   7   0  -9    0.25    1.35
  -7   0   9   -0.53    1.52
  -7   0   9    2.24    1.62
  -7   0   9    0.18    1.35
  -7   0   8   22.44    1.97
   7   0  -8   24.39    2.43
  -7   0   8   21.92    1.51
   7   0  -8   23.58    2.25
  -7   0   8   21.05    2.97
   7   0  -8   22.82    1.69
   7   0  -8   19.67    1.52
  -7   0   8   20.87    1.58
  -7   0   8   20.90    2.09
  -7   0   8   20.45    1.68
   7   0  -8   24.64    2.11
   7   0  -8   23.57    1.87
  -7   0   7   -0.89    1.00
  -7   0   7   -0.36    1.10
   7   0  -7   -0.41    0.95
   7   0  -7    0.39    1.11
  -7   0   7   -1.28    1.27
  -7   0   7    0.17    1.09
   7   0  -7    1.13    1.12
   7   0  -7    0.41    1.03
   7   0  -7   -0.26    1.08
  -7   0   7   -0.19    0.96
  -7   0   7   -0.44    0.93
   7   0  -7   -1.07    1.02
  -7   0   6  198.36    4.19
   7   0  -6  193.32    4.45
   7   0  -6  196.41    4.48
  -7   0   6  197.24    4.27
   7   0  -6  198.11    4.32
  -7   0   6  196.15    4.40
  -7   0   6  196.35    4.48
  -7   0   6  200.40    4.18
  -7   0   6  191.49    4.31
   7   0  -6  196.56    4.29
   7   0  -6  193.21    4.35
   7   0  -6  204.11    4.32
   7   0  -5    0.32    0.80
  -7   0   5    1.16    0.84
  -7   0   5    0.41    0.65
  -7   0   5    1.21    0.76
   7   0  -5   -0.15    0.74
   7   0  -5    1.79    0.87
  -7   0   5   -0.61    0.71
   7   0  -5    1.01    0.82
  -7   0   5    0.95    0.83
  -7   0   5    0.25    0.90
   7   0  -5    0.91    0.78
   7   0  -5    0.14    0.86
  -7   0   4  927.52   16.91
  -7   0   4  922.58   16.95
   7   0  -4  892.42   16.94
  -7   0   4  924.07   16.97
   7   0  -4  911.87   16.96
   7   0  -4  921.68   17.08
   7   0  -4  908.97   17.00
  -7   0   4  917.38   17.07
  -7   0   4  935.27   16.90
   7   0  -4  922.81   17.10
   7   0  -4  929.44   16.99
  -7   0   3   -0.49    0.57
  -7   0   3    0.83    0.66
  -7   0   3   -0.76    0.59
   7   0  -3   -0.02    0.68
   7   0  -3    0.63    0.66
  -7   0   3   -0.92    0.73
   7   0  -3    0.90    0.75
  -7   0   3   -0.53    0.63
   7   0  -3   -0.38    0.77
   7   0  -3    0.37    0.66
   7   0  -3   -0.04    0.68
   7   0  -2  506.45    9.51
   7   0  -2  515.38    9.53
   7   0  -2  498.51    9.51
  -7   0   2  509.98    9.50
   7   0  -2  512.86    9.62
  -7   0   2  507.17    9.51
  -7   0   2  529.13    9.62
   7   0  -2  488.71    9.53
  -7   0   2  522.78    9.46
   7   0  -2  514.29    9.65
  -7   0   2  502.93    9.46
   7   0  -1   -0.69    0.72
  -7   0   1   -0.81    0.73
  -7   0   1    0.08    0.60
   7   0  -1   -0.20    0.57
  -7   0   1   -0.72    0.63
   7   0  -1   -1.10    0.63
  -7   0   1   -0.84    0.53
   7   0  -1   -0.63    0.64
  -7   0   1   -0.74    0.60
   7   0  -1   -0.25    0.71
  -7   0   0  469.77    8.91
  -7   0   0  485.04    9.02
   7   0   0  469.24    8.91
   7   0   0  473.26    8.93
  -7   0   0  469.79    8.90
   7   0   0  469.24    9.02
  -7   0   0  490.78    8.89
   7   0   0  472.65    8.93
   7   0   0  482.62    8.94
  -7   0   0  476.27    8.92
   7   0   0  469.52    9.02
   7   0   1   -0.41    0.70
  -7   0  -1    0.87    0.76
  -7   0  -1   -0.48    0.70
  -7   0  -1   -0.62    0.79
   7   0   1   -1.62    0.84
   7   0   1    0.06    0.70
   7   0   1   -0.26    0.72
  -7   0  -1   -0.24    0.65
   7   0   1    0.46    0.73
  -7   0  -1   -0.44    0.64
  -7   0  -1   -0.18    0.66
   7   0   1    0.58    0.81
  -7   0  -2  545.94   10.23
  -7   0  -2  537.14   10.25
  -7   0  -2  550.97   10.39
   7   0   2  539.03   10.26
   7   0   2  539.44   10.26
  -7   0  -2  556.21   10.39
  -7   0  -2  539.33   10.21
  -7   0  -2  533.64   10.22
   7   0   2  544.83   10.40
   7   0   2  535.71   10.25
   7   0   2  547.31   10.41
   7   0   2  526.33   10.22
   7   0   3    0.41    0.92
   7   0   3    1.77    1.04
  -7   0  -3    1.63    0.90
   7   0   3    0.21    0.89
  -7   0  -3    0.23    0.82
  -7   0  -3    0.31    0.88
  -7   0  -3    1.38    0.96
   7   0   3    0.58    0.81
   7   0   3    0.40    0.94
  -7   0  -3    0.83    0.82
  -7   0  -3   -0.10    0.81
   7   0   3    0.44    1.02
  -7   0  -4  124.05    3.44
  -7   0  -4  129.51    3.22
  -7   0  -4  127.78    3.19
   7   0   4  124.10    3.29
   7   0   4  128.19    3.50
   7   0   4  127.89    3.32
  -7   0  -4  130.35    3.20
   7   0   4  130.40    3.51
   7   0   4  125.32    3.25
   7   0   4  123.04    3.28
  -7   0  -4  126.54    3.39
  -7   0  -4  125.77    3.19
  -7   0  -5    0.26    1.15
  -7   0  -5   -0.85    1.00
   7   0   5   -3.81    1.34
   7   0   5   -0.56    1.30
   7   0   5   -0.31    1.13
  -7   0  -5   -2.01    0.94
  -7   0  -5    0.41    1.29
   7   0   5   -1.78    1.17
  -7   0  -5    0.37    0.98
   7   0   5   -2.02    1.18
   7   0   5   -2.08    1.09
  -7   0  -5   -0.85    1.11
  -7   0  -6    7.57    1.63
  -7   0  -6   11.06    1.37
  -7   0  -6    8.47    1.35
   7   0   6    7.09    1.40
   7   0   6    7.72    1.46
   7   0   6   10.09    1.83
   7   0   6    6.58    1.54
   7   0   6   10.59    1.50
   7   0   6    5.46    1.53
  -7   0  -6    8.60    1.29
   7   0   7    0.54    1.59
  -7   0  -7   -0.47    1.37
  -7   0  -7    1.91    1.39
   7   0   7   -3.07    1.84
  -7   0  -7    0.57    1.49
  -7   0  -7   -0.73    1.31
   7   0   7    1.22    1.75
   7   0   7   -0.11    1.70
   7   0   7    0.31    1.67
  -7   0  -7    0.28    1.25
   7   0   7    4.25    2.89
   7   0   8   54.42    3.97
   7   0   8   60.41    3.64
   7   0   8   64.64    3.66
  -7   0  -8   64.55    3.43
   7   0   8   59.17    3.86
  -7   0  -8   65.22    3.75
   7   0   8   64.35    3.92
  -7   0  -8   55.01    3.32
   7   0   8   59.50    3.61
  -7   0  -8   57.00    3.44
  -7   0  -8   63.99    3.37
  -7   0  -8   64.63    3.22
   7   0   9    7.54    4.12
  -7   0  -9    2.72    1.90
   7   0   9    4.54    2.48
  -7   0  -9    0.78    1.71
   7   0   9   -3.25    2.32
   7   0   9   -1.46    2.10
   7   0   9    0.50    4.52
  -7   0  -9    0.12    1.87
  -7   0  -9   -2.08    1.99
   7   0   9    3.47    2.13
  -7   0  -9   -1.47    1.66
  -7   0  -9    0.09    2.26
  -7   1  10   10.62    1.79
   7   1 -10    5.49    1.69
  -7   1  10    8.58    2.16
   7   1 -10    7.66    1.64
  -7   1  10    6.94    1.86
  -7   1  10    5.00    1.87
   7   1 -10    6.59    1.77
  -7   1  10    5.72    2.39
   7   1 -10    5.25    1.78
  -7   1  10    6.07    2.00
   7   1 -10    8.89    1.70
   7   1 -10    9.49    1.64
  -7  -1  10    9.66    1.90
  -7  -1  10    5.92    1.99
   7  -1 -10   11.22    2.12
  -7  -1  10    5.93    2.02
   7  -1 -10    7.38    2.00
  -7  -1  10    8.79    1.92
  -7  -1  10    8.36    1.43
   7  -1 -10    7.33    1.86
   7  -1 -10    7.58    1.78
   7  -1 -10    6.99    1.69
  -7  -1  10    7.67    1.41
   7  -1 -10   10.14    1.89
  -7   1   9   11.90    1.95
   7   1  -9    8.20    1.62
  -7   1   9    7.19    1.81
  -7   1   9    5.46    1.72
   7   1  -9    7.73    1.50
  -7   1   9    7.34    1.77
   7   1  -9    8.21    1.48
   7   1  -9    7.29    1.37
   7   1  -9    9.14    1.40
  -7   1   9    9.39    1.83
  -7   1   9    5.48    1.66
  -7  -1   9   10.49    1.26
  -7  -1   9    9.31    1.66
  -7  -1   9    6.41    1.56
   7  -1  -9   10.17    1.54
   7  -1  -9    5.87    1.50
  -7  -1   9    9.71    1.21
   7  -1  -9    9.17    1.72
   7  -1  -9    9.61    1.76
   7  -1  -9    9.04    1.66
   7  -1  -9    7.40    2.43
  -7  -1   9    4.34    1.68
  -7  -1   9    6.25    1.79
  -7   1   8   62.78    2.83
   7   1  -8   62.82    2.67
   7   1  -8   62.35    2.64
  -7   1   8   63.22    3.04
   7   1  -8   65.93    2.62
  -7   1   8   64.84    2.86
  -7   1   8   61.07    2.88
  -7   1   8   68.41    2.71
  -7   1   8   67.65    3.21
   7   1  -8   64.40    2.47
   7   1  -8   62.18    2.47
   7  -1  -8   69.60    2.84
  -7  -1   8   62.96    2.78
  -7  -1   8   64.67    2.67
   7  -1  -8   64.18    3.03
   7  -1  -8   62.13    3.43
   7  -1  -8   62.75    3.04
  -7  -1   8   61.00    2.11
   7  -1  -8   63.59    3.07
  -7  -1   8   60.19    2.59
   7  -1  -8   59.20    2.79
   7   1  -7   23.65    1.93
  -7   1   7   26.30    2.24
   7   1  -7   22.55    1.75
  -7   1   7   21.80    1.92
   7   1  -7   20.32    1.79
  -7   1   7   22.63    1.82
   7   1  -7   19.77    1.97
  -7   1   7   24.97    2.09
  -7   1   7   22.74    2.10
   7   1  -7   22.81    1.78
  -7   1   7   21.70    2.20
   7   1  -7   23.65    1.89
  -7  -1   7   21.00    2.01
   7  -1  -7   22.39    2.09
   7  -1  -7   25.31    2.14
   7  -1  -7   22.74    2.28
   7  -1  -7   23.87    2.31
   7  -1  -7   22.09    1.60
   7  -1  -7   22.15    1.62
  -7  -1   7   24.55    1.95
  -7  -1   7   25.06    1.90
  -7  -1   7   21.79    1.86
   7   1  -6    4.62    1.00
  -7   1   6    6.74    1.11
   7   1  -6    4.97    0.90
  -7   1   6    5.48    1.01
   7   1  -6    4.07    0.94
   7   1  -6    5.12    0.89
  -7   1   6    6.18    1.22
  -7   1   6    3.94    1.20
   7   1  -6    4.64    0.98
   7   1  -6    4.79    0.89
  -7   1   6    4.87    1.02
  -7   1   6    3.97    1.16
  -7  -1   6    6.49    0.95
   7  -1  -6    6.53    1.22
   7  -1  -6    6.07    1.14
   7  -1  -6    4.80    1.04
   7  -1  -6    6.01    1.24
   7  -1  -6    5.64    1.05
  -7  -1   6    6.00    1.07
   7  -1  -6    4.31    1.18
  -7   1   5    1.10    0.89
   7   1  -5    0.79    0.73
  -7   1   5    0.61    0.89
   7   1  -5    1.34    0.78
   7   1  -5    1.28    0.76
  -7   1   5    0.78    0.86
  -7   1   5    1.45    1.02
   7   1  -5    2.52    0.70
   7   1  -5    0.25    0.78
  -7   1   5    0.58    0.90
   7   1  -5    0.79    0.69
  -7   1   5    1.41    0.95
   7  -1  -5    1.19    1.21
   7  -1  -5    0.24    1.07
   7  -1  -5    0.98    0.86
  -7  -1   5    1.38    0.76
   7  -1  -5   -0.16    0.87
  -7  -1   5   -0.37    0.72
   7  -1  -5    0.36    0.95
   7  -1  -5    0.83    1.00
  -7  -1   5    0.05    0.67
  -7  -1   5    0.52    0.81
  -7   1   4   70.71    2.13
   7   1  -4   64.95    1.84
  -7   1   4   67.80    2.16
  -7   1   4   68.79    2.11
   7   1  -4   69.00    1.75
  -7   1   4   70.96    2.12
   7   1  -4   64.18    1.71
   7   1  -4   69.66    1.88
  -7   1   4   70.10    2.32
  -7   1   4   69.14    2.26
   7   1  -4   64.53    1.76
   7   1  -4   68.91    1.80
   7  -1  -4   69.11    2.20
   7  -1  -4   69.57    2.28
  -7  -1   4   68.52    1.67
   7  -1  -4   70.03    2.15
   7  -1  -4   71.52    2.37
  -7  -1   4   69.46    1.82
  -7  -1   4   68.91    1.85
   7  -1  -4   69.79    2.18
   7  -1  -4   71.65    2.18
  -7  -1   4   69.73    1.77
  -7   1   3  279.21    5.66
   7   1  -3  279.09    5.33
  -7   1   3  283.53    5.65
  -7   1   3  283.11    5.65
  -7   1   3  282.90    5.80
  -7   1   3  286.07    5.79
  -7   1   3  283.12    5.66
   7  -1  -3  284.45    5.69
   7  -1  -3  276.32    5.70
   7  -1  -3  277.09    5.81
   7  -1  -3  283.31    5.67
   7  -1  -3  287.76    5.84
  -7  -1   3  283.93    5.32
   7  -1  -3  280.78    5.67
  -7   1   2  369.41    7.30
  -7   1   2  377.64    7.32
  -7   1   2  378.74    7.43
  -7   1   2  388.78    7.47
  -7   1   2  379.04    7.32
  -7   1   2  386.38    7.31
   7  -1  -2  373.89    7.32
   7  -1  -2  381.51    7.34
  -7  -1   2  357.24    6.97
   7  -1  -2  378.95    7.33
   7  -1  -2  370.77    7.35
   7  -1  -2  378.98    7.47
   7  -1  -2  387.60    7.49
  -7   1   1 3921.09   70.20
  -7   1   1 3875.37   69.96
   7   1  -1 4036.05   69.97
  -7   1   1 3844.54   70.34
   7   1  -1 3841.74   69.71
  -7   1   1 3885.45   70.20
  -7   1   1 3827.56   69.95
  -7   1   1 3787.88   70.02
   7  -1  -1 3858.21   69.96
   7  -1  -1 3907.29   69.99
   7  -1  -1 3900.41   70.13
   7  -1  -1 3793.60   69.84
  -7  -1   1 3945.04   70.00
   7  -1  -1 3655.62   69.80
   7  -1  -1 3731.47   69.82
   7   1   0   16.96    1.03
   7   1   0   16.91    1.18
  -7   1   0   22.73    1.23
  -7   1   0   20.51    1.18
   7   1   0   16.32    1.03
  -7   1   0   15.04    1.02
  -7   1   0   22.62    1.46
   7   1   0   16.52    1.01
   7   1   0   18.13    1.14
   7   1   0   17.52    1.06
  -7   1   0   17.61    1.26
   7  -1   0   19.49    1.26
  -7  -1   0   18.48    1.16
   7  -1   0   16.43    1.33
   7  -1   0   12.74    1.17
   7  -1   0   17.36    1.17
  -7  -1   0   17.20    1.13
   7  -1   0   14.07    1.14
  -7  -1   0   18.40    1.01
   7  -1   0   15.51    1.24
   7   1   1  115.04    2.70
  -7   1  -1  112.41    2.82
  -7   1  -1  115.18    2.77
  -7   1  -1  118.87    2.94
   7   1   1  114.66    2.60
   7   1   1  116.84    2.57
   7   1   1  113.61    2.57
  -7   1  -1  111.61    2.77
  -7   1  -1  113.60    2.79
   7   1   1  115.06    2.57
   7   1   1  116.75    2.69
  -7   1  -1  118.42    3.01
  -7  -1  -1  116.13    2.54
   7  -1   1  111.56    2.79
   7  -1   1  115.07    2.80
  -7  -1  -1  116.04    2.67
  -7  -1  -1  116.97    2.42
   7  -1   1  111.31    2.79
  -7  -1  -1  116.38    2.58
   7  -1   1  110.55    2.99
  -7  -1  -1  120.94    2.67
   7  -1   1  115.37    2.84
   7  -1   1  119.77    3.00
  -7  -1  -1  114.94    2.37
  -7   1  -2   72.40    2.16
   7   1   2   72.26    2.19
  -7   1  -2   69.94    2.16
   7   1   2   73.86    2.03
  -7   1  -2   73.25    2.35
   7   1   2   73.73    2.18
  -7   1  -2   72.81    2.21
   7   1   2   70.88    2.08
  -7   1  -2   72.37    2.35
   7   1   2   71.39    2.03
  -7   1  -2   74.23    2.18
   7   1   2   71.79    2.07
  -7  -1  -2   72.28    2.04
  -7  -1  -2   71.85    1.88
  -7  -1  -2   72.77    1.96
  -7  -1  -2   75.72    2.14
   7  -1   2   68.71    2.18
   7  -1   2   72.27    2.27
   7  -1   2   73.36    2.29
   7  -1   2   73.19    2.36
   7  -1   2   72.07    2.48
  -7  -1  -2   74.50    1.93
   7   1   3  142.16    3.33
  -7   1  -3  144.33    3.42
   7   1   3  142.37    3.38
  -7   1  -3  144.53    3.41
  -7   1  -3  141.87    3.63
  -7   1  -3  139.98    3.41
   7   1   3  141.71    3.38
  -7   1  -3  141.29    3.59
  -7   1  -3  139.63    3.41
   7   1   3  141.50    3.50
   7   1   3  143.28    3.36
   7   1   3  139.85    3.51
   7  -1   3  148.99    3.52
   7  -1   3  144.02    3.68
  -7  -1  -3  148.59    3.21
  -7  -1  -3  146.85    3.26
  -7  -1  -3  140.72    3.23
   7  -1   3  141.39    3.68
  -7  -1  -3  143.95    3.44
   7  -1   3  142.28    3.50
   7   1   4   69.61    2.44
   7   1   4   69.71    2.50
   7   1   4   73.21    2.68
  -7   1  -4   71.80    2.45
  -7   1  -4   74.13    2.45
  -7   1  -4   71.88    2.74
   7   1   4   72.42    2.52
  -7   1  -4   76.74    2.71
  -7   1  -4   69.59    2.43
   7   1   4   71.62    2.47
  -7   1  -4   71.61    2.47
   7   1   4   71.74    2.62
   7  -1   4   71.92    2.57
   7  -1   4   74.46    2.75
   7  -1   4   73.34    2.53
  -7  -1  -4   71.67    2.32
  -7  -1  -4   72.59    2.26
   7  -1   4   69.74    2.60
  -7  -1  -4   72.76    2.32
  -7  -1  -4   70.88    2.44
   7  -1   4   72.47    2.49
  -7  -1  -4   71.14    2.54
  -7  -1  -4   72.96    2.30
   7  -1   4   70.53    2.80
  -7   1  -5  195.83    4.63
  -7   1  -5  198.10    4.88
  -7   1  -5  189.53    4.63
   7   1   5  195.28    4.64
   7   1   5  198.47    4.67
   7   1   5  197.25    4.87
   7   1   5  195.80    4.69
  -7   1  -5  199.02    4.64
  -7   1  -5  196.51    4.91
   7   1   5  194.61    4.87
  -7   1  -5  204.08    4.65
   7   1   5  198.77    4.62
   7  -1   5  197.51    4.72
  -7  -1  -5  194.30    4.77
  -7  -1  -5  200.95    4.53
   7  -1   5  195.98    4.94
  -7  -1  -5  200.04    4.52
  -7  -1  -5  201.57    4.72
   7  -1   5  198.20    4.72
  -7  -1  -5  194.11    4.52
   7  -1   5  195.20    4.74
  -7  -1  -5  200.68    4.48
   7  -1   5  197.09    4.65
   7  -1   5  194.20    4.95
  -7   1  -6    8.33    1.72
   7   1   6    9.23    1.50
   7   1   6    8.55    1.59
  -7   1  -6    5.79    1.72
   7   1   6    7.93    1.44
  -7   1  -6    7.21    1.45
  -7   1  -6    6.21    1.65
   7   1   6    6.76    1.60
   7   1   6    8.54    1.83
  -7   1  -6    6.71    1.47
   7   1   6    6.14    1.54
  -7   1  -6    7.84    1.35
   7  -1   6    8.83    1.75
   7  -1   6    4.59    1.66
   7  -1   6    7.17    1.45
   7  -1   6    8.94    1.82
   7  -1   6    6.55    1.47
  -7  -1  -6    8.99    1.59
  -7  -1  -6    8.57    1.59
  -7  -1  -6    8.25    2.03
  -7  -1  -6    6.69    1.33
  -7  -1  -6    9.25    1.29
   7  -1   6    6.40    1.50
  -7  -1  -6    9.21    1.44
  -7   1  -7   49.98    4.71
   7   1   7   48.97    3.34
  -7   1  -7   54.19    3.06
  -7   1  -7   43.36    3.33
   7   1   7   52.69    3.17
  -7   1  -7   55.36    3.20
  -7   1  -7   41.82    3.70
   7   1   7   52.74    3.47
   7   1   7   50.51    3.40
  -7   1  -7   50.23    2.94
   7   1   7   54.13    3.20
   7   1   7   54.81    3.14
  -7  -1  -7   53.95    2.83
  -7  -1  -7   46.58    2.76
   7  -1   7   50.38    3.10
   7  -1   7   45.42    3.45
   7  -1   7   47.35    3.16
   7  -1   7   52.19    3.43
  -7  -1  -7   53.65    2.86
   7  -1   7   50.22    3.52
   7  -1   7   47.90    3.26
  -7  -1  -7   53.97    3.29
   7   1   8   -3.09    1.78
  -7   1  -8   -1.21    1.62
   7   1   8    0.94    1.87
  -7   1  -8    1.65    1.66
   7   1   8   -1.11    2.27
   7   1   8    2.45    2.09
   7   1   8    1.66    1.85
  -7   1  -8    1.40    1.81
   7   1   8    0.62    2.04
  -7   1  -8    1.26    1.91
   7  -1   8    1.17    2.11
  -7  -1  -8    2.76    1.68
  -7  -1  -8    0.75    1.51
   7  -1   8   -0.16    1.99
  -7  -1  -8    2.97    1.76
   7  -1   8   -0.54    1.75
  -7  -1  -8   -0.98    2.02
   7  -1   8    0.30    3.83
   7  -1   8   -0.16    1.89
  -7  -1  -8    0.53    1.73
  -7  -1  -8    2.83    1.77
   7  -1   8    1.44    2.05
   7   1   9    0.95    2.24
  -7   1  -9   -3.09    1.78
   7   1   9    0.44    2.10
  -7   1  -9    1.19    2.01
  -7   1  -9   -0.37    2.13
  -7   1  -9   -1.03    1.81
  -7   1  -9   -3.80    2.13
   7   1   9    2.78    2.56
   7   1   9   -4.18    2.42
   7   1   9    0.19    2.49
   7   1   9   -2.06    2.41
  -7   1  -9   -0.65    2.24
  -7  -1  -9   -0.11    1.82
  -7  -1  -9    0.69    2.01
   7  -1   9    1.37    2.39
   7  -1   9    3.83    2.81
   7  -1   9    0.57    2.17
  -7  -1  -9   -0.03    1.84
   7  -1   9   -4.32    2.39
  -7  -1  -9    0.37    2.26
  -7  -1  -9    0.49    1.72
   7  -1   9   -1.00    2.44
  -7  -1  -9    0.30    2.04
   7  -1   9   -4.27    2.43
  -7   2  10    4.02    2.09
   7   2 -10    1.17    1.62
   7   2 -10    1.61    1.56
   7   2 -10    1.90    1.56
   7   2 -10    4.16    1.74
  -7   2  10    1.53    2.07
   7   2 -10   -0.22    1.72
  -7   2  10    1.79    1.86
  -7   2  10    0.56    2.15
  -7   2  10    3.36    2.46
  -7   2  10    1.44    2.09
   7   2 -10   -0.38    1.59
   7  -2 -10    2.04    2.16
  -7  -2  10   -1.17    1.88
   7  -2 -10    1.88    2.18
  -7  -2  10    4.10    1.72
  -7  -2  10    1.54    1.99
   7  -2 -10    4.72    2.12
  -7  -2  10    9.82    1.91
   7  -2 -10    1.11    1.84
   7  -2 -10    0.76    1.89
   7  -2 -10    7.05    2.00
   7   2  -9    3.64    1.40
  -7   2   9    4.61    1.88
   7   2  -9    4.56    1.46
  -7   2   9    3.51    2.17
  -7   2   9    6.62    1.82
  -7   2   9    4.48    1.79
  -7   2   9    3.34    1.97
   7   2  -9    5.08    1.59
   7   2  -9    3.50    1.39
   7   2  -9    4.82    1.58
  -7   2   9    4.48    1.63
   7   2  -9    2.64    1.47
   7  -2  -9    8.73    1.87
  -7  -2   9    7.76    1.67
  -7  -2   9    3.36    1.45
   7  -2  -9    4.73    1.71
   7  -2  -9    5.48    1.74
  -7  -2   9    3.15    1.49
   7  -2  -9    7.68    2.06
   7  -2  -9    6.84    1.66
  -7  -2   9    3.43    1.72
   7   2  -8   13.14    1.44
  -7   2   8   16.79    1.73
  -7   2   8   15.80    1.93
   7   2  -8   16.12    1.56
  -7   2   8   21.36    1.87
   7   2  -8   16.52    1.51
  -7   2   8   18.64    1.98
  -7   2   8   16.57    2.03
  -7   2   8   14.99    1.83
   7   2  -8   18.68    1.41
   7   2  -8   13.15    1.28
   7   2  -8   15.57    1.48
   7  -2  -8   17.82    1.90
  -7  -2   8   14.13    1.61
   7  -2  -8   15.25    1.95
  -7  -2   8   16.51    1.55
   7  -2  -8   12.31    1.80
   7  -2  -8   13.56    1.67
  -7  -2   8   15.23    1.39
   7  -2  -8   15.62    1.88
  -7   2   7   23.34    1.94
  -7   2   7   21.92    2.95
   7   2  -7   24.15    1.71
   7   2  -7   19.66    1.82
   7   2  -7   19.90    1.83
   7   2  -7   17.76    1.75
  -7   2   7   20.47    1.63
  -7   2   7   22.74    2.79
   7   2  -7   19.21    1.91
  -7   2   7   22.55    1.67
   7   2  -7   21.09    1.68
  -7   2   7   19.72    1.95
   7  -2  -7   22.05    1.67
   7  -2  -7   18.64    1.77
   7  -2  -7   24.38    2.13
   7  -2  -7   19.45    1.88
  -7  -2   7   21.11    1.66
   7  -2  -7   21.85    1.66
  -7  -2   7   20.13    1.87
   7  -2  -7   21.54    1.73
  -7  -2   7   19.98    1.83
   7   2  -6   26.13    1.62
  -7   2   6   28.81    2.26
   7   2  -6   28.43    1.65
  -7   2   6   29.80    2.36
   7   2  -6   30.21    1.69
   7   2  -6   27.26    1.45
  -7   2   6   23.22    2.32
  -7   2   6   29.54    2.16
   7   2  -6   26.19    1.55
   7   2  -6   26.44    1.49
  -7   2   6   28.60    2.50
  -7   2   6   27.42    2.27
   7  -2  -6   26.98    2.45
   7  -2  -6   27.87    2.29
  -7  -2   6   28.65    1.58
   7  -2  -6   28.01    2.20
  -7  -2   6   27.13    1.60
   7  -2  -6   28.96    2.17
   7  -2  -6   29.13    2.44
   7  -2  -6   28.79    2.26
  -7   2   5   72.10    2.67
  -7   2   5   78.49    2.64
  -7   2   5   76.57    2.75
  -7   2   5   75.25    2.58
  -7   2   5   73.21    2.81
  -7   2   5   74.04    2.60
   7  -2  -5   73.51    2.89
   7  -2  -5   75.27    2.64
   7  -2  -5   71.36    2.62
   7  -2  -5   75.24    2.63
   7  -2  -5   73.17    2.68
   7  -2  -5   77.54    2.87
  -7   2   4   37.66    1.97
  -7   2   4   40.40    2.18
  -7   2   4   40.99    2.04
  -7   2   4   38.01    2.22
  -7   2   4   40.03    1.98
  -7   2   4   36.65    2.05
   7  -2  -4   38.66    2.31
   7  -2  -4   39.84    2.06
   7  -2  -4   35.50    2.05
   7  -2  -4   37.18    2.07
   7  -2  -4   36.56    1.99
   7  -2  -4   38.43    2.19
  -7   2   3  278.08    5.80
  -7   2   3  279.53    5.79
  -7   2   3  275.61    5.96
  -7   2   3  273.89    5.78
  -7   2   3  283.14    5.77
  -7   2   3  280.18    5.96
   7  -2  -3  282.99    5.80
   7  -2  -3  274.22    5.97
   7  -2  -3  280.17    5.81
   7  -2  -3  285.27    6.02
   7  -2  -3  270.44    5.81
   7  -2  -3  277.29    5.78
  -7   2   2    2.51    1.09
  -7   2   2    2.56    1.11
  -7   2   2    3.07    0.93
  -7   2   2    3.16    0.90
  -7   2   2    3.38    0.93
  -7   2   2    2.63    0.91
   7  -2  -2    3.48    1.08
   7  -2  -2    2.81    1.11
   7  -2  -2    3.36    0.99
   7  -2  -2    3.77    1.00
   7  -2  -2    1.77    1.02
   7  -2  -2    2.56    1.06
  -7   2   1  533.00   10.52
  -7   2   1  535.22   10.33
  -7   2   1  533.22   10.35
  -7   2   1  549.01   10.41
  -7   2   1  546.28   10.52
  -7   2   1  543.05   10.35
   7  -2  -1  549.88   10.56
   7  -2  -1  545.07   10.37
   7  -2  -1  531.97   10.35
   7  -2  -1  539.58   10.54
   7  -2  -1  525.07   10.33
   7  -2  -1  537.20   10.36
  -7   2   0   32.76    1.80
  -7   2   0   35.11    2.06
  -7   2   0   35.83    2.03
  -7   2   0   36.40    1.73
  -7   2   0   33.11    1.87
   7  -2   0   35.33    1.82
   7  -2   0   35.05    2.06
   7  -2   0   33.37    1.97
   7  -2   0   33.13    1.88
   7  -2   0   36.15    2.13
   7  -2   0   34.98    1.96
   7   2   1   63.62    1.73
  -7   2  -1   64.57    2.45
  -7   2  -1   65.63    2.19
   7   2   1   66.51    1.79
   7   2   1   63.96    1.81
  -7   2  -1   61.73    2.18
   7   2   1   62.52    1.89
   7   2   1   65.12    1.88
  -7   2  -1   61.08    2.17
  -7   2  -1   66.79    2.43
   7   2   1   63.86    1.75
  -7   2  -1   65.48    2.29
  -7  -2  -1   62.86    1.82
   7  -2   1   62.81    2.44
  -7  -2  -1   67.32    1.83
   7  -2   1   63.92    2.38
   7  -2   1   64.57    2.28
  -7  -2  -1   66.74    1.72
   7  -2   1   63.97    2.22
   7  -2   1   64.54    2.50
   7  -2   1   61.11    2.30
   7   2   2   27.74    1.51
  -7   2  -2   27.99    1.84
  -7   2  -2   29.32    2.05
  -7   2  -2   28.59    1.76
  -7   2  -2   28.98    2.01
   7   2   2   31.29    1.56
   7   2   2   31.11    1.62
   7   2   2   27.70    1.64
   7   2   2   28.04    1.65
  -7   2  -2   27.04    1.81
  -7   2  -2   27.39    1.85
   7   2   2   28.39    1.44
  -7  -2  -2   27.34    1.39
   7  -2   2   26.47    1.86
  -7  -2  -2   30.74    1.43
   7  -2   2   25.22    2.10
   7  -2   2   28.89    2.09
  -7  -2  -2   27.21    1.55
   7  -2   2   27.35    1.93
  -7  -2  -2   26.66    1.57
   7  -2   2   30.36    1.98
   7  -2   2   26.92    1.91
  -7   2  -3   -0.30    0.94
  -7   2  -3   -0.83    1.06
   7   2   3    0.55    0.90
  -7   2  -3   -0.67    1.07
   7   2   3    0.20    1.01
  -7   2  -3   -0.32    1.19
  -7   2  -3   -0.08    1.04
   7   2   3   -1.50    0.92
   7   2   3    1.37    1.71
   7   2   3   -0.08    1.05
  -7   2  -3    0.50    1.33
   7   2   3    0.11    0.92
   7  -2   3   -0.02    1.02
  -7  -2  -3   -0.64    0.69
   7  -2   3   -0.67    1.34
   7  -2   3    0.68    1.35
  -7  -2  -3    0.42    0.84
  -7  -2  -3   -0.49    0.83
   7  -2   3   -0.12    1.21
  -7  -2  -3   -0.41    0.72
  -7  -2  -3    0.27    0.92
   7  -2   3   -0.06    1.08
   7  -2   3   -0.08    1.15
  -7   2  -4    9.36    1.47
  -7   2  -4    7.81    1.34
   7   2   4    7.55    1.33
  -7   2  -4    7.23    1.33
  -7   2  -4    8.96    1.24
   7   2   4    6.84    1.19
   7   2   4    6.73    1.20
   7   2   4    6.27    1.35
  -7   2  -4    9.59    1.34
  -7   2  -4   10.19    1.40
   7   2   4    8.02    1.21
   7   2   4   10.58    1.40
  -7  -2  -4    9.35    1.03
  -7  -2  -4    6.76    1.07
  -7  -2  -4    7.27    1.22
   7  -2   4    5.21    1.21
  -7  -2  -4    8.09    1.06
   7  -2   4    8.74    1.33
  -7  -2  -4    6.71    1.09
  -7  -2  -4    5.12    1.19
   7  -2   4    7.48    1.37
   7  -2   4    7.67    1.38
   7  -2   4    5.08    1.45
   7  -2   4    6.69    1.62
  -7   2  -5   54.10    2.74
   7   2   5   57.76    2.69
  -7   2  -5   52.22    2.90
  -7   2  -5   54.96    3.07
   7   2   5   51.52    2.65
  -7   2  -5   50.05    2.57
   7   2   5   56.58    2.72
   7   2   5   53.25    2.91
   7   2   5   55.43    2.81
  -7   2  -5   51.04    2.55
  -7   2  -5   55.54    3.03
   7   2   5   50.29    2.59
  -7  -2  -5   53.16    2.44
  -7  -2  -5   54.12    2.29
  -7  -2  -5   51.57    2.58
   7  -2   5   55.96    2.91
   7  -2   5   54.07    3.16
  -7  -2  -5   54.68    2.48
   7  -2   5   50.66    2.57
   7  -2   5   53.05    3.09
  -7  -2  -5   52.80    2.64
  -7  -2  -5   51.59    2.35
   7  -2   5   59.35    2.94
   7  -2   5   54.53    2.91
  -7   2  -6    5.91    1.88
   7   2   6    2.64    1.55
  -7   2  -6    4.36    1.59
  -7   2  -6    3.25    1.35
   7   2   6    3.69    1.71
  -7   2  -6    3.57    1.56
   7   2   6    4.43    1.70
   7   2   6    2.16    3.21
   7   2   6    4.88    1.68
  -7   2  -6    4.79    1.82
   7   2   6    5.14    1.46
  -7   2  -6    5.50    1.44
  -7  -2  -6    2.30    1.41
  -7  -2  -6    6.51    1.73
  -7  -2  -6    4.91    1.33
   7  -2   6    1.71    1.59
   7  -2   6    0.77    1.81
  -7  -2  -6    4.72    1.39
   7  -2   6    1.59    1.99
   7  -2   6    6.04    1.79
   7  -2   6    2.23    1.62
  -7  -2  -6    1.76    1.50
   7  -2   6    3.09    1.80
  -7  -2  -6    5.55    1.39
   7   2   7   37.82    3.12
   7   2   7   40.14    3.26
  -7   2  -7   32.33    2.30
   7   2   7   38.78    3.57
   7   2   7   35.09    3.38
  -7   2  -7   36.99    3.14
   7   2   7   37.08    3.49
   7   2   7   38.23    3.27
  -7   2  -7   38.02    3.09
  -7   2  -7   34.49    3.08
  -7   2  -7   30.75    2.48
  -7  -2  -7   32.42    3.22
  -7  -2  -7   35.77    2.96
   7  -2   7   36.61    3.49
   7  -2   7   36.29    3.01
  -7  -2  -7   37.10    2.78
   7  -2   7   36.68    3.53
  -7  -2  -7   34.70    2.92
  -7  -2  -7   33.60    3.03
  -7  -2  -7   32.45    2.93
   7  -2   7   33.66    2.85
   7  -2   7   33.42    2.54
   7  -2   7   33.69    2.79
  -7   2  -8   -0.32    1.88
  -7   2  -8    0.10    2.15
   7   2   8    5.86    2.20
  -7   2  -8    1.67    1.78
   7   2   8    6.19    2.32
  -7   2  -8    1.50    2.07
   7   2   8    1.58    2.51
   7   2   8    2.38    2.23
  -7   2  -8    5.68    2.28
   7   2   8    2.93    2.18
  -7   2  -8   -1.69    1.58
  -7  -2  -8    1.93    2.06
   7  -2   8    0.22    2.10
   7  -2   8    6.17    2.35
   7  -2   8    3.94    2.22
  -7  -2  -8    3.39    1.74
   7  -2   8    1.04    2.02
  -7  -2  -8    4.44    1.88
  -7  -2  -8    2.46    1.73
  -7  -2  -8   -0.21    1.97
   7  -2   8    1.34    2.18
   7  -2   8    3.90    2.59
  -7  -2  -8    4.16    1.81
   7   3  -9   11.23    1.72
  -7   3   9   12.50    2.63
  -7   3   9   12.89    2.18
  -7   3   9   11.06    2.72
   7   3  -9   10.85    1.48
   7   3  -9   15.29    1.77
   7   3  -9   14.83    1.62
  -7   3   9   14.68    2.29
   7   3  -9   10.68    1.80
  -7   3   9   10.68    2.26
  -7   3   9   15.43    2.51
   7  -3  -9   13.01    2.44
   7  -3  -9    9.25    2.22
   7  -3  -9   11.54    2.31
   7  -3  -9   10.02    4.22
   7  -3  -9   12.02    2.19
  -7  -3   9   12.38    1.58
   7  -3  -9   15.51    2.34
  -7  -3   9   12.23    1.74
  -7  -3   9   12.11    1.86
  -7  -3   9   10.33    1.70
   7   3  -8   -0.94    1.33
  -7   3   8   -0.28    1.62
  -7   3   8    1.29    1.91
   7   3  -8    1.50    1.33
  -7   3   8    1.54    1.90
  -7   3   8    1.53    1.98
  -7   3   8    0.08    1.70
   7   3  -8   -1.14    1.02
  -7   3   8    1.77    1.88
   7   3  -8   -1.87    1.24
   7   3  -8    0.57    1.34
   7   3  -8    0.53    2.06
  -7  -3   8    1.12    1.35
   7  -3  -8    0.62    1.65
   7  -3  -8   -0.59    2.15
   7  -3  -8    1.77    2.00
   7  -3  -8    0.92    1.71
   7  -3  -8   -0.53    1.61
   7  -3  -8    2.24    1.91
  -7   3   7    3.79    1.81
  -7   3   7    5.32    1.72
   7   3  -7    5.97    1.08
   7   3  -7    5.28    1.20
   7   3  -7    4.47    1.19
  -7   3   7    3.77    1.99
  -7   3   7    6.87    1.58
  -7   3   7    4.93    1.84
  -7   3   7    4.21    1.80
   7  -3  -7    7.87    1.59
   7  -3  -7    5.14    1.75
   7  -3  -7    5.61    1.76
   7  -3  -7    5.66    1.61
   7  -3  -7    5.71    1.73
   7  -3  -7    4.97    1.71
  -7   3   6    7.57    1.85
  -7   3   6    7.63    1.85
  -7   3   6    9.08    1.78
  -7   3   6    7.28    2.64
  -7   3   6    5.95    1.98
  -7   3   6    5.26    1.46
   7  -3  -6    8.77    1.66
   7  -3  -6    4.69    1.86
   7  -3  -6    7.81    1.72
   7  -3  -6    4.12    1.46
   7  -3  -6    4.61    1.51
   7  -3  -6    5.30    1.46
  -7   3   5    3.41    1.38
  -7   3   5    4.43    1.61
  -7   3   5    3.19    1.34
  -7   3   5    3.04    1.33
  -7   3   5    2.03    1.31
  -7   3   5    5.22    1.56
   7  -3  -5    3.72    1.42
   7  -3  -5    6.04    1.44
   7  -3  -5    1.07    2.20
   7  -3  -5    1.21    1.47
   7  -3  -5    3.48    1.85
   7  -3  -5    1.25    1.69
  -7   3   4    0.30    1.31
  -7   3   4    1.42    1.39
  -7   3   4    3.16    1.46
  -7   3   4    2.39    1.24
  -7   3   4    2.45    1.40
  -7   3   4    2.86    1.24
   7  -3  -4    1.45    1.29
   7  -3  -4    4.66    1.46
   7  -3  -4    3.03    1.55
   7  -3  -4    1.65    1.40
   7  -3  -4    0.73    1.43
  -7   3   3    6.37    1.22
  -7   3   3    6.57    1.55
  -7   3   3    6.04    1.41
  -7   3   3    4.46    1.37
  -7   3   3    6.37    1.26
  -7   3   3    3.97    1.24
   7  -3  -3    6.89    1.48
   7  -3  -3    6.45    1.28
   7  -3  -3    3.50    1.34
   7  -3  -3    4.61    1.47
   7  -3  -3    5.60    1.30
   7  -3  -3    5.14    1.32
  -7   3   2   23.66    2.17
  -7   3   2   27.70    2.12
  -7   3   2   26.14    2.08
  -7   3   2   25.30    2.26
  -7   3   2   22.64    2.25
  -7   3   2   26.53    2.16
   7  -3  -2   24.07    2.31
   7  -3  -2   26.14    2.12
   7  -3  -2   23.32    2.12
   7  -3  -2   25.63    2.28
   7  -3  -2   25.65    2.36
   7  -3  -2   25.90    2.56
  -7   3   1   -0.03    1.10
  -7   3   1   -0.78    1.05
  -7   3   1   -1.67    1.33
  -7   3   1   -1.12    1.28
  -7   3   1   -1.91    1.07
  -7   3   1    1.29    1.13
   7  -3  -1   -0.42    1.18
   7  -3  -1   -0.86    1.14
   7  -3  -1    0.82    1.11
   7  -3  -1   -1.35    1.41
   7  -3  -1   -0.46    1.23
   7  -3  -1    0.94    1.44
  -7   3   0   61.06    2.61
  -7   3   0   57.61    2.46
  -7   3   0   62.31    2.74
  -7   3   0   59.69    2.48
  -7   3   0   63.42    2.71
  -7   3   0   60.62    2.53
   7  -3   0   59.53    2.77
   7  -3   0   56.60    2.49
   7  -3   0   58.72    2.48
   7  -3   0   66.54    2.70
   7  -3   0   62.76    2.85
   7  -3   0   62.55    2.56
  -7   3  -1    1.38    1.28
   7   3   1    4.00    0.88
  -7   3  -1    2.41    1.29
  -7   3  -1    3.15    1.08
   7   3   1    4.57    0.86
  -7   3  -1    3.34    1.26
   7   3   1    2.79    0.94
   7   3   1    3.94    0.92
  -7   3  -1    4.58    1.29
  -7   3  -1    4.31    1.16
   7   3   1    3.66    0.83
   7  -3   1    4.25    1.30
  -7  -3  -1    3.76    0.75
   7  -3   1    2.75    1.23
   7  -3   1    2.19    1.19
   7  -3   1    1.48    1.30
   7  -3   1    3.29    1.57
   7  -3   1    1.83    1.30
  -7  -3  -1    3.01    1.10
  -7   3  -2    2.76    1.18
   7   3   2    3.44    1.11
  -7   3  -2    4.14    1.17
   7   3   2    3.74    0.91
  -7   3  -2    4.87    1.47
  -7   3  -2    4.55    1.28
   7   3   2    4.29    1.03
  -7   3  -2    4.09    1.47
   7   3   2    2.68    0.98
   7   3   2    3.24    1.06
  -7   3  -2    2.94    1.23
   7   3   2    2.00    1.03
  -7  -3  -2    2.74    0.97
  -7  -3  -2    3.83    0.83
   7  -3   2    3.29    1.24
   7  -3   2    1.89    1.26
   7  -3   2    3.02    1.46
  -7  -3  -2    4.17    1.05
   7  -3   2    4.24    1.57
  -7  -3  -2    2.32    0.90
   7  -3   2    3.20    1.62
   7  -3   2    4.86    1.27
   7   3   3   31.89    2.24
  -7   3  -3   37.98    2.49
  -7   3  -3   33.87    2.34
   7   3   3   34.79    2.10
   7   3   3   33.01    2.29
  -7   3  -3   35.81    2.46
   7   3   3   33.25    2.16
  -7   3  -3   36.02    2.64
   7   3   3   36.93    2.12
   7   3   3   30.85    2.21
  -7   3  -3   34.31    2.43
  -7   3  -3   35.79    2.60
  -7  -3  -3   34.49    1.92
   7  -3   3   35.76    2.42
   7  -3   3   34.89    2.69
  -7  -3  -3   31.42    2.35
  -7  -3  -3   33.24    2.12
   7  -3   3   32.68    2.81
   7  -3   3   35.14    2.71
   7  -3   3   33.15    2.47
   7  -3   3   25.90    3.16
  -7  -3  -3   32.85    1.98
   7   3   4    6.23    1.30
  -7   3  -4    6.19    1.60
   7   3   4    4.21    1.32
  -7   3  -4    7.19    1.57
  -7   3  -4    4.57    1.31
  -7   3  -4    3.21    1.52
   7   3   4    7.79    1.51
   7   3   4    7.25    1.62
   7   3   4    4.28    1.37
  -7   3  -4    4.66    1.41
   7  -3   4    6.69    1.60
  -7  -3  -4    5.75    1.33
  -7  -3  -4    5.10    1.20
   7  -3   4    5.21    1.74
  -7  -3  -4    2.70    1.29
   7  -3   4    4.49    1.75
   7  -3   4    5.57    1.52
   7  -3   4    5.72    1.62
   7  -3   4    6.97    3.10
  -7  -3  -4    2.42    1.34
   7   3   5    1.01    1.53
  -7   3  -5    1.03    1.62
   7   3   5    0.66    1.51
  -7   3  -5    0.47    1.48
   7   3   5    1.42    1.51
   7   3   5    4.30    2.69
  -7   3  -5    2.39    1.56
  -7   3  -5    1.64    2.08
   7   3   5    2.09    1.76
   7   3   5    1.43    1.44
  -7   3  -5    3.40    1.91
  -7   3  -5    1.75    1.49
  -7  -3  -5    1.95    1.45
  -7  -3  -5    2.41    1.15
   7  -3   5    0.43    1.76
   7  -3   5    2.01    1.63
  -7  -3  -5   -0.12    1.29
   7  -3   5    2.57    1.73
   7  -3   5    1.54    1.56
   7  -3   5    0.65    1.83
  -7  -3  -5    1.75    1.47
  -7  -3  -5    2.28    1.16
  -7  -3  -5    4.32    1.33
   7   3   6   10.99    1.99
  -7   3  -6    8.84    1.95
   7   3   6    9.56    1.76
   7   3   6    5.57    1.69
  -7   3  -6    7.75    1.89
   7   3   6    9.39    2.20
  -7   3  -6    6.54    1.91
   7   3   6    6.14    1.98
   7   3   6    9.85    2.04
  -7   3  -6    7.24    1.96
  -7   3  -6    6.40    2.05
  -7   3  -6    7.78    1.72
  -7  -3  -6    6.59    1.67
   7  -3   6   10.38    2.01
   7  -3   6    8.22    1.95
  -7  -3  -6    8.22    1.60
  -7  -3  -6    7.35    1.78
   7  -3   6    8.82    2.31
  -7  -3  -6    8.82    1.44
  -7  -3  -6    8.30    1.49
  -7  -3  -6    8.88    1.78
   7  -3   6    6.61    2.16
   7  -3   6    9.95    2.05
   7  -3   6    8.31    2.35
   7   3   7    0.59    2.04
  -7   3  -7   -3.19    2.17
  -7   3  -7   -2.06    1.75
   7   3   7   -0.51    1.82
   7   3   7   -3.59    1.89
  -7   3  -7    3.06    2.08
   7   3   7    4.56    2.06
   7   3   7    0.10    2.27
  -7   3  -7   -2.79    2.03
   7   3   7    1.30    2.09
  -7   3  -7    0.57    1.78
  -7   3  -7    2.08    1.82
   7  -3   7   -3.37    2.31
  -7  -3  -7    3.02    1.89
   7  -3   7   -1.22    2.36
  -7  -3  -7   -1.64    1.66
   7  -3   7   -0.79    2.19
   7  -3   7    0.72    3.67
  -7  -3  -7    2.07    1.81
  -7  -3  -7    0.69    1.57
  -7  -3  -7   -1.05    1.67
  -7  -3  -7    3.94    2.07
   7  -3   7    1.57    2.56
   7  -3   7   -2.79    1.88
  -7   4   7   43.38    3.89
  -7   4   7   50.93    4.09
  -7   4   7   50.45    3.77
  -7   4   7   49.97    4.06
  -7   4   7   46.42    3.80
   7   4  -7   45.30    2.56
   7   4  -7   43.76    2.69
  -7   4   7   54.35    3.74
   7  -4  -7   52.72    3.81
   7  -4  -7   55.24    4.16
   7  -4  -7   43.23    4.31
   7  -4  -7   44.38    3.47
   7  -4  -7   37.62    3.93
   7  -4  -7   50.56    3.95
  -7   4   6   17.49    2.20
  -7   4   6   20.01    2.25
  -7   4   6   23.92    2.22
  -7   4   6   17.63    2.11
  -7   4   6   16.09    2.25
  -7   4   6   16.61    2.04
   7  -4  -6   21.80    2.27
   7  -4  -6   15.06    2.21
   7  -4  -6   17.57    2.08
   7  -4  -6   17.36    2.12
   7  -4  -6   18.52    2.29
  -7   4   5   -0.09    1.94
  -7   4   5    1.42    1.77
  -7   4   5    3.60    1.88
  -7   4   5    1.60    1.65
  -7   4   5    0.23    1.62
  -7   4   5    2.22    1.94
   7  -4  -5    3.59    1.73
   7  -4  -5    4.86    1.72
   7  -4  -5   -1.32    1.79
   7  -4  -5   -0.21    1.55
   7  -4  -5    4.76    1.95
   7  -4  -5    4.72    1.93
  -7   4   4    3.36    1.57
  -7   4   4    0.79    1.66
  -7   4   4   -0.30    1.56
  -7   4   4    0.59    1.82
  -7   4   4    2.03    1.63
  -7   4   4   -3.18    1.72
   7  -4  -4    1.00    1.61
   7  -4  -4    3.67    1.95
   7  -4  -4   -1.58    1.76
   7  -4  -4    0.89    1.47
   7  -4  -4    0.03    1.64
   7  -4  -4    0.05    1.70
  -7   4   3   24.77    2.18
  -7   4   3   26.90    1.95
  -7   4   3   22.84    1.88
  -7   4   3   22.65    1.84
  -7   4   3   31.08    2.27
   7  -4  -3   23.59    1.93
   7  -4  -3   23.70    1.89
   7  -4  -3   21.95    1.88
   7  -4  -3   25.03    2.19
   7  -4  -3   24.45    2.33
   7  -4  -3   25.39    2.30
  -7   4   2   11.79    1.97
  -7   4   2    7.44    1.47
  -7   4   2    7.06    1.56
  -7   4   2   11.22    1.68
  -7   4   2    9.79    2.35
  -7   4   2    7.61    1.62
   7  -4  -2    7.35    1.63
   7  -4  -2   11.09    1.64
   7  -4  -2    9.69    1.66
   7  -4  -2    9.26    1.65
   7  -4  -2    6.35    1.78
   7  -4  -2   10.05    1.98
  -7   4   1  158.73    4.43
  -7   4   1  140.04    6.09
  -7   4   1  157.59    4.58
  -7   4   1  165.98    4.42
  -7   4   1  166.46    4.61
  -7   4   1  158.17    4.50
   7  -4  -1  171.72    4.42
   7  -4  -1  171.64    4.56
   7  -4  -1  167.90    4.60
   7  -4  -1  166.55    4.35
   7  -4  -1  162.19    4.86
   7  -4  -1  160.26    4.71
  -7   4   0   -2.96    1.44
  -7   4   0   -2.51    1.48
  -7   4   0   -1.22    1.44
  -7   4   0    0.61    1.60
  -7   4   0    0.20    2.86
  -7   4   0   -1.64    1.37
   7  -4   0   -2.11    1.66
   7  -4   0   -0.57    1.57
   7  -4   0   -0.85    1.67
   7  -4   0   -1.35    1.44
   7  -4   0   -2.24    1.54
   7  -4   0   -1.34    1.43
  -7   4  -1    5.08    1.53
   7   4   1    6.98    1.10
  -7   4  -1    9.33    1.71
   7   4   1    6.72    1.21
  -7   4  -1    6.85    1.68
   7   4   1    7.62    1.21
  -7   4  -1    3.52    1.57
  -7   4  -1    4.84    1.32
   7  -4   1    6.25    1.73
   7  -4   1    5.39    1.71
   7  -4   1    9.51    1.86
   7  -4   1    7.89    1.57
   7  -4   1    7.97    1.80
   7  -4   1    6.37    1.52
   7   4   2   31.59    2.26
  -7   4  -2   31.34    2.80
   7   4   2   36.67    2.36
  -7   4  -2   31.38    2.95
  -7   4  -2   33.37    2.85
   7   4   2   34.85    1.97
  -7   4  -2   35.00    2.90
   7   4   2   32.75    2.21
  -7   4  -2   33.41    2.84
   7   4   2   35.08    2.36
  -7   4  -2   31.98    2.59
   7  -4   2   37.25    3.03
   7  -4   2   31.00    2.72
  -7  -4  -2   33.56    2.15
  -7  -4  -2   30.86    2.17
  -7  -4  -2   33.11    2.16
   7  -4   2   33.86    3.30
  -7  -4  -2   32.89    1.96
   7  -4   2   35.97    3.00
   7  -4   2   39.60    2.74
   7  -4   2   29.65    2.98
   7   4   3   15.18    1.65
   7   4   3   14.74    1.87
  -7   4  -3   13.21    1.92
  -7   4  -3   14.62    1.88
   7   4   3   14.26    1.53
   7   4   3   14.72    1.63
   7   4   3   11.79    1.56
  -7   4  -3   12.02    1.69
   7   4   3   15.75    1.74
  -7   4  -3   13.79    1.75
  -7   4  -3   12.32    2.08
  -7   4  -3   11.19    1.78
   7  -4   3   12.73    1.78
  -7  -4  -3   14.61    1.43
  -7  -4  -3   11.98    1.55
   7  -4   3   11.41    2.05
   7  -4   3   15.17    2.20
  -7  -4  -3   12.95    1.51
  -7  -4  -3   12.24    1.43
   7  -4   3   14.82    2.34
   7  -4   3   16.50    2.03
   7  -4   3   13.90    1.78
   7   4   4   -0.41    1.60
   7   4   4    2.01    1.84
  -7   4  -4    0.16    1.53
  -7   4  -4    1.78    1.83
   7   4   4   -0.39    1.47
   7   4   4    0.18    1.36
  -7   4  -4   -4.78    1.78
  -7   4  -4   -1.46    1.88
  -7   4  -4   -2.76    1.81
  -7   4  -4    1.55    1.71
   7   4   4   -0.13    1.59
  -7  -4  -4   -0.17    1.51
  -7  -4  -4    1.25    1.39
   7  -4   4   -1.36    2.12
  -7  -4  -4   -1.36    1.32
   7  -4   4    1.33    2.11
   7  -4   4    2.22    2.10
  -7  -4  -4   -1.29    1.49
   7  -4   4    0.89    1.89
   7  -4   4   -2.59    1.69
   7  -4   4    2.14    2.02
   7   4   5   -3.20    1.88
   7   4   5    0.52    1.83
   7   4   5   -1.73    2.02
  -7   4  -5    1.62    1.90
   7   4   5    2.90    1.63
  -7   4  -5    1.82    2.09
   7   4   5   -0.03    1.76
  -7   4  -5   -0.11    1.93
   7   4   5    1.38    1.81
  -7   4  -5    1.94    1.92
  -7   4  -5    2.63    1.81
  -7   4  -5    2.33    1.97
  -7  -4  -5   -0.06    1.74
   7  -4   5   -1.98    2.26
   7  -4   5    0.86    1.89
   7  -4   5    2.57    2.11
   7  -4   5    0.70    1.89
  -7  -4  -5   -0.52    1.69
  -7  -4  -5    3.36    1.62
  -7  -4  -5    4.46    1.65
   7  -4   5    0.26    2.15
   7  -4   5   -1.16    2.46
  -7   5   2    6.94    2.19
  -7   5   2    2.21    2.11
  -7   5   2    3.43    2.01
  -7   5   2    3.57    2.16
  -7   5   2   10.31    3.33
  -7   5   2    8.26    2.18
   7  -5  -2    8.15    2.22
   7  -5  -2   10.89    1.85
   7  -5  -2    7.46    2.22
   7  -5  -2    6.94    2.22
   7  -5  -2    4.27    2.27
  -7   5   1    1.53    1.94
  -7   5   1   -2.53    1.97
  -7   5   1    2.43    1.86
  -7   5   1    5.26    2.04
  -7   5   1    1.86    1.90
  -7   5   1    2.01    2.05
   7  -5  -1   -0.44    2.25
   7  -5  -1   -2.04    2.08
   7  -5  -1    1.65    2.24
   7  -5  -1   -0.27    2.22
   7  -5  -1    0.21    1.71
   7  -5  -1    2.49    1.75
  -7   5   0   -0.69    1.91
  -7   5   0   -1.83    1.90
  -7   5   0   -1.19    1.67
  -7   5   0    3.74    1.85
   7   5   0    0.26    1.54
  -7   5   0    0.12    2.01
  -7   5   0   -0.89    1.96
   7   5   0   -1.01    1.38
   7  -5   0   -1.13    2.15
   7  -5   0    1.52    2.04
   7  -5   0    3.74    2.38
   7  -5   0   -2.82    3.22
   7  -5   0   -1.44    1.68
   7  -5   0    1.34    2.29
  -7   5  -1    5.69    2.23
   7  -5   1    4.80    2.44
   7  -5   1    4.64    2.29
   8   0 -10   72.90    3.33
   8   0 -10   64.05    3.69
  -8   0  10   70.28    3.14
  -8   0  10   67.00    3.58
  -8   0  10   67.52    3.77
   8   0 -10   63.16    3.49
  -8   0  10   65.15    3.04
   8   0 -10   63.46    3.41
   8   0 -10   70.62    3.21
   8   0 -10   72.23    3.60
   8   0  -9    1.57    1.34
  -8   0   9    1.50    1.63
  -8   0   9   -2.18    1.26
   8   0  -9   -0.07    1.32
  -8   0   9   -0.24    1.40
  -8   0   9   -2.23    1.46
   8   0  -9   -0.50    1.78
   8   0  -9    1.54    1.47
   8   0  -9    1.00    1.52
   8   0  -9   -0.86    1.45
  -8   0   9    1.29    1.50
  -8   0   9    0.33    1.32
   8   0  -8    2.88    1.25
  -8   0   8    5.72    1.21
  -8   0   8    4.66    1.74
  -8   0   8    5.84    1.66
  -8   0   8    3.74    1.34
   8   0  -8    5.72    1.44
   8   0  -8    4.10    1.57
   8   0  -8    6.88    1.35
   8   0  -8    5.38    1.41
  -8   0   8    6.16    1.56
   8   0  -8    5.02    1.29
  -8   0   8    4.56    1.19
  -8   0   7   -0.60    0.94
  -8   0   7    0.41    1.13
   8   0  -7    0.67    1.14
   8   0  -7    0.89    1.18
  -8   0   7   -1.45    1.02
  -8   0   7    0.53    1.37
   8   0  -7   -1.40    1.06
   8   0  -7   -1.04    1.09
  -8   0   7    0.76    0.95
   8   0  -7   -0.54    1.04
  -8   0   7   -2.15    1.11
   8   0  -7   -1.06    1.02
   8   0  -6    6.91    1.12
   8   0  -6    6.76    1.10
  -8   0   6    6.12    1.07
  -8   0   6    8.47    0.94
   8   0  -6    7.61    1.10
   8   0  -6    6.61    1.02
   8   0  -6    6.19    1.15
   8   0  -6    6.70    1.01
  -8   0   6    7.67    1.12
  -8   0   6    6.00    1.01
  -8   0   6    5.48    0.85
  -8   0   6    6.05    1.19
   8   0  -5   -0.71    0.85
   8   0  -5    0.34    0.86
   8   0  -5    0.24    0.79
  -8   0   5    0.28    0.75
  -8   0   5   -0.40    0.87
   8   0  -5   -1.33    0.85
  -8   0   5   -0.24    0.79
  -8   0   5   -0.49    0.68
   8   0  -5   -0.55    0.86
  -8   0   5   -0.36    0.94
   8   0  -5    0.33    0.84
  -8   0   5    1.45    0.82
   8   0  -4  684.29   13.04
   8   0  -4  682.01   12.90
   8   0  -4  672.10   12.94
  -8   0   4  702.99   12.84
  -8   0   4  695.55   13.03
   8   0  -4  698.31   12.92
   8   0  -4  678.30   13.03
  -8   0   4  700.71   12.90
   8   0  -4  693.29   12.93
  -8   0   4  698.20   12.82
  -8   0   4  706.00   12.92
  -8   0   3   -1.21    0.78
  -8   0   3   -1.27    0.54
   8   0  -3   -2.41    0.75
   8   0  -3   -1.06    0.73
   8   0  -3   -0.19    0.74
   8   0  -3   -2.12    0.70
  -8   0   3   -1.19    0.73
  -8   0   3   -1.32    0.70
   8   0  -3   -1.19    0.79
   8   0  -3   -1.62    0.75
  -8   0   2  442.94    8.40
  -8   0   2  448.33    8.45
   8   0  -2  444.91    8.51
  -8   0   2  456.30    8.39
   8   0  -2  449.08    8.59
   8   0  -2  447.47    8.59
  -8   0   2  458.96    8.57
   8   0  -2  443.57    8.48
  -8   0   2  451.76    8.47
   8   0  -2  443.46    8.47
   8   0  -2  448.93    8.48
   8   0  -1    0.27    0.74
  -8   0   1   -0.78    0.78
   8   0  -1    0.49    0.69
   8   0  -1   -1.07    0.71
   8   0  -1   -0.52    0.79
  -8   0   1   -1.01    0.57
   8   0  -1    0.21    0.81
   8   0  -1    0.20    0.63
  -8   0   1   -0.37    0.65
  -8   0   1    0.63    0.59
  -8   0   1   -0.38    0.65
  -8   0   1   -0.07    0.69
   8   0   0 1616.06   29.46
   8   0   0 1634.49   29.35
   8   0   0 1608.61   29.36
  -8   0   0 1607.79   29.33
   8   0   0 1619.87   29.35
  -8   0   0 1628.55   29.45
  -8   0   0 1642.46   29.31
  -8   0   0 1631.68   29.32
   8   0   0 1593.03   29.33
   8   0   0 1621.04   29.46
  -8   0   0 1472.13   29.42
  -8   0   0 1624.55   29.35
   8   0   1   -0.47    0.77
  -8   0  -1   -0.59    0.67
  -8   0  -1   -0.52    0.69
  -8   0  -1   -0.33    0.72
   8   0   1   -0.58    0.75
   8   0   1   -0.76    0.93
   8   0   1   -0.49    0.75
  -8   0  -1   -1.62    0.82
  -8   0  -1   -0.19    0.71
  -8   0  -1   -1.37    0.85
   8   0   1   -0.49    0.77
   8   0   1    0.13    0.86
  -8   0  -2   28.69    1.71
   8   0   2   30.58    1.75
  -8   0  -2   28.49    1.54
   8   0   2   26.09    1.57
   8   0   2   28.32    1.59
  -8   0  -2   30.36    1.52
  -8   0  -2   26.17    1.51
  -8   0  -2   29.40    1.56
   8   0   2   28.16    1.68
  -8   0  -2   29.25    1.69
   8   0   2   26.53    1.81
   8   0   2   28.11    1.57
   8   0   3    0.00    0.99
   8   0   3   -1.14    0.90
  -8   0  -3    0.63    0.88
  -8   0  -3    0.90    0.93
   8   0   3   -0.96    0.96
  -8   0  -3    0.27    0.97
  -8   0  -3   -0.35    0.87
   8   0   3   -0.65    0.94
   8   0   3    1.47    1.23
  -8   0  -3   -0.96    0.92
  -8   0  -3    0.42    1.00
   8   0   3   -1.09    1.07
  -8   0  -4   68.78    2.34
   8   0   4   66.97    2.60
  -8   0  -4   64.96    2.66
   8   0   4   64.96    2.66
  -8   0  -4   63.93    2.37
  -8   0  -4   65.99    2.37
  -8   0  -4   65.94    2.35
   8   0   4   64.95    2.50
   8   0   4   67.27    2.44
  -8   0  -4   66.86    2.52
   8   0   4   68.16    2.73
   8   0   4   66.22    2.45
   8   0   5   -2.40    1.33
  -8   0  -5   -1.64    1.40
   8   0   5   -0.50    1.38
   8   0   5   -3.15    1.29
  -8   0  -5   -2.10    1.15
   8   0   5    0.37    1.42
  -8   0  -5   -0.69    1.06
  -8   0  -5   -1.61    1.16
   8   0   5    0.02    1.40
  -8   0  -5   -0.93    1.28
   8   0   5   -1.18    1.22
  -8   0  -5   -0.61    1.11
  -8   0  -6    4.96    1.36
  -8   0  -6    3.76    1.38
  -8   0  -6    3.29    1.57
   8   0   6    3.44    1.49
   8   0   6    3.69    2.55
  -8   0  -6    3.61    2.37
   8   0   6    6.48    1.66
   8   0   6    3.12    1.63
  -8   0  -6    3.94    1.33
   8   0   6    1.58    1.63
   8   0   6    3.93    1.44
  -8   0  -6    4.51    1.54
  -8   0  -7   -2.81    1.74
   8   0   7   -0.90    1.63
   8   0   7   -0.07    1.83
  -8   0  -7    0.99    1.41
   8   0   7    0.85    1.88
  -8   0  -7    1.38    1.51
   8   0   7   -0.19    1.76
  -8   0  -7   -1.10    1.57
   8   0   7   -1.69    2.07
  -8   0  -7    0.03    1.58
   8   0   7   -1.45    1.80
  -8   0  -8   36.31    3.30
  -8   0  -8   35.39    2.72
   8   0   8   40.04    3.42
  -8   0  -8   35.05    3.26
   8   0   8   39.29    3.91
   8   0   8   34.21    2.72
   8   0   8   39.75    3.70
   8   0   8   35.69    3.62
   8   0   8   36.57    3.57
  -8   0  -8   40.80    3.28
  -8   0  -8   40.04    3.33
  -8   0  -8   39.84    3.35
   8   0   9    2.19    2.55
  -8   0  -9   -0.34    2.02
   8   0   9   -1.25    2.05
  -8   0  -9    2.67    1.93
  -8   0  -9    3.40    1.82
  -8   0  -9   -0.54    1.98
  -8   0  -9    1.20    1.77
   8   0   9   -2.10    2.31
   8   0   9   -4.89    2.60
  -8   0  -9   -4.36    2.17
   8   0   9   -4.70    4.30
   8   0   9    4.80    2.35
   8   1 -10   -1.45    1.56
  -8   1  10   -0.38    1.66
   8   1 -10   -1.13    1.52
  -8   1  10    2.37    2.19
  -8   1  10    0.28    2.00
   8   1 -10   -0.72    1.52
   8   1 -10   -0.50    1.56
  -8   1  10    2.10    1.71
  -8   1  10   -1.61    1.71
  -8   1  10    1.46    1.99
   8   1 -10    0.04    1.55
   8   1 -10    0.59    1.77
  -8  -1  10    0.95    1.90
  -8  -1  10   -0.81    2.26
   8  -1 -10    0.88    1.81
  -8  -1  10   -0.13    1.23
   8  -1 -10   -1.96    1.92
   8  -1 -10    0.52    1.74
  -8  -1  10   -0.51    1.71
  -8  -1  10    0.90    1.78
   8  -1 -10   -0.50    1.76
   8  -1 -10   -0.28    1.91
   8  -1 -10   -0.73    1.80
  -8   1   9  171.47    4.52
   8   1  -9  175.06    4.32
   8   1  -9  170.73    4.64
   8   1  -9  170.85    4.53
   8   1  -9  169.23    4.42
  -8   1   9  166.96    4.74
   8   1  -9  161.38    4.27
  -8   1   9  175.29    5.07
  -8   1   9  174.25    4.98
  -8   1   9  162.53    5.09
  -8   1   9  167.10    4.64
   8  -1  -9  170.83    4.82
   8  -1  -9  171.10    4.64
   8  -1  -9  175.01    4.71
   8  -1  -9  171.61    4.62
   8  -1  -9  159.03    4.89
  -8  -1   9  160.90    4.65
  -8  -1   9  167.56    4.44
   8  -1  -9  168.81    4.97
  -8  -1   9  169.97    4.43
   8   1  -8   25.55    2.09
  -8   1   8   23.99    2.29
  -8   1   8   25.59    2.51
  -8   1   8   28.87    2.56
   8   1  -8   26.90    2.07
  -8   1   8   27.05    1.84
   8   1  -8   24.91    2.39
  -8   1   8   24.72    1.77
   8   1  -8   26.65    2.20
   8   1  -8   27.77    2.22
   8  -1  -8   23.66    1.87
   8  -1  -8   23.07    1.83
   8  -1  -8   28.34    2.60
   8  -1  -8   23.21    2.15
  -8  -1   8   26.67    2.34
  -8  -1   8   27.52    2.26
   8  -1  -8   23.98    2.03
  -8  -1   8   24.85    2.41
  -8  -1   8   26.79    2.55
   8  -1  -8   28.20    2.49
  -8   1   7    1.37    1.12
   8   1  -7    1.08    1.10
   8   1  -7    0.84    1.01
  -8   1   7    2.39    1.23
   8   1  -7    2.10    1.00
  -8   1   7    1.96    1.32
   8   1  -7    0.71    1.13
  -8   1   7    3.27    1.45
  -8   1   7    1.95    1.25
  -8   1   7    0.19    1.17
   8   1  -7    1.43    1.06
   8   1  -7    2.53    1.08
   8  -1  -7    1.36    1.18
   8  -1  -7    1.78    1.28
   8  -1  -7    1.52    1.13
   8  -1  -7    1.25    1.44
   8  -1  -7    1.35    1.22
  -8  -1   7    2.15    1.21
  -8  -1   7    1.57    1.09
   8  -1  -7    1.86    1.25
   8   1  -6   15.78    1.47
  -8   1   6   14.77    1.30
   8   1  -6   16.17    1.47
  -8   1   6   18.05    1.74
  -8   1   6   16.83    1.58
   8   1  -6   14.86    1.20
   8   1  -6   15.89    1.55
  -8   1   6   17.47    1.37
   8   1  -6   13.29    1.15
   8   1  -6   18.32    1.55
  -8   1   6   15.45    1.27
  -8   1   6   13.95    1.47
   8  -1  -6   17.12    1.34
  -8  -1   6   15.79    1.23
  -8  -1   6   15.36    1.08
  -8  -1   6   13.12    1.14
   8  -1  -6   16.50    1.41
   8  -1  -6   16.90    1.45
   8  -1  -6   17.32    1.57
   8  -1  -6   14.01    1.27
   8  -1  -6   16.29    1.42
  -8  -1   6   18.08    1.54
   8   1  -5   14.11    1.31
  -8   1   5   13.49    1.20
  -8   1   5   13.86    1.16
  -8   1   5   15.18    1.23
   8   1  -5   13.83    1.22
   8   1  -5   14.22    1.24
  -8   1   5   12.84    1.21
  -8   1   5   14.85    1.18
  -8   1   5   11.70    1.27
   8   1  -5   13.30    1.35
   8   1  -5   14.82    1.38
   8   1  -5   13.50    1.31
  -8  -1   5   15.58    1.28
  -8  -1   5   13.83    1.30
   8  -1  -5   11.55    1.10
   8  -1  -5   11.46    1.28
   8  -1  -5   14.03    1.18
   8  -1  -5   13.21    1.27
   8  -1  -5   12.51    1.28
  -8  -1   5   14.30    1.39
  -8  -1   5   13.92    1.19
   8  -1  -5   11.75    1.12
   8   1  -4  109.43    2.48
   8   1  -4  113.04    2.43
  -8   1   4  109.60    2.79
  -8   1   4  109.88    2.96
   8   1  -4  106.53    2.44
  -8   1   4  111.61    2.83
   8   1  -4  107.67    2.52
  -8   1   4  109.99    3.00
   8   1  -4  106.76    2.52
   8   1  -4  105.84    2.40
  -8   1   4  112.78    2.78
  -8   1   4  111.46    2.82
   8  -1  -4  110.77    3.06
  -8  -1   4  110.35    2.52
   8  -1  -4  111.22    2.85
   8  -1  -4  114.93    2.85
  -8  -1   4   94.21    2.34
  -8  -1   4  109.24    2.43
   8  -1  -4  111.00    2.86
   8  -1  -4  109.04    3.01
  -8  -1   4  109.21    2.47
   8  -1  -4  107.71    2.82
  -8   1   3  305.40    6.30
  -8   1   3  309.10    6.11
   8   1  -3  308.61    5.80
  -8   1   3  304.09    6.27
  -8   1   3  306.53    6.10
  -8   1   3  306.51    6.13
   8   1  -3  318.11    6.17
  -8   1   3  297.16    6.10
   8   1  -3  299.68    5.87
   8  -1  -3  309.83    6.33
   8  -1  -3  302.82    6.19
   8  -1  -3  301.68    6.30
   8  -1  -3  305.97    6.14
   8  -1  -3  305.06    6.16
   8  -1  -3  301.98    6.12
  -8  -1   3  312.40    5.78
  -8   1   2    1.75    0.97
  -8   1   2    1.07    0.90
  -8   1   2    1.59    0.81
  -8   1   2    0.26    0.84
  -8   1   2    0.78    0.81
  -8   1   2    1.53    0.82
   8   1  -2    0.64    0.92
   8   1  -2    1.06    0.56
   8  -1  -2    1.33    1.06
   8  -1  -2    2.30    0.91
   8  -1  -2   -0.25    0.83
  -8  -1   2    2.17    0.53
   8  -1  -2    1.05    0.82
   8  -1  -2    1.10    0.96
  -8   1   1  444.80    8.57
   8   1  -1  438.20    8.30
   8   1  -1  449.85    8.31
   8   1  -1  454.41    8.39
  -8   1   1  441.70    8.60
  -8   1   1  442.19    8.73
   8   1  -1  429.26    8.29
  -8   1   1  448.43    8.58
  -8   1   1  452.85    8.76
   8   1  -1  460.95    8.39
  -8   1   1  447.75    8.59
  -8  -1   1  453.33    8.36
   8  -1  -1  449.35    8.78
   8  -1  -1  455.76    8.63
   8  -1  -1  448.58    8.76
   8  -1  -1  446.58    8.61
   8  -1  -1  433.49    8.58
  -8  -1   1  448.94    8.29
  -8  -1   1  457.27    8.36
   8  -1  -1  434.89    8.58
   8   1   0  234.44    4.62
   8   1   0  234.70    4.50
   8   1   0  231.74    4.50
  -8   1   0  219.04    4.74
  -8   1   0  229.77    4.78
  -8   1   0  229.52    4.94
  -8   1   0  230.72    4.95
   8   1   0  235.43    4.64
   8   1   0  232.67    4.52
  -8   1   0  227.12    4.76
   8   1   0  239.75    4.53
   8  -1   0  226.08    4.94
   8  -1   0  226.52    4.97
   8  -1   0  222.21    4.78
  -8  -1   0  236.43    4.51
   8  -1   0  219.63    4.78
   8  -1   0  225.24    4.82
  -8  -1   0  230.48    4.59
  -8  -1   0  239.17    4.61
   8  -1   0  229.26    4.81
  -8  -1   0  228.92    4.46
  -8   1  -1   39.82    1.71
   8   1   1   44.12    1.68
   8   1   1   41.90    1.56
   8   1   1   42.32    1.53
  -8   1  -1   42.78    2.01
  -8   1  -1   41.44    1.72
  -8   1  -1   39.90    1.71
  -8   1  -1   42.99    1.88
   8   1   1   43.58    1.57
  -8   1  -1   42.94    1.83
   8   1   1   42.15    1.58
   8   1   1   41.83    1.69
  -8  -1  -1   42.93    1.52
   8  -1   1   40.70    2.06
  -8  -1  -1   43.88    1.49
  -8  -1  -1   48.16    1.64
   8  -1   1   42.69    1.78
   8  -1   1   42.50    1.87
   8  -1   1   41.31    1.81
  -8  -1  -1   44.33    1.67
   8  -1   1   40.41    2.01
  -8   1  -2  165.48    3.77
   8   1   2  169.08    3.69
   8   1   2  166.75    3.65
   8   1   2  166.07    3.82
  -8   1  -2  163.95    3.80
   8   1   2  168.21    3.79
  -8   1  -2  165.40    3.97
   8   1   2  167.46    3.65
   8   1   2  166.20    3.69
  -8   1  -2  167.59    3.82
  -8   1  -2  163.66    3.79
  -8   1  -2  169.17    4.03
   8  -1   2  166.93    4.02
   8  -1   2  164.51    3.80
   8  -1   2  167.76    4.08
  -8  -1  -2  169.08    3.66
   8  -1   2  169.80    3.85
  -8  -1  -2  168.29    3.59
  -8  -1  -2  166.23    3.52
   8  -1   2  165.85    3.86
   8  -1   2  164.30    3.84
  -8  -1  -2  167.72    3.49
  -8  -1  -2  169.76    3.79
  -8   1  -3   18.93    1.36
   8   1   3   16.96    1.60
  -8   1  -3   17.62    1.71
   8   1   3   18.16    1.35
   8   1   3   14.99    1.21
   8   1   3   17.39    1.29
  -8   1  -3   17.27    1.22
   8   1   3   18.67    1.48
  -8   1  -3   16.21    1.41
  -8   1  -3   19.29    1.55
  -8   1  -3   16.11    1.23
   8   1   3   17.17    1.77
   8  -1   3   15.70    1.35
   8  -1   3   16.14    1.37
   8  -1   3   15.47    1.48
  -8  -1  -3   17.23    1.63
   8  -1   3   16.78    1.49
  -8  -1  -3   16.80    1.17
   8  -1   3   19.70    1.91
  -8  -1  -3   15.32    1.50
  -8  -1  -3   16.26    1.43
  -8  -1  -3   17.58    1.66
   8  -1   3   15.42    1.29
  -8   1  -4   64.26    2.65
  -8   1  -4   60.68    2.44
   8   1   4   58.52    2.41
  -8   1  -4   59.06    2.40
  -8   1  -4   55.42    2.40
  -8   1  -4   60.77    2.65
   8   1   4   58.96    2.49
   8   1   4   61.40    2.39
  -8   1  -4   58.04    2.39
   8   1   4   58.66    2.50
   8   1   4   59.81    2.59
   8   1   4   60.67    2.61
  -8  -1  -4   61.05    2.19
   8  -1   4   58.64    2.58
   8  -1   4   59.53    2.76
  -8  -1  -4   60.61    2.34
   8  -1   4   61.60    2.46
  -8  -1  -4   60.89    2.43
  -8  -1  -4   56.29    2.24
   8  -1   4   59.75    2.79
  -8  -1  -4   58.63    2.21
   8  -1   4   60.37    2.52
   8  -1   4   55.56    2.54
   8   1   5  119.36    3.71
  -8   1  -5  117.32    3.79
  -8   1  -5  118.61    3.50
   8   1   5  117.87    3.75
   8   1   5  117.29    3.60
   8   1   5  115.55    3.47
   8   1   5  117.13    3.49
   8   1   5  114.18    3.53
  -8   1  -5  119.21    3.49
  -8   1  -5  121.05    3.48
  -8   1  -5  114.49    3.48
  -8   1  -5  118.46    3.74
  -8  -1  -5  116.83    3.24
   8  -1   5  119.92    3.91
  -8  -1  -5  114.19    3.56
   8  -1   5  115.16    3.50
   8  -1   5  119.98    3.61
   8  -1   5  119.14    3.83
  -8  -1  -5  113.02    3.48
  -8  -1  -5  118.64    3.36
   8  -1   5  120.08    3.69
  -8  -1  -5  114.89    3.32
   8  -1   5  117.69    3.65
  -8  -1  -5  120.20    3.31
   8   1   6   19.63    1.92
   8   1   6   17.20    1.90
  -8   1  -6   16.80    1.90
   8   1   6   20.34    1.97
  -8   1  -6   17.68    1.96
   8   1   6   15.87    2.08
  -8   1  -6   18.13    1.84
  -8   1  -6   15.36    2.84
  -8   1  -6   16.33    1.63
   8   1   6   18.67    2.12
  -8   1  -6   13.07    1.51
  -8  -1  -6   17.55    1.55
  -8  -1  -6   17.68    1.75
  -8  -1  -6   17.12    1.61
  -8  -1  -6   16.61    1.52
   8  -1   6   16.94    1.81
   8  -1   6   16.87    2.02
   8  -1   6   13.20    2.62
   8  -1   6   18.76    2.04
  -8  -1  -6   16.24    1.53
   8  -1   6   16.94    1.85
   8  -1   6   14.94    2.01
  -8  -1  -6   20.29    1.92
   8   1   7   18.30    2.02
  -8   1  -7   15.29    1.94
   8   1   7   11.05    3.49
  -8   1  -7   17.43    1.85
  -8   1  -7   17.20    1.94
   8   1   7   17.66    1.99
  -8   1  -7   17.21    2.33
  -8   1  -7   16.55    2.19
   8   1   7   15.06    1.88
  -8   1  -7   15.41    1.90
   8   1   7   16.82    2.08
   8   1   7   17.03    2.16
  -8  -1  -7   14.86    1.62
   8  -1   7   18.02    2.07
   8  -1   7   18.55    2.32
  -8  -1  -7   16.48    2.09
  -8  -1  -7   17.34    1.80
   8  -1   7   11.63    2.13
   8  -1   7   13.10    2.07
  -8  -1  -7   18.79    1.87
   8  -1   7   16.93    2.36
  -8  -1  -7   19.13    2.16
   8  -1   7   19.17    2.22
  -8  -1  -7   17.31    2.95
  -8   1  -8    4.18    1.96
   8   1   8    0.22    2.22
   8   1   8    0.57    2.04
   8   1   8    0.61    1.84
  -8   1  -8    3.06    1.71
   8   1   8    5.13    2.20
  -8   1  -8    3.00    1.83
   8   1   8    1.24    2.06
   8   1   8    3.63    2.41
  -8   1  -8    0.25    1.72
  -8   1  -8    1.94    2.05
   8  -1   8    1.65    2.21
   8  -1   8    2.27    2.16
  -8  -1  -8    2.51    3.05
  -8  -1  -8    5.40    1.60
   8  -1   8    2.65    2.37
  -8  -1  -8    2.67    1.89
   8  -1   8    1.79    2.33
   8  -1   8    0.67    2.07
  -8  -1  -8    2.10    1.79
   8  -1   8   -2.63    2.63
  -8  -1  -8    5.03    1.79
  -8  -1  -8    4.65    1.98
  -8   2  10    0.69    2.40
   8   2 -10   -0.58    1.71
  -8   2  10    0.02    2.08
   8   2 -10   -2.22    1.69
  -8   2  10    1.15    2.25
   8   2 -10   -0.20    1.60
  -8   2  10   -2.02    1.92
   8   2 -10    2.42    1.70
  -8   2  10    1.52    2.01
   8   2 -10   -1.01    1.51
  -8   2  10    2.58    2.17
   8   2 -10    3.30    1.59
   8  -2 -10    2.19    1.93
   8  -2 -10    0.69    2.06
  -8  -2  10    0.02    1.82
  -8  -2  10    0.26    1.67
   8  -2 -10    3.60    2.01
   8  -2 -10   -2.18    2.31
  -8  -2  10    1.86    1.96
   8  -2 -10   -2.21    1.84
   8  -2 -10    2.70    1.80
  -8  -2  10    0.60    1.94
  -8   2   9   23.80    2.24
  -8   2   9   24.68    2.52
   8   2  -9   28.45    2.55
  -8   2   9   26.17    2.50
   8   2  -9   25.19    2.49
  -8   2   9   28.19    2.25
  -8   2   9   24.42    2.26
   8   2  -9   21.86    1.88
  -8   2   9   26.68    2.10
   8   2  -9   30.51    2.32
   8   2  -9   20.80    1.69
   8   2  -9   20.61    1.83
   8  -2  -9   29.15    2.28
  -8  -2   9   26.13    2.70
   8  -2  -9   23.85    2.44
   8  -2  -9   21.35    2.38
  -8  -2   9   22.19    1.78
   8  -2  -9   27.28    2.24
   8  -2  -9   17.30    1.93
   8  -2  -9   22.95    2.33
  -8  -2   9   20.24    1.92
  -8  -2   9   27.45    2.42
   8   2  -8    4.99    1.30
   8   2  -8    6.76    1.34
  -8   2   8    6.01    1.64
  -8   2   8    7.36    1.70
  -8   2   8    6.76    1.58
  -8   2   8    9.97    1.77
   8   2  -8    6.31    1.22
   8   2  -8    7.54    1.34
   8   2  -8    5.37    1.38
   8   2  -8    5.57    1.19
  -8   2   8    4.33    1.66
  -8  -2   8    6.86    1.22
   8  -2  -8    4.59    1.64
   8  -2  -8    7.95    1.94
   8  -2  -8    5.29    1.60
  -8  -2   8    6.57    1.40
  -8  -2   8    7.46    1.50
  -8  -2   8    7.44    1.41
   8  -2  -8    6.56    1.72
   8  -2  -8    5.01    1.91
   8  -2  -8    6.21    3.11
   8   2  -7    2.41    0.98
  -8   2   7    1.24    1.42
  -8   2   7    1.56    1.29
   8   2  -7    0.55    1.04
   8   2  -7    1.83    1.22
   8   2  -7    1.51    0.94
  -8   2   7    0.61    1.50
   8   2  -7    2.43    1.10
   8   2  -7    0.23    1.02
  -8   2   7    2.96    1.38
  -8   2   7    1.16    1.69
   8  -2  -7    1.00    1.33
   8  -2  -7    0.53    1.47
   8  -2  -7    3.68    1.62
   8  -2  -7    2.04    1.44
  -8  -2   7    3.77    1.00
  -8  -2   7    3.68    1.05
   8  -2  -7    2.33    1.92
  -8  -2   7    0.86    1.12
   8  -2  -7    4.24    1.54
   8   2  -6  171.58    3.74
  -8   2   6  177.66    4.34
  -8   2   6  171.11    4.27
  -8   2   6  169.31    4.38
  -8   2   6  173.31    4.34
   8   2  -6  166.13    3.73
   8   2  -6  177.00    3.80
   8   2  -6  162.52    3.77
  -8   2   6  167.20    4.52
  -8   2   6  167.34    4.58
   8   2  -6  173.74    3.63
   8   2  -6  169.17    3.78
   8  -2  -6  167.20    4.32
   8  -2  -6  172.31    4.38
  -8  -2   6  168.66    3.63
   8  -2  -6  174.56    4.61
   8  -2  -6  170.94    4.33
   8  -2  -6  173.11    4.58
   8  -2  -6  174.30    4.35
  -8   2   5   24.50    2.18
  -8   2   5   25.72    2.03
  -8   2   5   24.32    2.14
  -8   2   5   23.50    2.27
  -8   2   5   23.58    2.20
  -8   2   5   25.30    2.02
   8  -2  -5   25.25    2.36
   8  -2  -5   25.76    2.15
   8  -2  -5   23.61    1.82
   8  -2  -5   25.73    2.17
   8  -2  -5   24.97    2.04
   8  -2  -5   23.90    2.14
  -8   2   4   67.09    2.65
  -8   2   4   67.55    2.47
  -8   2   4   67.97    2.61
  -8   2   4   70.82    2.46
  -8   2   4   68.41    2.47
  -8   2   4   67.12    2.47
   8  -2  -4   71.78    2.56
   8  -2  -4   68.07    2.55
   8  -2  -4   66.17    2.55
   8  -2  -4   65.97    2.45
   8  -2  -4   68.15    2.69
   8  -2  -4   62.59    2.71
  -8   2   3   40.58    2.18
  -8   2   3   39.00    1.98
  -8   2   3   38.38    2.01
  -8   2   3   39.52    1.99
  -8   2   3   37.90    2.01
  -8   2   3   37.87    2.16
   8  -2  -3   35.78    2.10
   8  -2  -3   37.32    2.26
   8  -2  -3   40.15    2.02
   8  -2  -3   35.92    2.07
   8  -2  -3   38.16    2.27
   8  -2  -3   37.50    2.07
  -8   2   2  158.33    3.66
  -8   2   2  150.56    3.64
  -8   2   2  149.30    3.61
  -8   2   2  149.89    3.79
  -8   2   2  147.50    3.61
  -8   2   2  152.02    3.77
   8  -2  -2  148.24    3.81
   8  -2  -2  149.74    3.64
   8  -2  -2  149.71    3.85
   8  -2  -2  151.97    3.63
   8  -2  -2  150.49    3.61
   8  -2  -2  148.04    3.68
  -8   2   1   51.63    2.07
  -8   2   1   57.45    2.23
  -8   2   1   52.62    2.10
  -8   2   1   57.20    2.37
  -8   2   1   53.73    2.20
  -8   2   1   54.68    2.31
   8  -2  -1   54.99    2.13
   8  -2  -1   50.19    2.21
   8  -2  -1   51.70    2.13
   8  -2  -1   55.96    2.21
   8  -2  -1   53.04    2.36
   8  -2  -1   54.02    2.43
  -8   2   0  546.41   10.64
  -8   2   0  552.65   10.83
  -8   2   0  566.58   10.66
  -8   2   0  553.80   10.84
  -8   2   0  542.99   10.65
   8  -2   0  547.53   10.67
   8  -2   0  551.28   10.87
   8  -2   0  537.57   10.64
   8  -2   0  562.52   10.90
   8  -2   0  561.63   10.68
   8  -2   0  554.06   10.66
   8   2   1  254.95    5.02
  -8   2  -1  250.21    5.37
  -8   2  -1  247.97    5.39
  -8   2  -1  253.50    5.42
   8   2   1  262.26    5.00
  -8   2  -1  245.40    5.38
   8   2   1  256.07    5.03
  -8   2  -1  257.68    5.64
   8   2   1  256.41    5.12
  -8   2  -1  248.39    5.58
   8   2   1  259.70    5.12
   8   2   1  256.48    4.96
   8  -2   1  255.49    5.50
   8  -2   1  249.19    5.42
  -8  -2  -1  254.03    4.94
   8  -2   1  246.01    5.41
  -8  -2  -1  259.66    5.05
  -8  -2  -1  255.17    5.04
   8  -2   1  246.73    5.62
   8  -2   1  252.13    5.68
   8  -2   1  249.01    5.42
   8   2   2    1.29    0.94
  -8   2  -2    0.92    1.13
  -8   2  -2    0.50    1.36
  -8   2  -2    0.10    1.02
  -8   2  -2    1.10    0.93
   8   2   2    3.30    0.86
   8   2   2    1.49    0.94
   8   2   2    2.75    1.02
  -8   2  -2    1.18    1.10
   8   2   2    1.93    0.86
  -8   2  -2    2.06    1.13
   8   2   2    3.36    0.89
  -8  -2  -2    2.20    0.90
  -8  -2  -2    2.03    0.77
   8  -2   2    1.64    1.28
   8  -2   2    2.23    1.19
   8  -2   2    0.62    1.13
   8  -2   2    1.51    1.20
   8  -2   2    0.09    1.24
   8  -2   2    1.68    1.29
  -8  -2  -2    1.87    0.75
  -8  -2  -2    2.28    0.89
   8   2   3   -0.64    1.08
  -8   2  -3    4.41    1.26
   8   2   3    0.89    1.03
   8   2   3    1.95    1.11
  -8   2  -3    2.43    1.20
   8   2   3   -0.04    0.96
   8   2   3    1.37    1.02
  -8   2  -3    1.76    1.49
   8   2   3    1.58    2.09
  -8   2  -3    2.56    1.24
  -8   2  -3    0.19    1.06
  -8   2  -3    0.48    1.11
   8  -2   3    2.31    1.32
  -8  -2  -3    1.88    0.90
  -8  -2  -3    0.86    0.75
   8  -2   3    3.69    1.38
   8  -2   3    2.34    1.46
  -8  -2  -3    2.74    0.92
  -8  -2  -3    1.01    0.99
   8  -2   3    2.77    1.18
  -8  -2  -3    1.59    1.03
   8  -2   3    1.94    1.19
   8  -2   3    4.17    1.16
  -8  -2  -3    1.65    0.75
  -8   2  -4    3.12    1.15
   8   2   4    2.57    1.18
  -8   2  -4    3.30    1.46
  -8   2  -4    3.77    1.31
  -8   2  -4    3.14    1.25
   8   2   4    2.11    1.33
   8   2   4    2.67    1.26
  -8   2  -4    0.56    1.10
   8   2   4    0.99    1.32
   8   2   4    2.70    1.25
  -8   2  -4    2.39    1.21
   8   2   4    1.17    1.29
   8  -2   4    1.72    1.33
   8  -2   4    4.44    1.38
  -8  -2  -4    3.23    1.25
   8  -2   4    2.85    1.44
  -8  -2  -4    1.71    1.04
  -8  -2  -4    3.92    1.13
  -8  -2  -4    2.34    1.20
  -8  -2  -4    2.37    1.03
  -8  -2  -4    2.31    0.98
   8  -2   4    3.04    1.63
   8  -2   4    1.60    1.47
   8  -2   4    3.38    1.73
  -8   2  -5   65.99    3.07
   8   2   5   60.94    2.95
  -8   2  -5   65.73    4.66
   8   2   5   66.41    2.95
  -8   2  -5   62.88    3.25
  -8   2  -5   66.81    2.94
   8   2   5   61.63    3.16
  -8   2  -5   63.75    2.87
   8   2   5   59.65    3.14
   8   2   5   63.38    2.83
   8   2   5   67.25    2.94
  -8   2  -5   61.52    3.20
  -8  -2  -5   62.62    2.53
   8  -2   5   63.69    3.46
  -8  -2  -5   64.26    2.90
   8  -2   5   60.79    3.49
  -8  -2  -5   56.86    2.82
  -8  -2  -5   58.51    3.22
   8  -2   5   64.89    3.22
   8  -2   5   61.71    4.10
  -8  -2  -5   66.31    2.51
  -8  -2  -5   66.77    2.70
   8  -2   5   65.40    2.92
   8   2   6    6.29    1.71
   8   2   6    5.18    2.01
  -8   2  -6    6.76    1.82
  -8   2  -6    8.48    1.58
   8   2   6    5.92    1.89
  -8   2  -6    5.76    2.01
  -8   2  -6    7.69    1.59
   8   2   6    6.64    1.83
  -8   2  -6    7.91    1.56
   8   2   6    5.49    1.65
   8   2   6    8.83    1.82
  -8   2  -6    7.69    2.04
   8  -2   6    8.76    2.05
   8  -2   6    5.67    2.33
   8  -2   6    7.34    1.89
  -8  -2  -6    7.21    1.65
   8  -2   6    6.28    1.64
  -8  -2  -6    4.65    1.46
  -8  -2  -6    9.44    1.48
  -8  -2  -6    7.20    1.65
   8  -2   6    5.94    2.04
   8  -2   6    6.56    1.96
  -8  -2  -6    6.49    1.43
  -8  -2  -6    7.65    1.45
  -8   2  -7    2.24    2.34
  -8   2  -7    2.75    1.65
  -8   2  -7    2.21    1.82
   8   2   7   -0.71    2.03
  -8   2  -7    2.71    1.69
   8   2   7    2.37    1.86
   8   2   7    2.49    2.15
  -8   2  -7    3.17    1.71
  -8   2  -7    0.15    1.98
   8   2   7    1.90    1.87
   8   2   7    1.09    1.73
   8   2   7   -4.03    1.95
   8  -2   7    4.69    2.09
  -8  -2  -7   -0.40    1.53
   8  -2   7   -2.82    1.94
   8  -2   7   -1.70    2.16
  -8  -2  -7    0.26    1.84
  -8  -2  -7    2.71    1.61
  -8  -2  -7   -0.14    1.50
   8  -2   7    4.35    2.13
  -8  -2  -7    1.00    3.03
   8  -2   7    1.60    2.21
   8  -2   7   -1.71    1.71
  -8  -2  -7    1.26    1.80
   8   2   8    1.01    2.33
  -8   2  -8    0.93    2.22
   8   2   8    4.42    2.58
  -8   2  -8    4.60    2.10
  -8   2  -8    0.10    2.12
  -8   2  -8    1.72    1.89
   8   2   8    3.67    2.19
   8   2   8    1.98    2.29
  -8   2  -8    5.91    2.09
   8   2   8    0.06    2.24
  -8   2  -8   -0.19    2.30
   8   2   8    5.43    2.39
  -8  -2  -8    2.12    2.22
   8  -2   8    4.71    2.03
   8  -2   8    3.91    2.57
   8  -2   8    2.96    2.53
  -8  -2  -8    3.87    1.85
  -8  -2  -8    2.82    2.06
  -8  -2  -8   -1.03    1.77
   8  -2   8    3.86    2.45
  -8  -2  -8   -0.31    1.84
   8  -2   8   -4.47    2.54
  -8  -2  -8    1.23    1.96
   8  -2   8    0.23    2.28
  -8   3   8    0.92    2.02
   8   3  -8    2.85    1.34
   8   3  -8    2.36    1.37
  -8   3   8    0.30    1.68
   8   3  -8    1.74    1.31
  -8   3   8    0.78    1.90
  -8   3   8   -2.99    2.10
  -8   3   8   -0.03    1.74
  -8   3   8   -0.67    2.02
   8   3  -8   -1.66    1.28
   8   3  -8    0.31    1.34
   8   3  -8   -0.03    1.29
   8  -3  -8    0.94    1.73
   8  -3  -8   -0.64    2.13
   8  -3  -8    2.38    1.96
   8  -3  -8   -0.72    3.05
   8  -3  -8   -4.05    1.70
   8  -3  -8    0.25    1.93
  -8   3   7    2.43    1.59
  -8   3   7    4.01    1.69
  -8   3   7    3.13    1.59
   8   3  -7    1.99    1.12
  -8   3   7    2.00    1.82
  -8   3   7    3.55    1.96
  -8   3   7    3.30    1.89
   8   3  -7    0.99    1.07
   8  -3  -7    2.56    1.65
   8  -3  -7   -0.90    2.04
   8  -3  -7    5.48    1.67
   8  -3  -7    0.86    1.62
   8  -3  -7   -0.09    1.74
   8  -3  -7    1.97    2.02
  -8   3   6    3.61    1.59
  -8   3   6    5.07    1.64
  -8   3   6    2.18    1.59
  -8   3   6    0.99    1.55
  -8   3   6    4.16    1.51
  -8   3   6    1.09    1.48
   8  -3  -6    4.30    1.52
   8  -3  -6    4.00    1.96
   8  -3  -6    1.41    1.57
   8  -3  -6    2.45    1.48
   8  -3  -6    4.90    1.77
   8  -3  -6    3.71    1.86
  -8   3   5   -0.82    1.44
  -8   3   5    3.98    2.32
  -8   3   5   -0.15    1.49
  -8   3   5    3.21    1.53
  -8   3   5    2.06    1.38
  -8   3   5    0.04    1.34
   8  -3  -5    0.64    1.55
   8  -3  -5   -0.33    1.44
   8  -3  -5   -0.40    1.35
   8  -3  -5    1.16    2.53
   8  -3  -5    1.41    2.18
   8  -3  -5    2.93    1.59
  -8   3   4    5.45    1.55
  -8   3   4    6.56    1.59
  -8   3   4    5.60    1.34
  -8   3   4    6.81    1.42
  -8   3   4    5.62    1.37
   8  -3  -4    6.41    1.43
   8  -3  -4    4.84    1.37
   8  -3  -4    5.77    1.51
   8  -3  -4    5.59    1.68
   8  -3  -4    7.12    1.58
  -8   3   3   73.37    2.88
  -8   3   3   71.47    3.05
  -8   3   3   73.26    2.85
  -8   3   3   73.35    3.04
  -8   3   3   73.27    2.86
  -8   3   3   73.32    2.85
   8  -3  -3   73.31    3.01
   8  -3  -3   77.35    3.06
   8  -3  -3   77.47    2.94
   8  -3  -3   76.73    2.84
   8  -3  -3   76.54    3.23
   8  -3  -3   73.52    3.16
  -8   3   2   47.01    2.44
  -8   3   2   43.88    2.63
  -8   3   2   47.18    2.43
  -8   3   2   47.76    2.46
  -8   3   2   45.40    2.49
  -8   3   2   44.03    2.61
   8  -3  -2   45.06    2.71
   8  -3  -2   42.64    2.42
   8  -3  -2   45.98    2.63
   8  -3  -2   46.63    2.77
   8  -3  -2   47.36    2.50
   8  -3  -2   45.04    2.71
  -8   3   1    0.51    1.19
  -8   3   1   -0.92    1.40
  -8   3   1    0.15    1.36
  -8   3   1    0.54    1.05
  -8   3   1   -0.09    1.24
  -8   3   1   -0.01    1.28
   8  -3  -1    1.91    1.27
   8  -3  -1   -0.87    1.41
   8  -3  -1   -1.06    1.33
   8  -3  -1   -0.76    1.17
   8  -3  -1   -2.33    1.26
   8  -3  -1    1.01    1.60
  -8   3   0   50.49    2.69
  -8   3   0   51.07    2.41
  -8   3   0   53.50    2.53
  -8   3   0   47.59    2.58
  -8   3   0   53.76    2.61
  -8   3   0   51.57    2.40
   8  -3   0   48.77    2.75
   8  -3   0   50.94    2.90
   8  -3   0   52.71    2.59
   8  -3   0   53.86    2.50
   8  -3   0   53.93    2.70
   8  -3   0   54.01    2.60
  -8   3  -1    8.84    1.36
   8   3   1   12.23    0.97
   8   3   1   11.87    1.10
  -8   3  -1   10.56    1.52
  -8   3  -1    9.41    1.24
  -8   3  -1   11.36    1.38
   8   3   1   10.99    0.90
   8   3   1   12.84    1.06
  -8   3  -1   10.11    1.47
  -8   3  -1   10.29    1.52
   8   3   1   11.32    1.00
   8  -3   1    8.51    1.77
  -8  -3  -1   11.27    0.86
   8  -3   1    8.64    1.37
   8  -3   1   10.41    1.59
   8  -3   1    8.64    1.41
   8  -3   1   10.05    1.47
   8  -3   1    9.97    1.60
  -8   3  -2    1.03    1.29
   8   3   2    2.10    0.91
  -8   3  -2    2.72    1.32
  -8   3  -2    2.33    1.52
  -8   3  -2    1.77    1.44
  -8   3  -2    1.68    1.28
   8   3   2    2.62    1.12
   8   3   2    2.15    1.08
   8   3   2    0.89    0.99
   8   3   2    1.62    1.02
  -8   3  -2    1.04    1.23
   8   3   2    1.81    1.18
  -8  -3  -2    1.92    0.88
   8  -3   2    1.84    1.40
   8  -3   2    1.88    1.52
   8  -3   2    2.48    1.45
   8  -3   2    1.09    1.54
  -8  -3  -2    1.14    1.00
   8  -3   2    0.71    1.30
  -8  -3  -2    2.29    0.91
   8  -3   2    2.08    1.63
  -8  -3  -2    1.46    1.03
   8   3   3   74.04    2.69
  -8   3  -3   71.20    3.25
   8   3   3   77.42    2.72
  -8   3  -3   72.00    3.06
  -8   3  -3   77.48    3.33
  -8   3  -3   70.67    3.74
  -8   3  -3   73.69    2.95
   8   3   3   75.12    2.77
   8   3   3   73.57    2.55
   8   3   3   69.40    4.17
   8   3   3   72.37    2.74
  -8   3  -3   72.25    4.81
  -8  -3  -3   70.45    2.60
  -8  -3  -3   73.14    2.66
  -8  -3  -3   74.78    2.51
   8  -3   3   76.35    3.10
  -8  -3  -3   73.88    2.49
   8  -3   3   76.93    3.52
   8  -3   3   69.86    3.40
   8  -3   3   73.38    3.30
   8  -3   3   81.17    3.20
   8  -3   3   74.11    3.27
   8   3   4    7.57    1.60
  -8   3  -4    4.94    1.74
  -8   3  -4    8.23    1.73
   8   3   4    7.72    1.69
  -8   3  -4    6.62    1.75
   8   3   4    7.50    1.42
   8   3   4    7.96    2.78
  -8   3  -4    6.52    1.58
   8   3   4    3.93    1.38
  -8   3  -4    7.63    1.58
   8   3   4    6.07    1.51
  -8   3  -4    8.91    1.68
  -8  -3  -4    7.80    1.41
   8  -3   4    6.11    1.91
   8  -3   4    2.72    2.06
  -8  -3  -4    8.02    1.30
   8  -3   4    9.32    1.90
   8  -3   4   11.76    2.22
  -8  -3  -4    6.03    1.38
  -8  -3  -4    8.33    1.36
   8  -3   4    4.14    1.57
   8   3   5    3.49    1.84
   8   3   5    2.56    1.69
  -8   3  -5    1.49    1.58
   8   3   5    2.03    1.51
  -8   3  -5    1.52    1.77
   8   3   5    3.97    1.59
  -8   3  -5    4.14    1.99
  -8   3  -5    3.53    1.67
  -8   3  -5    2.20    1.74
   8   3   5    3.02    1.82
  -8   3  -5    1.16    1.51
   8   3   5    0.73    1.63
   8  -3   5   -0.88    1.70
   8  -3   5    2.09    2.01
  -8  -3  -5    1.99    1.36
   8  -3   5   -0.13    1.93
  -8  -3  -5   -0.62    1.46
  -8  -3  -5    1.49    1.41
   8  -3   5    0.06    1.93
   8  -3   5    0.12    1.70
   8  -3   5    1.93    1.87
  -8   3  -6   28.94    2.18
  -8   3  -6   33.56    3.36
   8   3   6   32.44    3.36
  -8   3  -6   31.33    2.71
   8   3   6   32.42    3.17
   8   3   6   33.28    2.49
  -8   3  -6   30.14    2.50
  -8   3  -6   33.61    2.37
   8   3   6   25.35    2.48
   8   3   6   35.52    3.43
  -8   3  -6   37.44    3.38
   8   3   6   31.35    2.34
  -8  -3  -6   32.37    2.54
   8  -3   6   30.00    2.52
   8  -3   6   29.98    2.98
  -8  -3  -6   30.78    2.61
  -8  -3  -6   34.29    3.07
  -8  -3  -6   24.46    2.21
  -8  -3  -6   36.58    3.06
   8  -3   6   35.96    3.46
   8  -3   6   26.67    2.33
   8  -3   6   26.82    2.71
  -8  -3  -6   27.46    2.25
   8  -3   6   26.45    2.71
   8   3   7   -0.90    2.24
   8   3   7   -3.53    2.04
  -8   3  -7    1.65    2.05
  -8   3  -7    0.29    2.40
   8   3   7    3.93    2.06
  -8   3  -7    3.03    2.21
   8   3   7    2.12    2.20
  -8   3  -7    6.05    2.03
   8   3   7    3.22    2.28
  -8   3  -7    1.82    1.93
   8   3   7    1.87    2.53
  -8   3  -7   -0.46    1.77
   8  -3   7    1.49    2.53
  -8  -3  -7    1.49    1.85
   8  -3   7    1.40    2.70
   8  -3   7   -0.17    2.28
  -8  -3  -7   -1.30    2.14
  -8  -3  -7   -3.90    1.89
   8  -3   7    6.19    2.46
   8  -3   7    2.80    2.14
  -8  -3  -7   -2.27    1.57
  -8  -3  -7    2.99    1.75
  -8  -3  -7    2.85    1.99
   8  -3   7    3.94    2.53
  -8   4   6   15.35    2.28
  -8   4   6   15.06    2.20
  -8   4   6   20.87    2.25
  -8   4   6   21.61    2.33
  -8   4   6   17.32    2.09
  -8   4   6   16.08    2.18
   8  -4  -6   17.84    2.22
   8  -4  -6   20.46    2.37
   8  -4  -6   16.71    2.33
   8  -4  -6   15.51    2.25
   8  -4  -6   20.27    2.25
  -8   4   5    2.75    1.89
  -8   4   5    1.39    1.75
  -8   4   5    5.40    1.82
  -8   4   5    1.93    2.15
  -8   4   5    4.35    1.99
  -8   4   5    2.50    1.71
   8  -4  -5    6.42    1.92
   8  -4  -5    2.13    1.65
   8  -4  -5    1.08    1.90
   8  -4  -5    1.98    2.06
   8  -4  -5    1.62    1.78
   8  -4  -5    4.06    1.79
  -8   4   4    2.64    1.85
  -8   4   4    4.01    1.98
  -8   4   4    5.52    1.77
  -8   4   4    6.33    1.87
  -8   4   4    3.42    1.82
  -8   4   4    6.34    1.97
   8  -4  -4    5.10    1.90
   8  -4  -4    4.48    1.90
   8  -4  -4    4.79    1.78
   8  -4  -4    1.92    1.79
   8  -4  -4    2.59    1.97
   8  -4  -4    7.97    1.69
  -8   4   3   54.97    3.27
  -8   4   3   60.96    3.29
  -8   4   3   55.05    3.23
  -8   4   3   51.95    3.32
  -8   4   3   55.84    4.35
  -8   4   3   55.63    3.25
   8  -4  -3   58.86    3.27
   8  -4  -3   51.20    3.52
   8  -4  -3   58.04    3.03
   8  -4  -3   63.48    3.68
   8  -4  -3   56.94    3.58
   8  -4  -3   62.93    3.34
  -8   4   2    5.79    1.86
  -8   4   2    3.60    1.66
  -8   4   2    3.37    1.46
  -8   4   2    3.68    1.46
  -8   4   2    5.14    1.53
   8  -4  -2    2.78    1.68
   8  -4  -2    4.66    1.62
   8  -4  -2    3.83    1.88
   8  -4  -2    2.36    1.99
   8  -4  -2    6.59    1.62
  -8   4   1   57.80    3.07
  -8   4   1   56.36    3.17
  -8   4   1   43.33    3.97
  -8   4   1   58.82    3.16
  -8   4   1   57.89    3.25
  -8   4   1   55.95    3.09
   8  -4  -1   59.51    3.25
   8  -4  -1   60.86    3.60
   8  -4  -1   57.15    3.47
   8  -4  -1   58.72    3.00
   8  -4  -1   58.61    3.41
   8  -4  -1   53.56    3.74
  -8   4   0    2.54    1.64
  -8   4   0    4.43    1.60
  -8   4   0    4.18    1.75
  -8   4   0    2.67    1.51
  -8   4   0    4.24    1.80
  -8   4   0    5.85    1.67
   8  -4   0    9.86    1.87
   8  -4   0    6.10    1.54
   8  -4   0    1.44    1.97
   8  -4   0    4.31    1.68
   8  -4   0    6.21    1.89
   8   4   1    0.66    1.15
  -8   4  -1   -3.41    1.68
  -8   4  -1    1.89    1.64
  -8   4  -1    0.17    1.55
  -8   4  -1   -0.81    1.54
  -8   4  -1   -1.76    1.32
   8   4   1    1.24    1.15
  -8   4  -1    0.75    1.59
   8  -4   1   -1.65    1.87
   8  -4   1   -0.64    1.86
   8  -4   1    1.38    1.54
   8  -4   1   -0.73    2.86
   8  -4   1   -0.30    1.49
   8  -4   1    0.56    1.75
  -8   4  -2   20.92    1.89
   8   4   2   20.51    1.67
  -8   4  -2   18.73    1.89
   8   4   2   21.31    1.74
   8   4   2   18.01    1.51
   8   4   2   19.73    1.47
  -8   4  -2   14.82    1.65
  -8   4  -2   17.53    1.89
   8   4   2   18.80    1.87
  -8   4  -2   22.41    2.25
  -8   4  -2   17.24    1.95
   8   4   2   23.80    2.34
   8  -4   2   19.21    2.11
   8  -4   2   15.70    1.84
  -8  -4  -2   19.38    1.39
   8  -4   2   19.41    2.26
   8  -4   2   19.48    2.30
   8  -4   2   18.36    2.48
   8  -4   2   18.23    1.99
   8   4   3    8.71    1.52
  -8   4  -3    9.63    1.71
   8   4   3    9.31    1.78
  -8   4  -3    8.23    1.96
  -8   4  -3    6.44    1.80
  -8   4  -3   11.71    1.88
   8   4   3   13.11    1.43
  -8   4  -3    7.98    1.78
   8   4   3    9.50    1.61
   8   4   3    9.51    1.71
  -8   4  -3    8.70    1.96
   8   4   3   10.72    1.61
   8  -4   3   10.21    2.11
   8  -4   3   11.25    2.30
   8  -4   3   10.23    1.97
  -8  -4  -3    8.78    1.35
   8  -4   3    8.42    2.14
   8  -4   3    5.86    2.03
  -8  -4  -3    8.73    1.39
   8  -4   3   15.87    1.97
  -8  -4  -3    7.06    1.48
  -8  -4  -3    6.65    1.46
   8   4   4    0.86    1.93
  -8   4  -4    0.94    1.88
  -8   4  -4    3.82    2.06
  -8   4  -4    1.22    1.92
  -8   4  -4    1.91    1.77
   8   4   4    2.67    1.45
   8   4   4    5.88    1.80
  -8   4  -4    1.86    2.19
   8   4   4    5.06    1.79
   8   4   4    3.67    1.68
   8   4   4    3.41    1.63
  -8   4  -4    2.83    1.93
   8  -4   4    0.65    2.14
   8  -4   4    7.70    2.48
   8  -4   4    5.51    2.01
  -8  -4  -4    3.01    1.40
   8  -4   4    1.66    1.88
  -8  -4  -4    2.77    1.45
   8  -4   4    4.96    2.03
  -8  -4  -4    2.66    1.60
   8  -4   4    2.75    1.97
  -8  -4  -4    4.17    1.57
  -8   4  -5    2.71    2.21
  -8  -4  -5    1.52    1.82
   8  -4   5    4.53    2.49
  -8  -4  -5    2.64    1.73
  -9   0  10    3.40    1.95
   9   0 -10    2.79    1.80
   9   0 -10    2.36    1.85
   9   0 -10    1.88    1.79
  -9   0  10    4.30    1.76
  -9   0  10    1.07    1.50
  -9   0  10    2.43    2.12
   9   0 -10    2.57    1.68
  -9   0  10    1.46    1.48
   9   0 -10    0.81    1.56
   9   0 -10   -0.32    1.74
   9   0  -9   -3.56    1.39
  -9   0   9    0.56    1.57
   9   0  -9    0.08    1.48
  -9   0   9    0.49    1.56
   9   0  -9   -0.37    1.58
  -9   0   9   -3.83    1.26
   9   0  -9   -0.55    1.31
   9   0  -9   -1.35    1.60
  -9   0   9    0.10    1.69
  -9   0   9   -1.30    1.55
   9   0  -9    2.16    1.67
  -9   0   9    0.47    1.27
  -9   0   8  380.22    7.60
   9   0  -8  374.18    7.69
  -9   0   8  361.88    7.88
   9   0  -8  360.94    7.83
   9   0  -8  367.83    7.57
  -9   0   8  353.72    7.36
  -9   0   8  363.71    7.63
   9   0  -8  373.70    7.74
  -9   0   8  365.17    7.39
  -9   0   8  359.56    7.77
   9   0  -7   -0.71    1.15
  -9   0   7    0.28    1.33
   9   0  -7   -0.21    1.13
   9   0  -7    2.75    1.19
  -9   0   7    1.21    1.14
  -9   0   7    1.48    1.19
  -9   0   7    0.75    0.98
   9   0  -7    1.52    1.15
   9   0  -7    1.20    1.21
  -9   0   7   -0.58    0.96
  -9   0   7   -0.02    1.07
   9   0  -7   -0.49    1.08
  -9   0   6   20.39    1.52
  -9   0   6   19.06    1.86
   9   0  -6   21.24    1.89
  -9   0   6   21.74    1.75
  -9   0   6   23.94    1.75
  -9   0   6   20.91    1.46
   9   0  -6   21.82    1.85
   9   0  -6   23.12    1.78
   9   0  -6   23.41    1.75
   9   0  -6   20.09    1.84
   9   0  -6   18.23    1.79
  -9   0   6   17.95    1.47
   9   0  -5    0.21    0.89
   9   0  -5    0.27    0.95
   9   0  -5    1.53    0.92
  -9   0   5    1.07    0.91
   9   0  -5    1.02    1.00
  -9   0   5    0.12    0.99
  -9   0   5    0.73    0.75
   9   0  -5    0.06    0.87
  -9   0   5    2.35    0.86
   9   0  -5    0.69    0.90
  -9   0   5    0.40    0.79
  -9   0   5    0.08    0.68
   9   0  -4   17.64    1.49
   9   0  -4   17.74    1.51
  -9   0   4   18.36    1.42
  -9   0   4   20.25    1.46
   9   0  -4   18.05    1.43
   9   0  -4   16.70    1.58
   9   0  -4   19.91    1.52
  -9   0   4   19.50    1.21
  -9   0   4   16.51    1.53
   9   0  -4   17.37    1.51
  -9   0   4   19.25    1.22
  -9   0   3   -0.97    0.60
  -9   0   3   -1.33    0.71
   9   0  -3   -1.38    0.74
   9   0  -3   -1.07    0.77
   9   0  -3   -1.42    0.76
  -9   0   3   -1.42    0.78
   9   0  -3    0.05    0.79
   9   0  -3   -1.14    0.86
   9   0  -3   -1.77    0.84
  -9   0   3   -1.16    0.61
  -9   0   3   -0.38    0.74
  -9   0   2  781.92   14.48
  -9   0   2  759.42   14.41
  -9   0   2  791.64   14.41
   9   0  -2  776.48   14.49
   9   0  -2  786.24   14.53
  -9   0   2  780.12   14.60
   9   0  -2  794.65   14.51
   9   0  -2  796.46   14.64
  -9   0   2  789.36   14.49
   9   0  -2  776.51   14.53
   9   0  -2  770.95   14.62
  -9   0   1   -1.56    0.69
  -9   0   1   -0.23    0.57
  -9   0   1   -1.05    0.64
   9   0  -1   -2.88    0.84
  -9   0   1   -2.03    0.72
   9   0  -1   -1.98    0.78
  -9   0   1   -2.23    0.70
   9   0  -1   -1.57    0.84
   9   0  -1   -0.35    0.72
   9   0  -1   -2.20    0.76
  -9   0   1   -1.86    0.82
   9   0  -1   -1.69    0.70
  -9   0   0    5.02    0.86
   9   0   0    7.71    0.99
   9   0   0    5.84    0.81
  -9   0   0    4.07    0.70
   9   0   0    6.01    1.00
   9   0   0    5.51    0.86
  -9   0   0    4.49    0.73
   9   0   0    4.84    0.80
  -9   0   0    3.89    0.78
  -9   0   0    3.92    0.81
   9   0   0    5.13    0.82
   9   0   1   -0.56    0.82
   9   0   1    0.93    0.99
   9   0   1    0.04    0.79
  -9   0  -1   -0.62    0.87
  -9   0  -1   -0.07    0.72
   9   0   1    1.02    0.81
  -9   0  -1    0.55    0.84
  -9   0  -1    0.42    0.72
   9   0   1    0.67    0.80
  -9   0  -1    1.06    0.81
   9   0   1   -0.11    0.90
  -9   0  -1   -0.57    0.71
  -9   0  -2  115.32    2.89
  -9   0  -2  115.93    2.88
   9   0   2  115.03    3.15
   9   0   2  115.82    3.18
  -9   0  -2  119.51    3.11
   9   0   2  114.22    3.00
   9   0   2  119.13    3.01
  -9   0  -2  116.11    3.10
   9   0   2  120.87    2.96
  -9   0  -2  115.48    2.92
  -9   0  -2  116.84    2.91
   9   0   2  114.62    2.95
  -9   0  -3   -1.43    1.08
  -9   0  -3   -0.86    1.06
   9   0   3   -2.05    0.95
  -9   0  -3   -2.13    0.94
   9   0   3   -0.53    1.02
  -9   0  -3   -2.33    0.98
   9   0   3   -0.97    1.05
  -9   0  -3   -1.40    0.86
   9   0   3   -0.81    1.14
   9   0   3   -2.38    1.16
   9   0   3   -0.24    1.14
  -9   0  -3    0.01    1.02
  -9   0  -4    1.22    1.15
  -9   0  -4    2.98    1.30
   9   0   4    3.09    1.28
   9   0   4    2.16    1.31
  -9   0  -4    0.70    1.21
   9   0   4   -1.10    1.51
  -9   0  -4    2.64    1.38
  -9   0  -4    2.70    1.11
  -9   0  -4    3.09    1.15
   9   0   4    3.32    1.16
   9   0   4    3.62    1.41
   9   0   4    2.25    1.17
  -9   0  -5   -0.70    1.19
   9   0   5   -2.24    1.60
   9   0   5    1.66    1.54
   9   0   5   -1.88    1.39
  -9   0  -5   -1.26    1.22
   9   0   5   -1.26    1.26
   9   0   5    1.40    1.73
  -9   0  -5    0.32    1.41
  -9   0  -5   -1.35    1.17
   9   0   5   -0.81    1.38
  -9   0  -5   -1.12    1.28
  -9   0  -5    1.02    1.49
   9   0   6    2.98    1.58
  -9   0  -6    1.82    1.37
  -9   0  -6    0.84    1.55
   9   0   6    2.53    1.71
   9   0   6    1.52    1.79
  -9   0  -6   -1.18    1.27
   9   0   6    1.70    1.80
  -9   0  -6    3.33    1.61
  -9   0  -6    0.20    1.38
   9   0   6    0.90    1.77
  -9   0  -7   -1.74    1.55
  -9   0  -7   -0.42    1.64
   9   0   7   -0.05    1.91
   9   0   7    3.26    2.05
   9   0   7    4.36    2.05
  -9   0  -7   -0.86    1.92
  -9   0  -7   -0.40    1.56
   9   0   7    0.01    1.98
   9   0   7   -0.23    1.87
   9   0   7   -2.31    2.29
   9   0   8    8.38    2.15
   9   0   8    5.28    2.40
   9   0   8   10.35    2.29
  -9   0  -8    7.12    1.99
   9   0   8    6.14    2.31
  -9   0  -8    8.87    2.05
   9   0   8    9.07    2.31
  -9   0  -8    8.78    1.95
  -9   0  -8    7.26    2.20
   9   0   8    5.52    2.40
  -9   0  -8    9.57    1.91
  -9   0  -8    9.03    2.46
   9   1 -10    7.55    1.63
   9   1 -10    8.41    1.70
   9   1 -10   10.10    1.83
  -9   1  10    7.87    2.13
   9   1 -10    9.04    1.76
  -9   1  10    9.30    1.81
   9   1 -10    6.90    1.71
  -9   1  10   13.64    2.51
  -9   1  10   10.93    2.26
   9   1 -10   11.08    1.92
  -9   1  10    6.75    1.95
  -9   1  10    8.03    1.93
  -9  -1  10    7.60    1.86
  -9  -1  10    9.13    1.89
   9  -1 -10    9.03    1.84
   9  -1 -10    8.63    3.03
   9  -1 -10    8.53    2.22
   9  -1 -10    5.50    1.87
  -9  -1  10    9.91    2.05
   9  -1 -10   11.67    2.08
   9  -1 -10    6.89    2.24
   9   1  -9  123.97    4.53
  -9   1   9  125.46    4.60
   9   1  -9  140.09    3.84
  -9   1   9  136.33    4.35
   9   1  -9  137.00    4.18
  -9   1   9  142.64    4.08
  -9   1   9  133.45    4.53
   9   1  -9  142.40    3.87
  -9   1   9  130.42    4.56
  -9   1   9  141.65    4.27
   9   1  -9  140.63    4.03
  -9  -1   9  137.08    3.93
   9  -1  -9  137.76    4.19
   9  -1  -9  142.04    4.32
   9  -1  -9  134.51    4.48
  -9  -1   9  141.03    4.21
   9  -1  -9  135.16    4.40
   9  -1  -9  138.90    4.19
  -9  -1   9  134.87    4.14
  -9  -1   9  138.06    3.97
   9  -1  -9  136.36    4.55
   9   1  -8    5.91    1.24
  -9   1   8    6.20    1.42
   9   1  -8    7.33    1.35
  -9   1   8    5.97    1.72
  -9   1   8    7.71    1.56
   9   1  -8    5.72    1.38
  -9   1   8    4.27    1.55
   9   1  -8    4.92    1.35
  -9   1   8    5.60    1.39
   9   1  -8    8.37    1.27
  -9   1   8    5.84    1.46
   9   1  -8    6.27    1.38
   9  -1  -8    6.95    1.72
   9  -1  -8    6.05    1.78
   9  -1  -8    5.23    1.63
   9  -1  -8    6.02    1.47
  -9  -1   8    5.87    1.45
   9  -1  -8    7.31    1.47
  -9  -1   8    4.53    1.50
   9  -1  -8    7.25    2.21
   9   1  -7   10.99    1.32
  -9   1   7   10.91    1.61
  -9   1   7   11.90    1.33
   9   1  -7   10.57    1.17
   9   1  -7   10.34    1.29
  -9   1   7   13.00    1.45
   9   1  -7   14.33    1.30
   9   1  -7   12.15    1.17
  -9   1   7   11.79    1.86
   9   1  -7   10.19    1.24
  -9   1   7   11.12    1.52
  -9   1   7   13.21    1.43
   9  -1  -7   10.13    1.50
   9  -1  -7   10.23    1.64
  -9  -1   7   13.69    1.45
  -9  -1   7   11.78    1.24
   9  -1  -7   12.98    1.48
   9  -1  -7   14.78    1.53
   9  -1  -7   12.39    1.59
   9  -1  -7    8.57    1.40
  -9  -1   7   12.16    1.20
  -9   1   6   24.97    1.92
  -9   1   6   25.80    2.09
  -9   1   6   23.56    2.27
   9   1  -6   25.56    1.71
   9   1  -6   25.05    1.77
  -9   1   6   26.12    2.08
   9   1  -6   23.91    1.71
   9   1  -6   25.05    1.74
   9   1  -6   28.49    1.61
  -9   1   6   28.42    2.03
   9   1  -6   26.03    1.59
  -9   1   6   24.15    1.90
   9  -1  -6   26.78    2.25
  -9  -1   6   25.15    1.68
  -9  -1   6   25.41    1.81
   9  -1  -6   26.86    2.05
   9  -1  -6   27.28    2.07
   9  -1  -6   21.69    2.09
   9  -1  -6   22.14    1.57
  -9  -1   6   24.91    1.69
   9  -1  -6   20.92    1.62
  -9  -1   6   24.77    1.59
  -9   1   5   52.96    2.07
   9   1  -5   52.48    1.80
  -9   1   5   51.24    2.27
  -9   1   5   53.12    2.38
   9   1  -5   52.78    1.75
  -9   1   5   54.85    2.06
  -9   1   5   56.92    2.23
   9   1  -5   52.41    1.71
   9   1  -5   48.47    1.81
   9   1  -5   49.93    1.89
  -9   1   5   51.50    2.16
   9   1  -5   51.29    1.88
  -9  -1   5   51.78    1.77
   9  -1  -5   51.43    2.18
   9  -1  -5   52.64    2.18
   9  -1  -5   51.65    2.37
  -9  -1   5   51.01    1.83
  -9  -1   5   51.07    1.68
   9  -1  -5   50.60    2.25
   9  -1  -5   55.79    2.23
  -9  -1   5   50.32    1.87
   9  -1  -5   53.38    2.41
  -9   1   4  136.56    3.24
   9   1  -4  131.76    2.92
  -9   1   4  138.33    3.27
   9   1  -4  130.66    3.02
   9   1  -4  132.98    2.96
   9   1  -4  138.59    2.91
  -9   1   4  139.60    3.48
  -9   1   4  130.22    3.29
  -9   1   4  137.62    3.30
  -9   1   4  139.18    3.50
   9   1  -4  129.09    2.88
   9   1  -4  133.22    3.00
  -9  -1   4  135.70    2.95
   9  -1  -4  134.43    3.47
  -9  -1   4  138.91    3.00
   9  -1  -4  140.22    3.35
   9  -1  -4  132.23    3.52
   9  -1  -4  138.51    3.36
   9  -1  -4  130.37    3.34
  -9  -1   4  136.88    2.91
   9  -1  -4  136.78    3.34
  -9   1   3  169.69    3.75
  -9   1   3  169.83    3.77
  -9   1   3  171.10    3.96
   9   1  -3  164.22    3.43
   9   1  -3  168.11    3.52
  -9   1   3  171.26    3.96
   9   1  -3  166.78    3.41
  -9   1   3  166.79    3.80
  -9   1   3  169.29    3.78
   9   1  -3  159.74    3.44
   9   1  -3  168.07    3.51
   9  -1  -3  179.92    4.09
   9  -1  -3  169.13    3.82
   9  -1  -3  171.29    3.83
   9  -1  -3  168.62    4.03
  -9  -1   3  170.34    3.39
   9  -1  -3  166.26    3.87
   9  -1  -3  166.43    3.81
   9   1  -2    3.98    0.64
   9   1  -2    4.05    0.67
  -9   1   2    4.80    0.98
  -9   1   2    4.85    1.10
   9   1  -2    3.25    0.65
  -9   1   2    4.49    0.94
   9   1  -2    5.05    0.75
  -9   1   2    5.76    0.93
  -9   1   2    4.59    0.86
   9   1  -2    5.43    0.74
  -9   1   2    2.72    0.98
   9  -1  -2    5.79    1.17
   9  -1  -2    5.66    1.18
  -9  -1   2    6.68    0.62
   9  -1  -2    4.07    0.96
   9  -1  -2    5.72    1.02
   9  -1  -2    5.80    1.06
  -9   1   1   13.57    1.23
   9   1  -1   15.31    1.14
   9   1  -1   15.76    1.21
   9   1  -1   13.93    1.05
  -9   1   1   16.04    1.17
  -9   1   1   15.40    1.29
  -9   1   1   15.01    1.47
   9   1  -1   16.24    1.02
  -9   1   1   16.56    1.08
   9   1  -1   14.15    1.03
  -9   1   1   15.23    1.09
   9   1  -1   16.20    1.12
   9  -1  -1   15.62    1.20
  -9  -1   1   16.14    1.11
   9  -1  -1   16.58    1.54
   9  -1  -1   14.32    1.32
  -9  -1   1   17.48    1.02
   9  -1  -1   14.29    1.14
   9  -1  -1   16.57    1.34
   9  -1  -1   13.69    1.11
  -9  -1   1   16.07    1.19
   9   1   0    2.71    0.71
  -9   1   0    3.42    0.85
   9   1   0    3.37    0.83
   9   1   0    2.33    0.85
  -9   1   0    4.75    1.10
  -9   1   0    2.57    1.02
   9   1   0    4.18    0.68
  -9   1   0    1.85    0.86
   9   1   0    4.64    0.72
   9   1   0    2.14    0.69
  -9   1   0    1.99    0.82
  -9   1   0    2.44    1.02
  -9  -1   0    3.53    0.66
  -9  -1   0    2.94    0.76
   9  -1   0    2.92    1.08
  -9  -1   0    2.17    0.77
   9  -1   0    1.84    0.86
   9  -1   0    2.79    1.15
   9  -1   0    1.29    0.91
   9  -1   0    1.34    0.93
   9  -1   0    2.88    0.96
  -9  -1   0    3.38    0.68
  -9   1  -1  487.80    9.34
   9   1   1  455.03    9.04
  -9   1  -1  475.19    9.10
  -9   1  -1  470.86    9.29
   9   1   1  485.44    8.94
   9   1   1  460.48    9.04
  -9   1  -1  463.58    9.07
  -9   1  -1  468.82    9.11
   9   1   1  477.17    8.92
  -9   1  -1  462.45    9.09
   9   1   1  471.51    8.96
   9   1   1  470.78    8.93
   9  -1   1  475.07    9.14
  -9  -1  -1  471.48    8.92
  -9  -1  -1  484.71    9.03
   9  -1   1  462.92    9.11
   9  -1   1  473.71    9.15
  -9  -1  -1  469.80    8.88
   9  -1   1  467.27    9.34
  -9  -1  -1  459.94    9.03
   9  -1   1  455.36    9.13
   9  -1   1  464.41    9.29
  -9   1  -2   22.36    1.95
  -9   1  -2   21.52    1.76
   9   1   2   24.75    1.64
  -9   1  -2   21.84    1.68
  -9   1  -2   21.45    1.82
  -9   1  -2   24.87    2.05
   9   1   2   24.55    1.65
   9   1   2   24.95    1.73
  -9   1  -2   26.20    1.80
   9   1   2   24.20    1.71
   9   1   2   26.16    1.78
   9   1   2   21.83    1.65
   9  -1   2   24.60    1.94
   9  -1   2   26.52    2.11
  -9  -1  -2   23.98    1.61
  -9  -1  -2   26.42    1.42
  -9  -1  -2   24.75    1.42
   9  -1   2   23.86    1.92
   9  -1   2   22.17    2.06
   9  -1   2   23.21    1.95
   9  -1   2   25.44    1.73
  -9  -1  -2   24.32    1.70
  -9  -1  -2   25.58    1.58
   9   1   3  175.76    4.05
   9   1   3  171.82    4.10
  -9   1  -3  171.61    4.12
   9   1   3  185.58    4.08
   9   1   3  170.15    4.23
   9   1   3  176.58    4.10
  -9   1  -3  173.95    4.17
  -9   1  -3  175.69    4.37
  -9   1  -3  179.11    4.14
   9   1   3  173.00    4.27
  -9   1  -3  181.18    4.43
  -9   1  -3  179.51    4.16
   9  -1   3  170.92    4.24
   9  -1   3  180.55    4.24
  -9  -1  -3  173.82    3.90
  -9  -1  -3  180.44    3.88
  -9  -1  -3  177.07    4.04
   9  -1   3  179.67    4.55
  -9  -1  -3  172.26    4.19
   9  -1   3  176.45    4.19
   9  -1   3  181.24    4.26
   9  -1   3  174.90    4.49
  -9  -1  -3  176.38    4.14
  -9  -1  -3  179.84    4.00
   9   1   4   16.66    1.56
   9   1   4   12.75    1.63
  -9   1  -4   16.67    1.48
   9   1   4   13.74    1.43
  -9   1  -4   17.03    1.41
  -9   1  -4   18.75    1.52
   9   1   4   17.01    1.61
  -9   1  -4   16.59    1.47
   9   1   4   17.24    1.55
   9   1   4   16.86    1.75
  -9   1  -4   17.72    1.77
  -9   1  -4   18.35    1.81
  -9  -1  -4   14.20    1.23
  -9  -1  -4   16.68    1.34
   9  -1   4   17.71    1.75
   9  -1   4   18.13    1.64
  -9  -1  -4   16.86    1.35
   9  -1   4   14.21    1.59
   9  -1   4   16.28    1.86
   9  -1   4   19.87    1.70
  -9  -1  -4   18.44    1.53
   9  -1   4   16.77    1.94
   9   1   5   79.26    3.23
  -9   1  -5   83.15    3.12
   9   1   5   74.31    3.29
   9   1   5   77.71    3.17
  -9   1  -5   74.63    3.36
   9   1   5   76.84    3.04
  -9   1  -5   81.60    3.00
   9   1   5   77.89    3.05
  -9   1  -5   74.28    3.12
   9   1   5   79.50    3.28
  -9   1  -5   73.36    3.10
  -9   1  -5   78.53    3.37
  -9  -1  -5   73.27    3.00
  -9  -1  -5   79.29    3.07
   9  -1   5   76.61    3.28
  -9  -1  -5   79.64    2.90
   9  -1   5   75.86    3.12
   9  -1   5   77.00    3.48
   9  -1   5   73.62    3.58
   9  -1   5   68.97    5.18
   9  -1   5   74.98    3.33
  -9  -1  -5   73.80    4.45
  -9  -1  -5   79.90    2.77
  -9  -1  -5   75.20    2.83
   9   1   6    9.23    2.22
   9   1   6   10.33    1.94
  -9   1  -6    9.84    1.61
   9   1   6   11.69    1.66
  -9   1  -6    8.43    1.88
   9   1   6   13.08    2.09
  -9   1  -6   10.62    1.87
   9   1   6   11.69    1.99
  -9   1  -6   11.28    1.89
   9   1   6    7.65    1.69
  -9   1  -6   10.27    1.76
  -9   1  -6    8.69    1.70
   9  -1   6    8.53    2.04
   9  -1   6   11.13    1.96
   9  -1   6    8.81    1.73
   9  -1   6    8.61    2.09
   9  -1   6    5.92    3.10
  -9  -1  -6   12.46    1.60
  -9  -1  -6   12.57    1.56
  -9  -1  -6    9.96    1.42
  -9  -1  -6   10.08    1.59
  -9  -1  -6   15.71    1.93
   9  -1   6    9.66    3.20
  -9  -1  -6   11.01    1.54
   9   1   7    5.51    1.97
  -9   1  -7    3.92    1.63
   9   1   7    5.32    1.94
  -9   1  -7    4.39    1.81
  -9   1  -7    2.81    1.90
  -9   1  -7    1.82    1.51
  -9   1  -7    2.38    1.75
   9   1   7    2.97    2.17
   9   1   7   -1.31    2.16
  -9   1  -7    1.72    1.91
   9   1   7    3.05    2.14
   9   1   7    3.36    1.83
   9  -1   7   -0.38    2.05
   9  -1   7    0.69    2.05
  -9  -1  -7    2.91    1.70
  -9  -1  -7    4.29    1.74
   9  -1   7    1.45    1.85
   9  -1   7    3.49    2.15
  -9  -1  -7    5.46    1.67
  -9  -1  -7    4.16    1.96
   9  -1   7    2.07    1.80
   9  -1   7    0.73    1.99
  -9  -1  -7    3.42    1.56
  -9  -1  -7    3.04    1.60
   9   1   8   10.65    1.99
  -9   1  -8    7.18    2.11
   9   1   8    8.01    2.57
  -9   1  -8    7.94    2.05
  -9   1  -8    4.48    2.29
   9   1   8    7.53    2.47
   9   1   8   12.54    2.60
  -9   1  -8   12.74    2.59
  -9   1  -8    8.55    2.23
   9   1   8    6.90    2.58
  -9   1  -8   10.77    2.38
   9   1   8    8.54    2.46
  -9  -1  -8   11.23    2.48
   9  -1   8    7.97    2.44
   9  -1   8   13.62    2.55
  -9  -1  -8   15.54    2.05
  -9  -1  -8    8.00    1.98
   9  -1   8    5.43    2.62
   9  -1   8    8.36    2.46
   9  -1   8    6.13    2.49
  -9  -1  -8    7.51    1.75
  -9  -1  -8    8.08    2.01
   9  -1   8    9.63    2.61
  -9  -1  -8    4.71    2.02
   9   2  -9   11.25    1.52
   9   2  -9   10.98    1.47
  -9   2   9   13.69    2.00
  -9   2   9    8.45    2.15
  -9   2   9    9.89    2.12
   9   2  -9    8.60    1.61
  -9   2   9    9.20    2.36
   9   2  -9   12.39    1.59
   9   2  -9    7.76    1.60
  -9   2   9   16.82    2.23
   9   2  -9   10.00    1.67
  -9   2   9   15.41    2.05
   9  -2  -9   10.17    2.02
   9  -2  -9   10.99    2.11
  -9  -2   9   11.64    1.66
  -9  -2   9   10.42    1.50
   9  -2  -9   10.29    2.07
   9  -2  -9    6.90    1.76
   9  -2  -9   11.64    1.96
   9  -2  -9   10.81    2.10
  -9  -2   9   11.05    1.76
  -9  -2   9   13.54    1.80
  -9   2   8   13.59    1.77
   9   2  -8   15.09    1.51
  -9   2   8   13.32    1.80
   9   2  -8   12.26    1.29
   9   2  -8   17.70    1.56
  -9   2   8   11.96    2.04
  -9   2   8   15.76    1.79
  -9   2   8   13.68    1.83
   9   2  -8   13.34    1.49
  -9   2   8   14.86    1.94
   9   2  -8   14.95    1.30
   9   2  -8   14.79    1.46
   9  -2  -8   13.02    1.77
   9  -2  -8   13.82    1.95
  -9  -2   8   14.67    1.53
  -9  -2   8   12.57    1.60
  -9  -2   8   13.67    1.34
  -9  -2   8   14.89    1.59
   9  -2  -8   17.72    1.93
   9  -2  -8   15.05    2.03
   9  -2  -8   13.07    2.06
   9  -2  -8   16.26    2.02
  -9   2   7   -1.01    1.48
  -9   2   7    2.09    1.45
  -9   2   7   -0.48    1.57
   9   2  -7    0.76    1.04
  -9   2   7    0.84    1.72
   9   2  -7   -0.11    0.90
   9   2  -7   -0.05    1.05
  -9   2   7    1.10    1.48
   9   2  -7    1.85    1.09
  -9   2   7   -0.48    1.45
   9   2  -7    0.09    0.94
  -9  -2   7    0.98    1.00
   9  -2  -7   -0.26    1.40
   9  -2  -7    1.65    1.44
   9  -2  -7    0.65    1.61
   9  -2  -7    0.84    1.53
   9  -2  -7   -0.66    1.38
   9  -2  -7    0.08    1.58
  -9   2   6   50.20    2.59
   9   2  -6   48.50    1.74
  -9   2   6   52.54    2.54
   9   2  -6   50.59    1.92
  -9   2   6   50.18    2.78
  -9   2   6   52.62    2.87
  -9   2   6   54.40    2.97
   9   2  -6   50.65    1.93
  -9   2   6   54.70    2.69
   9  -2  -6   53.40    2.95
   9  -2  -6   55.99    2.73
   9  -2  -6   49.86    2.97
   9  -2  -6   49.54    2.76
   9  -2  -6   55.12    2.75
  -9   2   5    8.42    1.59
  -9   2   5    9.22    1.31
  -9   2   5    9.82    1.36
  -9   2   5   11.78    1.61
  -9   2   5    9.74    1.41
  -9   2   5    6.37    1.26
   9  -2  -5    8.62    1.48
   9  -2  -5   10.89    1.55
   9  -2  -5    9.18    1.53
   9  -2  -5   10.35    1.37
   9  -2  -5   10.07    1.39
   9  -2  -5    8.94    1.32
  -9   2   4   12.12    1.30
  -9   2   4    7.10    1.23
  -9   2   4    7.94    1.21
  -9   2   4    8.73    1.40
  -9   2   4    9.18    1.41
  -9   2   4   10.26    1.25
   9  -2  -4    7.52    1.28
   9  -2  -4    7.93    1.24
   9  -2  -4    7.60    1.31
   9  -2  -4    6.11    1.39
   9  -2  -4    8.44    1.42
   9  -2  -4   10.32    1.41
  -9   2   3   72.98    2.53
  -9   2   3   68.75    2.69
  -9   2   3   71.49    2.51
  -9   2   3   67.78    2.50
  -9   2   3   72.51    2.68
  -9   2   3   71.00    2.51
   9  -2  -3   72.08    2.52
   9  -2  -3   72.06    2.58
   9  -2  -3   71.84    2.85
   9  -2  -3   71.14    2.65
   9  -2  -3   69.17    2.79
  -9   2   2    3.73    1.10
  -9   2   2    3.14    1.24
  -9   2   2    3.37    1.02
  -9   2   2    2.86    1.11
  -9   2   2    5.35    1.17
  -9   2   2    3.13    1.16
   9  -2  -2    2.87    1.21
   9  -2  -2    2.44    1.21
   9  -2  -2    4.00    1.19
   9  -2  -2    2.96    1.37
   9  -2  -2    2.16    1.05
   9  -2  -2    2.87    1.03
  -9   2   1   73.00    2.38
  -9   2   1   72.29    2.52
  -9   2   1   74.52    2.56
  -9   2   1   71.91    2.44
  -9   2   1   68.26    2.62
  -9   2   1   75.55    2.67
   9  -2  -1   76.92    2.85
   9  -2  -1   70.29    2.74
   9  -2  -1   70.68    2.52
   9  -2  -1   71.80    2.48
   9  -2  -1   70.03    2.50
   9  -2  -1   73.34    2.61
  -9   2   0  113.75    3.12
  -9   2   0  109.55    3.03
  -9   2   0  113.25    3.33
  -9   2   0  114.24    3.08
  -9   2   0  112.41    3.16
  -9   2   0  112.43    3.32
   9  -2   0  116.88    3.42
   9  -2   0  113.05    3.14
   9  -2   0  107.82    3.32
   9  -2   0  108.64    3.18
   9  -2   0  112.73    3.12
   9  -2   0  109.71    3.20
  -9   2  -1   68.05    2.51
   9   2   1   70.60    2.06
   9   2   1   70.57    2.17
  -9   2  -1   73.07    2.78
  -9   2  -1   70.38    2.43
   9   2   1   70.77    2.17
  -9   2  -1   66.73    2.70
   9   2   1   73.07    2.10
   9   2   1   72.60    1.95
  -9   2  -1   73.05    2.59
   9   2   1   74.61    2.02
  -9   2  -1   73.42    2.51
  -9  -2  -1   68.75    1.90
  -9  -2  -1   70.88    2.05
   9  -2   1   71.08    2.64
  -9  -2  -1   72.64    2.08
   9  -2   1   68.09    2.80
   9  -2   1   71.33    2.88
  -9  -2  -1   69.24    1.91
   9  -2   1   72.21    2.55
   9  -2   1   73.80    2.73
   9  -2   1   74.38    2.60
   9   2   2   17.60    1.76
   9   2   2   16.95    1.59
  -9   2  -2   21.86    2.07
  -9   2  -2   16.85    1.53
   9   2   2   21.24    1.75
   9   2   2   18.55    1.58
  -9   2  -2   21.48    2.00
   9   2   2   20.29    1.76
   9   2   2   19.64    1.70
  -9   2  -2   19.37    1.65
  -9   2  -2   16.95    1.42
  -9   2  -2   24.67    1.98
   9  -2   2   15.12    1.44
   9  -2   2   15.60    1.45
  -9  -2  -2   20.01    1.64
   9  -2   2   18.27    1.86
  -9  -2  -2   19.83    1.50
  -9  -2  -2   22.96    1.63
   9  -2   2   19.80    1.65
   9  -2   2   17.96    1.81
   9  -2   2   18.83    1.55
  -9  -2  -2   18.17    1.46
  -9   2  -3   21.51    1.69
  -9   2  -3   19.09    1.73
  -9   2  -3   22.49    2.17
   9   2   3   20.45    1.94
   9   2   3   16.53    1.60
   9   2   3   21.56    1.87
   9   2   3   20.07    2.04
  -9   2  -3   19.31    1.55
   9   2   3   21.09    1.92
   9   2   3   21.57    1.52
  -9   2  -3   23.29    2.05
  -9   2  -3   20.76    1.63
  -9  -2  -3   18.21    1.40
   9  -2   3   18.10    1.79
  -9  -2  -3   16.80    1.68
   9  -2   3   17.81    1.54
   9  -2   3   22.06    2.05
   9  -2   3   16.35    1.74
  -9  -2  -3   17.99    1.71
   9  -2   3   20.97    1.86
   9  -2   3   18.59    1.59
  -9  -2  -3   18.93    1.85
  -9   2  -4   17.31    1.76
   9   2   4   16.06    1.57
  -9   2  -4   16.00    1.55
   9   2   4   14.21    1.49
   9   2   4   18.84    1.64
  -9   2  -4   15.84    1.82
  -9   2  -4   13.98    2.65
   9   2   4   18.46    1.72
  -9   2  -4   16.71    1.54
   9   2   4   12.17    1.65
   9   2   4   17.17    1.64
  -9   2  -4   17.93    1.95
  -9  -2  -4   16.85    1.22
   9  -2   4   16.81    1.76
   9  -2   4   16.16    2.09
   9  -2   4   18.47    1.90
  -9  -2  -4   11.60    1.43
  -9  -2  -4   17.84    1.39
   9  -2   4   21.28    1.99
  -9  -2  -4   17.25    1.37
  -9  -2  -4   16.48    1.28
   9  -2   4   15.65    1.97
   9  -2   4   19.23    2.18
   9   2   5    6.23    1.56
  -9   2  -5    8.48    1.52
  -9   2  -5    6.61    1.75
   9   2   5    4.78    1.68
   9   2   5    7.68    1.65
   9   2   5    9.23    1.80
  -9   2  -5    9.37    1.84
  -9   2  -5    7.98    1.53
   9   2   5    6.59    1.78
  -9   2  -5    1.23    2.52
  -9   2  -5    4.52    1.63
   9   2   5    7.62    1.74
   9  -2   5    4.63    1.74
  -9  -2  -5    7.56    1.60
  -9  -2  -5    7.27    1.28
   9  -2   5    8.49    2.25
   9  -2   5    6.88    1.77
  -9  -2  -5    4.62    1.32
   9  -2   5    9.53    1.91
   9  -2   5    5.30    1.95
  -9  -2  -5    7.28    1.56
   9  -2   5    7.02    2.11
  -9  -2  -5    7.20    1.33
  -9  -2  -5    8.91    1.37
   9   2   6    7.36    2.03
   9   2   6    8.37    1.75
   9   2   6    7.95    1.85
  -9   2  -6    9.20    1.72
  -9   2  -6    8.49    2.17
  -9   2  -6    8.55    1.98
  -9   2  -6   10.65    1.81
  -9   2  -6    5.39    1.88
   9   2   6    6.75    2.08
   9   2   6   10.31    1.97
  -9   2  -6    8.01    1.83
   9   2   6   11.99    1.90
  -9  -2  -6    8.08    1.56
   9  -2   6   10.03    2.12
  -9  -2  -6   10.17    1.60
   9  -2   6    5.48    2.22
  -9  -2  -6    9.75    1.63
  -9  -2  -6    9.02    1.86
   9  -2   6    8.80    2.12
  -9  -2  -6    9.38    1.93
   9  -2   6    8.14    1.94
   9  -2   6    6.91    2.40
  -9  -2  -6    8.47    1.60
  -9   2  -7    8.65    1.83
   9   2   7    7.04    1.97
  -9   2  -7    8.11    2.19
   9   2   7    9.79    2.27
   9   2   7    6.66    2.29
  -9   2  -7    6.36    1.87
   9   2   7    5.06    2.36
   9   2   7    7.87    2.29
  -9   2  -7    5.50    2.36
  -9   2  -7    9.63    2.00
  -9   2  -7    7.12    1.91
   9   2   7    6.91    2.26
   9  -2   7    4.19    2.22
  -9  -2  -7   12.39    1.83
  -9  -2  -7    6.78    1.66
  -9  -2  -7    7.88    2.17
  -9  -2  -7    7.83    1.87
   9  -2   7    8.87    2.80
   9  -2   7    7.82    2.35
  -9  -2  -7    8.48    1.88
   9  -2   7    7.24    2.12
   9  -2   7    9.59    2.33
   9  -2   7    5.05    2.53
  -9  -2  -7    3.51    2.78
   9   3  -8    2.37    1.42
   9   3  -8    1.81    1.09
   9   3  -8   -0.12    1.35
  -9   3   8    1.98    1.94
  -9   3   8    0.85    1.95
  -9   3   8    1.95    2.10
  -9   3   8    0.24    1.97
  -9   3   8    0.88    1.81
  -9   3   8    2.30    1.87
   9  -3  -8   -3.36    3.30
   9  -3  -8    2.44    1.98
   9  -3  -8   -1.80    1.79
   9  -3  -8    1.28    1.97
   9  -3  -8   -1.17    1.98
  -9   3   7    1.32    1.62
  -9   3   7    3.25    2.00
  -9   3   7    1.73    1.69
  -9   3   7    4.00    1.68
  -9   3   7    3.39    1.86
   9   3  -7    2.87    1.09
   9   3  -7    2.13    1.14
  -9   3   7    2.80    1.95
   9  -3  -7    3.08    1.94
   9  -3  -7    0.00    2.01
   9  -3  -7    1.82    1.70
   9  -3  -7   -0.88    1.73
   9  -3  -7    0.14    1.76
   9  -3  -7    0.52    1.61
  -9   3   6    4.69    1.62
  -9   3   6    8.81    1.61
  -9   3   6    5.38    1.78
  -9   3   6    6.50    2.00
  -9   3   6    1.57    1.58
  -9   3   6    4.98    1.58
   9  -3  -6    4.66    1.67
   9  -3  -6    6.20    1.79
   9  -3  -6    5.05    1.69
   9  -3  -6    3.33    1.63
   9  -3  -6    8.56    1.61
   9  -3  -6    7.36    2.11
  -9   3   5    1.08    1.57
  -9   3   5    0.15    1.73
  -9   3   5   -0.26    1.67
  -9   3   5   -0.20    1.42
  -9   3   5    2.24    1.59
  -9   3   5   -0.80    1.70
   9  -3  -5   -0.60    1.62
   9  -3  -5    3.88    1.46
   9  -3  -5    0.16    1.68
   9  -3  -5    0.77    1.48
   9  -3  -5   -1.34    1.48
   9  -3  -5    1.54    1.62
  -9   3   4   33.07    2.56
  -9   3   4   38.47    2.77
  -9   3   4   31.71    2.76
  -9   3   4   32.69    2.67
  -9   3   4   32.29    2.82
  -9   3   4   38.65    2.65
   9  -3  -4   26.55    2.30
   9  -3  -4   32.48    2.73
   9  -3  -4   30.66    2.55
   9  -3  -4   29.64    2.82
   9  -3  -4   27.67    2.80
   9  -3  -4   31.28    2.92
  -9   3   3   52.81    2.63
  -9   3   3   46.16    2.83
  -9   3   3   44.82    4.33
  -9   3   3   47.47    2.78
  -9   3   3   47.40    2.71
  -9   3   3   50.34    2.68
   9  -3  -3   47.00    2.92
   9  -3  -3   47.91    2.70
   9  -3  -3   47.29    2.79
   9  -3  -3   48.37    2.92
   9  -3  -3   49.56    2.71
   9  -3  -3   43.29    3.08
  -9   3   2   89.12    3.41
  -9   3   2   99.10    3.44
  -9   3   2   92.59    3.16
  -9   3   2   95.41    3.23
  -9   3   2   97.57    3.21
   9  -3  -2   92.78    3.31
   9  -3  -2   96.49    3.20
   9  -3  -2   92.67    3.32
   9  -3  -2   99.76    3.41
   9  -3  -2   96.31    3.58
   9  -3  -2   95.26    3.51
  -9   3   1    0.42    1.29
  -9   3   1    3.22    1.35
  -9   3   1    3.13    1.24
  -9   3   1    0.80    1.31
  -9   3   1    2.97    1.43
  -9   3   1   -0.42    1.25
   9  -3  -1    2.61    1.75
   9  -3  -1   -0.29    1.36
   9  -3  -1    0.12    1.36
   9  -3  -1    2.41    1.51
   9  -3  -1   -0.92    1.25
   9  -3  -1    2.28    1.34
  -9   3   0   21.95    1.58
  -9   3   0   22.54    2.00
  -9   3   0   19.28    1.81
  -9   3   0   20.77    1.73
  -9   3   0   24.34    2.26
  -9   3   0   19.03    1.60
   9  -3   0   22.09    2.07
   9  -3   0   24.44    1.94
   9  -3   0   21.89    1.84
   9  -3   0   22.29    1.83
   9  -3   0   18.97    1.85
   9  -3   0   20.93    1.69
  -9   3  -1   13.38    1.49
  -9   3  -1   10.03    1.58
  -9   3  -1   10.88    1.47
   9   3   1   16.22    1.58
   9   3   1   14.15    1.18
  -9   3  -1   11.30    1.59
   9   3   1   14.19    1.35
   9  -3   1   14.30    1.74
   9  -3   1   15.05    1.87
   9  -3   1   13.09    1.63
   9  -3   1   15.46    2.00
   9  -3   1   10.61    1.80
   9  -3   1   12.94    1.53
  -9   3  -2   13.81    1.61
  -9   3  -2   13.97    1.62
   9   3   2   15.05    1.13
   9   3   2   16.60    1.37
   9   3   2   12.92    1.38
  -9   3  -2   13.79    1.70
  -9   3  -2   13.15    2.46
  -9   3  -2   12.43    1.81
   9   3   2   15.56    1.27
  -9   3  -2   16.10    1.76
   9   3   2   15.55    1.35
   9   3   2   19.68    1.85
  -9  -3  -2   18.57    1.56
   9  -3   2   14.01    1.71
  -9  -3  -2   15.98    1.26
  -9  -3  -2   18.53    1.65
  -9  -3  -2   12.67    2.04
   9  -3   2   11.92    2.00
   9  -3   2   15.56    1.99
   9  -3   2   13.84    1.66
   9  -3   2   14.75    1.78
   9  -3   2   14.69    1.77
  -9   3  -3   15.97    1.74
  -9   3  -3   12.62    1.71
  -9   3  -3   14.57    1.83
  -9   3  -3   14.76    1.68
   9   3   3   18.03    1.51
   9   3   3   18.37    1.45
  -9   3  -3   20.28    2.06
   9   3   3   16.30    1.67
  -9   3  -3   13.90    1.81
   9   3   3   13.62    1.45
   9   3   3   15.57    1.56
   9   3   3   16.92    1.59
   9  -3   3   12.50    2.14
   9  -3   3   12.48    1.77
  -9  -3  -3   21.67    2.01
  -9  -3  -3   17.20    1.30
  -9  -3  -3   16.37    1.50
   9  -3   3   14.67    1.93
   9  -3   3   16.51    1.83
   9  -3   3   15.93    1.97
   9  -3   3   16.17    2.26
  -9  -3  -3   12.18    1.38
  -9   3  -4   -1.12    1.57
   9   3   4   -0.75    1.62
   9   3   4    2.76    1.46
   9   3   4    1.22    1.56
  -9   3  -4    1.43    1.50
   9   3   4    1.69    1.34
   9   3   4   -1.16    1.41
  -9   3  -4    1.08    1.41
  -9   3  -4   -1.09    1.64
   9   3   4    0.61    1.53
  -9   3  -4   -0.80    1.67
  -9   3  -4    1.73    1.61
   9  -3   4    1.91    1.59
   9  -3   4    2.18    1.69
  -9  -3  -4    0.46    1.28
   9  -3   4   -0.58    1.88
   9  -3   4   -0.93    1.89
   9  -3   4    0.89    1.68
  -9  -3  -4    0.22    1.43
  -9  -3  -4    0.70    1.39
  -9  -3  -4    0.03    1.24
   9  -3   4    2.43    1.84
   9   3   5   11.24    2.09
  -9   3  -5    7.67    1.94
   9   3   5   12.89    1.87
   9   3   5   10.72    3.16
  -9   3  -5   16.97    2.33
   9   3   5   11.48    1.87
   9   3   5   15.00    2.00
  -9   3  -5   12.35    1.81
   9   3   5   12.99    1.75
  -9   3  -5    9.84    2.19
  -9   3  -5   15.22    2.14
  -9   3  -5   14.52    2.11
   9  -3   5    9.26    2.25
   9  -3   5   14.14    2.45
  -9  -3  -5   11.47    1.62
  -9  -3  -5   11.51    1.64
   9  -3   5   10.41    2.12
   9  -3   5    9.26    1.93
   9  -3   5   13.01    2.39
  -9  -3  -5   12.27    1.73
   9  -3   5    9.70    2.28
  -9   3  -6   26.49    2.57
   9   3   6   27.37    2.45
   9   3   6   35.50    3.53
   9   3   6   27.33    2.63
   9   3   6   38.76    3.58
  -9   3  -6   25.67    2.50
   9   3   6   29.10    2.38
  -9   3  -6   27.35    3.00
  -9   3  -6   35.01    3.50
  -9   3  -6   29.16    2.61
  -9   3  -6   30.10    2.62
   9   3   6   27.39    2.22
  -9  -3  -6   32.55    3.24
   9  -3   6   29.00    2.86
  -9  -3  -6   27.28    2.65
  -9  -3  -6   30.76    3.17
   9  -3   6   26.95    2.65
   9  -3   6   21.58    2.36
   9  -3   6   30.90    2.92
   9  -3   6   29.61    2.86
   9  -3   6   26.67    2.86
  -9  -3  -6   29.23    2.55
  -9  -3  -6   32.89    3.29
  -9  -3  -6   28.00    2.11
  -9   4   6    8.32    2.13
  -9   4   6    6.76    2.00
  -9   4   6    6.42    2.16
  -9   4   6    4.83    2.18
  -9   4   6    6.70    1.98
  -9   4   6   10.67    2.27
   9  -4  -6    8.51    2.00
   9  -4  -6    9.09    2.34
   9  -4  -6    5.98    2.38
   9  -4  -6    3.36    1.96
   9  -4  -6    3.37    2.17
   9  -4  -6    4.72    2.06
  -9   4   5    3.09    2.11
  -9   4   5    2.06    1.79
  -9   4   5    0.96    1.73
  -9   4   5    2.43    2.20
  -9   4   5    0.22    1.69
  -9   4   5    1.69    1.99
   9  -4  -5   -3.63    1.99
   9  -4  -5    2.16    2.04
   9  -4  -5    0.63    2.08
   9  -4  -5   -2.62    2.02
   9  -4  -5   -0.37    1.93
   9  -4  -5    1.94    1.79
  -9   4   4   26.94    2.36
  -9   4   4   22.08    2.27
  -9   4   4   18.11    2.14
  -9   4   4   20.11    2.37
  -9   4   4   14.81    1.86
  -9   4   4   20.40    2.33
   9  -4  -4   19.45    2.15
   9  -4  -4   21.41    2.35
   9  -4  -4   21.94    2.18
   9  -4  -4   20.71    2.43
   9  -4  -4   18.97    1.97
   9  -4  -4   19.51    2.54
  -9   4   3   52.38    3.54
  -9   4   3   48.23    3.32
  -9   4   3   48.74    3.35
  -9   4   3   53.11    3.45
  -9   4   3   49.16    3.28
  -9   4   3   52.29    3.35
   9  -4  -3   53.67    3.86
   9  -4  -3   54.33    3.43
   9  -4  -3   50.88    3.48
   9  -4  -3   47.53    3.73
   9  -4  -3   53.45    3.62
   9  -4  -3   54.07    3.20
  -9   4   2    4.75    1.82
  -9   4   2    3.19    1.71
  -9   4   2    2.80    2.02
  -9   4   2    7.46    1.97
  -9   4   2    3.81    1.80
  -9   4   2    3.88    1.77
   9  -4  -2    4.43    1.82
   9  -4  -2    3.21    1.78
   9  -4  -2    5.04    2.09
   9  -4  -2    3.85    1.83
   9  -4  -2    5.82    1.98
   9  -4  -2    4.05    1.61
  -9   4   1    5.93    1.80
  -9   4   1    7.03    1.77
  -9   4   1    9.87    1.91
  -9   4   1    8.42    1.91
  -9   4   1   11.44    1.91
  -9   4   1   10.01    1.62
   9  -4  -1    9.35    2.11
   9  -4  -1    6.64    2.13
   9  -4  -1    8.49    1.72
   9  -4  -1    8.48    1.93
   9  -4  -1    6.45    1.85
   9  -4  -1    7.37    1.76
  -9   4   0    1.22    1.48
  -9   4   0    2.69    1.75
  -9   4   0    5.05    1.96
  -9   4   0    4.48    1.57
  -9   4   0    2.03    1.63
  -9   4   0    2.84    1.91
   9  -4   0    5.18    2.04
   9  -4   0    3.35    1.65
   9  -4   0    4.91    2.10
   9  -4   0    5.10    1.69
   9  -4   0    4.04    1.69
   9  -4   0   -0.16    1.81
  -9   4  -1    0.86    1.85
  -9   4  -1    4.80    1.80
  -9   4  -1    1.86    1.93
  -9   4  -1   -0.08    1.53
  -9   4  -1   -1.78    1.54
  -9   4  -1   -0.19    1.58
   9  -4   1   -0.38    1.79
   9  -4   1    2.42    2.07
   9  -4   1    0.86    1.64
   9  -4   1    1.62    1.63
   9  -4   1    3.85    1.99
   9  -4   1   -1.62    1.60
  -9   4  -2    3.42    1.70
   9   4   2    1.42    1.40
  -9   4  -2    6.01    1.86
   9   4   2    2.88    1.46
  -9   4  -2    3.29    1.77
  -9   4  -2    2.56    2.00
   9   4   2    4.77    1.29
  -9   4  -2    4.41    1.79
   9   4   2    4.97    1.39
   9   4   2    3.15    1.29
   9  -4   2    6.10    1.77
   9  -4   2    3.46    1.79
   9  -4   2    4.12    1.80
   9  -4   2    0.68    2.04
   9  -4   2    2.79    2.11
   9  -4   2    2.34    1.87
   9   4   3   46.15    3.06
  -9   4  -3   48.62    3.60
  -9   4  -3   56.88    3.55
  -9   4  -3   44.86    4.00
  -9   4  -3   50.71    3.59
   9   4   3   49.19    3.16
  -9   4  -3   44.16    3.68
   9   4   3   52.46    2.80
  -9   4  -3   49.95    3.80
   9   4   3   47.63    2.77
   9   4   3   47.65    2.57
   9   4   3   54.33    3.04
   9  -4   3   57.42    3.87
   9  -4   3   55.86    3.48
   9  -4   3   55.95    3.51
  -9  -4  -3   51.33    2.50
   9  -4   3   42.40    3.89
  -9  -4  -3   51.50    2.77
   9  -4   3   54.74    4.19
  -9  -4  -3   50.93    2.65
  -9  -4  -3   45.47    2.63
   9  -4   3   47.31    4.02
  -9   4  -4    7.93    2.05
  -9   4  -4    5.16    1.75
  -9   4  -4    8.52    2.03
  -9   4  -4    4.60    2.37
  -9   4  -4    8.96    2.21
   9   4   4    7.71    1.59
   9   4   4    6.71    2.05
   9   4   4    5.66    1.72
  -9   4  -4    6.88    2.30
   9   4   4    9.53    1.89
   9   4   4    6.30    1.92
   9  -4   4    6.31    2.11
   9  -4   4    7.38    2.52
   9  -4   4    6.04    4.18
  -9  -4  -4    7.62    1.74
   9  -4   4    9.06    2.44
   9  -4   4    8.01    2.23
   9  -4   4    7.18    2.59
  -9  -4  -4    6.32    1.56
  -9  -4  -4    7.47    1.56
  -9  -4  -4    6.42    1.69
  10   0 -10   32.96    3.24
 -10   0  10   25.31    2.25
  10   0 -10   22.42    2.25
  10   0 -10   25.14    2.00
 -10   0  10   19.10    2.09
 -10   0  10   23.51    1.82
  10   0 -10   23.14    2.10
 -10   0  10   22.23    2.28
  10   0 -10   18.56    2.16
 -10   0  10   22.23    2.39
 -10   0  10   23.40    1.82
  10   0 -10   23.98    2.10
  10   0  -9   -0.17    1.62
 -10   0   9    4.10    1.66
 -10   0   9    1.75    1.57
 -10   0   9   -0.40    1.24
 -10   0   9    2.29    1.62
  10   0  -9    0.45    1.63
 -10   0   9   -1.69    1.68
  10   0  -9    1.47    1.45
 -10   0   9   -3.11    1.27
  10   0  -9    0.96    1.70
  10   0  -9    0.86    1.48
  10   0  -9    0.41    1.56
 -10   0   8  278.76    5.89
 -10   0   8  282.65    6.18
  10   0  -8  286.50    6.34
 -10   0   8  273.30    6.30
 -10   0   8  272.52    6.45
  10   0  -8  273.68    6.38
  10   0  -8  271.87    6.09
 -10   0   8  288.44    6.13
  10   0  -8  278.05    6.40
  10   0  -8  288.49    6.25
  10   0  -8  279.51    6.13
 -10   0   8  273.19    5.87
 -10   0   7   -1.50    1.18
  10   0  -7    1.46    1.31
 -10   0   7   -0.16    1.17
  10   0  -7   -0.93    1.20
 -10   0   7   -0.28    0.96
  10   0  -7   -0.27    1.08
  10   0  -7    0.30    1.14
 -10   0   7    1.86    2.31
 -10   0   7    0.43    0.99
  10   0  -7    2.57    1.32
 -10   0   7    0.07    1.13
  10   0  -7   -1.20    1.27
  10   0  -6   71.41    2.52
 -10   0   6   74.45    2.23
 -10   0   6   69.16    2.69
 -10   0   6   77.82    2.55
  10   0  -6   78.52    2.58
  10   0  -6   76.18    2.61
  10   0  -6   72.16    2.66
  10   0  -6   76.48    2.64
 -10   0   6   80.85    2.50
 -10   0   6   77.99    2.20
  10   0  -6   76.64    2.48
  10   0  -5    0.23    1.01
  10   0  -5    1.25    1.05
  10   0  -5    2.09    1.03
 -10   0   5    0.24    1.05
  10   0  -5    1.41    0.99
 -10   0   5    0.97    0.91
  10   0  -5    2.31    0.94
 -10   0   5    2.20    0.77
  10   0  -5    2.63    0.99
 -10   0   5    0.37    0.96
 -10   0   5    1.32    0.76
  10   0  -4    6.04    0.97
 -10   0   4    4.47    1.04
 -10   0   4    5.78    0.79
 -10   0   4    7.16    0.95
  10   0  -4    6.80    1.07
  10   0  -4    4.27    1.05
 -10   0   4    6.76    0.74
  10   0  -4    5.86    0.97
  10   0  -4    4.98    0.93
  10   0  -4    4.63    0.94
 -10   0   4    6.74    0.94
  10   0  -3   -0.83    0.80
  10   0  -3   -0.01    0.82
 -10   0   3   -1.11    0.75
 -10   0   3   -0.30    0.67
  10   0  -3   -0.95    0.83
 -10   0   3    0.47    0.80
  10   0  -3    0.16    0.92
  10   0  -3   -1.53    0.87
  10   0  -3   -1.69    0.79
 -10   0   3    0.03    0.87
 -10   0   3   -1.34    0.65
 -10   0   2    1.53    0.64
  10   0  -2    2.12    0.88
  10   0  -2    1.54    0.85
 -10   0   2    1.07    0.78
  10   0  -2    0.54    0.94
 -10   0   2    2.41    0.79
  10   0  -2    2.24    0.86
 -10   0   2    0.38    0.87
  10   0  -2    2.23    0.83
 -10   0   2    2.27    0.71
  10   0  -1   -1.83    0.74
  10   0  -1   -0.70    0.86
 -10   0   1   -0.03    0.74
  10   0  -1   -1.07    0.80
 -10   0   1   -1.34    0.82
 -10   0   1   -0.05    0.73
 -10   0   1   -1.57    0.71
 -10   0   1   -0.43    0.78
  10   0  -1   -0.17    0.94
 -10   0   1   -0.04    0.62
  10   0  -1   -0.92    0.85
  10   0  -1    0.10    0.80
  10   0   0    1.39    0.88
 -10   0   0    0.56    0.91
  10   0   0    0.16    0.82
 -10   0   0    0.16    0.71
 -10   0   0    1.62    0.87
  10   0   0    0.45    0.78
  10   0   0    1.63    0.91
  10   0   0    0.04    0.98
 -10   0   0    1.08    0.77
 -10   0   0    0.10    0.68
  10   0   0    0.70    0.83
 -10   0   0    0.19    0.79
  10   0   1    0.14    1.05
  10   0   1   -0.06    0.93
 -10   0  -1   -0.12    1.03
  10   0   1   -0.25    0.87
  10   0   1   -0.60    0.89
  10   0   1    0.57    0.97
 -10   0  -1   -0.13    0.82
  10   0   1    0.43    0.95
 -10   0  -1   -0.10    0.87
 -10   0  -1    1.20    0.98
 -10   0  -1   -0.91    0.79
 -10   0  -1    0.85    0.80
  10   0   2  268.59    5.56
 -10   0  -2  264.77    5.53
 -10   0  -2  259.57    5.72
  10   0   2  262.47    5.77
  10   0   2  265.85    5.60
 -10   0  -2  260.24    5.47
  10   0   2  265.98    5.82
 -10   0  -2  267.43    5.72
  10   0   2  267.99    5.59
  10   0   2  265.93    5.57
 -10   0  -2  258.82    5.47
 -10   0  -2  267.80    5.45
 -10   0  -3   -0.15    1.04
 -10   0  -3    0.07    1.09
  10   0   3    1.51    1.39
  10   0   3    1.29    1.15
 -10   0  -3    0.77    1.23
 -10   0  -3    0.31    0.99
  10   0   3   -0.21    1.24
  10   0   3   -0.83    1.12
 -10   0  -3    1.31    1.27
 -10   0  -3    3.09    1.20
  10   0   3    2.43    1.31
  10   0   3   -0.48    1.14
 -10   0  -4  248.72    5.47
  10   0   4  240.75    5.83
  10   0   4  256.30    5.66
  10   0   4  243.32    5.59
 -10   0  -4  251.64    5.83
 -10   0  -4  245.10    5.49
  10   0   4  246.21    5.63
  10   0   4  253.98    5.69
 -10   0  -4  257.42    5.56
 -10   0  -4  245.51    5.53
  10   0   4  248.58    5.89
 -10   0  -4  244.42    5.82
 -10   0  -5   -0.28    1.23
 -10   0  -5   -2.10    1.42
  10   0   5    0.25    1.42
  10   0   5    1.73    1.58
 -10   0  -5    1.68    1.37
  10   0   5   -0.19    1.60
 -10   0  -5    0.92    1.62
  10   0   5   -0.79    1.86
 -10   0  -5   -0.78    1.29
  10   0   5   -2.21    1.85
  10   0   5   -2.63    1.39
 -10   0  -5   -0.15    1.28
  10   0   6    2.79    1.80
 -10   0  -6   -0.10    1.69
  10   0   6    2.54    1.93
 -10   0  -6   -0.46    1.58
 -10   0  -6    0.60    1.59
  10   0   6    1.61    1.85
 -10   0  -6    0.32    1.44
  10   0   6    1.90    1.80
  10   0   6   -1.16    1.66
  10   0   6   -0.85    1.81
 -10   0  -6    0.97    2.89
  10   0   7   -0.99    2.02
  10   0   7    1.76    2.05
  10   0   7   -1.16    1.93
 -10   0  -7    0.04    1.66
  10   0   7   -1.82    2.07
 -10   0  -7    1.02    2.11
  10   0   7    0.57    2.08
  10   0   7    0.52    1.99
 -10   0  -7   -1.37    2.97
 -10   0  -7    3.36    1.74
  10   0   8    1.18    2.55
 -10   0  -8    1.12    2.09
 -10   0  -8   -1.79    2.28
  10   0   8    1.77    2.17
 -10   0  -8    1.28    1.97
  10   0   8    4.07    2.76
 -10   0  -8   -0.38    2.16
  10   0   8   -1.20    2.60
 -10   0  -8    2.45    2.06
  10   0   8    2.95    2.26
  10   0   8    0.42    2.43
 -10   0  -8   -0.58    1.87
 -10   1  10   26.07    2.34
 -10   1  10   27.20    2.14
  10   1 -10   21.65    2.02
  10   1 -10   21.11    1.99
 -10   1  10   23.59    2.19
  10   1 -10   30.96    2.78
 -10   1  10   23.65    2.46
  10   1 -10   26.64    2.23
 -10   1  10   26.56    2.60
  10   1 -10   20.40    1.90
  10   1 -10   21.89    2.09
 -10   1  10   32.55    2.94
  10  -1 -10   23.28    2.64
 -10  -1  10   22.98    2.28
  10  -1 -10   26.52    2.50
  10  -1 -10   25.18    3.64
  10  -1 -10   27.63    2.28
 -10  -1  10   19.03    2.27
  10  -1 -10   25.79    2.38
 -10  -1  10   24.75    2.17
  10  -1 -10   21.49    2.48
 -10  -1  10   24.39    2.10
 -10   1   9    3.91    2.02
  10   1  -9    3.41    1.61
  10   1  -9    4.05    1.38
 -10   1   9    3.87    1.85
  10   1  -9    1.64    1.38
  10   1  -9    4.06    1.51
 -10   1   9    2.63    1.97
 -10   1   9    5.86    1.79
  10   1  -9    1.42    1.58
 -10   1   9    2.49    1.83
 -10   1   9    6.59    1.73
  10   1  -9    2.94    1.92
  10  -1  -9    3.36    1.94
  10  -1  -9    3.16    1.93
 -10  -1   9    7.24    1.61
 -10  -1   9    5.04    1.76
  10  -1  -9    2.52    1.59
  10  -1  -9    2.71    1.77
 -10  -1   9    5.37    1.80
  10  -1  -9    1.31    1.63
 -10  -1   9    3.11    1.58
  10  -1  -9    3.99    1.60
 -10   1   8    1.04    1.32
 -10   1   8    2.42    1.57
 -10   1   8    1.28    1.41
 -10   1   8    3.20    1.46
  10   1  -8    2.78    1.36
  10   1  -8    2.85    2.19
  10   1  -8    3.66    1.41
  10   1  -8    2.70    1.34
  10   1  -8    1.52    1.24
  10   1  -8    4.96    1.41
 -10   1   8    2.47    1.68
 -10   1   8    3.41    1.87
  10  -1  -8    3.67    1.56
 -10  -1   8    5.57    1.38
  10  -1  -8    1.56    1.54
 -10  -1   8    0.75    1.46
  10  -1  -8    4.24    1.49
  10  -1  -8    1.38    1.39
  10  -1  -8    0.54    1.60
  10  -1  -8    3.01    1.55
  10   1  -7   61.33    2.47
  10   1  -7   62.23    2.31
  10   1  -7   66.57    2.28
 -10   1   7   62.76    2.76
 -10   1   7   54.83    3.62
  10   1  -7   57.54    2.49
 -10   1   7   61.32    2.82
 -10   1   7   65.33    2.55
  10   1  -7   64.69    2.58
 -10   1   7   61.64    2.87
 -10   1   7   65.07    2.64
  10   1  -7   60.83    2.47
  10  -1  -7   63.23    3.10
 -10  -1   7   67.71    2.44
  10  -1  -7   59.06    2.98
  10  -1  -7   57.62    3.30
  10  -1  -7   64.64    3.04
 -10  -1   7   64.64    2.45
 -10  -1   7   57.71    2.98
  10  -1  -7   66.28    2.85
 -10  -1   7   57.87    2.32
 -10   1   6   35.69    2.06
 -10   1   6   36.13    2.31
  10   1  -6   32.35    1.76
  10   1  -6   35.47    1.96
 -10   1   6   33.71    2.49
 -10   1   6   36.07    2.08
  10   1  -6   35.62    1.91
 -10   1   6   36.72    2.35
 -10   1   6   41.94    2.28
  10   1  -6   35.85    1.92
  10   1  -6   34.50    1.89
  10   1  -6   32.92    1.75
 -10  -1   6   33.34    1.87
  10  -1  -6   32.41    2.38
  10  -1  -6   34.21    2.29
  10  -1  -6   35.29    2.49
 -10  -1   6   34.84    2.00
 -10  -1   6   38.32    1.85
  10  -1  -6   35.37    2.36
 -10  -1   6   33.88    1.73
  10  -1  -6   32.42    2.40
  10  -1  -6   35.23    2.20
  10   1  -5   46.87    1.72
  10   1  -5   49.23    1.76
 -10   1   5   47.78    2.08
  10   1  -5   49.14    1.85
 -10   1   5   49.33    2.43
  10   1  -5   47.21    1.82
 -10   1   5   48.06    2.09
  10   1  -5   46.24    1.91
  10   1  -5   43.59    1.83
 -10   1   5   50.39    2.25
 -10   1   5   48.70    2.22
 -10   1   5   47.06    2.33
 -10  -1   5   47.01    1.90
  10  -1  -5   50.03    2.33
 -10  -1   5   46.09    1.74
 -10  -1   5   46.75    1.79
  10  -1  -5   45.18    2.26
  10  -1  -5   47.32    2.41
  10  -1  -5   47.82    2.37
  10  -1  -5   51.39    2.26
  10  -1  -5   56.45    2.53
 -10  -1   5   47.65    1.69
  10   1  -4   15.80    1.26
 -10   1   4   16.36    1.21
  10   1  -4   13.06    1.03
 -10   1   4   16.86    1.25
 -10   1   4   16.46    1.43
 -10   1   4   21.54    1.69
  10   1  -4   14.98    1.27
  10   1  -4   14.82    1.33
 -10   1   4   15.90    1.35
 -10   1   4   18.65    1.69
  10   1  -4   15.52    1.30
  10   1  -4   16.30    1.42
 -10  -1   4   16.10    1.29
 -10  -1   4   15.54    1.28
  10  -1  -4   18.24    1.83
  10  -1  -4   15.21    1.28
  10  -1  -4   19.41    1.40
  10  -1  -4   14.41    1.39
  10  -1  -4   17.28    1.47
  10  -1  -4   14.52    1.38
 -10  -1   4   16.06    1.34
 -10  -1   4   13.07    1.12
 -10   1   3   -0.12    0.84
 -10   1   3    1.65    0.94
 -10   1   3    0.92    1.07
  10   1  -3    0.31    0.66
 -10   1   3    1.72    0.95
 -10   1   3    1.56    0.93
 -10   1   3   -0.29    0.98
  10   1  -3   -0.32    0.75
  10   1  -3    0.96    0.72
  10   1  -3    0.20    0.67
  10   1  -3    0.70    0.80
  10   1  -3    0.68    0.72
 -10  -1   3    0.62    0.68
  10  -1  -3    0.11    1.00
 -10  -1   3    0.33    0.74
  10  -1  -3    1.29    1.02
  10  -1  -3    1.32    1.04
 -10  -1   3    0.67    0.65
  10  -1  -3    0.20    0.98
  10  -1  -3    2.23    1.19
  10  -1  -3    1.09    1.12
 -10   1   2  156.91    3.83
  10   1  -2  156.38    3.37
  10   1  -2  159.25    3.39
 -10   1   2  156.01    3.63
 -10   1   2  156.74    3.55
  10   1  -2  153.87    3.26
 -10   1   2  158.16    3.62
  10   1  -2  157.54    3.27
 -10   1   2  157.04    3.65
  10   1  -2  154.62    3.23
 -10   1   2  157.32    3.81
  10   1  -2  157.08    3.32
  10  -1  -2  158.14    3.69
  10  -1  -2  154.81    3.68
  10  -1  -2  162.20    3.73
 -10  -1   2  160.67    3.23
  10  -1  -2  156.11    3.68
 -10  -1   2  156.95    3.32
  10  -1  -2  155.03    3.88
  10  -1  -2  157.44    3.87
 -10   1   1   44.73    1.80
  10   1  -1   47.27    1.57
  10   1  -1   46.30    1.53
 -10   1   1   45.22    1.94
  10   1  -1   45.32    1.47
  10   1  -1   43.91    1.67
 -10   1   1   43.15    1.92
  10   1  -1   43.97    1.60
 -10   1   1   43.24    2.05
 -10   1   1   40.64    1.86
  10   1  -1   44.84    1.55
 -10   1   1   40.93    2.11
 -10  -1   1   43.63    1.58
 -10  -1   1   45.70    1.44
  10  -1  -1   43.56    2.17
  10  -1  -1   44.30    2.02
  10  -1  -1   45.60    1.95
 -10  -1   1   44.73    1.64
  10  -1  -1   44.50    2.27
  10  -1  -1   43.55    1.99
  10  -1  -1   46.44    2.04
 -10  -1   1   45.25    1.45
  10   1   0   45.48    1.67
  10   1   0   45.96    1.82
  10   1   0   44.05    1.77
 -10   1   0   44.89    1.92
 -10   1   0   43.38    2.01
  10   1   0   46.39    1.63
  10   1   0   44.63    1.67
 -10   1   0   43.39    2.12
  10   1   0   43.05    1.59
 -10   1   0   45.58    2.02
 -10   1   0   46.96    2.11
 -10   1   0   43.87    1.87
  10  -1   0   43.43    2.15
  10  -1   0   45.23    2.10
  10  -1   0   48.01    2.10
 -10  -1   0   46.31    1.75
  10  -1   0   43.01    2.04
  10  -1   0   41.63    1.95
 -10  -1   0   42.85    1.71
 -10  -1   0   45.79    1.58
  10  -1   0   43.88    2.25
 -10  -1   0   43.68    1.59
 -10   1  -1    1.47    1.08
  10   1   1    3.36    0.87
 -10   1  -1    2.88    0.94
 -10   1  -1    1.57    1.08
 -10   1  -1    2.09    1.04
  10   1   1    1.64    0.93
  10   1   1    2.07    0.99
  10   1   1    1.40    0.98
 -10   1  -1    0.99    0.97
 -10   1  -1    1.57    0.96
  10   1   1    2.26    0.87
  10   1   1    4.05    0.91
  10  -1   1    4.21    1.18
  10  -1   1    2.47    1.01
  10  -1   1    2.00    1.13
 -10  -1  -1    1.37    0.63
  10  -1   1    2.85    1.01
  10  -1   1    2.97    1.20
 -10  -1  -1    1.17    0.92
 -10  -1  -1    1.10    0.92
 -10  -1  -1    1.57    0.79
 -10  -1  -1    1.95    0.79
  10  -1   1    2.28    1.12
  10   1   2    4.50    1.19
 -10   1  -2    6.19    1.16
  10   1   2    5.69    1.10
 -10   1  -2    4.63    1.37
 -10   1  -2    5.94    1.25
 -10   1  -2    3.97    1.27
  10   1   2    5.71    1.13
 -10   1  -2    5.97    1.11
 -10   1  -2    5.47    1.03
  10   1   2    6.39    1.09
  10   1   2    4.72    1.12
  10   1   2    5.32    1.04
 -10  -1  -2    5.05    0.84
  10  -1   2    5.08    1.28
  10  -1   2    5.30    1.24
  10  -1   2    5.05    1.21
  10  -1   2    4.16    1.28
  10  -1   2    7.49    1.34
 -10  -1  -2    4.80    0.99
  10  -1   2    6.69    1.47
 -10  -1  -2    4.76    1.08
 -10  -1  -2    3.56    0.94
 -10  -1  -2    5.74    0.84
 -10   1  -3    0.96    1.11
  10   1   3    0.25    1.21
 -10   1  -3    0.54    1.16
 -10   1  -3    0.87    1.42
 -10   1  -3    0.60    1.33
  10   1   3    0.26    1.13
 -10   1  -3   -1.11    1.08
  10   1   3    0.89    1.11
  10   1   3   -0.19    1.25
 -10   1  -3   -0.42    1.14
  10   1   3    1.39    1.18
  10   1   3    1.25    1.13
 -10  -1  -3    0.77    0.93
 -10  -1  -3    1.39    1.18
  10  -1   3    0.63    1.10
  10  -1   3   -0.77    1.34
  10  -1   3    0.56    1.22
 -10  -1  -3   -0.12    0.97
 -10  -1  -3    1.48    0.98
  10  -1   3    2.13    1.61
 -10  -1  -3   -0.05    1.12
  10  -1   3   -0.83    1.33
 -10  -1  -3    0.31    1.12
  10  -1   3    1.78    1.27
 -10   1  -4    1.76    1.37
 -10   1  -4    0.56    1.60
  10   1   4    2.55    1.38
  10   1   4    0.32    1.50
 -10   1  -4    1.08    1.29
  10   1   4    2.66    1.47
  10   1   4    1.28    1.29
 -10   1  -4    1.93    1.25
  10   1   4    2.21    1.30
 -10   1  -4    3.02    1.56
 -10   1  -4    2.10    1.33
  10   1   4    1.77    1.37
  10  -1   4   -0.01    1.46
  10  -1   4    2.59    1.53
  10  -1   4    1.53    1.52
 -10  -1  -4    1.33    1.15
  10  -1   4    2.60    1.47
 -10  -1  -4    1.70    1.14
  10  -1   4    0.67    1.56
 -10  -1  -4    1.75    1.28
 -10  -1  -4    0.98    1.14
  10  -1   4    0.86    1.40
 -10   1  -5    6.75    1.71
  10   1   5    6.71    1.84
  10   1   5    5.71    1.60
  10   1   5    9.02    2.02
  10   1   5    3.45    1.73
 -10   1  -5    3.30    1.43
  10   1   5    8.89    1.67
 -10   1  -5    6.72    1.47
 -10   1  -5    4.37    1.41
 -10   1  -5    4.07    1.87
 -10   1  -5    6.10    1.73
  10  -1   5    6.51    1.80
 -10  -1  -5    3.54    1.36
  10  -1   5    6.82    1.83
  10  -1   5    4.48    2.01
  10  -1   5    4.64    1.85
 -10  -1  -5    3.56    1.44
  10  -1   5    7.79    1.73
  10  -1   5    4.70    1.87
 -10  -1  -5    6.36    1.49
 -10  -1  -5    4.93    1.38
 -10  -1  -5    5.65    1.44
 -10  -1  -5    7.57    1.36
  10   1   6   -1.32    1.68
 -10   1  -6   -0.51    1.59
  10   1   6    0.19    1.96
  10   1   6    2.30    1.83
 -10   1  -6   -1.48    1.35
 -10   1  -6   -1.16    1.67
 -10   1  -6   -0.65    1.88
  10   1   6    0.97    1.79
 -10   1  -6   -1.77    1.77
  10   1   6    0.43    1.75
  10   1   6    0.12    1.68
  10  -1   6   -0.02    1.93
 -10  -1  -6   -0.33    1.46
 -10  -1  -6    0.64    1.44
 -10  -1  -6    0.07    1.48
 -10  -1  -6   -2.09    1.57
  10  -1   6    1.13    2.14
 -10  -1  -6    0.75    1.58
 -10  -1  -6   -1.21    1.40
  10  -1   6   -0.83    1.86
  10  -1   6    0.34    2.20
  10  -1   6    2.17    1.89
  10  -1   6   -1.21    1.80
  10   1   7    2.36    2.13
 -10   1  -7   -0.38    1.58
  10   1   7   -2.20    2.08
 -10   1  -7    2.01    1.75
 -10   1  -7   -1.44    2.16
  10   1   7    0.05    1.98
 -10   1  -7   -3.29    1.84
  10   1   7    0.14    2.16
  10   1   7   -1.78    1.96
  10   1   7   -0.69    2.15
 -10   1  -7    2.23    2.19
 -10   1  -7   -0.67    1.69
  10  -1   7    0.71    2.31
 -10  -1  -7    3.37    1.94
 -10  -1  -7    0.62    2.08
  10  -1   7    4.21    2.13
 -10  -1  -7   -0.19    1.65
  10  -1   7   -1.09    2.46
 -10  -1  -7   -0.53    1.52
  10  -1   7   -2.65    2.17
 -10  -1  -7   -0.15    1.69
  10  -1   7    0.08    1.93
  10  -1   7   -0.84    2.04
 -10  -1  -7    2.28    1.78
  10   1   8   11.59    2.27
  10   1   8    8.06    2.56
  10   1   8   13.59    2.58
 -10   1  -8    7.37    4.39
  10   1   8    9.63    2.70
  10   1   8    7.13    2.59
 -10   1  -8   10.09    2.36
  10   1   8   10.19    2.77
 -10   1  -8    9.42    2.30
 -10   1  -8   12.48    2.20
 -10   1  -8   12.67    2.74
 -10   1  -8   13.82    2.36
  10  -1   8    1.56    3.04
  10  -1   8   11.75    2.53
  10  -1   8    8.92    2.64
 -10  -1  -8   11.12    2.13
  10  -1   8   14.56    2.93
  10  -1   8   11.80    2.49
 -10  -1  -8   10.44    1.92
  10  -1   8    8.05    2.80
 -10  -1  -8   14.52    2.12
 -10  -1  -8    8.01    2.33
 -10  -1  -8   13.07    2.47
 -10  -1  -8   12.90    2.17
 -10   2   9    3.61    2.22
 -10   2   9    3.02    1.82
  10   2  -9    4.12    1.28
 -10   2   9    3.08    1.91
  10   2  -9    4.70    1.55
  10   2  -9   -0.75    1.32
  10   2  -9    3.41    1.52
  10   2  -9    0.33    1.52
 -10   2   9   -0.01    1.90
 -10   2   9    1.88    1.78
  10   2  -9    4.14    1.49
 -10   2   9    1.59    1.89
  10  -2  -9    4.41    1.91
  10  -2  -9    2.56    1.94
 -10  -2   9    2.13    1.46
 -10  -2   9    3.28    1.66
 -10  -2   9    3.32    1.69
  10  -2  -9   -1.14    1.98
 -10  -2   9    1.30    1.38
  10  -2  -9   -0.99    1.70
  10  -2  -9    0.53    2.00
  10  -2  -9    0.84    1.94
  10   2  -8    3.04    1.34
  10   2  -8    0.97    1.26
  10   2  -8    2.08    1.12
 -10   2   8    2.59    1.84
  10   2  -8    1.45    1.28
 -10   2   8    3.93    1.68
 -10   2   8    1.94    1.82
 -10   2   8    1.29    1.73
 -10   2   8    3.82    1.72
 -10   2   8    1.76    1.97
  10   2  -8    2.01    1.13
  10   2  -8    1.28    1.25
  10  -2  -8    2.87    1.95
  10  -2  -8    4.60    1.62
  10  -2  -8    2.06    1.83
  10  -2  -8    0.83    1.79
 -10  -2   8    0.71    1.14
 -10  -2   8    1.60    1.39
  10  -2  -8    2.25    1.73
 -10  -2   8    2.57    1.36
  10  -2  -8    2.88    1.67
 -10   2   7    1.81    1.57
  10   2  -7    2.42    1.09
 -10   2   7    2.69    1.47
  10   2  -7   -1.03    1.08
 -10   2   7    2.09    1.46
 -10   2   7    0.90    1.65
  10   2  -7    1.75    1.11
  10   2  -7    3.85    1.11
  10   2  -7    1.98    0.90
  10   2  -7   -0.37    0.91
  10  -2  -7   -0.01    1.48
  10  -2  -7    0.81    1.57
 -10  -2   7    1.72    1.01
  10  -2  -7    2.06    1.48
  10  -2  -7    0.78    1.52
  10  -2  -7   -1.53    1.77
  10  -2  -7    0.34    1.74
  10   2  -6    7.66    1.04
 -10   2   6    8.64    1.56
 -10   2   6   10.65    1.67
  10   2  -6    7.19    1.00
 -10   2   6    8.24    1.77
 -10   2   6    7.93    1.46
 -10   2   6   13.10    1.95
 -10   2   6    9.90    1.53
  10  -2  -6   11.03    1.78
  10  -2  -6    7.60    2.70
  10  -2  -6   12.01    1.68
  10  -2  -6    8.29    1.51
  10  -2  -6    8.61    1.68
  10  -2  -6   10.44    1.72
 -10   2   5    5.06    1.33
 -10   2   5    4.40    1.44
 -10   2   5    5.26    1.44
 -10   2   5    5.87    1.33
 -10   2   5    5.38    1.31
 -10   2   5    4.24    1.31
  10  -2  -5    5.09    1.36
  10  -2  -5    3.41    1.35
  10  -2  -5    3.00    1.51
  10  -2  -5    3.44    1.41
  10  -2  -5    4.33    1.30
  10  -2  -5    4.47    1.42
 -10   2   4   46.36    2.64
 -10   2   4   50.47    2.46
 -10   2   4   45.29    2.34
 -10   2   4   53.77    2.46
 -10   2   4   43.32    2.56
 -10   2   4   49.12    2.40
  10  -2  -4   46.57    2.54
  10  -2  -4   45.73    2.53
  10  -2  -4   45.72    2.77
  10  -2  -4   46.61    2.69
  10  -2  -4   49.01    2.57
  10  -2  -4   50.26    2.42
 -10   2   3    5.18    1.26
 -10   2   3    4.78    1.16
 -10   2   3    5.22    1.24
 -10   2   3    7.13    1.21
 -10   2   3    6.43    1.28
 -10   2   3    5.06    1.20
  10  -2  -3    3.69    1.23
  10  -2  -3    3.58    1.23
  10  -2  -3    5.48    1.33
  10  -2  -3    6.06    1.52
  10  -2  -3    5.37    1.33
  10  -2  -3    5.74    1.58
 -10   2   2  144.06    3.74
 -10   2   2  148.61    3.92
 -10   2   2  149.94    3.71
 -10   2   2  156.95    3.80
 -10   2   2  149.10    3.94
 -10   2   2  142.14    3.72
  10  -2  -2  151.01    3.82
  10  -2  -2  146.25    3.85
  10  -2  -2  146.43    3.73
  10  -2  -2  141.88    3.75
  10  -2  -2  143.80    4.01
  10  -2  -2  143.94    4.05
 -10   2   1   57.19    2.47
 -10   2   1   58.44    2.64
 -10   2   1   57.99    2.36
 -10   2   1   59.15    2.30
 -10   2   1   61.23    2.45
 -10   2   1   56.11    2.61
  10  -2  -1   56.75    2.74
  10  -2  -1   60.29    2.53
  10  -2  -1   56.64    2.77
  10  -2  -1   57.98    2.47
  10  -2  -1   62.50    2.61
  10  -2  -1   59.81    2.44
  10   2   0   25.51    1.44
 -10   2   0   23.23    2.09
 -10   2   0   25.81    2.15
 -10   2   0   29.20    1.95
 -10   2   0   25.55    2.26
  10   2   0   24.84    1.25
  10   2   0   26.54    1.44
 -10   2   0   22.88    1.93
 -10   2   0   27.03    2.29
  10  -2   0   23.02    2.03
  10  -2   0   27.45    2.17
  10  -2   0   26.63    2.28
  10  -2   0   25.35    2.21
  10  -2   0   24.63    2.25
  10  -2   0   24.57    2.40
 -10   2  -1    5.26    1.40
 -10   2  -1    5.12    1.26
  10   2   1    6.39    1.02
  10   2   1    6.36    0.87
 -10   2  -1    7.77    1.28
 -10   2  -1    6.38    1.24
 -10   2  -1    8.02    1.25
  10   2   1    6.09    1.04
  10   2   1    6.64    0.92
 -10   2  -1    4.63    1.27
  10   2   1    7.82    1.01
  10   2   1    7.28    1.08
 -10  -2  -1    6.12    0.96
  10  -2   1    6.61    1.65
 -10  -2  -1    5.15    0.83
  10  -2   1    6.16    1.37
 -10  -2  -1    7.16    1.01
  10  -2   1    8.10    1.33
  10  -2   1    7.11    1.47
  10  -2   1    4.55    1.30
 -10  -2  -1    7.43    0.88
  10  -2   1    7.39    1.50
  10   2   2   95.70    2.69
  10   2   2   91.43    2.85
 -10   2  -2   98.48    3.06
 -10   2  -2   88.72    3.01
  10   2   2   91.15    2.64
  10   2   2   98.07    2.82
 -10   2  -2   93.85    3.13
 -10   2  -2   93.37    3.36
  10   2   2   95.05    2.79
  10   2   2   91.08    2.88
 -10   2  -2   97.08    3.05
 -10   2  -2   96.90    3.40
 -10  -2  -2   94.07    2.58
 -10  -2  -2   91.43    2.54
  10  -2   2   98.19    3.15
 -10  -2  -2   91.54    2.72
 -10  -2  -2   90.46    2.80
  10  -2   2   96.52    3.54
  10  -2   2   97.72    3.24
  10  -2   2   92.01    3.43
  10  -2   2   93.65    3.24
  10  -2   2   94.12    3.28
 -10   2  -3    1.61    1.68
 -10   2  -3    2.34    1.23
 -10   2  -3   -0.10    1.26
  10   2   3    2.20    1.35
  10   2   3    1.26    1.17
  10   2   3    1.95    1.16
 -10   2  -3    1.91    1.47
  10   2   3    2.68    1.28
 -10   2  -3    2.11    1.56
  10   2   3    2.11    1.31
  10   2   3    0.81    1.33
 -10   2  -3    2.87    1.44
 -10  -2  -3    2.64    1.08
  10  -2   3    1.77    1.44
 -10  -2  -3    2.38    1.14
  10  -2   3   -0.07    1.42
  10  -2   3    0.98    1.53
  10  -2   3   -1.10    1.59
 -10  -2  -3    2.22    1.39
  10  -2   3    1.07    1.40
  10  -2   3    2.69    1.63
 -10  -2  -3    2.81    1.04
 -10   2  -4  135.01    4.09
  10   2   4  136.93    3.91
  10   2   4  128.34    3.88
  10   2   4  135.35    3.89
 -10   2  -4  126.18    4.20
 -10   2  -4  128.33    4.24
 -10   2  -4  135.89    3.92
  10   2   4  118.77    4.13
 -10   2  -4  132.21    4.32
  10   2   4  132.51    3.86
 -10   2  -4  124.00    3.94
  10   2   4  136.05    3.68
  10  -2   4  134.07    4.25
 -10  -2  -4  124.55    3.75
 -10  -2  -4  132.03    3.57
  10  -2   4  145.33    4.23
  10  -2   4  135.58    4.55
  10  -2   4  123.61    4.41
 -10  -2  -4  124.71    3.28
 -10  -2  -4  133.56    3.27
  10  -2   4  132.11    6.09
 -10   2  -5    2.69    1.67
 -10   2  -5   -0.06    1.69
 -10   2  -5   -0.05    1.47
  10   2   5    2.39    1.79
  10   2   5    1.65    1.54
 -10   2  -5   -0.82    1.80
  10   2   5   -2.14    1.80
 -10   2  -5    0.56    1.82
 -10   2  -5   -1.79    1.44
  10   2   5    3.93    1.61
  10   2   5    2.23    1.72
  10   2   5    1.53    1.82
 -10  -2  -5    1.78    1.25
 -10  -2  -5   -1.32    1.56
 -10  -2  -5    0.72    1.34
  10  -2   5   -0.85    3.42
 -10  -2  -5    0.53    1.22
 -10  -2  -5    0.01    1.43
  10  -2   5   -0.13    1.89
  10  -2   5   -1.71    1.91
  10  -2   5    0.60    1.89
  10  -2   5    0.29    1.68
  10  -2   5   -0.60    1.97
 -10  -2  -5    0.91    1.31
 -10   2  -6    7.97    1.97
  10   2   6    6.13    2.10
 -10   2  -6    7.35    1.80
  10   2   6    9.20    2.08
 -10   2  -6    6.10    1.77
  10   2   6    8.67    1.99
 -10   2  -6    6.56    1.86
  10   2   6    8.14    2.11
  10   2   6   10.08    1.95
 -10   2  -6    5.45    2.26
 -10   2  -6    4.79    2.03
  10   2   6   11.42    2.14
  10  -2   6    7.03    2.43
 -10  -2  -6    6.07    1.58
  10  -2   6    4.44    2.17
 -10  -2  -6   11.43    1.80
  10  -2   6    9.65    2.25
  10  -2   6   10.02    2.54
 -10  -2  -6    7.95    1.60
 -10  -2  -6    6.88    1.86
  10  -2   6    7.33    1.95
 -10  -2  -6   10.82    1.84
 -10  -2  -6    7.46    1.64
  10  -2   6    7.74    2.27
 -10   2  -7    8.87    2.58
  10   2   7   11.49    2.66
  10   2   7   10.31    2.34
  10   2   7   13.50    2.54
  10   2   7   12.79    2.21
 -10   2  -7   16.18    2.33
 -10   2  -7    7.64    2.39
 -10   2  -7   13.47    2.80
  10   2   7    7.49    2.23
 -10   2  -7   10.58    2.15
  10   2   7   16.41    2.51
 -10   2  -7   13.04    2.25
  10  -2   7   16.90    2.76
 -10  -2  -7   11.39    2.15
  10  -2   7   15.38    2.47
 -10  -2  -7   12.17    1.96
  10  -2   7   11.71    2.41
  10  -2   7    5.02    2.62
 -10  -2  -7    5.93    1.87
  10  -2   7   12.99    2.79
 -10  -2  -7    8.71    1.93
  10  -2   7   10.59    2.40
 -10  -2  -7   12.38    2.16
 -10  -2  -7   14.03    3.11
 -10   3   8    4.18    2.09
  10   3  -8    7.90    1.50
  10   3  -8    7.37    1.44
 -10   3   8    6.49    1.95
 -10   3   8    7.28    2.12
 -10   3   8    9.63    2.31
 -10   3   8    7.54    2.17
 -10   3   8   10.70    2.03
  10  -3  -8    1.48    2.10
  10  -3  -8    3.68    2.20
  10  -3  -8    5.15    2.18
  10  -3  -8    7.85    2.25
  10  -3  -8    9.69    2.07
  10  -3  -8    7.63    3.64
 -10   3   7    0.52    1.71
 -10   3   7    5.24    1.87
 -10   3   7    1.28    1.81
 -10   3   7   -0.95    1.92
 -10   3   7    5.79    1.78
  10   3  -7    4.06    1.16
 -10   3   7   -0.95    1.94
  10  -3  -7    2.35    1.74
  10  -3  -7    4.13    1.99
  10  -3  -7    3.94    1.94
  10  -3  -7    1.77    1.72
  10  -3  -7    3.31    2.10
  10  -3  -7    3.52    2.04
 -10   3   6    3.09    1.69
 -10   3   6    2.49    1.73
 -10   3   6    3.64    1.80
 -10   3   6    1.68    1.66
 -10   3   6    1.77    1.77
 -10   3   6    4.12    1.65
  10  -3  -6    3.07    1.76
  10  -3  -6    2.74    1.93
  10  -3  -6    3.99    1.87
  10  -3  -6    2.97    1.60
  10  -3  -6    2.90    1.69
  10  -3  -6    1.48    1.73
 -10   3   5   26.23    3.34
 -10   3   5   32.58    2.92
 -10   3   5   31.09    2.78
 -10   3   5   27.06    2.10
 -10   3   5   31.29    2.83
 -10   3   5   31.60    2.55
  10  -3  -5   34.85    3.36
  10  -3  -5   27.84    2.81
  10  -3  -5   30.03    3.08
  10  -3  -5   25.45    2.00
  10  -3  -5   27.64    2.42
 -10   3   4   35.48    2.79
 -10   3   4   50.67    2.88
 -10   3   4   42.51    2.73
 -10   3   4   46.44    3.06
 -10   3   4   44.02    3.02
  10  -3  -4   45.17    2.81
  10  -3  -4   41.29    2.98
  10  -3  -4   45.48    3.11
  10  -3  -4   46.66    3.74
  10  -3  -4   40.05    3.04
  10  -3  -4   46.01    3.23
 -10   3   3   80.35    3.18
 -10   3   3   76.66    3.37
 -10   3   3   76.50    3.17
 -10   3   3   83.48    3.16
 -10   3   3   71.82    4.68
 -10   3   3   78.95    3.38
  10  -3  -3   75.21    3.44
  10  -3  -3   80.48    3.58
  10  -3  -3   81.12    3.30
  10  -3  -3   71.86    3.89
  10  -3  -3   78.54    3.64
  10  -3  -3   77.85    3.23
 -10   3   2  180.86    4.65
 -10   3   2  185.84    4.69
 -10   3   2  190.86    4.75
 -10   3   2  185.00    4.93
 -10   3   2  176.22    4.76
 -10   3   2  177.14    4.90
  10  -3  -2  188.13    5.09
  10  -3  -2  185.04    4.78
  10  -3  -2  188.51    4.86
  10  -3  -2  187.67    4.68
  10  -3  -2  172.77    4.94
 -10   3   1   -1.97    1.55
 -10   3   1   -0.45    1.32
 -10   3   1   -2.49    1.37
 -10   3   1    0.13    1.27
 -10   3   1   -1.38    1.41
 -10   3   1    1.40    1.53
  10  -3  -1   -1.04    1.34
  10  -3  -1   -2.89    1.46
  10  -3  -1   -0.52    1.65
  10  -3  -1   -2.55    1.52
  10  -3  -1    0.67    1.42
  10  -3  -1   -3.07    2.36
 -10   3   0   25.01    2.37
 -10   3   0   23.02    2.04
 -10   3   0   23.73    2.04
 -10   3   0   24.18    2.08
 -10   3   0   29.44    2.00
 -10   3   0   24.18    1.96
  10  -3   0   24.46    2.86
  10  -3   0   27.35    2.04
  10  -3   0   21.45    1.99
  10  -3   0   21.62    1.98
  10  -3   0   20.97    3.13
  10  -3   0   19.66    1.71
 -10   3  -1   39.82    2.80
 -10   3  -1   38.79    2.61
  10   3   1   41.14    1.88
 -10   3  -1   43.92    2.88
 -10   3  -1   36.51    2.86
 -10   3  -1   35.60    2.57
  10   3   1   40.38    2.00
  10  -3   1   38.21    2.66
  10  -3   1   40.58    3.09
  10  -3   1   36.15    3.43
  10  -3   1   37.34    3.07
  10  -3   1   37.86    2.88
  10  -3   1   33.60    3.24
 -10   3  -2   31.43    2.69
 -10   3  -2   33.16    2.73
  10   3   2   31.37    1.85
 -10   3  -2   33.65    2.91
 -10   3  -2   30.08    2.68
  10   3   2   29.54    2.14
  10   3   2   31.83    2.11
 -10   3  -2   31.43    2.90
  10   3   2   32.08    2.27
  10   3   2   28.96    2.27
 -10   3  -2   31.62    2.92
  10   3   2   34.62    2.05
  10  -3   2   31.15    2.98
  10  -3   2   34.03    3.04
  10  -3   2   21.23    3.37
  10  -3   2   31.96    3.22
 -10  -3  -2   27.35    1.95
  10  -3   2   32.32    2.91
 -10  -3  -2   28.62    1.82
 -10  -3  -2   28.93    1.92
  10  -3   2   25.48    2.34
 -10  -3  -2   29.68    1.82
  10   3   3    7.84    1.46
  10   3   3    7.52    1.56
  10   3   3    7.23    1.47
 -10   3  -3    7.67    1.91
 -10   3  -3    4.45    2.66
  10   3   3   11.03    1.40
 -10   3  -3    5.34    1.65
 -10   3  -3    8.13    1.66
  10   3   3    5.88    1.60
  10   3   3    8.49    1.47
 -10   3  -3    8.98    2.06
 -10   3  -3    7.74    1.62
  10  -3   3    6.09    1.77
 -10  -3  -3    7.80    1.34
  10  -3   3   10.62    1.92
  10  -3   3    9.43    2.17
 -10  -3  -3    5.40    1.33
  10  -3   3    6.81    1.96
 -10  -3  -3    6.40    1.40
  10  -3   3    7.46    2.04
  10  -3   3    7.67    3.58
 -10  -3  -3    6.12    1.20
 -10   3  -4   11.64    1.96
 -10   3  -4    8.96    1.99
 -10   3  -4   12.58    2.15
 -10   3  -4    6.73    1.74
 -10   3  -4   11.71    3.95
  10   3   4    7.93    1.73
  10   3   4    9.05    1.67
  10   3   4    7.36    1.89
  10   3   4    7.06    1.72
 -10   3  -4   10.41    1.99
  10   3   4    9.57    1.57
  10   3   4    8.02    1.75
  10  -3   4    5.88    1.98
  10  -3   4    5.49    2.12
 -10  -3  -4    7.08    1.53
  10  -3   4    9.82    2.36
 -10  -3  -4    8.26    1.58
  10  -3   4    8.90    2.40
 -10  -3  -4    9.61    1.44
 -10  -3  -4    8.78    1.42
  10  -3   4    9.39    1.98
 -10   3  -5    6.86    1.82
 -10   3  -5    5.21    2.09
 -10   3  -5    7.49    2.37
  10   3   5    9.53    1.98
  10   3   5    4.96    2.12
 -10   3  -5   10.72    2.20
  10   3   5    9.45    1.92
  10   3   5    9.99    1.98
  10   3   5    8.72    1.88
 -10   3  -5    4.35    1.97
  10   3   5    5.35    1.75
 -10   3  -5    7.14    1.99
  10  -3   5    5.29    2.28
 -10  -3  -5    3.98    1.66
  10  -3   5    3.30    2.26
  10  -3   5    6.09    2.23
 -10  -3  -5    5.78    1.83
 -10  -3  -5    9.35    1.71
  10  -3   5    7.20    2.02
 -10  -3  -5    9.85    1.69
  10  -3   5   11.05    2.44
  10  -3   5    6.03    2.51
  10   3   6    6.72    2.02
 -10   3  -6   13.42    2.48
 -10   3  -6    7.23    2.27
  10   3   6    6.64    2.28
 -10   3  -6    7.13    2.04
  10   3   6    9.17    2.27
 -10   3  -6   10.38    2.60
  10   3   6   11.67    2.25
 -10   3  -6   10.80    2.47
  10   3   6    7.92    2.51
  10   3   6   12.13    2.32
 -10   3  -6    6.68    2.34
  10  -3   6    3.89    2.29
 -10  -3  -6    6.72    1.88
 -10  -3  -6   10.56    1.56
  10  -3   6    7.51    2.52
 -10  -3  -6    5.79    1.93
 -10  -3  -6   10.34    2.15
  10  -3   6    8.63    2.43
  10  -3   6    7.49    2.73
 -10  -3  -6    7.87    1.89
  10  -3   6    5.91    2.99
  10  -3   6    5.50    2.38
 -10   4   5   26.94    2.75
 -10   4   5   20.15    2.05
 -10   4   5   18.73    2.19
 -10   4   5   27.72    2.58
 -10   4   5   24.52    2.65
 -10   4   5   24.52    2.32
  10  -4  -5   25.18    2.56
  10  -4  -5   23.62    2.43
  10  -4  -5   24.13    2.25
  10  -4  -5   24.63    2.50
  10  -4  -5   20.35    2.50
  10  -4  -5   19.53    2.43
 -10   4   4   13.63    1.98
 -10   4   4   11.54    2.11
 -10   4   4   13.74    2.06
 -10   4   4   15.21    2.12
 -10   4   4   11.83    2.13
 -10   4   4   13.24    2.14
  10  -4  -4   15.36    2.22
  10  -4  -4   11.08    1.94
  10  -4  -4   13.56    2.52
  10  -4  -4   13.07    2.16
  10  -4  -4    9.42    2.06
  10  -4  -4    9.86    2.12
 -10   4   3    6.12    2.09
 -10   4   3    4.97    1.87
 -10   4   3    7.79    1.79
 -10   4   3    8.03    1.96
 -10   4   3    7.62    1.93
 -10   4   3    8.48    1.93
  10  -4  -3    4.20    1.92
  10  -4  -3    7.36    1.98
  10  -4  -3    7.76    1.84
  10  -4  -3    3.92    1.87
  10  -4  -3    4.35    2.09
  10  -4  -3    3.47    2.20
 -10   4   2   -0.57    1.58
 -10   4   2   -2.22    1.80
 -10   4   2    2.52    2.04
 -10   4   2   -1.07    1.86
 -10   4   2   -1.96    1.66
 -10   4   2   -4.76    1.70
  10  -4  -2    1.00    2.19
  10  -4  -2   -1.13    3.24
  10  -4  -2   -1.86    1.77
  10  -4  -2   -0.61    1.77
  10  -4  -2    1.48    1.85
  10  -4  -2   -3.99    1.81
 -10   4   1    2.59    1.57
 -10   4   1   -2.29    1.79
 -10   4   1    0.39    1.63
 -10   4   1   -1.63    1.66
 -10   4   1    1.25    1.63
 -10   4   1    1.05    1.65
  10  -4  -1   -1.60    1.77
  10  -4  -1   -2.38    1.89
  10  -4  -1   -0.90    1.90
  10  -4  -1   -0.88    2.00
  10  -4  -1    4.29    2.27
  10  -4  -1    1.00    1.79
 -10   4   0    6.11    1.84
 -10   4   0    6.64    2.05
 -10   4   0    4.90    1.80
 -10   4   0    7.00    1.99
 -10   4   0    4.67    1.56
 -10   4   0    6.05    1.66
  10  -4   0    2.78    2.08
  10  -4   0    4.47    2.41
  10  -4   0    2.33    1.66
  10  -4   0    2.50    1.83
  10  -4   0    4.27    1.94
  10  -4   0    4.53    1.82
 -10   4  -1    0.19    1.44
 -10   4  -1    1.75    1.80
 -10   4  -1    0.28    1.82
  10   4   1    2.08    1.29
  10   4   1    2.98    1.25
 -10   4  -1    0.27    1.75
 -10   4  -1   -1.20    1.92
 -10   4  -1    3.48    1.75
  10  -4   1    2.85    2.23
  10  -4   1   -0.60    1.99
  10  -4   1   -1.59    2.41
  10  -4   1   -0.30    1.72
  10  -4   1   -0.30    1.76
  10  -4   1    2.73    2.21
  10   4   2    3.63    1.43
 -10   4  -2    1.82    1.76
  10   4   2   -0.37    1.38
 -10   4  -2    3.66    1.79
  10   4   2    1.45    1.30
 -10   4  -2   -2.44    1.74
  10   4   2   -1.81    1.51
 -10   4  -2    2.22    2.15
 -10   4  -2    0.25    1.97
  10  -4   2    0.06    2.01
  10  -4   2    1.75    1.89
  10  -4   2    2.90    1.85
  10  -4   2    2.58    2.49
  10  -4   2   -2.67    2.27
  10  -4   2   -3.81    3.49
  10   4   3   30.39    2.70
  10   4   3   25.51    2.19
  10   4   3   33.92    3.01
  10   4   3   27.90    2.69
 -10   4  -3   31.60    2.92
 -10   4  -3   26.89    2.60
 -10   4  -3   30.95    2.30
  10   4   3   29.87    2.77
 -10   4  -3   27.96    2.40
  10   4   3   29.35    2.32
 -10   4  -3   32.42    3.18
 -10   4  -3   21.70    2.52
  10  -4   3   26.48    2.43
  10  -4   3   27.72    2.37
  10  -4   3   27.85    2.49
  10  -4   3   26.38    2.86
 -10  -4  -3   27.72    2.33
  10  -4   3   29.03    2.77
 -10  -4  -3   27.48    2.55
 -10  -4  -3   29.32    2.54
 -10  -4  -3   36.82    2.52
  10  -4   3   25.95    2.62
 -11   0  10   63.44    2.95
  11   0 -10   59.50    3.52
 -11   0  10   62.47    3.79
 -11   0  10   65.93    3.68
  11   0 -10   64.52    3.73
 -11   0  10   60.73    3.91
  11   0 -10   56.65    3.78
 -11   0  10   58.88    3.68
  11   0 -10   64.05    3.76
 -11   0  10   61.48    2.98
  11   0 -10   63.06    3.50
  11   0 -10   59.94    3.37
 -11   0   9    0.05    1.33
 -11   0   9    1.31    1.61
 -11   0   9    0.24    1.65
  11   0  -9   -1.07    1.73
 -11   0   9   -1.35    1.63
  11   0  -9   -2.41    1.50
  11   0  -9   -1.44    1.62
  11   0  -9    1.39    1.66
  11   0  -9    3.45    1.49
  11   0  -9   -1.57    1.71
 -11   0   9    0.08    1.23
 -11   0   9   -1.53    1.79
 -11   0   8   17.29    1.83
 -11   0   8   20.29    1.89
 -11   0   8   20.01    2.01
  11   0  -8   18.77    1.84
  11   0  -8   16.36    1.63
  11   0  -8   15.30    1.78
 -11   0   8   20.38    1.41
  11   0  -8   18.41    1.81
  11   0  -8   20.99    1.72
 -11   0   8   20.59    1.76
 -11   0   8   17.88    1.80
 -11   0   7   -1.35    1.18
 -11   0   7   -2.27    1.37
  11   0  -7   -2.67    1.32
 -11   0   7   -1.43    1.22
  11   0  -7   -1.88    1.38
  11   0  -7   -1.60    1.21
 -11   0   7   -0.44    0.97
  11   0  -7   -0.22    1.23
 -11   0   7   -1.59    0.97
  11   0  -7   -1.12    1.16
 -11   0   6  214.04    4.48
 -11   0   6  218.02    4.75
  11   0  -6  211.05    4.97
  11   0  -6  209.46    4.94
 -11   0   6  216.01    4.78
 -11   0   6  210.29    4.47
 -11   0   6  214.71    4.97
  11   0  -6  217.27    4.87
  11   0  -6  217.71    4.77
  11   0  -6  213.25    4.75
  11   0  -6  209.13    4.88
 -11   0   5    0.80    1.16
  11   0  -5    1.15    1.08
 -11   0   5    1.59    0.80
  11   0  -5    2.34    1.01
  11   0  -5    1.11    1.04
 -11   0   5    1.35    0.74
  11   0  -5    1.30    1.08
 -11   0   5    1.65    1.03
 -11   0   5    2.33    1.00
  11   0  -5    2.31    1.18
  11   0  -5    1.28    1.09
 -11   0   4  812.97   15.24
  11   0  -4  823.35   15.40
 -11   0   4  821.51   15.54
 -11   0   4  829.92   15.37
  11   0  -4  811.92   15.57
  11   0  -4  825.79   15.58
  11   0  -4  819.89   15.48
 -11   0   4  833.10   15.40
  11   0  -4  825.20   15.46
 -11   0   4  817.53   15.23
  11   0  -4  848.70   15.43
 -11   0   3   -3.07    0.83
  11   0  -3   -3.20    0.91
  11   0  -3   -1.11    0.96
 -11   0   3   -2.06    0.70
 -11   0   3   -1.96    0.92
  11   0  -3   -2.58    0.93
 -11   0   3   -2.02    0.83
  11   0  -3   -1.34    0.92
  11   0  -3   -1.67    0.94
 -11   0   3   -1.47    0.73
  11   0  -3   -0.87    1.02
 -11   0   2   -0.76    0.81
  11   0  -2    1.12    0.95
  11   0  -2    2.16    0.93
 -11   0   2   -0.21    0.81
 -11   0   2    1.04    0.95
 -11   0   2    0.82    0.70
 -11   0   2    1.00    0.75
  11   0  -2    0.24    0.87
  11   0  -2    2.18    0.91
  11   0  -2   -0.11    0.86
  11   0  -2    1.01    1.00
 -11   0   1   -0.59    0.86
 -11   0   1   -0.31    0.85
 -11   0   1   -0.29    0.75
  11   0  -1    0.40    1.05
 -11   0   1   -1.93    0.81
  11   0  -1   -0.29    0.87
  11   0  -1    0.32    0.89
  11   0  -1   -1.91    0.90
  11   0  -1   -0.38    0.88
  11   0  -1   -1.03    0.88
 -11   0   1   -0.31    0.75
 -11   0   1    0.03    0.68
 -11   0   0   51.28    1.82
 -11   0   0   51.35    2.12
 -11   0   0   55.63    2.04
 -11   0   0   50.73    2.11
  11   0   0   56.04    2.01
 -11   0   0   55.70    1.95
  11   0   0   52.64    2.14
  11   0   0   53.80    2.06
  11   0   0   57.31    2.11
  11   0   0   57.03    2.09
 -11   0   0   52.30    1.93
  11   0   0   54.61    2.26
 -11   0  -1    0.54    0.91
  11   0   1   -0.59    1.04
 -11   0  -1    0.10    0.99
 -11   0  -1    1.23    0.99
 -11   0  -1    1.55    0.86
  11   0   1    1.82    1.20
  11   0   1    1.19    0.98
  11   0   1    0.41    0.95
 -11   0  -1    1.73    1.09
  11   0   1    1.12    1.14
  11   0   1   -0.19    1.01
  11   0   2   22.88    2.09
 -11   0  -2   25.95    1.95
  11   0   2   27.59    2.00
  11   0   2   26.60    2.08
 -11   0  -2   25.67    1.83
  11   0   2   23.63    2.34
 -11   0  -2   24.08    2.10
 -11   0  -2   26.57    1.90
  11   0   2   29.64    2.17
  11   0   2   23.46    2.24
 -11   0  -2   23.72    1.85
 -11   0  -2   19.75    2.05
  11   0   3    0.73    1.33
  11   0   3    3.34    1.58
  11   0   3   -2.08    1.23
 -11   0  -3    0.03    1.04
  11   0   3   -0.26    1.44
 -11   0  -3    0.92    1.22
 -11   0  -3   -1.30    1.22
 -11   0  -3   -1.75    1.28
 -11   0  -3    1.00    1.13
 -11   0  -3   -1.14    1.13
  11   0   3   -0.41    1.35
  11   0   3    1.40    1.26
 -11   0  -4   26.33    2.45
  11   0   4   24.66    1.82
  11   0   4   19.47    1.87
  11   0   4   19.19    1.86
 -11   0  -4   26.48    2.12
 -11   0  -4   22.95    2.25
  11   0   4   25.22    2.43
  11   0   4   19.24    1.72
 -11   0  -4   23.11    2.34
  11   0   4   21.44    1.88
 -11   0  -4   26.95    2.69
  11   0   5   -0.21    1.61
  11   0   5   -1.90    1.93
  11   0   5   -0.77    1.56
  11   0   5   -1.74    1.69
 -11   0  -5   -0.04    1.45
 -11   0  -5    0.78    1.56
 -11   0  -5   -0.99    1.71
  11   0   5   -2.06    1.65
 -11   0  -5   -0.50    1.38
  11   0   5    0.04    1.68
 -11   0  -5   -1.23    1.28
 -11   0  -6    7.70    1.94
  11   0   6    8.94    2.02
 -11   0  -6    8.57    1.83
  11   0   6    8.23    2.18
 -11   0  -6    8.45    1.67
 -11   0  -6    8.52    1.93
  11   0   6    7.75    2.20
  11   0   6   12.85    2.15
  11   0   6    8.82    2.19
 -11   0  -6   11.50    1.88
 -11   0  -6    8.34    1.65
  11   0   6   10.32    2.00
  11   0   7    2.27    2.15
 -11   0  -7   -2.49    1.78
  11   0   7    0.65    2.09
  11   0   7    0.88    2.07
 -11   0  -7   -0.02    1.85
 -11   0  -7   -0.70    1.79
  11   0   7   -2.36    2.26
 -11   0  -7    1.29    2.26
  11   0   7    2.32    2.47
  11   0   7    4.28    2.62
  11   1 -10   21.13    1.95
 -11   1  10   27.06    2.16
 -11   1  10   28.84    2.36
 -11   1  10   26.82    2.19
 -11   1  10   29.03    2.78
  11   1 -10   35.49    3.14
  11   1 -10   25.63    2.30
  11   1 -10   24.66    2.04
  11   1 -10   25.74    2.17
 -11   1  10   25.55    2.53
 -11   1  10   26.12    2.61
  11   1 -10   23.94    2.29
  11  -1 -10   30.35    2.61
  11  -1 -10   22.40    2.51
 -11  -1  10   28.56    2.16
 -11  -1  10   25.34    2.39
  11  -1 -10   28.68    2.65
 -11  -1  10   26.82    2.47
  11  -1 -10   27.59    2.46
  11  -1 -10   29.70    3.90
  11  -1 -10   25.26    2.18
 -11  -1  10   26.06    2.22
  11   1  -9    1.96    1.43
 -11   1   9    1.78    1.74
  11   1  -9    3.43    1.65
  11   1  -9    4.89    1.66
  11   1  -9    0.49    1.36
 -11   1   9    3.73    2.10
 -11   1   9    3.00    1.67
  11   1  -9    3.40    1.63
  11   1  -9    4.44    1.58
 -11   1   9    1.13    1.84
 -11   1   9    4.98    1.83
 -11   1   9    4.51    1.95
  11  -1  -9    3.50    1.84
  11  -1  -9    5.93    2.03
  11  -1  -9    2.50    1.88
  11  -1  -9    0.19    1.73
 -11  -1   9    3.54    1.84
  11  -1  -9    1.21    1.79
  11  -1  -9    4.64    1.64
 -11  -1   9    2.34    1.72
 -11  -1   9    3.07    1.60
  11   1  -8    9.60    1.51
  11   1  -8    8.37    1.38
 -11   1   8   11.06    1.80
 -11   1   8    7.73    1.46
 -11   1   8    7.94    1.56
 -11   1   8    8.60    1.72
 -11   1   8    7.36    1.55
  11   1  -8    7.17    1.48
 -11   1   8    6.67    1.85
  11   1  -8    9.36    1.52
  11   1  -8    6.44    1.36
  11   1  -8    8.47    1.51
 -11  -1   8   11.73    1.48
  11  -1  -8    8.51    1.64
  11  -1  -8   10.55    1.63
 -11  -1   8    9.08    1.39
 -11  -1   8    8.18    1.60
  11  -1  -8    8.60    1.74
  11  -1  -8    8.04    1.80
  11  -1  -8    4.40    1.88
  11  -1  -8    6.09    1.61
  11   1  -7    3.26    1.28
  11   1  -7    2.43    1.21
 -11   1   7    2.86    1.29
 -11   1   7    2.40    1.27
 -11   1   7    0.27    1.35
 -11   1   7    1.61    1.63
  11   1  -7    3.12    1.25
 -11   1   7    2.97    1.45
  11   1  -7    1.88    1.24
 -11   1   7    1.02    1.64
  11   1  -7    2.13    1.08
  11   1  -7    1.59    1.22
  11  -1  -7    4.85    1.61
  11  -1  -7    0.10    1.55
  11  -1  -7    2.19    1.45
  11  -1  -7    2.62    1.44
 -11  -1   7    2.12    1.37
  11  -1  -7    0.82    1.38
 -11  -1   7    1.69    1.17
  11  -1  -7    2.85    1.71
 -11  -1   7    2.57    1.14
 -11  -1   7    3.98    1.19
  11   1  -6   24.18    1.76
 -11   1   6   22.71    2.31
  11   1  -6   24.11    1.70
  11   1  -6   21.58    1.94
 -11   1   6   25.06    1.93
 -11   1   6   21.70    2.02
 -11   1   6   25.41    2.23
 -11   1   6   22.35    1.99
  11   1  -6   25.34    1.91
  11   1  -6   21.30    1.92
 -11   1   6   22.59    1.87
  11   1  -6   23.75    1.89
  11  -1  -6   23.96    1.96
 -11  -1   6   23.96    1.93
  11  -1  -6   22.08    1.62
  11  -1  -6   24.40    1.75
 -11  -1   6   22.34    1.66
  11  -1  -6   23.83    1.89
 -11  -1   6   23.24    1.83
 -11  -1   6   23.18    1.80
  11  -1  -6   24.76    1.79
  11  -1  -6   26.70    2.33
  11   1  -5  108.90    2.68
 -11   1   5  103.94    3.40
  11   1  -5  112.91    2.72
 -11   1   5  112.04    3.20
 -11   1   5  112.50    3.07
 -11   1   5  113.65    3.22
 -11   1   5  112.16    3.03
  11   1  -5  108.56    2.82
  11   1  -5  104.63    2.84
  11   1  -5  110.25    2.87
  11   1  -5  104.21    2.87
 -11   1   5  105.20    3.30
 -11  -1   5  110.32    2.84
  11  -1  -5  109.59    3.26
 -11  -1   5  110.37    2.73
  11  -1  -5  113.36    3.20
 -11  -1   5  108.39    2.65
  11  -1  -5  113.35    3.34
  11  -1  -5  112.04    3.47
  11  -1  -5  110.43    3.26
  11  -1  -5  109.36    3.41
 -11  -1   5  105.91    2.76
 -11   1   4    0.19    1.06
 -11   1   4   -0.28    1.13
 -11   1   4   -0.12    1.22
  11   1  -4   -0.11    0.79
  11   1  -4    0.23    0.86
 -11   1   4   -0.70    0.96
  11   1  -4   -0.80    0.87
 -11   1   4   -0.26    1.01
  11   1  -4   -0.11    0.79
  11   1  -4   -0.97    0.85
 -11   1   4    0.66    1.04
  11   1  -4   -1.05    0.88
  11  -1  -4    0.83    1.12
  11  -1  -4    1.11    1.14
  11  -1  -4    1.37    1.32
 -11  -1   4   -0.01    0.75
  11  -1  -4   -1.82    1.08
 -11  -1   4    1.00    0.83
 -11  -1   4    0.58    0.70
  11  -1  -4    1.07    1.09
 -11  -1   4    0.77    0.82
  11  -1  -4   -1.42    1.17
  11   1  -3  229.52    4.73
  11   1  -3  230.34    4.66
  11   1  -3  226.07    4.79
 -11   1   3  234.06    5.07
 -11   1   3  246.09    5.07
  11   1  -3  234.59    4.68
  11   1  -3  232.13    4.82
  11   1  -3  227.17    4.74
 -11   1   3  239.99    4.97
 -11   1   3  232.24    5.00
 -11   1   3  234.94    5.24
 -11   1   3  233.83    5.25
  11  -1  -3  227.34    5.26
  11  -1  -3  236.58    5.10
 -11  -1   3  233.50    4.75
  11  -1  -3  236.42    5.14
  11  -1  -3  239.15    5.13
 -11  -1   3  239.12    4.66
  11  -1  -3  236.28    5.34
 -11   1   2   84.76    2.72
  11   1  -2   82.82    2.15
  11   1  -2   80.37    2.26
 -11   1   2   83.81    2.45
  11   1  -2   79.98    2.17
 -11   1   2   82.18    2.56
 -11   1   2   82.16    2.53
 -11   1   2   86.51    2.82
 -11   1   2   86.08    2.61
  11   1  -2   80.02    2.31
 -11  -1   2   75.30    2.03
  11  -1  -2   81.50    2.64
  11  -1  -2   81.24    2.79
 -11  -1   2   82.01    2.20
 -11  -1   2   84.67    2.09
  11  -1  -2   83.80    2.65
  11  -1  -2   80.67    2.65
  11  -1  -2   83.91    2.90
  11  -1  -2   87.43    2.73
 -11  -1   2   78.55    2.22
  11   1  -1  451.47    8.93
 -11   1   1  472.73    9.33
  11   1  -1  471.19    8.83
 -11   1   1  467.95    9.11
  11   1  -1  457.69    8.95
 -11   1   1  470.99    9.07
  11   1  -1  460.24    8.80
 -11   1   1  476.41    9.32
  11   1  -1  460.12    8.84
 -11   1   1  471.50    9.12
  11   1  -1  460.54    8.85
 -11   1   1  471.95    9.11
 -11  -1   1  457.32    8.78
  11  -1  -1  465.38    9.15
 -11  -1   1  470.50    8.81
 -11  -1   1  466.20    8.91
  11  -1  -1  476.19    9.39
  11  -1  -1  461.23    9.14
  11  -1  -1  468.67    9.16
 -11  -1   1  465.35    8.91
  11  -1  -1  467.84    9.14
  11  -1  -1  455.87    9.30
 -11   1   0    6.99    1.23
 -11   1   0    5.83    1.38
  11   1   0    6.97    1.09
 -11   1   0    7.50    1.13
 -11   1   0    6.98    1.14
  11   1   0    5.41    0.96
  11   1   0    7.12    0.98
  11   1   0    7.06    1.02
  11   1   0    7.99    1.12
  11   1   0    5.35    0.96
 -11   1   0    9.09    1.33
 -11   1   0    6.91    1.12
  11  -1   0    5.32    1.17
  11  -1   0    5.51    1.23
  11  -1   0    5.27    1.25
 -11  -1   0    6.93    0.93
 -11  -1   0    7.07    0.93
  11  -1   0    6.52    1.40
  11  -1   0    5.09    1.25
 -11  -1   0    7.15    1.06
  11  -1   0    4.07    1.33
 -11  -1   0    7.49    1.02
  11   1   1    5.72    1.05
  11   1   1    1.26    1.08
 -11   1  -1    4.01    1.17
  11   1   1    3.65    0.99
 -11   1  -1    3.44    1.20
 -11   1  -1    4.06    1.15
  11   1   1    3.43    0.99
 -11   1  -1    3.37    1.20
  11   1   1    3.62    1.07
  11   1   1    3.51    1.14
 -11   1  -1    4.59    1.17
 -11   1  -1    5.15    1.13
  11  -1   1    3.44    1.18
 -11  -1  -1    4.13    1.07
  11  -1   1    3.27    1.16
  11  -1   1    4.97    1.23
 -11  -1  -1    5.22    1.09
  11  -1   1    1.20    1.34
  11  -1   1    3.48    1.43
  11  -1   1    3.13    1.14
 -11  -1  -1    4.11    0.93
 -11  -1  -1    4.13    0.90
 -11   1  -2    0.58    1.35
 -11   1  -2    0.49    1.13
 -11   1  -2    0.77    1.08
 -11   1  -2    0.91    1.08
  11   1   2    0.50    1.09
  11   1   2    0.04    1.11
 -11   1  -2    0.69    1.30
 -11   1  -2    2.81    1.09
  11   1   2    0.08    1.08
  11   1   2    0.76    1.17
  11   1   2    0.67    1.16
  11   1   2    3.06    1.20
  11  -1   2    1.76    1.31
 -11  -1  -2    0.72    0.87
  11  -1   2   -0.23    1.31
 -11  -1  -2    1.55    0.98
 -11  -1  -2    0.14    0.96
  11  -1   2    2.48    1.38
 -11  -1  -2    0.89    1.06
  11  -1   2    1.19    1.18
  11  -1   2    0.91    1.43
  11  -1   2    2.02    1.22
 -11  -1  -2    1.07    0.82
 -11   1  -3  125.77    3.61
  11   1   3  124.44    3.53
 -11   1  -3  119.57    3.52
  11   1   3  119.53    3.71
  11   1   3  127.35    3.49
 -11   1  -3  123.13    3.52
 -11   1  -3  127.78    3.92
 -11   1  -3  123.55    3.51
  11   1   3  113.38    3.57
  11   1   3  119.41    3.44
  11   1   3  125.25    3.53
 -11   1  -3  117.09    3.82
  11  -1   3  125.21    3.73
 -11  -1  -3  119.64    3.59
 -11  -1  -3  116.43    3.13
  11  -1   3  122.07    3.62
  11  -1   3  127.61    3.78
 -11  -1  -3  120.38    3.35
  11  -1   3  121.68    4.03
 -11  -1  -3  121.14    3.58
 -11  -1  -3  132.24    3.39
 -11  -1  -3  128.10    3.16
  11  -1   3  119.77    3.95
  11  -1   3  128.01    3.74
  11   1   4    4.09    1.60
  11   1   4    2.39    1.41
 -11   1  -4    0.72    2.28
  11   1   4    2.85    1.69
  11   1   4    1.54    1.42
 -11   1  -4    4.23    1.49
  11   1   4    2.86    1.60
 -11   1  -4   -0.40    1.46
  11   1   4    2.26    1.45
 -11   1  -4    1.47    1.34
 -11   1  -4    1.47    1.35
 -11   1  -4   -0.61    1.70
 -11  -1  -4    2.69    1.21
 -11  -1  -4    3.59    1.47
  11  -1   4    0.27    1.63
  11  -1   4    0.74    1.68
  11  -1   4    2.13    1.61
  11  -1   4    3.33    1.64
  11  -1   4    2.67    2.03
  11  -1   4    1.16    1.72
 -11  -1  -4    0.34    1.26
 -11  -1  -4    1.16    1.19
 -11  -1  -4    2.48    1.27
  11   1   5  116.86    3.94
  11   1   5  100.15    5.67
 -11   1  -5  105.86    3.89
  11   1   5  119.10    3.95
 -11   1  -5  110.41    4.27
 -11   1  -5  110.19    3.80
  11   1   5  106.13    4.18
  11   1   5  108.28    4.07
 -11   1  -5  110.49    3.78
  11   1   5  119.06    3.92
 -11   1  -5  110.77    3.76
 -11   1  -5  110.64    4.20
  11  -1   5  113.71    3.97
 -11  -1  -5  103.27    3.50
 -11  -1  -5  106.53    3.76
  11  -1   5  111.81    4.13
 -11  -1  -5  110.01    3.43
  11  -1   5  118.67    4.58
 -11  -1  -5  112.73    3.92
 -11  -1  -5  114.92    3.71
  11  -1   5  113.24    4.50
  11  -1   5  116.17    4.40
  11  -1   5  115.49    4.21
 -11   1  -6    5.23    2.02
  11   1   6    3.29    2.28
 -11   1  -6    1.44    1.68
 -11   1  -6    3.08    1.86
  11   1   6    8.55    2.13
 -11   1  -6    0.19    1.72
  11   1   6    3.31    1.80
  11   1   6    9.86    1.97
  11   1   6    4.74    2.06
 -11   1  -6    0.26    2.15
  11   1   6    1.82    2.02
 -11   1  -6    7.43    1.75
  11  -1   6    6.72    2.07
 -11  -1  -6    5.03    1.78
  11  -1   6    0.47    1.78
  11  -1   6    3.45    2.08
 -11  -1  -6    7.61    2.96
 -11  -1  -6    5.52    1.58
 -11  -1  -6    0.37    1.78
  11  -1   6    3.53    2.07
  11  -1   6    4.29    2.13
 -11  -1  -6    3.79    1.74
 -11  -1  -6    4.75    1.89
  11  -1   6    6.11    2.11
  11   1   7    0.85    2.21
  11   1   7    3.15    2.48
  11   1   7    4.02    2.43
  11   1   7   -2.89    3.35
 -11   1  -7   -1.07    2.31
 -11   1  -7   -0.96    1.84
 -11   1  -7    2.97    2.00
 -11   1  -7    0.05    1.93
 -11   1  -7   -0.91    1.91
  11   1   7    0.21    2.44
 -11   1  -7    1.54    2.03
  11   1   7    1.94    2.19
  11  -1   7    1.95    2.63
  11  -1   7    5.14    2.22
 -11  -1  -7    0.04    1.84
  11  -1   7    3.54    2.47
  11  -1   7    5.22    2.26
  11  -1   7   -4.80    2.23
 -11  -1  -7    1.53    1.91
  11  -1   7    1.01    2.56
 -11  -1  -7    0.45    1.97
 -11  -1  -7   -0.29    1.85
 -11  -1  -7    3.05    1.94
 -11  -1  -7    0.26    1.62
 -11   2   9   -0.68    1.94
  11   2  -9    2.84    1.29
 -11   2   9    0.61    2.22
 -11   2   9    1.48    2.12
  11   2  -9   -0.92    1.55
  11   2  -9    1.98    1.33
 -11   2   9    3.12    1.80
  11   2  -9   -1.93    1.46
  11   2  -9   -0.83    2.54
  11   2  -9   -2.21    1.51
 -11   2   9   -3.33    1.88
 -11   2   9   -2.54    2.04
  11  -2  -9    6.21    2.27
 -11  -2   9   -0.86    1.51
  11  -2  -9   -2.81    1.99
 -11  -2   9    0.81    1.66
  11  -2  -9   -0.16    1.98
 -11  -2   9   -0.99    1.34
  11  -2  -9   -0.69    1.91
 -11  -2   9   -0.19    1.58
  11  -2  -9    0.08    1.78
  11  -2  -9   -3.72    2.13
  11   2  -8    5.90    1.15
  11   2  -8    4.15    1.18
  11   2  -8    5.27    1.34
 -11   2   8    8.08    1.67
  11   2  -8    6.70    1.40
 -11   2   8    0.29    1.88
 -11   2   8    5.00    2.04
 -11   2   8    4.89    1.78
  11   2  -8    6.82    1.38
 -11   2   8    6.64    1.93
  11   2  -8    5.49    1.35
 -11   2   8    1.80    2.67
  11  -2  -8    6.73    1.83
  11  -2  -8    4.02    1.91
  11  -2  -8    8.51    1.93
  11  -2  -8    0.59    1.77
  11  -2  -8    4.41    1.85
  11  -2  -8    5.37    1.94
  11   2  -7    2.93    1.06
  11   2  -7    4.93    1.18
 -11   2   7    4.11    1.55
 -11   2   7    7.11    1.75
 -11   2   7    7.04    1.81
 -11   2   7    5.63    1.71
 -11   2   7    5.15    1.65
  11   2  -7    4.14    1.20
 -11   2   7    5.83    1.91
  11  -2  -7    5.69    1.69
  11  -2  -7    6.96    1.64
  11  -2  -7    4.57    1.90
  11  -2  -7    6.40    1.83
  11  -2  -7    4.64    1.78
 -11   2   6   70.26    2.98
 -11   2   6   73.28    3.13
  11   2  -6   68.72    2.26
 -11   2   6   70.78    3.27
 -11   2   6   61.96    3.24
 -11   2   6   66.46    3.15
  11  -2  -6   72.04    3.29
  11  -2  -6   72.00    3.25
  11  -2  -6   70.70    3.20
  11  -2  -6   66.31    3.15
  11  -2  -6   68.66    3.31
  11  -2  -6   73.22    3.43
 -11   2   5   14.34    1.58
 -11   2   5   19.39    2.64
 -11   2   5   14.10    1.47
 -11   2   5   13.52    1.75
 -11   2   5   16.08    1.56
 -11   2   5   14.00    1.65
  11  -2  -5   16.01    1.65
  11  -2  -5   14.78    1.61
  11  -2  -5   14.46    1.90
  11  -2  -5   12.58    2.02
  11  -2  -5   16.49    1.78
  11  -2  -5   14.02    1.62
 -11   2   4   97.83    3.19
 -11   2   4   93.20    3.14
 -11   2   4   95.15    3.08
 -11   2   4   94.53    3.38
 -11   2   4   99.38    3.21
 -11   2   4   91.23    3.39
  11  -2  -4  100.14    3.37
  11  -2  -4   93.67    3.46
  11  -2  -4   93.60    3.54
  11  -2  -4   98.41    3.30
  11  -2  -4   92.99    3.20
 -11   2   3   78.05    3.08
 -11   2   3   82.27    2.90
 -11   2   3   83.07    2.87
 -11   2   3   77.77    2.93
 -11   2   3   81.00    3.10
 -11   2   3   79.28    2.86
  11  -2  -3   82.76    3.10
  11  -2  -3   80.66    3.23
  11  -2  -3   82.56    2.92
  11  -2  -3   76.28    3.16
  11  -2  -3   77.52    2.99
  11  -2  -3   80.86    2.95
 -11   2   2   12.29    1.48
 -11   2   2   15.39    1.44
 -11   2   2   14.27    1.52
 -11   2   2   10.04    1.33
 -11   2   2   14.98    1.38
 -11   2   2   12.56    1.36
  11  -2  -2   12.78    1.43
  11  -2  -2   13.80    1.48
  11  -2  -2   10.61    1.48
  11  -2  -2   11.22    1.73
  11  -2  -2   16.87    1.63
  11  -2  -2   14.28    1.50
 -11   2   1  172.50    4.27
 -11   2   1  170.12    4.26
 -11   2   1  179.22    4.34
 -11   2   1  180.98    4.58
 -11   2   1  171.20    4.48
 -11   2   1  179.23    4.36
  11  -2  -1  168.34    4.56
  11  -2  -1  181.61    4.69
  11  -2  -1  171.55    4.35
  11  -2  -1  175.97    4.34
  11  -2  -1  186.13    4.43
  11  -2  -1  177.08    4.43
  11   2   0    3.73    0.95
 -11   2   0    2.05    1.52
 -11   2   0    2.32    1.35
  11   2   0    3.05    0.90
  11   2   0    1.86    0.94
 -11   2   0    1.94    1.23
  11   2   0    3.06    0.91
 -11   2   0    1.64    1.20
 -11   2   0    3.08    1.26
 -11   2   0    1.39    1.18
  11   2   0    3.50    0.85
  11  -2   0    2.91    1.62
  11  -2   0    1.19    1.45
  11  -2   0    1.01    1.27
  11  -2   0    3.25    1.34
  11  -2   0    2.00    1.41
  11  -2   0    1.84    1.38
  11   2   1   12.39    1.17
 -11   2  -1   12.58    1.42
 -11   2  -1   12.69    1.85
  11   2   1   10.90    1.19
 -11   2  -1   11.35    1.42
  11   2   1   11.65    1.17
  11   2   1   10.45    1.04
 -11   2  -1   12.71    1.47
  11   2   1   10.73    1.20
  11   2   1   12.67    1.27
 -11   2  -1   10.00    1.56
 -11  -2  -1   12.19    1.20
 -11  -2  -1    9.50    0.95
 -11  -2  -1   13.74    1.01
  11  -2   1    9.80    1.44
  11  -2   1    9.06    1.76
  11  -2   1   12.96    1.64
  11  -2   1   12.49    1.82
  11  -2   1   10.18    1.60
  11  -2   1    9.28    1.52
 -11  -2  -1   10.76    1.09
 -11   2  -2    4.72    1.33
 -11   2  -2    3.53    1.27
  11   2   2    2.62    1.23
 -11   2  -2    3.38    1.34
  11   2   2    4.58    1.34
 -11   2  -2    2.45    1.59
  11   2   2    2.81    1.11
 -11   2  -2    2.37    1.59
  11   2   2    2.99    1.14
  11   2   2    3.88    1.26
  11   2   2    4.97    1.31
 -11   2  -2    5.31    1.38
  11  -2   2    2.11    1.74
  11  -2   2    3.65    1.47
  11  -2   2    7.69    1.77
  11  -2   2    3.24    1.36
 -11  -2  -2    4.09    1.06
 -11  -2  -2    2.21    1.13
 -11  -2  -2    4.36    1.02
 -11  -2  -2    4.09    1.22
  11  -2   2    1.16    1.50
  11  -2   2    4.35    1.47
 -11   2  -3   15.30    1.82
 -11   2  -3   12.72    1.63
  11   2   3   18.56    1.51
 -11   2  -3   16.02    2.03
 -11   2  -3   10.94    2.53
  11   2   3   16.47    1.62
  11   2   3   20.18    1.58
 -11   2  -3   14.59    1.55
  11   2   3   13.87    1.64
  11   2   3   18.50    1.63
  11   2   3   14.77    2.15
  11  -2   3   13.26    1.80
 -11  -2  -3   16.62    1.51
 -11  -2  -3   14.63    1.33
  11  -2   3   18.09    2.27
 -11  -2  -3   15.61    1.52
 -11  -2  -3   18.51    1.41
  11  -2   3   13.27    1.88
  11  -2   3   16.32    1.76
  11  -2   3   17.96    1.85
  11   2   4   45.07    2.92
  11   2   4   41.36    2.90
 -11   2  -4   43.55    3.33
 -11   2  -4   44.09    3.39
 -11   2  -4   45.20    3.01
  11   2   4   45.97    3.09
  11   2   4   45.74    2.72
 -11   2  -4   44.67    3.10
  11   2   4   44.76    2.85
  11   2   4   46.12    2.81
 -11   2  -4   31.47    3.39
 -11   2  -4   45.67    3.06
 -11  -2  -4   47.36    2.16
  11  -2   4   45.63    3.12
  11  -2   4   46.43    3.62
 -11  -2  -4   46.24    2.63
  11  -2   4   40.76    3.32
  11  -2   4   35.89    3.89
  11  -2   4   41.01    3.43
 -11  -2  -4   40.84    2.10
  11  -2   4   48.77    3.54
 -11  -2  -4   43.43    2.41
 -11  -2  -4   37.44    2.70
  11   2   5   -1.23    1.52
  11   2   5    0.47    1.89
 -11   2  -5    0.65    2.02
  11   2   5    1.00    1.79
  11   2   5    2.93    1.90
 -11   2  -5    0.72    1.75
  11   2   5   -0.33    1.84
  11   2   5    0.87    1.88
 -11   2  -5   -0.88    1.76
 -11   2  -5    0.18    1.58
 -11   2  -5    2.47    1.71
 -11   2  -5    1.31    1.73
 -11  -2  -5    1.63    1.53
  11  -2   5   -0.47    2.08
 -11  -2  -5    1.85    1.32
  11  -2   5    2.97    2.07
 -11  -2  -5    1.22    1.65
  11  -2   5    1.15    1.85
 -11  -2  -5    0.07    1.41
 -11  -2  -5   -0.36    1.61
  11  -2   5   -3.13    1.94
 -11  -2  -5    1.88    1.33
  11  -2   5    0.88    1.95
  11  -2   5   -1.14    2.01
  11   2   6    0.26    2.07
  11   2   6   -2.36    1.98
  11   2   6    1.05    2.38
 -11   2  -6   -2.39    1.65
 -11   2  -6   -1.98    1.84
  11   2   6    1.42    2.03
  11   2   6    1.91    1.88
  11   2   6   -0.36    2.23
 -11   2  -6   -2.07    2.56
 -11   2  -6    1.06    1.83
 -11   2  -6   -0.41    2.32
 -11   2  -6   -3.43    1.85
  11  -2   6   -2.34    2.51
  11  -2   6   -1.75    2.20
 -11  -2  -6   -0.12    1.52
  11  -2   6   -0.72    2.35
 -11  -2  -6    1.92    1.55
 -11  -2  -6    3.55    1.96
 -11  -2  -6   -1.50    1.68
  11  -2   6   -0.24    1.97
 -11  -2  -6    0.46    1.64
  11  -2   6    1.25    2.44
  11  -2   6    2.04    2.32
 -11  -2  -6    1.59    1.74
 -11   3   7    1.05    1.98
 -11   3   7    0.64    1.84
 -11   3   7    0.49    1.83
 -11   3   7    3.38    2.12
 -11   3   7    1.60    1.96
 -11   3   7    3.40    2.06
  11  -3  -7    4.64    2.17
  11  -3  -7    2.18    2.33
  11  -3  -7   -1.97    1.83
  11  -3  -7   -0.33    1.94
  11  -3  -7   -0.11    1.81
  11  -3  -7    3.12    2.22
 -11   3   6    2.53    1.96
 -11   3   6    2.00    1.76
 -11   3   6   -1.39    1.73
 -11   3   6    0.23    1.71
 -11   3   6   -3.38    2.08
 -11   3   6   -0.66    1.63
  11  -3  -6   -1.95    1.94
  11  -3  -6    0.66    1.98
  11  -3  -6    0.15    1.70
  11  -3  -6   -2.50    1.87
  11  -3  -6    0.42    1.75
  11  -3  -6    0.62    2.15
 -11   3   5   13.59    1.75
 -11   3   5   18.30    2.00
 -11   3   5   17.90    1.97
 -11   3   5   15.46    1.82
 -11   3   5   18.46    2.07
 -11   3   5   17.55    2.30
  11  -3  -5   21.96    2.16
  11  -3  -5   15.93    1.87
  11  -3  -5   13.47    1.99
  11  -3  -5   17.59    1.87
  11  -3  -5   12.54    2.15
 -11   3   4    7.95    1.76
 -11   3   4    7.09    1.57
 -11   3   4   11.63    1.72
 -11   3   4   12.08    1.81
 -11   3   4   11.23    1.77
  11  -3  -4   12.85    1.92
  11  -3  -4    6.72    1.92
  11  -3  -4   13.37    2.18
  11  -3  -4   10.85    1.83
  11  -3  -4   10.34    1.83
  11  -3  -4    9.28    1.87
 -11   3   3   26.74    2.29
 -11   3   3   28.37    2.10
 -11   3   3   24.74    1.83
 -11   3   3   27.02    2.07
 -11   3   3   21.45    1.85
 -11   3   3   26.50    2.09
  11  -3  -3   25.76    2.21
  11  -3  -3   29.10    2.50
  11  -3  -3   22.68    1.89
  11  -3  -3   19.10    2.02
  11  -3  -3   25.90    1.98
  11  -3  -3   24.58    1.99
 -11   3   2   34.16    2.77
 -11   3   2   34.10    3.60
 -11   3   2   30.03    2.70
 -11   3   2   31.86    2.78
 -11   3   2   29.41    2.74
 -11   3   2   28.16    2.81
  11  -3  -2   33.65    2.93
  11  -3  -2   36.00    3.09
  11  -3  -2   23.34    2.05
  11  -3  -2   35.66    2.82
  11  -3  -2   31.68    2.97
  11  -3  -2   31.99    2.85
 -11   3   1   -0.26    1.34
 -11   3   1   -0.92    1.55
 -11   3   1   -1.82    1.41
 -11   3   1    0.85    1.53
 -11   3   1    1.26    1.50
 -11   3   1    0.33    1.52
  11  -3  -1    0.41    1.68
  11  -3  -1   -2.30    1.88
  11  -3  -1    1.58    1.82
  11  -3  -1    1.07    1.47
  11  -3  -1    0.93    1.64
  11  -3  -1   -1.63    1.70
 -11   3   0   44.82    3.13
 -11   3   0   48.65    2.96
 -11   3   0   43.41    3.05
 -11   3   0   41.63    2.79
 -11   3   0   41.85    3.64
 -11   3   0   40.00    3.00
  11  -3   0   43.77    3.05
  11  -3   0   45.29    3.06
  11  -3   0   49.65    3.34
  11  -3   0   43.48    3.23
  11  -3   0   47.07    3.15
  11  -3   0   40.88    3.26
 -11   3  -1   59.74    3.30
  11   3   1   59.84    2.35
 -11   3  -1   59.35    3.04
  11   3   1   59.88    2.32
 -11   3  -1   61.94    3.27
 -11   3  -1   54.70    3.30
  11  -3   1   61.44    3.46
  11  -3   1   61.71    3.39
  11  -3   1   58.64    3.66
  11  -3   1   62.54    3.30
  11  -3   1   60.98    3.36
  11  -3   1   64.07    3.19
  11   3   2   27.21    2.34
 -11   3  -2   20.13    2.10
 -11   3  -2   20.77    2.22
  11   3   2   22.05    1.62
 -11   3  -2   18.87    1.88
  11   3   2   19.36    1.85
 -11   3  -2   21.15    1.95
  11   3   2   21.45    2.06
  11   3   2   21.76    1.72
 -11   3  -2   21.25    2.00
 -11   3  -2   16.56    1.99
  11   3   2   22.72    2.17
 -11  -3  -2   19.76    1.86
 -11  -3  -2   21.64    1.53
  11  -3   2   21.19    2.09
  11  -3   2   18.72    2.00
 -11  -3  -2   19.42    1.92
  11  -3   2   18.71    2.23
 -11  -3  -2   21.17    1.90
  11  -3   2   16.86    2.16
  11  -3   2   17.62    1.96
  11  -3   2   16.92    2.01
  11   3   3    1.78    1.51
  11   3   3    4.10    1.56
 -11   3  -3   -1.57    1.74
 -11   3  -3    1.09    1.75
 -11   3  -3    3.04    1.64
  11   3   3    3.68    1.64
  11   3   3    2.34    1.65
 -11   3  -3    5.79    1.86
 -11   3  -3    4.37    1.84
  11   3   3    3.54    1.57
 -11   3  -3    4.45    2.14
  11   3   3    3.36    1.35
  11  -3   3    3.40    2.22
 -11  -3  -3    2.98    1.37
  11  -3   3    4.68    1.94
 -11  -3  -3    4.35    1.37
  11  -3   3    5.14    1.93
 -11  -3  -3    3.54    1.27
  11  -3   3    0.67    1.80
  11  -3   3    3.23    2.15
 -11  -3  -3    3.98    1.24
  11  -3   3    1.25    1.90
 -11   3  -4    3.32    1.79
  11   3   4    0.00    1.68
  11   3   4    3.41    1.50
  11   3   4    5.84    2.11
 -11   3  -4   -0.24    1.76
 -11   3  -4    2.38    1.80
  11   3   4    3.09    1.95
  11   3   4    2.72    1.74
 -11   3  -4    1.99    2.10
 -11   3  -4    5.71    2.10
  11   3   4    3.55    1.71
 -11   3  -4    4.89    1.92
  11  -3   4    4.34    2.08
  11  -3   4    1.67    2.21
 -11  -3  -4    5.07    1.43
  11  -3   4    3.16    2.13
  11  -3   4    3.50    2.10
 -11  -3  -4    1.90    1.53
  11  -3   4    1.80    2.18
 -11  -3  -4    5.03    1.58
  11  -3   4    2.70    2.58
 -11  -3  -4    0.95    1.44
  11   3   5    3.84    2.22
 -11   3  -5    6.31    1.94
  11   3   5    2.78    1.96
 -11   3  -5    3.91    1.99
  11   3   5    0.96    1.71
 -11   3  -5    1.31    2.26
 -11   3  -5   -0.14    2.24
  11   3   5   -0.48    1.97
 -11   3  -5    2.14    2.00
  11   3   5    1.08    1.96
 -11   3  -5    0.47    2.19
 -11  -3  -5    4.23    1.67
  11  -3   5    2.00    2.24
  11  -3   5    2.99    2.16
  11  -3   5    0.33    2.30
 -11  -3  -5    2.10    1.74
  11  -3   5    1.89    2.37
 -11  -3  -5   -1.19    1.60
 -11  -3  -5    2.19    1.74
  11  -3   5   -0.33    2.31
  11  -3   5   -2.47    2.53
 -11   4   5   12.78    2.17
 -11   4   5    8.53    2.10
 -11   4   5    8.82    2.03
 -11   4   5   13.56    2.41
 -11   4   5    7.38    2.21
  11  -4  -5    9.62    2.29
  11  -4  -5    6.97    2.28
  11  -4  -5    8.09    2.08
  11  -4  -5    9.98    2.46
  11  -4  -5    9.84    2.31
  11  -4  -5   11.39    2.12
 -11   4   4    4.60    1.90
 -11   4   4    2.89    2.03
 -11   4   4   -0.94    2.04
 -11   4   4   -0.07    1.96
 -11   4   4    2.53    1.97
 -11   4   4   -1.41    1.85
  11  -4  -4    2.12    2.18
  11  -4  -4    2.32    1.99
  11  -4  -4    1.83    1.88
  11  -4  -4    4.28    2.25
  11  -4  -4    1.26    2.15
  11  -4  -4    2.39    2.34
 -11   4   3    1.90    2.17
 -11   4   3   -0.74    1.82
 -11   4   3    1.89    1.62
 -11   4   3    2.33    1.86
 -11   4   3    1.09    2.19
 -11   4   3    0.66    1.86
  11  -4  -3    1.79    1.83
  11  -4  -3    4.17    2.04
  11  -4  -3   -3.92    2.20
  11  -4  -3   -1.71    2.02
  11  -4  -3    0.98    2.12
  11  -4  -3    3.73    2.00
 -11   4   2    5.68    1.92
 -11   4   2    5.42    1.78
 -11   4   2    4.31    2.10
 -11   4   2    6.82    1.83
 -11   4   2    5.77    1.85
 -11   4   2    6.96    2.02
  11  -4  -2    5.22    2.03
  11  -4  -2    5.85    2.36
  11  -4  -2    5.40    2.09
  11  -4  -2    8.85    2.24
  11  -4  -2    6.57    1.87
  11  -4  -2    6.29    2.07
 -11   4   1   -1.50    1.64
 -11   4   1    1.54    1.93
 -11   4   1   -2.33    1.71
 -11   4   1   -1.65    1.86
 -11   4   1   -3.20    1.63
 -11   4   1    1.38    1.76
  11  -4  -1    3.06    2.01
  11  -4  -1   -1.51    1.95
  11  -4  -1   -1.68    1.89
  11  -4  -1   -1.74    1.70
  11  -4  -1    0.12    2.07
  11  -4  -1    1.34    2.12
 -11   4   0    4.95    1.99
 -11   4   0    2.51    1.93
 -11   4   0    6.73    1.92
 -11   4   0    5.22    1.53
 -11   4   0    2.43    1.75
 -11   4   0   -0.15    1.99
  11  -4   0    7.45    2.16
  11  -4   0    5.66    1.85
  11  -4   0    4.39    2.08
  11  -4   0    3.51    1.95
  11  -4   0    8.00    2.60
  11  -4   0    3.70    1.87
  11   4   1    5.41    1.43
 -11   4  -1    2.22    1.90
 -11   4  -1    0.75    1.84
 -11   4  -1    3.72    1.96
 -11   4  -1    3.78    1.97
 -11   4  -1    0.60    1.58
 -11   4  -1    4.26    1.95
  11   4   1    3.96    1.48
  11  -4   1    3.03    2.01
  11  -4   1    1.03    1.90
  11  -4   1    1.06    1.98
  11  -4   1    2.76    2.43
  11  -4   1    2.90    1.88
  11  -4   1    6.14    2.21
 -11   4  -2    4.18    2.04
 -11   4  -2    4.81    1.85
 -11   4  -2    7.65    1.96
 -11   4  -2    0.72    1.96
 -11   4  -2   -1.00    1.97
  11   4   2    0.14    1.52
  11   4   2    1.45    1.58
  11  -4   2   -1.18    2.26
  11  -4   2    0.49    2.01
  11  -4   2    4.70    2.29
  11  -4   2    6.04    2.03
  11  -4   2    3.32    2.10
  11  -4   2    4.03    2.66
 -12   0   9   -1.05    1.64
  12   0  -9    0.31    1.64
  12   0  -9   -0.07    1.59
  12   0  -9    1.10    1.81
 -12   0   9   -1.49    1.22
  12   0  -9   -4.64    1.47
 -12   0   9    0.28    1.30
  12   0  -9   -0.31    1.71
 -12   0   9   -1.28    1.87
 -12   0   9   -0.81    1.67
  12   0  -9   -1.11    1.69
 -12   0   9    0.87    1.73
  12   0  -8    6.58    1.69
 -12   0   8    9.18    1.83
 -12   0   8    6.67    1.25
  12   0  -8    5.03    1.74
 -12   0   8    8.42    1.20
 -12   0   8    8.56    1.64
  12   0  -8    8.03    1.58
 -12   0   8    5.54    1.53
  12   0  -8    5.52    1.46
 -12   0   8    7.95    1.70
  12   0  -8    8.00    1.62
  12   0  -8    7.09    1.69
 -12   0   7   -0.46    1.23
  12   0  -7   -1.68    1.41
  12   0  -7   -1.02    1.26
 -12   0   7   -1.23    1.31
 -12   0   7   -0.90    0.96
 -12   0   7   -0.21    1.45
  12   0  -7   -4.48    1.33
 -12   0   7    0.01    0.97
 -12   0   7   -0.73    2.00
  12   0  -7   -0.50    1.28
  12   0  -7   -0.07    1.39
 -12   0   6   74.09    2.21
 -12   0   6   72.30    2.16
  12   0  -6   75.92    2.82
  12   0  -6   78.92    2.69
 -12   0   6   54.54    4.51
  12   0  -6   73.35    2.70
  12   0  -6   71.95    2.78
  12   0  -6   65.29    2.73
 -12   0   6   72.00    2.68
  12   0  -6   77.21    2.87
 -12   0   6   76.81    2.65
  12   0  -5   -0.13    1.14
 -12   0   5   -1.11    0.79
 -12   0   5   -0.25    1.07
  12   0  -5   -0.75    1.17
  12   0  -5   -1.73    1.08
  12   0  -5    0.28    1.15
  12   0  -5   -1.49    1.18
  12   0  -5   -0.52    1.06
 -12   0   5    0.24    1.09
 -12   0   5   -1.83    1.15
 -12   0   5   -1.32    0.82
 -12   0   4 1111.93   20.26
 -12   0   4 1119.24   20.29
 -12   0   4 1079.38   20.08
  12   0  -4 1113.61   20.36
  12   0  -4 1090.36   20.28
 -12   0   4 1073.52   20.09
  12   0  -4 1020.40   20.46
 -12   0   4 1110.97   20.44
  12   0  -4 1099.78   20.49
  12   0  -4 1126.78   20.30
  12   0  -4 1082.12   20.37
 -12   0   2  448.93    8.66
  12   0  -2  466.24    8.89
 -12   0   2  458.14    8.80
  12   0  -2  467.21    8.86
  12   0  -2  438.74    8.96
 -12   0   2  460.57    8.81
  12   0  -2  449.88    8.83
  12   0  -2  454.54    8.84
  12   0  -2  449.02    9.01
 -12   0   2  454.56    8.64
 -12   0   2  451.84    8.96
  12   0  -1   -2.45    1.05
 -12   0   1   -2.76    0.76
 -12   0   1   -2.70    0.97
 -12   0   1   -2.71    0.84
 -12   0   1   -2.81    0.83
 -12   0   1   -3.01    0.96
  12   0  -1   -2.93    1.01
  12   0   0  153.70    3.67
  12   0   0  150.94    3.91
 -12   0   0  152.93    3.78
  12   0   0  158.41    3.74
  12   0   0  154.43    3.70
 -12   0   0  146.14    3.59
  12   0   0  150.24    3.66
 -12   0   0  153.56    3.51
 -12   0   0  152.59    3.46
 -12   0   0  154.33    3.79
  12   0   0  148.54    3.79
 -12   0   0  155.89    3.63
 -12   0  -1    1.70    1.19
 -12   0  -1    0.32    0.97
  12   0   1    0.28    1.33
 -12   0  -1    0.81    0.96
  12   0   1   -0.69    1.13
 -12   0  -1    0.56    1.10
  12   0   1    0.88    1.09
 -12   0  -1   -0.63    1.00
  12   0   1    0.11    1.18
  12   0   1    1.39    1.21
  12   0   1    0.76    1.16
 -12   0  -2   72.49    2.66
  12   0   2   67.50    3.02
  12   0   2   70.78    2.98
  12   0   2   76.71    2.78
  12   0   2   73.76    2.80
 -12   0  -2   68.94    2.52
 -12   0  -2   75.06    2.60
 -12   0  -2   70.29    2.89
  12   0   2   71.69    2.83
 -12   0  -2   69.68    2.81
 -12   0  -2   72.39    2.50
  12   0   2   69.44    2.77
 -12   0  -3    0.10    1.42
 -12   0  -3   -1.94    1.12
  12   0   3    0.14    1.55
  12   0   3    1.66    1.63
 -12   0  -3   -1.30    1.26
  12   0   3    0.08    1.47
  12   0   3    1.01    1.42
  12   0   3   -1.51    1.36
 -12   0  -3   -0.33    1.43
 -12   0  -3    1.52    1.22
  12   0   3   -0.68    1.41
 -12   0  -3   -0.93    1.42
 -12   0  -4   27.43    2.57
  12   0   4   24.07    2.22
 -12   0  -4   33.09    2.62
 -12   0  -4   26.52    2.52
 -12   0  -4   26.47    2.49
  12   0   4   31.66    2.44
  12   0   4   26.38    1.93
 -12   0  -4   29.96    2.27
 -12   0  -4   23.40    1.78
  12   0   4   29.18    2.92
  12   0   4   28.06    2.14
  12   0   4   29.24    2.35
  12   0   5    2.63    1.76
 -12   0  -5    0.43    1.44
  12   0   5    1.17    1.87
 -12   0  -5   -2.26    1.53
 -12   0  -5    0.79    1.74
 -12   0  -5   -1.32    1.61
  12   0   5   -1.87    1.72
  12   0   5   -3.16    1.86
 -12   0  -5    0.47    1.68
  12   0   5   -0.52    1.83
  12   0   5    0.39    1.96
 -12   0  -5   -0.75    1.87
  12   0   6   25.92    2.86
  12   0   6   21.77    2.45
 -12   0  -6   28.99    2.22
  12   0   6   25.16    2.61
  12   0   6   23.44    3.68
  12   0   6   25.26    2.44
 -12   0  -6   21.75    2.04
  12   0   6   21.79    2.27
 -12   0  -6   27.80    2.52
 -12   0  -6   21.84    1.99
 -12   0  -6   31.59    3.13
 -12   0  -6   29.59    2.67
 -12   0  -7   -1.73    1.85
  12   0   7    2.68    2.44
  12   0   7   -1.95    2.71
 -12   0  -7    2.33    2.11
  12   0   7    1.89    2.56
  12   0   7    2.20    2.34
 -12   0  -7    1.75    2.29
  12   0   7    4.09    2.25
  12   0   7    4.14    2.47
 -12   0  -7   -1.30    2.00
 -12   1   9   35.40    3.43
  12   1  -9   31.40    2.68
 -12   1   9   37.36    3.29
 -12   1   9   28.96    2.56
 -12   1   9   31.76    2.42
  12   1  -9   29.18    2.91
  12   1  -9   31.57    2.86
  12   1  -9   26.67    2.06
 -12   1   9   33.37    2.73
  12   1  -9   31.60    2.52
 -12   1   9   33.48    2.38
  12  -1  -9   34.74    3.17
  12  -1  -9   29.89    2.37
  12  -1  -9   28.22    2.40
  12  -1  -9   28.77    2.33
 -12  -1   9   37.60    2.80
  12  -1  -9   39.84    3.43
 -12  -1   9   34.54    3.12
  12  -1  -9   35.41    3.46
 -12   1   8   21.91    2.16
 -12   1   8   26.37    2.16
  12   1  -8   18.66    1.72
  12   1  -8   17.97    1.56
  12   1  -8   18.87    1.80
 -12   1   8   20.23    1.76
 -12   1   8   22.60    2.04
 -12   1   8   20.75    1.75
  12   1  -8   19.60    1.75
  12   1  -8   24.39    2.13
  12   1  -8   20.10    1.71
 -12   1   8   20.41    2.17
 -12  -1   8   24.93    2.33
  12  -1  -8   19.64    1.84
  12  -1  -8   19.57    2.12
 -12  -1   8   19.40    1.66
 -12  -1   8   16.99    1.66
 -12  -1   8   20.38    1.84
  12  -1  -8   16.78    1.97
  12  -1  -8   21.55    2.20
  12  -1  -8   19.94    1.96
  12  -1  -8   23.44    1.99
  12   1  -7   51.22    2.55
  12   1  -7   54.83    2.57
 -12   1   7   50.18    3.14
  12   1  -7   49.49    2.34
 -12   1   7   51.85    2.96
 -12   1   7   55.08    2.61
  12   1  -7   53.72    2.64
 -12   1   7   54.21    2.98
 -12   1   7   55.42    2.56
 -12   1   7   58.38    2.94
  12   1  -7   56.25    2.27
  12   1  -7   55.76    2.60
  12  -1  -7   54.60    2.96
 -12  -1   7   52.82    2.62
  12  -1  -7   53.22    3.01
 -12  -1   7   56.18    2.45
 -12  -1   7   52.91    2.37
  12  -1  -7   52.90    4.70
  12  -1  -7   59.54    2.99
 -12  -1   7   56.90    2.35
  12  -1  -7   54.75    3.18
  12  -1  -7   52.72    3.12
  12   1  -6   20.20    1.85
  12   1  -6   20.72    2.05
 -12   1   6   22.40    1.68
  12   1  -6   19.19    1.95
 -12   1   6   24.24    2.41
  12   1  -6   20.63    2.00
  12   1  -6   22.56    2.11
 -12   1   6   22.43    2.10
 -12   1   6   23.40    1.75
 -12   1   6   22.82    2.25
 -12   1   6   25.48    2.14
  12   1  -6   23.65    1.78
  12  -1  -6   25.97    2.60
 -12  -1   6   20.40    1.85
  12  -1  -6   24.08    2.42
  12  -1  -6   18.79    1.64
 -12  -1   6   21.97    1.72
  12  -1  -6   19.99    1.78
  12  -1  -6   18.00    2.82
  12  -1  -6   22.81    1.87
 -12  -1   6   19.73    1.87
  12   1  -5  192.18    4.10
 -12   1   5  193.75    4.42
  12   1  -5  176.59    4.07
  12   1  -5  188.49    4.25
 -12   1   5  190.83    4.73
 -12   1   5  186.14    4.78
  12   1  -5  186.30    4.31
  12   1  -5  190.00    4.25
 -12   1   5  197.30    4.57
  12   1  -5  190.73    4.22
 -12   1   5  192.70    4.54
 -12   1   5  190.81    4.41
  12  -1  -5  186.91    4.83
 -12  -1   5  189.89    4.21
  12  -1  -5  193.31    4.58
 -12  -1   5  183.49    4.16
  12  -1  -5  194.19    4.60
 -12  -1   5  195.26    4.11
  12  -1  -5  194.80    4.62
  12  -1  -5  195.42    4.73
  12  -1  -5  185.70    4.79
 -12  -1   5  187.11    4.03
 -12   1   4    1.42    1.01
 -12   1   4    1.79    1.23
 -12   1   4   -0.36    1.09
  12   1  -4    1.59    0.86
  12   1  -4    0.73    0.85
  12   1  -4    0.26    0.97
  12   1  -4    0.36    0.98
  12   1  -4    0.69    0.90
 -12   1   4    1.37    1.34
 -12   1   4    1.38    1.15
  12   1  -4    0.75    0.95
 -12   1   4    1.29    1.12
 -12  -1   4    0.54    0.92
 -12  -1   4    0.48    0.82
  12  -1  -4    0.84    1.46
 -12  -1   4    0.49    0.89
  12  -1  -4    0.57    1.19
  12  -1  -4    1.99    1.18
  12  -1  -4   -0.01    1.26
  12  -1  -4    0.21    1.27
 -12  -1   4    0.24    0.79
  12  -1  -4    1.71    1.22
  12   1  -3  199.07    4.29
 -12   1   3  202.29    4.55
  12   1  -3  196.02    4.20
  12   1  -3  192.98    4.22
 -12   1   3  196.85    4.73
 -12   1   3  194.85    4.40
  12   1  -3  188.32    4.23
 -12   1   3  197.55    4.52
 -12   1   3  203.45    4.46
  12   1  -3  191.81    4.08
 -12   1   3  197.62    4.74
  12   1  -3  204.22    4.13
  12  -1  -3  202.64    4.59
 -12  -1   3  189.81    4.02
  12  -1  -3  195.03    4.78
  12  -1  -3  201.65    4.61
 -12  -1   3  199.32    4.07
  12  -1  -3  202.09    4.62
  12  -1  -3  196.88    4.82
 -12  -1   3  192.37    4.16
 -12   1   2   14.33    1.28
  12   1  -2   15.88    1.23
  12   1  -2   14.78    1.10
 -12   1   2   15.88    1.40
 -12   1   2   14.75    1.26
  12   1  -2   13.48    1.05
 -12   1   2   11.59    1.45
  12   1  -2   16.21    1.50
 -12   1   2   16.58    1.26
  12   1  -2   14.62    1.02
 -12   1   2   14.71    1.47
  12   1  -2   11.56    1.12
 -12  -1   2   14.47    0.99
 -12  -1   2   13.81    1.32
  12  -1  -2   16.27    1.44
  12  -1  -2   13.93    1.45
 -12  -1   2   15.04    1.10
  12  -1  -2   14.24    1.51
  12  -1  -2   15.98    1.50
  12  -1  -2   13.52    1.42
 -12  -1   2   14.09    1.10
  12  -1  -2   14.53    1.55
 -12   1   1   73.74    2.55
  12   1  -1   75.81    2.44
 -12   1   1   79.99    2.53
  12   1  -1   77.30    2.38
  12   1  -1   80.79    2.26
  12   1  -1   81.81    2.33
 -12   1   1   80.48    2.68
  12   1  -1   76.30    2.30
 -12   1   1   78.42    2.91
  12   1  -1   83.53    2.34
 -12   1   1   81.17    2.65
 -12   1   1   77.79    2.84
  12  -1  -1   78.67    3.04
 -12  -1   1   80.18    2.38
 -12  -1   1   79.05    2.19
  12  -1  -1   80.97    2.78
 -12  -1   1   80.12    2.19
  12  -1  -1   79.46    2.76
  12  -1  -1   81.03    2.77
  12  -1  -1   78.09    2.84
 -12  -1   1   77.50    2.33
  12  -1  -1   71.05    2.86
  12   1   0    3.02    1.13
  12   1   0    2.71    0.98
  12   1   0    2.58    1.00
 -12   1   0    0.93    1.28
  12   1   0    1.15    1.00
 -12   1   0    0.89    1.10
 -12   1   0    0.04    1.20
 -12   1   0    1.65    1.25
 -12   1   0    1.05    1.08
 -12   1   0    1.02    1.03
  12   1   0    0.99    1.09
  12   1   0    1.85    0.93
 -12  -1   0    0.20    0.95
 -12  -1   0    2.89    1.05
  12  -1   0    1.85    1.29
  12  -1   0    2.08    1.22
 -12  -1   0    2.03    0.88
  12  -1   0    2.82    1.27
  12  -1   0    0.53    1.18
  12  -1   0   -0.02    1.47
  12  -1   0    2.62    1.29
 -12  -1   0    1.76    0.91
  12   1   1    9.15    1.17
  12   1   1   10.28    1.35
 -12   1  -1    8.52    1.21
 -12   1  -1   10.58    1.45
  12   1   1   11.42    1.29
  12   1   1   11.02    1.39
 -12   1  -1    7.88    1.36
  12   1   1    9.86    1.21
  12   1   1   10.26    1.23
 -12   1  -1   11.90    1.42
 -12   1  -1    7.86    1.27
 -12  -1  -1    9.85    1.09
 -12  -1  -1    9.32    1.11
  12  -1   1    9.93    1.36
  12  -1   1    9.09    1.39
 -12  -1  -1   11.27    1.32
  12  -1   1    6.41    1.42
  12  -1   1    9.70    1.66
  12  -1   1    6.63    1.36
  12  -1   1    8.45    1.32
 -12  -1  -1   10.91    1.30
  12   1   2    0.04    1.34
  12   1   2   -0.69    1.16
 -12   1  -2   -2.06    1.49
 -12   1  -2    0.12    1.44
 -12   1  -2   -0.13    1.20
 -12   1  -2   -0.36    1.14
  12   1   2    0.60    1.25
  12   1   2    1.42    1.21
  12   1   2    1.62    1.29
 -12   1  -2   -0.66    1.17
  12   1   2    0.18    1.27
 -12   1  -2    0.12    1.11
 -12  -1  -2   -0.27    1.04
  12  -1   2   -0.72    1.59
  12  -1   2    1.22    1.24
  12  -1   2   -1.70    1.27
  12  -1   2    0.06    1.37
 -12  -1  -2   -0.97    0.85
  12  -1   2    1.39    1.38
  12  -1   2    1.09    1.45
 -12  -1  -2    0.74    1.06
 -12  -1  -2   -0.30    1.16
 -12   1  -3   45.65    2.65
  12   1   3   49.37    2.72
  12   1   3   46.31    2.78
 -12   1  -3   49.55    2.66
  12   1   3   44.12    2.64
 -12   1  -3   48.65    2.96
 -12   1  -3   43.66    3.23
  12   1   3   45.77    2.77
  12   1   3   48.72    2.68
 -12   1  -3   52.58    2.66
  12   1   3   45.71    2.78
 -12   1  -3   50.82    3.05
  12  -1   3   48.11    3.01
  12  -1   3   49.14    3.51
  12  -1   3   43.38    3.08
  12  -1   3   46.84    3.21
 -12  -1  -3   45.54    2.19
 -12  -1  -3   44.82    2.74
 -12  -1  -3   50.72    2.52
  12  -1   3   52.26    3.05
 -12  -1  -3   46.51    2.69
 -12  -1  -3   48.51    2.17
  12  -1   3   45.49    2.67
  12   1   4    3.37    1.82
 -12   1  -4    0.55    2.87
 -12   1  -4    5.66    1.79
  12   1   4    4.56    1.59
  12   1   4    3.52    1.67
 -12   1  -4    6.84    1.53
 -12   1  -4    4.42    1.65
  12   1   4    4.49    1.61
 -12   1  -4    4.61    1.76
  12   1   4    6.00    1.77
 -12   1  -4    4.82    1.39
 -12  -1  -4    5.57    1.71
 -12  -1  -4    5.24    1.36
  12  -1   4    4.26    1.74
  12  -1   4    7.43    1.95
  12  -1   4    3.97    1.86
 -12  -1  -4    5.37    1.49
 -12  -1  -4    4.61    1.40
  12  -1   4    3.88    1.61
 -12  -1  -4    5.61    1.37
  12  -1   4    3.63    1.78
  12  -1   4    2.40    1.91
 -12   1  -5   45.35    3.12
  12   1   5   38.75    3.39
  12   1   5   47.32    3.36
  12   1   5   46.10    3.43
 -12   1  -5   44.49    3.14
 -12   1  -5   38.49    3.14
 -12   1  -5   45.05    3.69
  12   1   5   44.44    3.63
 -12   1  -5   44.62    3.54
 -12   1  -5   37.07    3.26
  12   1   5   42.47    3.40
  12   1   5   41.93    3.27
  12  -1   5   46.94    3.61
 -12  -1  -5   41.86    3.26
  12  -1   5   45.71    3.78
  12  -1   5   43.13    3.74
 -12  -1  -5   42.78    2.97
 -12  -1  -5   44.79    2.84
  12  -1   5   41.99    3.87
  12  -1   5   41.53    3.75
 -12  -1  -5   41.17    3.10
  12  -1   5   44.14    3.29
 -12  -1  -5   42.77    2.71
 -12   1  -6   10.48    2.35
  12   1   6    9.17    2.24
  12   1   6    6.11    2.22
 -12   1  -6    7.77    1.81
  12   1   6   14.98    2.31
  12   1   6    7.77    2.33
 -12   1  -6   11.14    2.00
  12   1   6   12.85    2.30
 -12   1  -6   12.17    2.03
  12   1   6   11.88    2.21
 -12   1  -6    6.50    2.07
 -12   1  -6    9.60    2.03
  12  -1   6   10.33    2.72
 -12  -1  -6    8.70    1.94
 -12  -1  -6    8.70    1.98
 -12  -1  -6    8.13    2.09
 -12  -1  -6    3.21    1.74
  12  -1   6    6.85    2.89
  12  -1   6   10.25    2.19
 -12  -1  -6   10.64    1.85
  12  -1   6    9.82    2.42
  12  -1   6   11.34    2.51
  12  -1   6    6.70    2.07
 -12  -1  -6   11.19    2.19
  12   2  -8    3.97    1.46
 -12   2   8    3.25    2.19
  12   2  -8    0.11    1.87
 -12   2   8    5.72    3.47
  12   2  -8    2.44    1.34
  12   2  -8    4.37    1.39
 -12   2   8   -1.07    1.83
 -12   2   8    2.62    1.82
  12   2  -8    1.64    1.38
 -12   2   8    4.43    1.72
 -12   2   8    3.97    1.73
  12   2  -8    1.06    1.30
  12  -2  -8    3.22    1.88
  12  -2  -8    4.09    2.03
  12  -2  -8    3.67    1.79
  12  -2  -8    4.22    1.96
  12  -2  -8    4.44    2.20
  12  -2  -8    2.40    2.04
  12   2  -7    1.52    1.19
 -12   2   7   -3.98    1.49
  12   2  -7    0.65    1.18
 -12   2   7    1.20    1.84
 -12   2   7    1.05    1.71
 -12   2   7   -1.30    1.77
 -12   2   7   -2.69    1.55
 -12   2   7   -1.10    1.79
  12   2  -7    0.04    0.95
  12  -2  -7    1.19    1.74
  12  -2  -7   -2.20    1.97
  12  -2  -7    0.62    1.84
  12  -2  -7    1.60    1.65
  12  -2  -7   -5.06    1.56
  12  -2  -7    0.43    1.59
 -12   2   6   -1.60    1.59
  12   2  -6    1.42    1.05
 -12   2   6   -0.62    1.48
 -12   2   6   -1.12    1.46
 -12   2   6    0.72    1.62
 -12   2   6    2.42    1.81
  12  -2  -6   -0.85    1.48
  12  -2  -6    0.61    1.53
  12  -2  -6   -1.65    1.55
  12  -2  -6   -1.24    1.78
  12  -2  -6    0.91    1.71
  12  -2  -6    0.19    1.57
 -12   2   5   27.32    2.77
 -12   2   5   27.86    2.75
 -12   2   5   33.97    2.54
 -12   2   5   29.21    2.68
 -12   2   5   27.58    1.89
 -12   2   5   28.97    2.55
  12  -2  -5   30.03    2.32
  12  -2  -5   28.24    2.79
  12  -2  -5   28.20    1.94
  12  -2  -5   29.19    2.81
  12  -2  -5   31.13    2.92
  12  -2  -5   28.72    2.33
 -12   2   4   52.93    2.93
 -12   2   4   45.20    3.25
 -12   2   4   56.33    2.82
 -12   2   4   53.33    2.92
 -12   2   4   52.96    2.60
 -12   2   4   51.79    2.70
  12  -2  -4   51.02    3.12
  12  -2  -4   56.00    2.92
  12  -2  -4   53.15    2.74
  12  -2  -4   51.57    2.99
  12  -2  -4   61.77    3.08
 -12   2   3   89.33    3.42
 -12   2   3   93.12    3.25
 -12   2   3   95.86    3.20
 -12   2   3   91.51    3.47
 -12   2   3   95.37    3.08
 -12   2   3   99.36    3.25
  12  -2  -3   89.45    3.24
  12  -2  -3   91.70    3.53
  12  -2  -3   92.09    3.61
  12  -2  -3   93.48    3.37
  12  -2  -3   94.77    3.81
  12  -2  -3   88.94    3.42
 -12   2   2    4.26    1.44
 -12   2   2    2.74    1.35
 -12   2   2    0.41    1.54
 -12   2   2    2.50    1.32
 -12   2   2    1.01    1.35
 -12   2   2    3.60    1.63
  12  -2  -2    0.83    1.33
  12  -2  -2    2.63    1.51
  12  -2  -2    3.42    1.36
  12  -2  -2    2.10    1.68
  12  -2  -2    0.52    1.56
  12  -2  -2    3.67    1.55
 -12   2   1    3.35    1.20
 -12   2   1    6.36    1.38
 -12   2   1    3.29    1.45
 -12   2   1    1.99    1.29
 -12   2   1    2.14    1.60
 -12   2   1    4.83    1.40
  12  -2  -1    4.40    1.36
  12  -2  -1    4.59    1.43
  12  -2  -1    2.24    1.58
  12  -2  -1    5.41    1.78
  12  -2  -1    3.93    1.46
  12  -2  -1    2.92    1.51
  12   2   0   19.53    1.59
  12   2   0   19.86    1.78
 -12   2   0   17.55    1.72
 -12   2   0   19.19    1.64
  12   2   0   16.79    1.71
 -12   2   0   17.82    1.57
 -12   2   0   15.52    1.56
  12   2   0   18.92    1.70
  12   2   0   16.19    1.23
 -12   2   0   17.04    1.94
 -12   2   0   17.36    1.56
  12  -2   0   17.89    1.81
  12  -2   0   15.41    2.03
  12  -2   0   12.84    1.68
  12  -2   0   17.03    1.81
  12  -2   0   21.61    1.84
  12  -2   0   18.26    1.73
 -12   2  -1   73.03    3.02
 -12   2  -1   74.36    3.26
 -12   2  -1   71.22    2.99
  12   2   1   74.88    2.56
  12   2   1   75.02    2.57
  12   2   1   75.04    2.36
  12   2   1   70.05    2.62
  12   2   1   72.86    2.58
 -12   2  -1   75.20    3.20
 -12   2  -1   72.01    2.92
  12   2   1   76.28    2.44
 -12  -2  -1   72.21    2.24
  12  -2   1   72.44    3.75
 -12  -2  -1   71.15    2.31
  12  -2   1   75.78    3.24
 -12  -2  -1   72.20    2.39
  12  -2   1   75.45    3.52
  12  -2   1   68.58    3.34
  12  -2   1   71.77    3.17
 -12  -2  -1   76.27    2.55
  12  -2   1   74.08    3.15
  12   2   2    0.74    1.23
 -12   2  -2    0.14    1.48
  12   2   2    1.66    1.31
  12   2   2    0.30    1.32
 -12   2  -2   -0.91    1.48
  12   2   2    2.09    1.37
 -12   2  -2   -0.27    1.58
  12   2   2    0.69    2.22
 -12   2  -2   -0.28    1.45
 -12   2  -2    2.93    1.68
 -12   2  -2    3.00    2.21
  12   2   2    0.75    1.15
  12  -2   2    2.03    2.03
  12  -2   2   -0.57    1.58
  12  -2   2   -2.31    1.55
  12  -2   2    0.56    1.63
 -12  -2  -2    1.68    1.21
  12  -2   2   -1.35    1.68
 -12  -2  -2    2.14    1.15
 -12  -2  -2    3.30    1.25
 -12  -2  -2    0.45    1.05
  12  -2   2    0.38    1.95
  12   2   3   21.47    1.88
 -12   2  -3   23.80    2.02
 -12   2  -3   21.58    2.01
  12   2   3   21.13    1.97
  12   2   3   28.97    2.58
 -12   2  -3   22.52    1.81
 -12   2  -3   29.39    2.80
  12   2   3   25.17    1.69
 -12   2  -3   24.05    2.25
 -12   2  -3   20.06    2.05
  12   2   3   25.19    1.90
  12  -2   3   24.83    2.13
  12  -2   3   18.35    1.95
  12  -2   3   24.97    2.37
  12  -2   3   23.18    2.29
 -12  -2  -3   25.12    1.84
  12  -2   3   20.09    2.28
 -12  -2  -3   27.10    1.70
  12  -2   3   20.02    1.96
 -12  -2  -3   23.55    2.23
 -12  -2  -3   22.55    2.34
 -12   2  -4    0.91    1.71
  12   2   4    3.10    2.75
 -12   2  -4   -1.41    1.69
 -12   2  -4    3.68    1.81
  12   2   4    2.40    1.66
 -12   2  -4    0.46    1.56
  12   2   4    4.27    1.71
 -12   2  -4    2.80    1.90
 -12   2  -4    0.81    1.67
  12   2   4    1.94    1.62
  12   2   4    1.00    1.88
  12   2   4    0.86    1.49
  12  -2   4    4.00    1.96
 -12  -2  -4    5.45    1.51
 -12  -2  -4    1.44    1.29
  12  -2   4    3.05    1.91
 -12  -2  -4   -0.97    1.50
  12  -2   4    2.13    2.06
  12  -2   4   -0.79    1.92
  12  -2   4   -0.91    1.96
  12  -2   4    3.11    2.28
  12   2   5    9.91    1.84
 -12   2  -5    5.76    1.73
 -12   2  -5    5.60    1.97
  12   2   5    6.17    1.97
 -12   2  -5    3.45    2.01
  12   2   5   10.65    2.10
 -12   2  -5    5.48    1.95
  12   2   5    4.59    2.02
 -12   2  -5    2.61    2.29
  12   2   5    6.62    1.88
  12   2   5    7.74    2.25
 -12  -2  -5    6.70    1.85
 -12  -2  -5    5.87    1.43
  12  -2   5    0.83    2.01
  12  -2   5    6.94    2.83
  12  -2   5    3.66    2.35
  12  -2   5    3.67    2.30
 -12  -2  -5    2.46    1.67
 -12  -2  -5    5.02    1.82
  12  -2   5    4.88    2.10
 -12  -2  -5    7.13    1.51
 -12  -2  -5    4.41    1.57
  12  -2   5    7.76    2.79
  12   2   6    2.84    2.28
 -12   2  -6    6.01    2.19
  12   2   6    4.68    2.17
 -12   2  -6    0.60    1.79
  12   2   6    4.46    2.48
 -12   2  -6   -1.23    4.86
  12   2   6    6.57    2.24
 -12   2  -6    0.50    1.99
  12   2   6    0.25    2.20
  12   2   6    5.78    2.18
 -12   2  -6    2.82    2.39
 -12   2  -6    5.03    2.35
 -12  -2  -6    3.73    2.06
  12  -2   6    1.94    2.60
  12  -2   6    6.75    2.42
 -12  -2  -6    2.06    1.79
  12  -2   6    2.74    2.44
 -12  -2  -6    3.40    1.92
  12  -2   6   -6.92    2.82
 -12  -2  -6    3.31    1.68
 -12  -2  -6    1.49    1.74
  12  -2   6   -4.79    5.10
 -12  -2  -6    2.24    2.05
  12  -2   6    7.70    2.40
 -12   3   7   -3.38    1.99
 -12   3   7    2.00    2.02
 -12   3   7    0.66    2.11
 -12   3   7    1.67    2.02
 -12   3   7   -1.63    1.82
 -12   3   7    2.36    2.07
  12  -3  -7    0.40    1.99
  12  -3  -7   -1.90    1.89
  12  -3  -7   -1.27    2.41
  12  -3  -7    1.42    1.91
  12  -3  -7    5.16    2.17
  12  -3  -7    2.03    2.07
 -12   3   6   -0.18    1.78
 -12   3   6    2.88    1.94
 -12   3   6   -1.81    1.78
 -12   3   6   -0.46    1.91
 -12   3   6    0.54    1.78
 -12   3   6    0.69    1.83
  12  -3  -6   -4.81    1.92
  12  -3  -6   -1.09    1.94
  12  -3  -6    0.94    1.76
  12  -3  -6   -5.21    3.22
  12  -3  -6    2.26    1.90
 -12   3   5   -1.10    1.74
 -12   3   5    0.29    1.62
 -12   3   5    2.06    3.59
 -12   3   5    0.75    1.97
 -12   3   5   -0.07    1.59
 -12   3   5    0.24    1.55
  12  -3  -5   -1.43    1.83
  12  -3  -5   -1.08    1.94
  12  -3  -5   -0.10    1.87
  12  -3  -5   -1.96    1.92
  12  -3  -5    2.81    2.01
  12  -3  -5   -1.41    2.00
 -12   3   4   10.08    1.88
 -12   3   4    8.16    1.72
 -12   3   4    9.83    1.90
 -12   3   4    8.29    1.82
 -12   3   4    9.79    1.79
 -12   3   4   10.11    1.87
  12  -3  -4    8.57    1.85
  12  -3  -4    5.79    1.90
  12  -3  -4   10.73    1.95
  12  -3  -4    6.23    2.13
  12  -3  -4   10.28    1.77
  12  -3  -4    9.98    1.77
 -12   3   3   18.76    1.86
 -12   3   3   18.33    2.05
 -12   3   3   16.19    1.80
 -12   3   3   18.49    1.99
 -12   3   3   14.25    1.95
 -12   3   3   19.27    2.89
  12  -3  -3   16.65    1.93
  12  -3  -3   17.92    2.03
  12  -3  -3   17.40    1.94
  12  -3  -3   15.13    2.04
  12  -3  -3   14.73    2.02
  12  -3  -3   18.58    2.26
 -12   3   2    2.29    1.50
 -12   3   2    2.32    1.87
 -12   3   2    2.31    1.51
 -12   3   2    7.44    1.86
 -12   3   2   -2.39    1.57
  12  -3  -2    3.24    1.75
  12  -3  -2    5.58    2.11
  12  -3  -2    3.11    1.60
  12  -3  -2    4.72    1.77
  12  -3  -2    3.75    1.68
  12  -3  -2    1.80    1.88
 -12   3   1   38.37    2.99
 -12   3   1   30.72    2.70
 -12   3   1   26.54    2.08
 -12   3   1   29.94    2.94
 -12   3   1   30.59    2.16
 -12   3   1   30.03    2.74
  12  -3  -1   26.19    2.12
  12  -3  -1   27.44    2.29
  12  -3  -1   33.32    3.30
  12  -3  -1   28.04    2.32
  12  -3  -1   28.56    2.08
 -12   3   0   18.90    1.89
 -12   3   0   22.38    1.89
 -12   3   0   27.18    2.24
 -12   3   0   21.48    1.98
 -12   3   0   17.36    1.91
 -12   3   0   19.09    1.74
  12  -3   0   18.87    2.04
  12  -3   0   16.55    2.39
  12  -3   0   21.99    2.15
  12  -3   0   13.64    2.17
  12  -3   0   17.84    2.00
  12  -3   0   23.83    2.50
 -12   3  -1   42.11    3.30
 -12   3  -1   40.69    3.22
 -12   3  -1   38.69    2.92
 -12   3  -1   41.46    3.07
  12   3   1   39.18    2.33
  12   3   1   46.45    2.40
 -12   3  -1   38.57    3.08
 -12   3  -1   32.65    3.18
  12  -3   1   34.34    3.42
  12  -3   1   35.57    3.66
  12  -3   1   39.89    3.43
  12  -3   1   41.85    3.23
  12  -3   1   39.10    3.52
  12  -3   1   39.91    3.24
  12   3   2   12.57    1.61
 -12   3  -2    8.34    1.89
  12   3   2   13.56    1.46
 -12   3  -2   12.09    2.20
  12   3   2   13.51    1.29
  12   3   2   13.04    1.68
  12   3   2   12.43    1.55
 -12   3  -2   11.61    2.03
 -12   3  -2   11.49    1.83
 -12   3  -2    9.78    1.87
  12   3   2   12.22    1.62
 -12   3  -2    7.93    1.71
  12  -3   2   14.33    2.39
  12  -3   2   12.16    2.13
 -12  -3  -2   13.04    1.39
  12  -3   2    8.74    1.96
 -12  -3  -2   10.85    1.36
  12  -3   2   11.79    3.34
 -12  -3  -2   12.19    1.24
  12  -3   2   12.99    2.11
  12  -3   2    9.99    2.19
 -12  -3  -2   14.10    1.51
 -12   3  -3   -1.39    1.85
 -12   3  -3   -0.56    1.91
 -12   3  -3    1.28    1.74
  12   3   3    0.89    1.51
  12   3   3   -0.15    1.66
  12   3   3   -1.32    1.79
 -12   3  -3    1.84    1.87
 -12   3  -3   -0.08    1.64
  12   3   3   -1.79    1.39
  12   3   3   -1.63    1.63
 -12   3  -3    2.11    2.58
  12   3   3   -0.87    1.51
 -12  -3  -3    1.30    1.36
  12  -3   3   -0.57    1.87
  12  -3   3    0.09    2.16
 -12  -3  -3    1.00    1.48
  12  -3   3    0.72    2.02
  12  -3   3   -0.82    2.26
 -12  -3  -3    0.50    1.35
 -12  -3  -3    0.31    1.30
  12  -3   3    0.74    2.29
  12  -3   3    1.15    2.19
  12   3   4   -1.18    1.79
 -12   3  -4    4.08    2.12
  12   3   4   -2.88    2.15
  12   3   4    0.93    1.54
 -12   3  -4    3.89    2.05
  12   3   4   -2.38    1.74
 -12   3  -4    4.27    2.25
 -12   3  -4    1.10    1.94
  12   3   4   -1.68    2.06
  12   3   4   -0.64    1.79
 -12   3  -4    0.33    1.80
 -12   3  -4   -0.11    1.78
  12  -3   4   -4.40    2.37
 -12  -3  -4    0.75    1.48
  12  -3   4    5.12    2.47
  12  -3   4   -1.33    2.23
  12  -3   4   -2.26    2.75
  12  -3   4    0.76    2.46
 -12  -3  -4    1.09    1.56
 -12  -3  -4   -0.73    1.63
 -12  -3  -4    3.20    1.64
  12  -3   4   -0.59    2.02
 -12   4   4   -1.55    2.68
 -12   4   4    3.55    1.87
 -12   4   4    4.63    2.18
 -12   4   4    4.14    2.32
 -12   4   4    0.43    2.17
 -12   4   4    5.28    2.12
  12  -4  -4    6.45    2.36
  12  -4  -4    1.15    2.20
  12  -4  -4   -0.89    2.40
  12  -4  -4    2.62    2.31
  12  -4  -4    7.98    2.11
  12  -4  -4    6.64    2.21
 -12   4   3    2.53    2.16
 -12   4   3   -0.92    1.80
 -12   4   3    0.30    1.83
 -12   4   3    0.02    1.84
 -12   4   3   -0.33    1.94
 -12   4   3    1.34    2.04
  12  -4  -3   -1.81    2.02
  12  -4  -3    2.49    2.36
  12  -4  -3    0.05    2.27
  12  -4  -3    2.17    2.23
  12  -4  -3   -1.09    1.98
  12  -4  -3    1.33    2.32
 -12   4   2   -0.04    1.79
 -12   4   2   -3.14    1.96
 -12   4   2    3.09    2.12
 -12   4   2    3.47    1.84
 -12   4   2   -1.04    1.94
 -12   4   2   -0.07    1.88
  12  -4  -2   -0.06    2.08
  12  -4  -2    2.38    2.03
  12  -4  -2    0.47    2.21
  12  -4  -2   -1.21    2.16
  12  -4  -2   -1.65    2.58
  12  -4  -2    1.29    2.26
 -12   4   1    1.98    2.14
 -12   4   1    0.74    2.19
 -12   4   1    1.87    2.24
 -12   4   1    0.44    2.04
 -12   4   1    1.23    1.63
 -12   4   1    1.71    1.88
  12  -4  -1   -3.33    2.26
  12  -4  -1   -0.24    1.88
  12  -4  -1    2.27    2.09
  12  -4  -1    0.89    2.42
  12  -4  -1    5.41    2.04
  12  -4  -1   -0.01    2.32
 -12   4   0   -3.68    2.10
 -12   4   0    0.03    1.61
 -12   4   0   -2.95    1.94
 -12   4   0   -1.55    1.81
 -12   4   0   -1.40    1.95
 -12   4   0    1.62    2.29
  12  -4   0   -2.41    2.02
  12  -4   0   -3.17    2.16
  12  -4   0    0.52    2.10
  12  -4   0    1.36    2.01
  12  -4   0   -2.28    2.21
  12  -4   0   -0.16    2.38
 -12   4  -1    1.63    1.94
 -12   4  -1   -0.74    2.09
 -12   4  -1    3.93    2.15
  12   4   1    2.69    1.54
 -12   4  -1    7.58    2.52
 -12   4  -1    1.19    2.04
 -12   4  -1    2.85    2.02
  12  -4   1    3.50    2.22
  12  -4   1    3.70    2.07
  12  -4   1   -0.76    2.74
  12  -4   1    4.31    2.50
  12  -4   1    0.01    2.32
  12  -4   1    2.27    2.30
 -13   0   9    0.99    1.77
  13   0  -9    0.63    1.77
 -13   0   9   -0.17    2.00
  13   0  -9    1.28    1.84
  13   0  -9    0.44    1.59
 -13   0   9    0.64    1.31
 -13   0   9   -2.41    1.71
 -13   0   9   -0.47    1.80
  13   0  -9    3.97    1.78
  13   0  -9   -1.90    1.73
  13   0  -9   -2.60    1.75
  13   0  -8   11.10    1.63
  13   0  -8   11.39    1.83
  13   0  -8   13.41    1.87
 -13   0   8    6.25    2.69
  13   0  -8   10.23    2.29
 -13   0   8    9.72    1.86
  13   0  -8    9.22    1.65
  13   0  -8   10.48    1.78
 -13   0   8   11.13    1.67
 -13   0   8   11.68    1.70
  13   0  -7   -1.53    1.42
  13   0  -7   -0.53    1.38
  13   0  -7   -0.10    1.45
 -13   0   7   -0.39    1.00
  13   0  -7   -2.05    1.33
 -13   0   7    1.27    1.30
 -13   0   7   -0.37    1.51
  13   0  -7    1.88    1.32
  13   0  -7   -1.32    1.47
 -13   0   7   -2.77    1.32
  13   0  -6   -1.26    1.33
  13   0  -6    1.49    1.35
  13   0  -6    0.55    1.33
 -13   0   6    0.82    1.37
  13   0  -6   -1.24    1.23
 -13   0   6   -1.78    1.20
  13   0  -6    2.50    1.45
  13   0  -6   -1.11    1.20
  13   0  -5   -1.23    1.27
  13   0  -5   -0.53    1.26
  13   0  -5   -1.61    1.10
 -13   0   5   -1.42    1.16
 -13   0   5   -2.77    1.10
  13   0  -5   -0.99    1.27
  13   0  -5   -2.66    1.17
  13   0  -5   -2.58    1.21
 -13   0   4    1.79    0.83
  13   0  -4    1.41    1.21
 -13   0   4    0.26    1.08
  13   0  -4   -1.14    1.18
 -13   0   4    2.41    1.09
  13   0  -4    1.07    1.13
  13   0  -4    0.66    1.29
 -13   0   4    1.20    0.85
 -13   0   4    1.83    1.18
  13   0  -4    0.96    1.26
  13   0  -4   -0.11    1.23
 -13   0   3   -2.74    0.79
  13   0  -3   -3.80    1.13
 -13   0   3   -2.37    1.11
 -13   0   3   -3.25    1.03
  13   0  -3   -2.81    1.09
  13   0  -3   -3.07    1.12
  13   0  -3   -3.81    1.22
 -13   0   2  108.91    2.96
 -13   0   2  104.36    2.70
  13   0  -2  110.33    3.24
  13   0  -2  112.37    3.06
 -13   0   2  105.15    2.90
  13   0  -2  106.12    3.07
  13   0  -2  102.79    3.08
 -13   0   2  102.28    3.06
  13   0  -2  106.02    3.02
 -13   0   2  109.44    2.65
  13   0  -2  111.27    3.03
 -13   0   1   -2.38    1.02
  13   0  -1   -1.35    1.07
  13   0  -1   -3.05    1.06
 -13   0   1   -1.26    0.83
  13   0  -1   -1.63    1.09
 -13   0   1   -0.50    0.94
  13   0  -1   -2.49    1.08
  13   0  -1   -1.42    1.11
 -13   0   1   -1.76    1.07
 -13   0   1   -0.99    0.89
 -13   0   1   -1.24    1.04
  13   0  -1   -3.67    1.24
  13   0   0   55.36    2.45
 -13   0   0   50.09    2.41
 -13   0   0   52.37    2.04
 -13   0   0   53.66    2.42
  13   0   0   52.57    2.36
  13   0   0   51.59    2.39
 -13   0   0   50.48    2.11
 -13   0   0   51.76    2.24
  13   0   0   53.99    2.31
  13   0   0   50.50    2.61
 -13   0   0   49.71    2.27
  13   0   0   51.02    2.42
 -13   0  -1    0.46    1.15
  13   0   1   -1.76    1.24
 -13   0  -1   -0.52    1.20
  13   0   1    0.81    1.31
 -13   0  -1   -1.36    1.32
  13   0   1    2.60    1.26
  13   0   1   -0.53    1.25
 -13   0  -1    1.92    1.05
 -13   0  -1   -0.40    1.07
  13   0   1   -2.44    1.28
  13   0   1   -0.01    1.42
 -13   0  -1    0.11    1.21
 -13   0  -2  163.33    4.35
 -13   0  -2  137.35    5.38
  13   0   2  156.90    4.20
  13   0   2  159.78    4.20
 -13   0  -2  156.25    4.33
  13   0   2  160.37    4.23
 -13   0  -2  158.89    4.01
  13   0   2  152.29    4.44
  13   0   2  155.99    4.18
 -13   0  -2  152.83    3.89
 -13   0  -2  157.04    3.87
  13   0   2  151.14    4.42
 -13   0  -3   -0.23    1.38
 -13   0  -3   -0.10    1.34
 -13   0  -3   -1.49    1.24
 -13   0  -3   -0.64    1.26
  13   0   3   -2.36    1.47
  13   0   3    3.17    1.70
  13   0   3    2.11    3.15
  13   0   3    0.62    1.54
 -13   0  -3   -1.04    1.62
  13   0   3   -3.00    1.91
 -13   0  -3   -1.30    1.45
  13   0   3   -0.80    1.58
  13   0   4   37.45    3.29
 -13   0  -4   42.15    2.87
 -13   0  -4   40.20    2.85
 -13   0  -4   33.07    3.14
  13   0   4   35.36    3.49
  13   0   4   46.93    3.34
 -13   0  -4   41.29    2.78
  13   0   4   45.45    3.19
  13   0   4   42.64    3.13
  13   0   4   46.60    3.37
 -13   0  -4   43.92    3.38
 -13   0  -4   46.61    2.78
 -13   0  -5    0.95    1.67
  13   0   5   -2.81    1.89
  13   0   5   -5.35    1.89
  13   0   5    1.11    2.25
  13   0   5   -2.72    2.05
 -13   0  -5    0.15    1.89
 -13   0  -5    1.80    1.60
  13   0   5   -0.67    1.86
 -13   0  -5   -0.21    1.75
  13   0   5   -0.09    2.09
 -13   0  -5   -0.45    1.82
 -13   0  -5    1.01    1.91
 -13   0  -6    0.36    2.13
  13   0   6    3.04    2.32
  13   0   6    4.95    2.45
  13   0   6    0.33    2.34
 -13   0  -6    1.66    2.38
 -13   0  -6    3.25    1.93
  13   0   6    2.55    2.54
  13   0   6    1.72    2.50
 -13   0  -6    1.79    1.84
  13   0   6    0.75    2.40
 -13   0  -6    1.09    1.84
 -13   1   9   25.86    3.22
 -13   1   9   22.94    2.40
  13   1  -9   17.96    1.98
  13   1  -9   20.82    1.84
 -13   1   9   22.10    2.34
 -13   1   9   23.85    2.24
 -13   1   9   23.14    2.23
  13   1  -9   15.63    1.96
 -13   1   9   20.48    2.47
  13   1  -9   25.54    2.13
  13   1  -9   21.80    2.07
  13   1  -9   20.25    1.76
  13  -1  -9   20.69    2.13
  13  -1  -9   22.70    2.32
  13  -1  -9   17.45    2.44
 -13  -1   9   21.98    1.97
 -13  -1   9   22.33    2.19
  13  -1  -9   22.85    2.52
  13  -1  -9   20.70    2.38
  13  -1  -9   20.40    2.40
  13   1  -8   23.04    1.86
  13   1  -8   22.08    1.90
 -13   1   8   20.65    1.77
  13   1  -8   22.52    1.92
 -13   1   8   27.23    2.34
 -13   1   8   28.69    2.66
  13   1  -8   20.29    1.91
  13   1  -8   24.67    2.22
  13   1  -8   26.66    2.45
 -13   1   8   23.70    2.29
 -13   1   8   26.87    2.16
 -13   1   8   26.52    2.16
 -13  -1   8   24.59    1.92
  13  -1  -8   22.81    1.95
  13  -1  -8   23.34    2.25
  13  -1  -8   24.72    2.11
  13  -1  -8   29.69    2.21
  13  -1  -8   25.70    2.39
 -13  -1   8   26.14    2.53
  13  -1  -8   25.76    2.29
 -13  -1   8   21.70    1.66
 -13  -1   8   27.87    2.44
  13   1  -7   17.97    1.62
 -13   1   7   19.86    1.77
  13   1  -7   15.31    1.44
  13   1  -7   17.24    1.65
 -13   1   7   17.02    1.60
  13   1  -7   17.24    1.61
 -13   1   7   15.45    1.58
 -13   1   7   16.26    1.77
  13   1  -7   17.29    1.65
 -13   1   7   16.91    1.87
  13   1  -7   17.86    1.43
 -13   1   7   20.81    2.18
  13  -1  -7   15.45    1.90
 -13  -1   7   17.96    1.64
  13  -1  -7   14.94    1.77
 -13  -1   7   16.43    1.40
  13  -1  -7   15.90    1.75
  13  -1  -7   16.97    2.04
 -13  -1   7   17.19    1.54
  13  -1  -7   16.75    1.95
  13  -1  -7   16.76    1.93
  13   1  -6   26.01    2.03
  13   1  -6   29.40    2.13
 -13   1   6   29.33    2.30
  13   1  -6   29.65    2.25
  13   1  -6   26.92    2.18
  13   1  -6   27.32    2.20
 -13   1   6   26.53    2.59
  13   1  -6   32.76    1.95
 -13   1   6   30.67    2.59
 -13   1   6   28.83    1.87
 -13   1   6   29.49    2.77
 -13   1   6   26.25    2.22
  13  -1  -6   30.94    2.67
  13  -1  -6   25.76    2.02
 -13  -1   6   30.26    1.96
  13  -1  -6   28.49    2.73
 -13  -1   6   25.39    1.89
 -13  -1   6   32.09    2.01
  13  -1  -6   36.63    2.66
  13  -1  -6   27.31    2.75
  13  -1  -6   31.07    2.61
 -13  -1   6   27.67    2.11
  13   1  -5   58.38    2.16
  13   1  -5   57.70    2.31
 -13   1   5   54.61    2.48
 -13   1   5   55.52    2.82
  13   1  -5   54.41    2.30
  13   1  -5   55.50    2.31
  13   1  -5   57.73    2.35
 -13   1   5   56.08    2.34
 -13   1   5   55.82    2.75
  13   1  -5   53.46    2.16
 -13   1   5   56.31    2.67
 -13   1   5   46.13    3.45
  13  -1  -5   61.86    2.98
  13  -1  -5   61.61    3.20
 -13  -1   5   52.53    2.17
 -13  -1   5   57.22    2.03
  13  -1  -5   54.69    2.84
 -13  -1   5   54.36    2.08
  13  -1  -5   63.08    2.79
  13  -1  -5   60.73    2.93
  13  -1  -5   56.79    2.97
 -13  -1   5   58.11    2.61
 -13   1   4   -1.64    1.18
  13   1  -4   -3.71    1.01
 -13   1   4   -1.36    1.16
 -13   1   4   -1.81    1.39
  13   1  -4   -3.12    1.04
  13   1  -4   -2.54    1.06
 -13   1   4   -0.17    1.21
 -13   1   4   -0.55    1.05
 -13   1   4   -1.36    1.31
  13   1  -4   -2.35    0.90
  13   1  -4   -1.98    0.93
  13   1  -4   -2.93    1.05
  13  -1  -4   -1.15    1.51
  13  -1  -4   -1.40    1.45
 -13  -1   4   -2.05    0.87
 -13  -1   4   -1.90    0.85
 -13  -1   4   -1.38    0.98
  13  -1  -4   -1.49    1.26
  13  -1  -4   -1.82    1.29
  13  -1  -4   -2.60    1.20
  13  -1  -4   -0.49    1.35
 -13   1   3  130.60    3.35
 -13   1   3  123.64    3.71
 -13   1   3  135.42    3.60
 -13   1   3  128.77    3.44
  13   1  -3  131.17    3.32
 -13   1   3  129.28    3.53
  13   1  -3  126.07    3.08
 -13   1   3  132.85    3.79
  13   1  -3  127.52    3.21
  13   1  -3  123.15    3.23
  13   1  -3  135.03    3.12
  13  -1  -3  132.06    3.66
  13  -1  -3  130.89    3.66
  13  -1  -3  132.39    3.84
 -13  -1   3  124.46    3.15
 -13  -1   3  128.01    2.99
 -13  -1   3  129.27    3.02
  13  -1  -3  134.50    3.67
  13  -1  -3  136.74    3.89
  13  -1  -3  133.02    3.65
 -13  -1   3  124.82    3.12
 -13   1   2    5.61    1.18
  13   1  -2    4.27    1.13
  13   1  -2    3.52    1.02
 -13   1   2    4.52    1.40
  13   1  -2    4.41    1.04
 -13   1   2    3.49    1.23
  13   1  -2    4.40    1.07
 -13   1   2    5.19    1.18
 -13   1   2    4.38    1.29
  13   1  -2    3.94    0.99
 -13   1   2    4.41    1.49
  13   1  -2    3.67    1.17
  13  -1  -2    4.44    1.56
  13  -1  -2    6.08    1.34
 -13  -1   2    4.43    1.10
  13  -1  -2    5.88    1.47
 -13  -1   2    3.72    0.96
 -13  -1   2    3.92    1.05
  13  -1  -2    2.94    1.45
 -13  -1   2    4.29    0.93
  13  -1  -2    4.19    1.34
  13  -1  -2    3.67    1.42
 -13   1   1   -0.83    1.14
  13   1  -1    0.43    1.10
  13   1  -1    1.83    1.03
 -13   1   1    0.31    1.34
  13   1  -1    1.23    1.06
 -13   1   1    0.11    1.36
  13   1  -1    0.17    0.93
  13   1  -1    0.18    1.00
  13   1  -1    0.92    0.99
 -13   1   1   -1.18    1.10
 -13   1   1   -1.72    1.00
 -13   1   1   -0.75    1.26
  13  -1  -1   -1.39    1.24
 -13  -1   1   -0.97    1.08
  13  -1  -1    3.14    1.30
  13  -1  -1   -0.51    1.39
 -13  -1   1    1.67    1.01
  13  -1  -1    0.17    1.27
  13  -1  -1   -0.29    1.53
 -13  -1   1   -0.12    0.87
  13  -1  -1    0.16    1.26
 -13  -1   1    1.58    0.95
 -13   1   0   19.52    1.61
 -13   1   0   22.40    1.56
  13   1   0   21.91    2.03
 -13   1   0   22.83    2.09
  13   1   0   23.47    1.86
  13   1   0   20.20    2.07
 -13   1   0   22.03    2.05
 -13   1   0   20.59    1.72
  13   1   0   23.45    1.96
 -13   1   0   22.04    1.76
  13   1   0   25.46    1.96
  13   1   0   22.22    1.92
 -13  -1   0   23.46    1.96
 -13  -1   0   23.77    1.79
  13  -1   0   17.99    1.70
  13  -1   0   22.18    1.79
  13  -1   0   19.11    1.91
  13  -1   0   22.54    1.74
 -13  -1   0   20.44    1.75
 -13  -1   0   18.99    1.93
  13  -1   0   19.53    1.56
  13  -1   0   19.27    1.60
  13   1   1   41.87    2.29
  13   1   1   37.68    2.44
 -13   1  -1   36.09    2.50
  13   1   1   36.80    2.33
 -13   1  -1   39.09    2.30
  13   1   1   40.73    2.27
  13   1   1   32.53    2.37
 -13   1  -1   38.09    2.72
 -13   1  -1   36.70    2.76
  13   1   1   37.60    2.24
 -13   1  -1   36.23    2.63
 -13  -1  -1   35.75    2.26
  13  -1   1   38.46    2.67
 -13  -1  -1   35.16    2.33
 -13  -1  -1   38.07    2.12
  13  -1   1   38.70    2.55
  13  -1   1   35.50    2.89
  13  -1   1   38.05    2.71
  13  -1   1   36.64    2.67
 -13  -1  -1   35.99    2.10
  13  -1   1   35.70    2.75
 -13   1  -2   -0.18    1.27
  13   1   2    1.99    1.36
  13   1   2    0.82    1.37
  13   1   2    2.90    1.31
 -13   1  -2    0.17    1.73
 -13   1  -2   -0.94    1.20
  13   1   2   -0.65    1.35
 -13   1  -2   -0.31    1.62
 -13   1  -2   -0.02    1.27
 -13   1  -2    1.25    1.33
  13   1   2   -0.12    1.44
  13   1   2    2.97    2.54
  13  -1   2   -0.64    1.55
  13  -1   2   -1.82    1.79
  13  -1   2    2.51    1.72
  13  -1   2   -0.90    1.82
 -13  -1  -2    0.00    0.97
  13  -1   2    1.46    1.63
 -13  -1  -2    1.23    1.17
  13  -1   2   -1.26    1.70
 -13  -1  -2    0.00    1.31
 -13  -1  -2    2.48    1.20
 -13   1  -3   18.89    3.42
  13   1   3   24.11    1.99
 -13   1  -3   23.76    1.98
 -13   1  -3   27.24    2.58
 -13   1  -3   19.81    1.75
  13   1   3   24.43    2.04
  13   1   3   22.82    1.86
  13   1   3   25.23    1.89
  13   1   3   21.39    2.08
 -13   1  -3   24.66    2.25
  13   1   3   19.73    1.89
  13  -1   3   23.02    2.01
  13  -1   3   19.24    1.97
  13  -1   3   25.49    2.53
 -13  -1  -3   24.49    2.03
  13  -1   3   22.55    2.13
 -13  -1  -3   22.28    1.91
 -13  -1  -3   21.57    1.66
  13  -1   3   18.04    2.13
  13  -1   3   23.02    2.11
 -13  -1  -3   19.72    1.47
 -13  -1  -3   22.44    1.91
 -13  -1  -3   25.72    2.42
  13   1   4    0.01    1.91
 -13   1  -4    3.18    1.63
 -13   1  -4    3.50    1.76
 -13   1  -4    4.69    1.61
  13   1   4    2.16    2.06
  13   1   4    4.05    1.71
  13   1   4    2.26    1.84
 -13   1  -4    1.41    1.87
  13   1   4    4.82    1.84
 -13   1  -4    1.97    1.96
 -13   1  -4    1.76    1.62
  13   1   4    1.43    1.77
 -13  -1  -4    1.59    1.36
  13  -1   4    2.84    1.90
 -13  -1  -4    4.60    1.81
 -13  -1  -4    4.46    1.49
 -13  -1  -4    4.58    1.68
 -13  -1  -4    4.81    1.38
  13  -1   4    2.64    3.31
  13  -1   4    4.77    1.74
  13  -1   4    4.24    2.15
  13  -1   4    1.59    1.94
  13  -1   4    4.52    2.15
 -13   1  -5   -1.13    1.61
  13   1   5    2.58    1.96
 -13   1  -5    2.29    1.77
  13   1   5    0.42    1.94
  13   1   5   -4.22    1.98
  13   1   5    3.16    2.17
 -13   1  -5    0.04    1.88
  13   1   5    1.36    1.87
  13   1   5   -3.53    2.25
 -13   1  -5   -1.68    2.23
 -13   1  -5   -2.63    2.04
 -13   1  -5   -1.17    1.76
 -13  -1  -5    0.66    1.72
  13  -1   5   -0.35    2.32
 -13  -1  -5    2.46    1.59
  13  -1   5   -1.87    2.22
  13  -1   5   -2.32    2.10
 -13  -1  -5    1.17    1.79
  13  -1   5    1.12    2.07
 -13  -1  -5    3.46    2.03
  13  -1   5    1.24    2.32
  13  -1   5    0.10    1.89
 -13  -1  -5    0.48    1.54
 -13   1  -6   12.88    2.62
  13   1   6    6.47    2.32
 -13   1  -6   11.65    2.11
 -13   1  -6   12.18    2.38
  13   1   6    9.23    2.40
 -13   1  -6   11.35    2.30
  13   1   6    8.39    2.34
  13   1   6    8.16    2.70
 -13   1  -6    3.97    2.38
 -13   1  -6    9.26    2.07
  13   1   6    9.31    2.33
  13   1   6   13.31    2.60
  13  -1   6    7.17    2.58
  13  -1   6   13.71    2.96
 -13  -1  -6   11.93    2.12
 -13  -1  -6   11.78    2.47
 -13  -1  -6    7.62    2.21
  13  -1   6   11.58    2.53
  13  -1   6   12.82    2.61
 -13  -1  -6    9.62    2.03
  13  -1   6    6.12    2.64
  13  -1   6    6.96    2.36
 -13  -1  -6    7.83    1.87
 -13  -1  -6   10.25    2.01
 -13   2   8    6.40    1.86
 -13   2   8    4.26    2.38
  13   2  -8    5.95    1.56
 -13   2   8    9.87    1.93
  13   2  -8    5.94    1.57
 -13   2   8    9.56    2.06
  13   2  -8    5.08    1.54
  13   2  -8    6.81    1.44
  13   2  -8    7.41    1.49
 -13   2   8   11.53    2.07
 -13   2   8    7.94    2.41
  13  -2  -8    7.71    2.18
  13  -2  -8    7.67    2.13
  13  -2  -8   13.94    2.12
  13  -2  -8    7.51    2.09
  13  -2  -8   10.23    2.36
  13  -2  -8   11.26    2.15
 -13   2   7    5.99    1.88
 -13   2   7    8.57    1.73
 -13   2   7   10.36    1.96
 -13   2   7    5.48    2.00
 -13   2   7    7.08    1.79
  13   2  -7    4.88    1.34
  13   2  -7    6.88    1.37
 -13   2   7    6.16    1.74
  13  -2  -7    7.34    2.04
  13  -2  -7    5.03    1.76
  13  -2  -7    4.70    2.06
  13  -2  -7    6.62    1.92
  13  -2  -7    4.52    2.11
 -13   2   6   18.95    1.92
  13   2  -6   21.69    2.00
 -13   2   6   20.30    2.11
 -13   2   6   23.37    1.93
 -13   2   6   21.67    1.97
 -13   2   6   18.67    2.03
 -13   2   6   20.16    1.84
  13  -2  -6   20.14    2.05
  13  -2  -6   16.21    1.97
  13  -2  -6   20.97    2.15
  13  -2  -6   20.42    2.05
  13  -2  -6   18.28    2.20
  13  -2  -6   21.73    2.21
 -13   2   5   17.83    2.05
 -13   2   5   15.53    1.82
 -13   2   5   13.89    1.85
 -13   2   5   16.92    2.04
 -13   2   5   13.80    1.73
 -13   2   5   15.38    1.70
  13  -2  -5   13.76    1.88
  13  -2  -5   12.79    1.75
  13  -2  -5   12.83    2.02
  13  -2  -5   14.36    1.90
  13  -2  -5   12.68    1.83
  13  -2  -5   13.53    1.87
 -13   2   4   24.07    2.01
 -13   2   4   22.39    1.85
 -13   2   4   26.38    1.93
 -13   2   4   24.65    1.77
 -13   2   4   22.44    1.76
 -13   2   4   19.70    2.32
  13  -2  -4   23.57    2.07
  13  -2  -4   23.26    2.07
  13  -2  -4   26.89    2.06
  13  -2  -4   22.95    2.08
  13  -2  -4   22.24    2.02
  13  -2  -4   23.05    2.13
 -13   2   3  152.98    4.13
 -13   2   3  137.66    4.27
 -13   2   3  143.92    3.94
 -13   2   3  145.93    4.07
 -13   2   3  150.32    4.42
 -13   2   3  143.84    4.06
  13  -2  -3  147.37    4.28
  13  -2  -3  144.81    4.17
  13  -2  -3  140.95    4.48
  13  -2  -3  149.79    4.46
 -13   2   2   56.10    3.04
 -13   2   2   54.86    2.83
 -13   2   2   55.83    2.81
 -13   2   2   51.16    2.91
 -13   2   2   57.91    2.70
 -13   2   2   54.67    3.06
  13  -2  -2   58.04    3.32
  13  -2  -2   58.11    3.07
  13  -2  -2   54.56    3.29
  13  -2  -2   56.32    3.21
  13  -2  -2   52.39    3.12
  13  -2  -2   49.98    2.95
 -13   2   1    0.74    1.50
 -13   2   1   -0.08    1.57
  13   2  -1    2.09    0.96
 -13   2   1   -0.10    1.26
 -13   2   1    1.86    1.36
 -13   2   1    0.08    1.57
 -13   2   1   -1.26    1.37
  13   2  -1    2.57    1.04
  13  -2  -1   -0.10    1.58
  13  -2  -1    3.00    1.62
  13  -2  -1    1.11    1.64
  13  -2  -1   -0.66    1.65
  13  -2  -1    0.92    1.58
  13  -2  -1    0.43    1.79
 -13   2   0    6.78    1.57
 -13   2   0    6.38    1.55
  13   2   0    4.74    1.17
 -13   2   0    6.92    1.51
  13   2   0    7.97    1.10
  13   2   0    9.59    1.22
 -13   2   0    6.73    1.79
  13   2   0    7.84    1.21
  13   2   0    7.02    1.22
  13   2   0    8.40    1.11
 -13   2   0    5.89    1.69
  13  -2   0    8.09    2.00
  13  -2   0    4.96    2.00
  13  -2   0    5.71    1.64
  13  -2   0    6.94    1.79
  13  -2   0    2.36    1.90
 -13   2  -1   53.22    3.20
  13   2   1   51.50    2.26
  13   2   1   57.86    2.61
 -13   2  -1   51.25    4.67
 -13   2  -1   55.36    3.01
 -13   2  -1   54.47    2.88
  13   2   1   57.31    2.42
 -13   2  -1   54.24    2.86
  13   2   1   55.16    2.52
  13   2   1   51.93    2.47
  13   2   1   45.26    2.97
 -13   2  -1   51.18    3.17
 -13  -2  -1   49.06    2.27
 -13  -2  -1   50.21    2.12
 -13  -2  -1   54.28    2.43
  13  -2   1   51.39    3.10
 -13  -2  -1   56.66    2.15
  13  -2   1   48.67    3.85
  13  -2   1   54.39    3.49
  13  -2   1   46.80    3.24
  13  -2   1   58.38    3.23
  13  -2   1   55.78    3.37
 -13   2  -2   14.42    1.87
  13   2   2   14.53    1.65
  13   2   2   15.55    1.65
 -13   2  -2   17.71    2.14
  13   2   2   15.46    1.57
  13   2   2   16.84    1.49
 -13   2  -2   13.68    1.70
 -13   2  -2   10.55    1.58
  13   2   2   16.61    1.69
 -13   2  -2   12.47    1.89
 -13   2  -2   13.42    1.63
  13   2   2   13.58    1.72
 -13  -2  -2   18.18    1.38
 -13  -2  -2   15.40    1.61
 -13  -2  -2   13.31    1.47
  13  -2   2   12.38    2.29
  13  -2   2   13.81    2.10
  13  -2   2   13.94    2.05
  13  -2   2   13.49    1.91
  13  -2   2   13.48    2.14
 -13  -2  -2   14.46    1.34
  13   2   3   27.68    2.55
 -13   2  -3   22.74    2.02
 -13   2  -3   25.07    2.56
  13   2   3   29.56    3.01
 -13   2  -3   29.98    3.04
 -13   2  -3   30.86    3.00
  13   2   3   28.96    2.81
 -13   2  -3   23.14    2.00
  13   2   3   34.27    2.76
  13   2   3   28.11    2.79
  13   2   3   27.47    2.07
 -13   2  -3   28.61    2.36
  13  -2   3   26.32    2.24
  13  -2   3   25.49    2.37
  13  -2   3   23.26    2.39
  13  -2   3   29.77    2.35
 -13  -2  -3   29.03    2.39
 -13  -2  -3   27.63    2.60
  13  -2   3   24.84    2.49
 -13  -2  -3   27.23    2.01
  13  -2   3   22.51    2.19
 -13  -2  -3   30.73    2.52
  13   2   4    0.71    2.01
  13   2   4    0.07    1.99
 -13   2  -4    0.40    1.81
 -13   2  -4    2.62    1.80
 -13   2  -4    3.01    2.20
  13   2   4    1.06    1.62
  13   2   4    2.56    1.79
  13   2   4    1.90    1.90
 -13   2  -4    3.17    1.82
  13   2   4    0.40    1.69
 -13   2  -4   -0.51    2.20
 -13   2  -4    0.64    1.85
  13  -2   4    7.12    2.26
 -13  -2  -4    2.55    1.49
  13  -2   4    3.70    2.15
  13  -2   4    0.22    2.25
  13  -2   4    2.71    2.22
  13  -2   4   -0.23    2.37
 -13  -2  -4    2.06    2.06
  13  -2   4   -0.32    2.38
 -13  -2  -4    0.74    1.58
 -13  -2  -4    2.30    1.65
  13   2   5    5.66    2.03
  13   2   5   -0.95    2.09
  13   2   5    3.83    1.85
 -13   2  -5    4.56    2.25
  13   2   5    7.01    2.48
 -13   2  -5    4.69    2.02
 -13   2  -5    3.11    2.34
 -13   2  -5    2.66    2.08
 -13   2  -5    1.96    2.10
  13   2   5    0.50    2.09
 -13   2  -5    1.52    1.94
  13   2   5    4.45    2.04
 -13  -2  -5    1.59    1.88
 -13  -2  -5    0.81    1.87
  13  -2   5   -0.33    3.76
  13  -2   5    4.12    3.09
 -13  -2  -5    0.39    1.61
 -13  -2  -5    6.33    1.46
  13  -2   5    3.83    2.36
  13  -2   5    4.02    2.25
 -13  -2  -5    5.09    1.49
  13  -2   5    4.06    2.55
 -13  -2  -5    0.57    1.97
  13  -2   5    3.23    2.57
 -13   3   6    6.26    2.11
 -13   3   6    4.43    1.87
 -13   3   6    5.73    2.02
 -13   3   6    7.80    2.04
 -13   3   6    6.62    2.02
 -13   3   6    2.47    1.93
  13  -3  -6    4.39    2.24
  13  -3  -6    4.08    2.37
  13  -3  -6    8.20    2.19
  13  -3  -6    4.05    2.07
  13  -3  -6    8.71    2.08
 -13   3   5    4.89    1.94
 -13   3   5    5.44    1.85
 -13   3   5    6.73    1.91
 -13   3   5    5.97    1.81
 -13   3   5    4.31    1.73
 -13   3   5    2.98    1.92
  13  -3  -5    3.12    2.03
  13  -3  -5    7.18    2.10
  13  -3  -5    3.24    2.07
  13  -3  -5    7.26    2.00
  13  -3  -5    8.65    1.91
  13  -3  -5    9.17    3.04
 -13   3   4    0.94    1.66
 -13   3   4    3.66    2.01
 -13   3   4    1.56    1.67
 -13   3   4    0.83    2.02
 -13   3   4    0.10    1.71
 -13   3   4    2.53    1.70
  13  -3  -4    0.31    1.84
  13  -3  -4   -0.02    2.09
  13  -3  -4    5.03    2.06
  13  -3  -4   -0.17    2.28
  13  -3  -4   -1.18    1.77
  13  -3  -4   -1.59    1.83
 -13   3   3    4.02    1.59
 -13   3   3    5.59    1.84
 -13   3   3    3.17    1.82
 -13   3   3    2.09    1.75
 -13   3   3    4.51    2.49
 -13   3   3    4.35    1.62
  13  -3  -3    4.50    1.89
  13  -3  -3    2.34    1.97
  13  -3  -3    4.21    1.99
  13  -3  -3    0.78    1.83
  13  -3  -3    1.18    1.69
  13  -3  -3    6.54    2.24
 -13   3   2   11.25    2.08
 -13   3   2   10.86    1.68
 -13   3   2    8.89    1.83
 -13   3   2   12.52    1.85
 -13   3   2   10.07    1.78
 -13   3   2    5.78    1.75
  13  -3  -2   11.96    2.33
  13  -3  -2   11.43    1.95
  13  -3  -2   10.16    2.02
  13  -3  -2    9.93    1.97
  13  -3  -2   10.97    1.76
  13  -3  -2    9.53    2.03
 -13   3   1    3.24    1.75
 -13   3   1    5.50    1.85
 -13   3   1    5.31    1.73
 -13   3   1    7.09    1.84
 -13   3   1    6.89    1.84
 -13   3   1    3.62    1.67
  13  -3  -1    2.32    2.12
  13  -3  -1    5.20    2.12
  13  -3  -1    4.30    1.72
  13  -3  -1    3.88    2.01
  13  -3  -1    2.97    1.86
  13  -3  -1    6.35    1.90
 -13   3   0   -0.38    1.64
 -13   3   0    0.39    1.87
 -13   3   0    0.85    1.56
 -13   3   0    0.33    1.64
 -13   3   0   -4.04    1.63
 -13   3   0   -1.32    1.63
  13  -3   0   -2.47    1.73
  13  -3   0   -3.73    1.94
  13  -3   0   -1.36    1.81
  13  -3   0    3.35    2.08
  13  -3   0    2.70    1.99
  13  -3   0   -1.17    1.81
 -13   3  -1    1.86    1.89
  13   3   1    1.90    1.43
 -13   3  -1    2.95    1.64
 -13   3  -1    2.02    2.14
 -13   3  -1    1.19    1.79
 -13   3  -1    2.74    1.98
  13   3   1    2.45    1.41
 -13   3  -1    4.76    1.74
  13  -3   1    2.32    1.85
  13  -3   1    1.95    2.12
  13  -3   1    3.58    1.88
  13  -3   1    1.17    2.01
  13  -3   1    3.49    2.05
  13  -3   1    2.55    2.28
 -13   3  -2    2.31    1.75
 -13   3  -2   -2.44    1.84
  13   3   2   -1.74    1.45
 -13   3  -2   -0.25    1.88
  13   3   2    0.78    1.64
  13   3   2   -0.97    1.14
  13   3   2   -0.72    1.62
  13   3   2   -0.49    1.56
 -13   3  -2    2.71    1.77
 -13   3  -2   -0.76    2.11
  13   3   2   -0.52    2.38
 -13  -3  -2    1.24    1.52
  13  -3   2   -3.14    2.16
  13  -3   2   -1.53    2.27
  13  -3   2    1.21    1.99
  13  -3   2   -0.81    2.51
  13  -3   2    0.07    2.18
  13  -3   2    1.39    1.99
  13   3   3    6.52    2.03
  13   3   3    4.24    1.71
  13   3   3    2.63    1.87
 -13   3  -3    5.93    2.18
  13   3   3    6.72    1.57
  13   3   3    4.64    3.17
 -13   3  -3    2.06    2.04
 -13   3  -3    1.48    2.52
 -13   3  -3    3.17    1.84
 -13   3  -3    5.41    3.67
  13   3   3    7.36    1.81
 -13   3  -3    2.27    1.96
  13  -3   3    4.65    2.29
  13  -3   3    6.22    2.56
 -13  -3  -3    5.53    1.50
 -13  -3  -3    4.95    1.61
  13  -3   3    2.25    2.74
 -13  -3  -3    0.85    1.42
  13  -3   3    1.09    2.40
  13  -3   3    0.21    2.15
  13  -3   3    3.31    2.29
 -13  -3  -3    2.78    1.70
 -13   4   2   -1.89    2.40
 -13   4   2   -5.04    2.30
  13  -4  -2    6.32    2.85
  13  -4  -2   -0.35    2.20
  13  -4  -2    2.70    2.40
  13  -4  -2    2.86    2.51
 -13   4   1    1.59    4.32
 -13   4   1    0.65    1.98
 -13   4   1   -0.24    2.06
  13  -4  -1    0.55    2.24
  13  -4  -1    1.40    2.72
  13  -4  -1    0.63    2.36
  13  -4  -1    1.76    2.42
  14   0  -9    0.22    1.86
 -14   0   9    0.69    1.86
 -14   0   9   -3.50    1.99
  14   0  -9   -2.03    2.00
  14   0  -9    0.93    1.70
  14   0  -9   -2.91    1.75
  14   0  -9   -1.45    1.87
 -14   0   9   -5.13    1.71
  14   0  -9    1.46    1.76
 -14   0   8    3.34    1.66
  14   0  -8    4.61    1.71
  14   0  -8    4.37    1.68
  14   0  -8    6.56    1.77
 -14   0   8    4.26    1.88
  14   0  -8    7.07    1.81
 -14   0   8    4.11    1.62
  14   0  -8    3.02    1.56
  14   0  -8   -0.43    1.60
 -14   0   7    0.93    1.64
  14   0  -7   -2.45    1.48
  14   0  -7   -1.14    1.51
  14   0  -7   -0.79    1.36
 -14   0   7   -2.51    1.41
 -14   0   7    0.93    1.42
  14   0  -7   -3.40    1.39
  14   0  -7   -0.24    2.07
  14   0  -7   -0.81    1.48
 -14   0   6    1.62    1.31
 -14   0   6    1.73    1.32
 -14   0   6    0.55    1.53
  14   0  -6   -1.30    1.31
  14   0  -6    2.99    1.42
 -14   0   6    3.86    1.45
  14   0  -6    4.49    1.37
  14   0  -6    3.78    1.55
  14   0  -6    3.77    1.50
  14   0  -6    3.49    1.34
  14   0  -5   -2.38    1.24
 -14   0   5   -2.33    1.27
  14   0  -5    1.41    1.34
  14   0  -5   -2.92    1.28
 -14   0   5   -0.71    1.28
  14   0  -5   -1.57    1.37
  14   0  -5    1.17    1.38
  14   0  -5   -0.81    1.18
 -14   0   5   -1.85    1.17
  14   0  -4   -1.34    1.25
  14   0  -4    2.49    1.32
 -14   0   4    0.27    1.13
  14   0  -4    0.42    1.33
 -14   0   4   -2.87    1.39
  14   0  -4    1.42    1.22
  14   0  -4    0.35    1.41
 -14   0   4    0.69    1.34
 -14   0   4   -0.23    1.10
  14   0  -4    0.13    1.14
  14   0  -3    1.55    1.31
 -14   0   3    0.42    1.08
 -14   0   3   -0.99    0.83
  14   0  -3    0.13    1.30
 -14   0   3   -0.45    1.45
 -14   0   3   -2.13    1.09
  14   0  -3    1.02    1.18
  14   0  -3   -0.81    1.22
  14   0  -3   -1.14    1.22
  14   0  -3   -1.80    1.13
 -14   0   3   -0.49    0.87
 -14   0   2   14.33    1.30
  14   0  -2   14.43    1.58
 -14   0   2   15.61    1.33
  14   0  -2   13.54    1.44
 -14   0   2   16.63    1.51
  14   0  -2   13.75    1.37
  14   0  -2   13.74    1.43
  14   0  -2   16.15    1.43
 -14   0   2   15.76    1.58
 -14   0   2   15.18    1.47
  14   0  -2   13.42    1.47
 -14   0   1    0.86    0.94
  14   0  -1   -1.97    1.22
 -14   0   1    0.87    1.15
 -14   0   1    0.05    0.98
  14   0  -1    1.73    1.39
  14   0  -1   -1.15    1.26
  14   0  -1   -2.14    1.15
 -14   0   1   -0.68    1.23
  14   0  -1   -0.48    1.18
  14   0  -1   -0.58    1.22
 -14   0   1    1.35    1.22
 -14   0   1   -0.06    1.07
 -14   0   0   50.57    2.42
  14   0   0   46.35    2.61
  14   0   0   49.11    2.80
 -14   0   0   47.70    2.41
  14   0   0   50.63    2.61
 -14   0   0   48.05    2.20
  14   0   0   49.20    2.49
 -14   0   0   48.25    3.29
 -14   0   0   50.39    2.58
  14   0   0   54.40    2.63
  14   0   0   57.29    2.61
 -14   0   0   49.06    2.14
 -14   0  -1    0.34    1.21
  14   0   1    0.07    1.54
 -14   0  -1   -0.79    1.95
 -14   0  -1    0.56    1.13
  14   0   1    1.58    1.45
 -14   0  -1    0.14    1.55
  14   0   1    1.76    1.45
  14   0   1   -0.24    1.43
 -14   0  -1    0.34    1.44
 -14   0  -1    1.26    1.23
  14   0   1    4.23    1.49
  14   0   1    1.53    1.43
  14   0   2  117.20    4.06
 -14   0  -2  116.26    3.88
  14   0   2   97.65    5.84
 -14   0  -2  120.84    3.98
 -14   0  -2  119.90    3.65
 -14   0  -2  123.84    3.61
 -14   0  -2  115.53    3.48
  14   0   2  128.39    3.87
  14   0   2  126.10    3.98
  14   0   2  118.99    5.78
  14   0   2  122.83    3.85
 -14   0  -3   -0.20    1.38
 -14   0  -3   -1.00    1.35
 -14   0  -3    2.68    1.55
  14   0   3    0.09    1.81
  14   0   3   -3.26    1.80
 -14   0  -3    2.23    1.63
  14   0   3   -0.86    1.91
  14   0   3   -1.18    1.72
 -14   0  -3    0.05    1.68
  14   0   3   -0.78    1.82
  14   0   3   -1.43    1.60
 -14   0  -3   -2.13    1.55
  14   0   4   29.53    2.38
 -14   0  -4   33.17    2.94
  14   0   4   27.87    2.39
 -14   0  -4   31.70    2.95
  14   0   4   34.77    2.92
  14   0   4   29.67    2.36
  14   0   4   23.57    2.43
 -14   0  -4   29.79    2.80
  14   0   4   40.72    3.49
 -14   0  -4   26.76    2.36
 -14   0  -4   28.14    2.40
 -14   0  -5   -0.82    1.77
 -14   0  -5    2.53    1.81
  14   0   5   -0.02    2.24
 -14   0  -5   -0.50    2.22
 -14   0  -5   -2.10    2.12
 -14   0  -5    0.97    1.71
  14   0   5   -5.01    2.27
 -14   0  -5    3.27    1.80
  14   0   5   -0.31    2.33
  14   0   5   -3.75    2.08
  14   0   5    0.22    2.37
  14   0   5   -1.33    2.14
  14   1  -8    1.84    1.28
  14   1  -8    4.10    1.64
 -14   1   8    3.41    1.91
 -14   1   8    6.07    1.82
 -14   1   8    6.29    2.01
 -14   1   8    5.03    1.56
 -14   1   8    3.39    1.53
  14   1  -8    4.90    1.62
  14   1  -8    4.24    1.53
  14   1  -8    5.39    3.24
  14   1  -8    3.85    1.62
 -14   1   8    6.67    1.90
  14  -1  -8    3.52    1.76
 -14  -1   8    3.23    1.72
  14  -1  -8    6.42    2.21
  14  -1  -8    5.08    1.91
  14  -1  -8    3.23    1.91
  14  -1  -8    3.31    1.84
  14  -1  -8    4.11    2.00
 -14  -1   8    3.67    1.57
 -14  -1   8    1.78    1.50
 -14  -1   8    4.64    1.53
  14   1  -7   36.27    2.79
  14   1  -7   43.59    2.61
 -14   1   7   40.70    2.53
 -14   1   7   38.03    2.59
  14   1  -7   43.33    2.70
  14   1  -7   39.53    2.31
 -14   1   7   42.47    3.07
 -14   1   7   40.24    3.08
 -14   1   7   38.41    3.32
  14   1  -7   35.82    2.59
  14   1  -7   40.05    2.53
 -14   1   7   38.27    3.08
  14  -1  -7   44.21    3.11
 -14  -1   7   40.66    2.55
 -14  -1   7   36.07    2.45
  14  -1  -7   40.65    3.39
 -14  -1   7   42.74    2.44
  14  -1  -7   38.15    3.10
  14  -1  -7   46.26    3.37
 -14  -1   7   39.31    2.33
  14  -1  -7   37.12    3.25
  14  -1  -7   38.68    3.15
 -14   1   6    4.02    1.61
  14   1  -6    1.86    1.28
 -14   1   6    3.35    1.52
 -14   1   6    1.52    1.28
  14   1  -6   -0.01    1.30
 -14   1   6    2.24    1.48
  14   1  -6    0.77    1.33
  14   1  -6    1.31    1.22
 -14   1   6    2.66    1.61
  14   1  -6    2.27    1.33
 -14   1   6    1.84    1.25
  14   1  -6    1.62    1.14
 -14  -1   6    2.43    1.16
  14  -1  -6    1.87    1.60
  14  -1  -6    2.11    1.64
 -14  -1   6    3.53    1.21
  14  -1  -6    2.94    1.77
  14  -1  -6    3.84    1.67
  14  -1  -6    2.92    1.52
 -14  -1   6    1.59    1.09
 -14  -1   6    3.28    1.24
  14  -1  -6    2.04    1.75
 -14   1   5   19.68    1.86
 -14   1   5   22.34    1.75
  14   1  -5   23.57    2.16
  14   1  -5   17.63    1.49
 -14   1   5   18.68    1.56
 -14   1   5   19.17    1.91
  14   1  -5   19.50    1.87
  14   1  -5   19.85    1.87
  14   1  -5   19.32    1.51
  14   1  -5   20.83    2.03
 -14   1   5   22.52    2.04
 -14   1   5   20.54    1.69
  14  -1  -5   22.59    2.06
  14  -1  -5   19.03    2.17
  14  -1  -5   20.05    1.82
  14  -1  -5   18.85    1.73
 -14  -1   5   19.38    1.78
  14  -1  -5   21.82    1.75
 -14  -1   5   20.51    1.90
 -14  -1   5   22.39    1.87
 -14  -1   5   18.26    1.77
  14  -1  -5   20.70    2.04
 -14   1   4   -1.11    1.38
 -14   1   4   -0.13    1.51
 -14   1   4    0.00    1.21
  14   1  -4    0.69    1.20
  14   1  -4   -0.04    1.17
 -14   1   4   -0.94    1.35
  14   1  -4    1.99    1.15
 -14   1   4   -1.80    1.30
 -14   1   4    0.49    1.15
  14   1  -4   -0.27    0.95
  14   1  -4   -0.29    0.99
  14   1  -4   -0.99    1.19
 -14  -1   4    0.20    0.92
 -14  -1   4   -1.91    1.01
  14  -1  -4   -0.34    1.77
  14  -1  -4   -1.90    1.48
 -14  -1   4    0.11    1.91
 -14  -1   4    0.78    0.94
  14  -1  -4   -2.33    1.52
  14  -1  -4   -0.08    1.42
 -14   1   3   32.00    2.67
 -14   1   3   34.09    2.45
  14   1  -3   32.43    1.85
 -14   1   3   33.33    2.58
 -14   1   3   32.62    2.24
  14   1  -3   31.28    1.98
  14   1  -3   32.18    2.11
  14   1  -3   32.43    1.88
  14   1  -3   34.20    2.06
 -14   1   3   26.76    2.07
 -14  -1   3   32.77    1.75
  14  -1  -3   36.36    2.71
  14  -1  -3   29.16    2.62
 -14  -1   3   32.06    1.74
 -14  -1   3   32.45    1.93
  14  -1  -3   29.31    2.52
  14  -1  -3   32.53    2.59
  14  -1  -3   34.67    2.50
 -14  -1   3   35.22    1.93
  14  -1  -3   35.21    2.70
  14   1  -2   19.82    1.81
 -14   1   2   16.10    1.83
 -14   1   2   15.03    1.42
 -14   1   2   15.79    1.83
  14   1  -2   15.82    1.46
  14   1  -2   14.48    1.40
  14   1  -2   15.74    1.33
  14   1  -2   20.00    1.81
 -14   1   2   14.97    1.63
  14   1  -2   16.24    1.33
 -14   1   2   14.48    1.48
 -14  -1   2   18.23    1.65
  14  -1  -2   17.45    1.73
  14  -1  -2   13.46    1.57
  14  -1  -2   15.36    1.59
 -14  -1   2   18.39    1.67
 -14  -1   2   16.29    1.28
  14  -1  -2   13.90    1.76
  14  -1  -2   17.01    1.83
  14  -1  -2   14.35    1.57
 -14  -1   2   17.91    1.32
 -14   1   1  181.70    4.38
 -14   1   1  183.03    4.80
  14   1  -1  179.42    4.40
 -14   1   1  150.15    5.92
  14   1  -1  181.09    4.36
 -14   1   1  193.53    4.50
  14   1  -1  188.21    4.31
 -14   1   1  193.67    4.60
  14   1  -1  185.19    4.31
  14   1  -1  191.73    4.19
  14   1  -1  192.54    4.26
 -14   1   1  178.76    4.74
  14  -1  -1  194.74    5.02
  14  -1  -1  192.32    4.70
 -14  -1   1  189.16    4.36
  14  -1  -1  189.83    4.70
 -14  -1   1  190.20    4.14
 -14  -1   1  193.31    4.16
  14  -1  -1  180.10    4.82
  14  -1  -1  195.37    4.71
  14  -1  -1  187.91    4.66
 -14  -1   1  167.72    4.69
  14   1   0   -0.48    1.19
 -14   1   0    0.59    1.41
  14   1   0    0.27    1.41
  14   1   0    1.38    1.25
  14   1   0    1.40    1.33
 -14   1   0   -0.95    1.35
 -14   1   0   -1.77    1.35
  14   1   0    1.93    1.29
  14   1   0   -0.58    1.24
 -14   1   0   -0.13    1.51
 -14   1   0   -1.36    1.23
 -14   1   0   -2.31    1.41
 -14  -1   0   -0.15    1.37
  14  -1   0   -1.02    1.44
  14  -1   0   -2.38    1.65
 -14  -1   0    2.05    1.13
  14  -1   0   -1.42    1.77
  14  -1   0    0.65    1.70
  14  -1   0   -1.05    1.83
 -14  -1   0   -0.03    1.07
 -14  -1   0   -0.26    1.26
  14  -1   0   -3.40    1.39
  14   1   1   41.45    2.66
  14   1   1   51.54    2.62
 -14   1  -1   48.26    2.78
  14   1   1   52.04    2.56
 -14   1  -1   45.11    2.68
 -14   1  -1   43.11    2.53
  14   1   1   49.68    2.68
  14   1   1   37.82    3.07
 -14   1  -1   47.60    2.83
 -14   1  -1   47.87    3.00
  14   1   1   45.30    2.60
 -14  -1  -1   45.01    2.44
 -14  -1  -1   48.43    2.57
  14  -1   1   47.35    3.49
  14  -1   1   48.51    3.10
  14  -1   1   49.91    3.09
  14  -1   1   46.03    3.26
 -14  -1  -1   44.67    2.62
 -14  -1  -1   47.12    2.35
  14  -1   1   45.09    3.25
  14  -1   1   48.44    3.09
 -14   1  -2    0.18    1.37
 -14   1  -2   -0.05    1.57
  14   1   2    1.35    1.44
 -14   1  -2    1.05    1.69
  14   1   2    0.97    1.46
  14   1   2    1.58    1.60
  14   1   2    2.21    1.69
 -14   1  -2    1.30    1.39
  14   1   2    1.05    1.44
  14   1   2    1.43    1.86
 -14   1  -2    0.22    1.54
  14  -1   2   -0.12    1.56
 -14  -1  -2    0.85    1.04
 -14  -1  -2   -0.26    1.29
  14  -1   2    0.58    1.93
  14  -1   2    1.92    1.84
  14  -1   2   -0.43    1.63
 -14  -1  -2    2.00    1.12
  14  -1   2   -0.72    1.65
  14  -1   2    0.91    1.71
 -14  -1  -2    1.04    1.26
 -14  -1  -2   -0.02    1.44
 -14   1  -3    2.39    1.57
 -14   1  -3    0.33    1.79
  14   1   3   -1.16    1.84
  14   1   3   -1.62    1.75
  14   1   3    0.76    1.69
  14   1   3    0.69    1.67
 -14   1  -3    0.53    1.52
 -14   1  -3    1.66    1.82
  14   1   3    4.13    1.65
  14   1   3   -0.39    1.86
 -14   1  -3   -1.12    1.87
 -14   1  -3   -1.71    1.54
  14  -1   3    0.56    1.92
 -14  -1  -3   -0.44    1.63
  14  -1   3    0.78    1.77
 -14  -1  -3    0.07    1.35
  14  -1   3    0.28    1.86
 -14  -1  -3    0.97    1.43
  14  -1   3   -3.43    2.20
 -14  -1  -3    0.33    1.63
  14  -1   3    0.93    1.86
 -14  -1  -3   -0.31    1.19
  14  -1   3    3.17    1.98
  14   1   4    4.77    2.07
 -14   1  -4    1.27    1.95
  14   1   4    3.12    1.83
  14   1   4    2.87    2.06
  14   1   4    1.98    2.07
 -14   1  -4    6.57    1.87
  14   1   4    2.33    1.81
 -14   1  -4    0.24    2.05
 -14   1  -4    2.02    1.67
  14   1   4    1.87    2.01
 -14   1  -4    1.37    1.62
 -14   1  -4   -2.33    1.80
 -14  -1  -4    3.93    1.94
  14  -1   4   -0.55    2.08
  14  -1   4    1.54    2.05
  14  -1   4    1.78    2.30
 -14  -1  -4    0.49    1.36
 -14  -1  -4    2.17    1.60
 -14  -1  -4    4.58    1.66
  14  -1   4   -1.51    2.06
  14  -1   4    0.12    2.21
 -14  -1  -4    0.91    1.43
  14  -1   4    0.02    1.87
  14   1   5   -6.28    2.11
 -14   1  -5    3.82    2.22
 -14   1  -5   -2.47    1.66
  14   1   5    1.36    2.16
 -14   1  -5    0.83    1.91
 -14   1  -5    0.49    1.99
 -14   1  -5   -0.57    2.08
  14   1   5   -1.13    2.15
  14   1   5    0.31    2.29
 -14   1  -5   -0.19    2.10
  14   1   5    3.29    2.19
  14   1   5    3.72    2.22
  14  -1   5    2.01    2.24
  14  -1   5   -0.37    2.72
 -14  -1  -5    0.84    1.92
 -14  -1  -5    1.48    1.84
  14  -1   5   -1.32    2.77
 -14  -1  -5   -0.71    1.63
  14  -1   5   -0.97    2.45
 -14  -1  -5    1.93    2.13
 -14  -1  -5    0.62    1.63
  14  -1   5    0.70    2.32
  14  -1   5   -1.06    2.34
 -14   2   7    9.59    1.91
 -14   2   7    6.74    2.18
  14   2  -7    2.74    1.49
 -14   2   7    4.84    1.98
 -14   2   7    5.52    1.83
 -14   2   7    5.56    1.79
  14   2  -7    8.95    1.46
 -14   2   7   10.13    2.07
  14  -2  -7    7.31    2.13
  14  -2  -7    9.86    2.23
  14  -2  -7    7.40    2.17
  14  -2  -7    5.49    1.95
  14  -2  -7    4.78    2.15
  14  -2  -7    5.16    1.89
 -14   2   6   13.60    1.84
 -14   2   6   13.64    1.80
  14   2  -6   12.44    1.38
 -14   2   6   15.52    2.08
 -14   2   6   14.38    2.18
 -14   2   6   13.03    1.82
 -14   2   6   15.91    1.90
  14  -2  -6   12.40    2.29
  14  -2  -6   15.45    1.99
  14  -2  -6   14.03    2.05
  14  -2  -6   14.83    2.18
  14  -2  -6   15.54    2.07
  14  -2  -6   12.61    1.95
 -14   2   5   -2.13    1.66
 -14   2   5    0.89    1.58
 -14   2   5    1.30    1.46
 -14   2   5    0.83    1.63
 -14   2   5   -0.32    1.91
 -14   2   5    0.54    1.79
  14  -2  -5   -0.09    1.79
  14  -2  -5    0.04    1.87
  14  -2  -5   -0.29    1.57
  14  -2  -5   -1.02    1.72
  14  -2  -5    0.13    1.66
 -14   2   4   -0.49    1.66
 -14   2   4    1.46    1.54
 -14   2   4    0.92    1.65
 -14   2   4    0.33    1.64
 -14   2   4    0.25    1.43
 -14   2   4   -0.58    1.55
  14  -2  -4   -0.18    1.65
  14  -2  -4   -1.42    1.72
  14  -2  -4   -0.32    1.69
  14  -2  -4    1.58    1.76
  14  -2  -4    1.88    1.55
 -14   2   3   13.11    2.23
 -14   2   3   14.31    1.90
 -14   2   3   14.73    2.05
 -14   2   3   11.78    1.64
 -14   2   3   18.00    1.67
 -14   2   3   13.26    1.69
  14  -2  -3   14.16    1.82
  14  -2  -3   14.22    1.93
  14  -2  -3   12.08    1.75
  14  -2  -3   13.43    1.93
  14  -2  -3   15.33    1.96
  14  -2  -3   12.25    1.99
  14   2  -2   -0.63    1.03
 -14   2   2    1.57    2.33
 -14   2   2    0.68    1.48
 -14   2   2    1.05    1.50
  14   2  -2    2.01    1.05
 -14   2   2    2.00    1.72
 -14   2   2    0.67    1.33
  14  -2  -2    0.14    1.85
  14  -2  -2    1.20    1.62
  14  -2  -2    0.65    2.01
  14  -2  -2   -2.83    1.65
  14  -2  -2    1.00    1.61
  14  -2  -2    1.95    1.56
 -14   2   1   14.98    1.67
  14   2  -1   19.78    1.94
 -14   2   1   16.61    3.05
 -14   2   1   17.73    1.81
 -14   2   1   16.68    1.73
 -14   2   1   19.52    2.14
 -14   2   1   18.25    1.95
  14   2  -1   15.75    1.33
  14  -2  -1   18.32    1.85
  14  -2  -1   17.72    2.29
  14  -2  -1   14.16    1.77
  14  -2  -1   15.08    1.76
  14  -2  -1   16.67    1.93
  14  -2  -1   15.19    2.03
  14   2   0    0.24    0.96
  14   2   0   -1.88    1.27
 -14   2   0   -0.90    3.23
  14   2   0   -1.40    1.26
  14   2   0    0.11    1.11
 -14   2   0    1.42    1.56
 -14   2   0   -0.52    1.99
  14   2   0   -1.02    1.26
 -14   2   0   -1.27    1.60
 -14   2   0   -0.63    1.47
 -14   2   0    3.89    1.57
  14   2   0   -0.41    1.24
  14  -2   0   -1.88    2.04
  14  -2   0    0.10    1.73
  14  -2   0   -0.17    1.71
  14  -2   0   -1.53    1.64
  14  -2   0    0.82    1.76
  14  -2   0   -3.08    1.61
  14   2   1   25.36    1.84
 -14   2  -1   26.98    2.16
  14   2   1   23.80    2.15
  14   2   1   22.78    1.80
 -14   2  -1   24.43    2.08
  14   2   1   25.28    1.81
 -14   2  -1   22.16    2.00
  14   2   1   22.06    1.61
 -14   2  -1   22.40    2.42
 -14   2  -1   30.09    2.80
  14   2   1   23.24    1.78
  14  -2   1   20.89    2.08
 -14  -2  -1   22.05    2.12
  14  -2   1   21.46    2.04
  14  -2   1   20.26    2.23
  14  -2   1   19.11    2.46
  14  -2   1   18.49    2.18
 -14  -2  -1   22.78    2.07
 -14  -2  -1   21.47    2.01
 -14  -2  -1   22.32    2.32
  14  -2   1   22.29    3.32
  14   2   2    4.12    1.62
  14   2   2    1.14    1.41
  14   2   2    4.22    1.56
 -14   2  -2    2.33    1.73
 -14   2  -2   -0.04    1.99
  14   2   2    0.50    1.55
 -14   2  -2    3.61    1.76
  14   2   2    0.08    1.73
 -14   2  -2    4.87    1.96
  14   2   2    4.12    1.65
  14  -2   2    3.86    2.01
  14  -2   2    3.24    1.95
 -14  -2  -2    2.98    1.33
  14  -2   2    6.73    1.99
 -14  -2  -2    1.12    1.31
 -14  -2  -2    6.35    1.54
 -14  -2  -2    1.91    1.41
  14  -2   2    2.37    2.27
  14  -2   2    1.40    1.95
  14  -2   2    1.43    2.10
 -14   2  -3    6.32    1.96
 -14   2  -3    3.04    1.73
  14   2   3    1.53    1.82
  14   2   3    2.67    1.58
  14   2   3    1.88    1.88
  14   2   3    7.50    2.24
  14   2   3    1.84    1.82
 -14   2  -3    3.20    1.80
 -14   2  -3    6.13    1.73
 -14   2  -3    4.43    1.75
  14   2   3    4.96    1.79
 -14   2  -3   -1.19    1.92
 -14  -2  -3    3.69    1.84
 -14  -2  -3    1.91    1.41
  14  -2   3    6.76    2.13
 -14  -2  -3    8.30    1.57
  14  -2   3    5.13    2.23
  14  -2   3    4.26    2.23
  14  -2   3    3.64    2.53
  14  -2   3    5.26    1.99
 -14  -2  -3    4.48    1.68
 -14   2  -4   -1.49    1.69
 -14   2  -4   -2.60    2.06
  14   2   4    1.21    1.89
  14   2   4    0.52    2.06
  14   2   4    3.08    2.02
  14   2   4    0.78    1.77
  14   2   4   -0.61    1.73
 -14   2  -4   -0.23    2.22
 -14   2  -4    0.04    2.07
 -14   2  -4   -2.87    1.87
  14   2   4   -2.76    2.09
 -14   2  -4   -0.23    1.93
  14  -2   4    1.86    2.23
  14  -2   4    4.36    2.68
 -14  -2  -4    1.57    1.96
 -14  -2  -4   -1.09    1.73
  14  -2   4    2.76    2.45
  14  -2   4   -0.02    2.14
 -14  -2  -4    4.07    1.63
 -14  -2  -4    3.31    1.76
  14  -2   4    4.61    2.43
  14  -2   4    0.46    2.49
 -14   3   6    1.94    2.18
 -14   3   6    1.81    1.97
 -14   3   6   -3.33    1.94
 -14   3   6    0.05    1.97
 -14   3   6   -4.02    1.99
 -14   3   6   -0.69    2.04
  14  -3  -6   -2.48    2.36
  14  -3  -6    0.84    2.28
  14  -3  -6   -1.04    2.26
  14  -3  -6   -2.15    2.35
  14  -3  -6   -2.98    1.99
  14  -3  -6   -0.48    2.39
 -14   3   5   -0.32    1.85
 -14   3   5    0.78    2.13
 -14   3   5   -2.54    1.91
 -14   3   5   -4.18    2.27
 -14   3   5   -0.33    1.88
 -14   3   5    1.27    1.99
  14  -3  -5    1.95    1.96
  14  -3  -5    2.43    2.28
  14  -3  -5   -0.12    2.12
  14  -3  -5    3.05    2.19
  14  -3  -5   -1.54    2.00
  14  -3  -5   -2.92    2.32
 -14   3   4   13.12    2.49
 -14   3   4   13.32    1.98
 -14   3   4    9.66    2.01
 -14   3   4   10.79    1.95
 -14   3   4   16.42    2.16
 -14   3   4   12.47    2.10
  14  -3  -4    4.61    2.24
  14  -3  -4   11.48    2.10
  14  -3  -4    8.54    2.59
  14  -3  -4    9.85    2.00
  14  -3  -4    9.45    2.23
  14  -3  -4   13.00    2.21
 -14   3   3    8.63    2.08
 -14   3   3   10.10    1.85
 -14   3   3   11.52    1.97
 -14   3   3    6.37    2.30
 -14   3   3    5.78    2.09
 -14   3   3    9.28    1.85
  14  -3  -3    9.55    2.53
  14  -3  -3   11.95    2.07
  14  -3  -3    9.13    2.24
  14  -3  -3    8.69    2.02
  14  -3  -3    8.60    2.20
 -14   3   2   74.10    3.82
 -14   3   2   65.93    3.61
 -14   3   2   75.33    3.88
 -14   3   2   81.47    3.78
 -14   3   2   70.81    3.60
 -14   3   2   74.27    3.81
  14  -3  -2   77.90    4.20
  14  -3  -2   73.55    4.19
  14  -3  -2   68.72    3.96
  14  -3  -2   79.76    3.86
  14  -3  -2   81.73    3.86
  14  -3  -2   71.12    4.20
 -14   3   1   -0.55    1.96
 -14   3   1   -2.15    1.60
 -14   3   1   -2.57    2.14
 -14   3   1   -0.85    1.74
 -14   3   1    1.71    1.85
 -14   3   1   -2.23    1.76
  14  -3  -1   -2.85    2.31
  14  -3  -1   -0.64    2.12
  14  -3  -1   -4.42    1.85
  14  -3  -1   -1.99    2.18
  14  -3  -1   -2.06    2.04
  14  -3  -1    0.38    2.20
 -14   3   0    1.35    1.90
 -14   3   0   -0.55    1.84
  14   3   0   -2.33    1.34
 -14   3   0   -2.34    1.87
 -14   3   0    0.15    2.07
 -14   3   0    0.36    1.52
 -14   3   0   -0.90    1.72
  14   3   0    2.19    1.36
  14  -3   0   -2.60    2.06
  14  -3   0   -1.28    2.01
  14  -3   0    4.15    2.46
  14  -3   0   -2.64    1.83
  14  -3   0    0.28    2.04
  14  -3   0   -6.79    1.97
 -14   3  -1   11.80    2.12
 -14   3  -1    9.20    1.99
 -14   3  -1   13.17    2.10
  14   3   1   10.69    1.74
 -14   3  -1   12.17    2.11
 -14   3  -1    9.55    2.09
  14   3   1   12.33    1.69
 -14   3  -1    9.81    2.19
  14  -3   1   12.35    2.34
  14  -3   1   13.31    2.47
  14  -3   1   15.11    2.62
  14  -3   1    8.71    2.14
  14  -3   1    9.99    2.50
 -14   3  -2    1.91    2.42
  14   3   2    3.18    1.22
  14   3   2    3.29    1.66
  14   3   2    2.30    1.78
 -14   3  -2    0.92    2.13
  14   3   2    4.15    1.54
  14   3   2    2.11    1.79
 -14   3  -2    7.61    2.11
 -14   3  -2    2.21    1.85
  14   3   2    1.44    1.78
 -14   3  -2    5.70    2.04
 -14  -3  -2    1.76    1.28
  14  -3   2    5.09    2.95
  14  -3   2    2.87    2.30
  14  -3   2   -0.94    2.25
  14  -3   2   -0.59    2.40
  14  -3   2    1.07    2.50
  14  -3   2    0.71    2.46
  15   0  -8   -1.01    1.63
  15   0  -8    1.02    1.70
  15   0  -8    4.16    1.89
 -15   0   8   -1.04    2.00
  15   0  -8    2.51    1.61
  15   0  -8   -0.35    1.78
 -15   0   8   -2.06    1.89
 -15   0   8    2.28    1.80
  15   0  -8    1.24    1.87
 -15   0   8    0.71    1.64
  15   0  -7    0.11    1.49
  15   0  -7   -0.39    1.56
  15   0  -7   -2.44    2.73
 -15   0   7   -0.41    1.50
 -15   0   7    0.25    1.50
 -15   0   7   -0.72    1.54
  15   0  -7    0.00    1.67
  15   0  -7    0.81    1.65
  15   0  -7    0.93    1.75
 -15   0   7   -0.98    1.64
 -15   0   6   35.55    2.76
 -15   0   6   33.10    2.54
 -15   0   6   36.50    2.52
  15   0  -6   38.38    2.68
  15   0  -6   36.66    2.67
  15   0  -6   37.62    3.47
  15   0  -6   35.26    2.73
  15   0  -6   33.89    2.84
  15   0  -6   28.19    2.49
 -15   0   6   30.17    2.56
  15   0  -5   -0.90    1.46
  15   0  -5   -0.65    2.29
 -15   0   5   -1.90    1.33
 -15   0   5   -1.82    1.21
 -15   0   5   -0.59    1.26
  15   0  -5    0.04    1.55
  15   0  -5   -1.25    1.38
 -15   0   5    0.18    1.33
  15   0  -5    0.35    1.36
  15   0  -5    2.10    1.35
 -15   0   4   33.00    2.42
 -15   0   4   35.80    2.40
  15   0  -4   27.18    2.36
  15   0  -4   31.94    2.50
 -15   0   4   40.68    2.36
  15   0  -4   35.21    2.66
  15   0  -4   34.47    2.58
  15   0  -4   31.10    2.66
 -15   0   4   35.75    2.28
  15   0  -3   -1.63    1.26
 -15   0   3    1.89    1.32
  15   0  -3    1.42    1.46
 -15   0   3   -2.48    1.17
  15   0  -3   -4.28    1.25
  15   0  -3   -2.12    1.22
  15   0  -3   -0.92    1.32
  15   0  -3   -1.68    1.30
  15   0  -2   62.71    2.65
 -15   0   2   51.76    2.58
 -15   0   2   48.39    3.77
  15   0  -2   55.34    2.76
  15   0  -2   60.91    2.72
 -15   0   2   59.07    2.53
 -15   0   2   57.66    2.11
  15   0  -2   57.89    2.69
  15   0  -2   55.93    2.68
 -15   0   2   57.41    2.06
 -15   0   1    1.28    1.36
 -15   0   1   -1.14    1.01
 -15   0   1    0.86    1.97
  15   0  -1    0.96    1.47
  15   0  -1    1.10    1.29
  15   0  -1    0.50    1.41
  15   0  -1    3.38    2.08
  15   0  -1   -0.86    1.41
 -15   0   1    0.89    1.29
 -15   0   1   -1.99    1.05
  15   0  -1   -0.43    1.37
 -15   0   1   -1.94    1.26
 -15   0   0   42.11    2.47
 -15   0   0   40.15    2.17
  15   0   0   42.34    2.76
  15   0   0   39.74    2.92
  15   0   0   41.33    2.77
 -15   0   0   42.66    2.54
 -15   0   0   40.21    2.66
  15   0   0   41.67    2.61
 -15   0   0   37.74    2.15
 -15   0   0   38.43    2.71
  15   0   0   40.81    2.78
  15   0   1    2.76    1.60
 -15   0  -1   -1.13    1.33
  15   0   1   -1.54    2.94
 -15   0  -1   -0.83    1.22
  15   0   1   -0.03    1.48
 -15   0  -1    0.03    1.42
 -15   0  -1   -0.14    1.34
  15   0   1    0.91    1.63
 -15   0  -1   -0.41    1.49
  15   0   1   -1.48    1.68
 -15   0  -1   -2.00    1.49
  15   0   1   -0.16    1.70
 -15   0  -2    1.89    1.48
 -15   0  -2    1.13    1.68
  15   0   2    1.85    1.72
  15   0   2   -0.16    1.68
 -15   0  -2    1.77    1.42
  15   0   2    2.06    1.79
 -15   0  -2    0.41    1.45
 -15   0  -2    3.82    1.72
  15   0   2    3.05    1.91
  15   0   2   -2.83    1.62
 -15   0  -2    0.43    1.53
  15   0   2    2.88    1.71
  15   0   3    1.58    2.06
 -15   0  -3    1.22    1.81
 -15   0  -3    2.06    1.63
  15   0   3    2.98    1.92
  15   0   3    0.84    1.99
  15   0   3    0.80    1.87
 -15   0  -3    2.18    1.68
 -15   0  -3   -3.57    1.78
  15   0   3    0.92    1.95
 -15   0  -3   -0.62    1.46
  15   0   3    0.00    2.04
 -15   0  -3    1.55    1.58
 -15   0  -4    5.02    1.72
 -15   0  -4    7.11    1.80
  15   0   4    5.53    2.05
  15   0   4    7.40    2.43
 -15   0  -4    4.61    1.97
  15   0   4    5.91    2.26
 -15   0  -4    5.89    3.15
  15   0   4    8.95    2.06
 -15   0  -4    6.14    1.70
  15   0   4   -1.22    2.25
  15   0   4    4.19    2.18
 -15   0  -4    2.62    2.14
  15   0   5   -1.16    2.42
 -15   0  -5    2.26    1.86
 -15   0  -5   -0.17    1.79
  15   0   5   -2.08    2.49
  15   0   5    6.38    2.57
 -15   0  -5   -0.34    1.88
  15   0   5    0.56    2.22
 -15   0  -5    0.72    2.01
  15   0   5   -6.09    2.61
  15   0   5   -4.98    2.28
 -15   0  -5   -0.94    2.41
 -15   0  -5   -1.89    2.14
  15   1  -8    2.80    1.38
 -15   1   8    3.93    2.02
 -15   1   8    3.60    2.08
 -15   1   8    2.75    1.95
  15   1  -8    4.55    1.87
 -15   1   8    2.46    1.61
  15   1  -8    2.35    1.69
  15   1  -8    2.07    1.58
  15   1  -8    2.02    1.66
 -15   1   8    2.96    2.22
  15   1  -8   -0.42    1.75
 -15   1   8    2.15    1.52
 -15  -1   8    0.79    1.71
 -15  -1   8    2.32    1.55
  15  -1  -8    3.43    2.05
  15  -1  -8    1.76    1.99
  15  -1  -8    2.34    2.00
  15  -1  -8    0.33    1.81
  15  -1  -8    0.53    2.02
 -15  -1   8    4.65    1.58
  15  -1  -8    2.24    2.28
 -15  -1   8    1.55    1.62
  15   1  -7   -0.42    1.52
  15   1  -7    2.82    1.42
  15   1  -7   -1.32    1.52
 -15   1   7   -1.34    1.80
 -15   1   7   -0.71    1.75
  15   1  -7    3.08    1.28
  15   1  -7    0.27    1.47
 -15   1   7    0.55    1.78
 -15   1   7    0.63    1.34
 -15   1   7    0.69    1.89
  15   1  -7   -3.10    1.58
 -15   1   7    0.82    1.45
 -15  -1   7    1.56    1.48
  15  -1  -7    0.99    1.89
  15  -1  -7   -0.60    1.77
 -15  -1   7   -0.54    1.27
 -15  -1   7    0.03    1.46
  15  -1  -7    2.47    1.86
  15  -1  -7   -1.30    2.02
  15  -1  -7   -0.15    1.80
 -15  -1   7   -4.07    1.26
  15  -1  -7    2.14    2.07
 -15   1   6    0.04    1.59
  15   1  -6    1.57    1.41
  15   1  -6   -1.49    2.04
  15   1  -6    1.41    1.33
  15   1  -6    3.51    1.46
  15   1  -6    0.98    1.42
 -15   1   6    0.03    1.25
  15   1  -6    1.16    1.49
 -15   1   6    1.92    1.71
 -15   1   6   -2.05    1.62
 -15   1   6    0.45    1.35
 -15   1   6    2.86    1.72
  15  -1  -6   -2.18    1.67
 -15  -1   6    0.51    1.28
  15  -1  -6    2.37    1.99
  15  -1  -6    1.82    1.73
 -15  -1   6    2.53    1.18
  15  -1  -6    2.87    1.82
 -15  -1   6    1.35    1.32
 -15  -1   6    0.30    1.27
  15  -1  -6    1.97    1.72
  15  -1  -6    0.62    1.86
 -15   1   5   17.85    1.81
 -15   1   5   16.36    1.93
 -15   1   5   15.60    1.83
  15   1  -5    9.71    1.47
 -15   1   5   13.52    1.49
  15   1  -5   12.17    1.54
  15   1  -5   13.14    1.51
  15   1  -5   15.73    1.30
  15   1  -5   13.11    1.38
 -15   1   5   16.11    1.71
 -15   1   5   13.96    1.54
  15   1  -5   12.10    1.54
  15  -1  -5   13.64    1.82
 -15  -1   5   12.94    1.40
  15  -1  -5   16.59    1.88
 -15  -1   5   12.98    1.25
 -15  -1   5   13.74    1.29
  15  -1  -5   13.00    1.81
  15  -1  -5   13.52    1.99
  15  -1  -5   11.62    2.03
 -15  -1   5   14.76    1.42
  15  -1  -5   11.28    1.81
 -15   1   4    7.29    1.75
  15   1  -4   10.03    1.37
 -15   1   4    7.61    1.36
 -15   1   4   10.99    1.34
 -15   1   4    9.96    1.62
  15   1  -4    7.19    1.16
  15   1  -4    9.70    1.36
 -15   1   4    6.70    1.53
 -15   1   4    8.09    1.62
  15   1  -4    6.36    1.14
  15   1  -4    7.85    1.39
 -15  -1   4    8.09    1.23
  15  -1  -4    6.75    2.53
 -15  -1   4    7.84    1.12
 -15  -1   4    6.95    1.14
  15  -1  -4   10.25    1.63
  15  -1  -4    7.77    1.76
  15  -1  -4    6.39    1.58
  15  -1  -4    7.43    1.88
  15  -1  -4    4.64    1.82
 -15  -1   4    7.32    1.28
 -15   1   3    0.42    1.29
 -15   1   3    0.55    1.42
  15   1  -3    0.12    1.20
  15   1  -3   -0.37    1.09
  15   1  -3   -1.23    1.18
  15   1  -3    0.74    1.06
 -15   1   3    0.21    1.18
  15   1  -3    2.01    1.27
 -15   1   3    0.71    1.33
  15   1  -3    1.04    1.30
 -15   1   3    0.29    1.47
 -15   1   3    1.07    1.40
  15  -1  -3    0.62    1.47
  15  -1  -3   -0.72    1.42
 -15  -1   3    0.36    1.14
 -15  -1   3   -0.68    0.92
  15  -1  -3   -1.35    1.66
 -15  -1   3   -0.90    1.00
  15  -1  -3    1.77    1.59
  15  -1  -3    2.32    1.76
 -15  -1   3    1.47    1.19
  15  -1  -3   -1.47    1.55
 -15   1   2    4.90    1.52
 -15   1   2    2.45    1.20
 -15   1   2    5.11    1.47
  15   1  -2    4.75    1.19
 -15   1   2    4.67    1.38
  15   1  -2    4.24    1.29
  15   1  -2    6.69    1.47
 -15   1   2    4.09    1.57
 -15   1   2    4.62    1.41
  15   1  -2    6.41    1.19
  15   1  -2    6.28    1.31
  15   1  -2    6.06    1.29
 -15  -1   2    5.47    1.22
  15  -1  -2    4.71    1.85
 -15  -1   2    6.69    1.12
  15  -1  -2    5.11    1.58
 -15  -1   2    5.06    1.05
 -15  -1   2    5.63    1.23
  15  -1  -2    5.41    1.50
  15  -1  -2    2.38    1.62
  15  -1  -2    2.40    1.46
  15   1  -1    1.63    1.23
  15   1  -1    1.79    1.38
  15   1  -1    4.20    1.31
 -15   1   1    3.90    1.63
 -15   1   1    0.18    1.22
 -15   1   1    3.36    1.68
 -15   1   1    1.74    1.24
  15   1  -1   -0.70    1.31
  15   1  -1   -0.25    1.20
 -15   1   1   -0.98    1.38
 -15   1   1    1.72    1.34
  15   1  -1    1.65    1.34
 -15  -1   1    1.19    1.28
 -15  -1   1    1.21    1.09
  15  -1  -1    3.08    1.57
 -15  -1   1    3.34    1.14
  15  -1  -1    3.69    1.68
  15  -1  -1   -0.10    1.45
 -15  -1   1    0.55    1.21
  15  -1  -1   -0.43    1.76
  15  -1  -1    2.51    1.58
  15   1   0   15.71    1.64
  15   1   0   17.76    1.73
 -15   1   0   16.92    1.65
 -15   1   0   15.97    1.92
 -15   1   0   14.57    1.91
  15   1   0   18.57    1.59
  15   1   0   19.98    1.66
 -15   1   0   18.94    1.75
 -15   1   0   15.20    1.51
  15   1   0   16.27    1.80
 -15   1   0   18.51    1.70
  15   1   0   18.12    1.64
  15  -1   0   20.92    2.04
 -15  -1   0   15.46    1.62
  15  -1   0   13.61    1.81
  15  -1   0   17.27    1.94
  15  -1   0   15.13    1.96
  15  -1   0   13.99    2.33
 -15  -1   0   16.25    1.70
  15  -1   0   11.60    2.60
 -15  -1   0   17.25    1.43
 -15   1  -1    8.11    1.59
  15   1   1    9.03    1.71
 -15   1  -1    8.60    1.69
 -15   1  -1    7.45    1.81
  15   1   1    8.24    1.54
 -15   1  -1    6.63    1.63
  15   1   1    9.81    1.70
  15   1   1    8.46    1.59
  15   1   1    5.18    1.71
 -15   1  -1    7.52    2.01
  15   1   1    6.82    1.82
 -15   1  -1    5.13    1.43
 -15  -1  -1    8.57    1.62
  15  -1   1    6.15    1.92
  15  -1   1    5.54    1.66
 -15  -1  -1   11.17    1.60
  15  -1   1    8.23    2.00
  15  -1   1    6.72    1.83
  15  -1   1   10.17    1.92
 -15  -1  -1   10.16    1.45
  15  -1   1   11.19    1.95
 -15  -1  -1    7.31    1.40
  15   1   2   -5.60    1.70
 -15   1  -2    3.96    1.57
 -15   1  -2    1.14    1.78
  15   1   2   -0.53    1.63
 -15   1  -2    2.98    1.85
 -15   1  -2    2.80    1.69
  15   1   2    0.19    1.65
 -15   1  -2    2.13    1.48
  15   1   2    0.84    1.66
  15   1   2    0.17    1.53
  15  -1   2    0.55    1.68
  15  -1   2    1.44    1.71
  15  -1   2   -1.03    1.84
  15  -1   2    0.44    1.93
  15  -1   2   -0.56    1.89
  15  -1   2    0.26    2.11
 -15  -1  -2   -0.15    1.43
 -15  -1  -2    0.43    1.55
 -15  -1  -2    0.59    1.32
 -15   1  -3    1.36    1.66
  15   1   3   -0.67    1.92
 -15   1  -3    1.99    1.97
 -15   1  -3   -1.15    1.66
  15   1   3   -1.73    1.83
  15   1   3   -2.56    1.92
  15   1   3    5.22    2.14
 -15   1  -3    0.94    2.07
  15   1   3    3.33    1.90
 -15   1  -3    1.57    1.63
  15   1   3    2.57    1.93
 -15   1  -3    0.99    1.68
  15  -1   3    3.89    2.13
  15  -1   3    0.76    2.05
 -15  -1  -3    3.04    1.55
 -15  -1  -3    0.43    1.31
  15  -1   3    3.87    2.22
 -15  -1  -3   -0.72    1.71
  15  -1   3    3.56    2.16
  15  -1   3    0.46    2.29
 -15  -1  -3    1.33    1.52
  15  -1   3    1.45    2.10
 -15  -1  -3   -1.86    1.76
 -15   1  -4   -1.04    2.14
  15   1   4    5.70    2.15
  15   1   4    2.23    1.96
  15   1   4    4.80    2.25
 -15   1  -4    1.61    1.91
  15   1   4    6.70    2.53
 -15   1  -4    3.54    1.88
 -15   1  -4    2.25    1.85
 -15   1  -4    0.46    1.77
  15   1   4    2.15    2.05
 -15   1  -4    0.90    2.38
  15   1   4   -0.26    2.16
 -15  -1  -4    3.87    1.57
  15  -1   4    0.69    2.25
  15  -1   4    6.53    2.44
  15  -1   4    4.47    2.39
  15  -1   4    5.61    2.17
  15  -1   4    3.39    2.36
 -15  -1  -4    3.51    2.05
  15  -1   4    6.96    2.73
 -15  -1  -4    1.15    1.49
 -15  -1  -4    0.67    1.75
 -15  -1  -4    3.10    1.78
  15   2  -7    1.96    1.50
 -15   2   7   -1.94    1.98
  15   2  -7    1.95    1.58
 -15   2   7    1.11    1.82
 -15   2   7   -0.36    1.86
 -15   2   7   -4.39    2.37
 -15   2   7    2.63    2.07
 -15   2   7   -0.13    3.49
  15  -2  -7   -0.29    2.13
  15  -2  -7    0.49    2.15
  15  -2  -7    2.23    2.20
  15  -2  -7    0.10    2.04
  15  -2  -7    0.00    2.38
  15  -2  -7   -5.03    2.08
 -15   2   6   52.49    3.78
 -15   2   6   44.52    3.62
 -15   2   6   53.52    3.74
 -15   2   6   52.30    3.27
 -15   2   6   46.85    3.15
  15   2  -6   47.16    2.72
  15   2  -6   49.01    2.53
 -15   2   6   52.25    3.63
  15  -2  -6   46.18    3.90
  15  -2  -6   58.95    3.74
  15  -2  -6   61.49    3.77
  15  -2  -6   48.33    3.83
  15  -2  -6   51.01    4.18
 -15   2   5   -1.31    1.67
 -15   2   5    0.65    1.62
 -15   2   5    1.26    1.61
 -15   2   5   -0.30    1.76
 -15   2   5    4.43    2.05
 -15   2   5    2.15    2.05
  15  -2  -5    0.17    1.97
  15  -2  -5    0.38    2.07
  15  -2  -5    0.32    2.06
  15  -2  -5    2.98    2.02
  15  -2  -5    0.11    1.91
  15  -2  -5    0.31    2.17
 -15   2   4   35.76    3.00
 -15   2   4   31.17    2.61
 -15   2   4   28.48    2.36
 -15   2   4   27.07    2.13
 -15   2   4   29.19    2.85
 -15   2   4   27.09    2.39
  15  -2  -4   26.66    2.55
  15  -2  -4   24.61    2.52
  15  -2  -4   26.39    2.16
  15  -2  -4   26.16    2.30
  15  -2  -4   34.85    3.41
  15  -2  -4   24.17    2.30
 -15   2   3    8.89    1.80
 -15   2   3    5.31    1.53
 -15   2   3    4.39    1.85
 -15   2   3    4.67    1.84
 -15   2   3    9.17    1.77
 -15   2   3    4.72    1.98
  15  -2  -3    5.72    1.82
  15  -2  -3    5.97    2.05
  15  -2  -3    6.17    2.19
  15  -2  -3   12.11    2.02
  15  -2  -3    5.06    1.86
  15  -2  -3    6.56    1.79
 -15   2   2   14.12    1.74
 -15   2   2   16.41    1.98
 -15   2   2   15.02    2.05
 -15   2   2   15.00    1.72
  15   2  -2   15.58    1.35
 -15   2   2   14.67    1.92
 -15   2   2   14.27    1.85
  15   2  -2   15.07    1.39
  15  -2  -2   11.92    2.19
  15  -2  -2   16.42    2.05
  15  -2  -2   13.30    1.96
  15  -2  -2   15.28    1.93
  15  -2  -2   11.53    1.94
  15  -2  -2   14.85    2.51
 -15   2   1   77.87    3.33
 -15   2   1   77.49    3.41
 -15   2   1   82.08    3.78
  15   2  -1   75.44    2.42
 -15   2   1   79.89    3.50
 -15   2   1   71.56    3.71
 -15   2   1   77.30    3.54
  15   2  -1   83.63    2.85
  15   2  -1   81.02    2.86
  15   2  -1   80.87    2.49
  15  -2  -1   88.09    3.75
  15  -2  -1   78.83    3.70
  15  -2  -1   73.72    5.19
  15  -2  -1   80.01    3.84
  15  -2  -1   85.71    3.80
  15  -2  -1   73.29    3.88
  15   2   0   26.57    2.47
  15   2   0   27.02    2.04
 -15   2   0   31.72    2.83
 -15   2   0   27.05    2.17
 -15   2   0   31.29    3.11
 -15   2   0   25.26    2.52
  15   2   0   29.51    2.47
  15   2   0   24.36    2.40
 -15   2   0   30.78    2.56
 -15   2   0   24.74    1.99
  15   2   0   25.00    2.45
  15   2   0   30.35    2.19
  15  -2   0   27.59    2.30
  15  -2   0   23.92    2.35
  15  -2   0   25.00    2.43
  15  -2   0   17.23    2.79
  15  -2   0   22.15    2.41
  15  -2   0   23.53    3.65
  15   2   1   13.57    1.89
  15   2   1   17.13    1.81
 -15   2  -1   12.73    2.11
  15   2   1   15.03    1.79
  15   2   1   19.08    1.61
  15   2   1   15.60    2.79
 -15   2  -1   15.77    2.07
 -15   2  -1   14.80    1.87
 -15   2  -1   14.50    2.02
 -15   2  -1   14.49    2.38
  15   2   1   15.24    1.77
 -15  -2  -1   15.26    1.54
  15  -2   1   14.93    2.29
  15  -2   1   10.01    2.25
 -15  -2  -1   18.88    1.73
  15  -2   1   16.48    2.16
  15  -2   1   13.11    2.14
 -15  -2  -1   14.96    1.43
  15  -2   1    9.61    2.48
  15  -2   1   16.23    2.28
 -15   2  -2    3.05    1.77
 -15   2  -2    6.03    1.96
  15   2   2    4.81    1.61
 -15   2  -2    5.96    1.88
  15   2   2    5.08    1.79
  15   2   2    6.58    1.80
 -15   2  -2    3.05    1.96
  15   2   2    7.17    1.70
 -15   2  -2    5.73    2.44
  15   2   2    8.07    1.83
  15   2   2    6.67    1.98
  15  -2   2    5.88    2.04
 -15  -2  -2    5.73    1.47
 -15  -2  -2    8.69    1.74
  15  -2   2   10.00    2.50
 -15  -2  -2    7.53    1.52
  15  -2   2    8.21    2.67
  15  -2   2    2.89    2.22
 -15  -2  -2    8.09    1.65
  15  -2   2    2.82    2.20
  15  -2   2    9.07    2.31
  15   2   3    0.45    1.94
 -15   2  -3   -1.93    1.83
 -15   2  -3    3.15    1.90
  15   2   3   -1.01    1.83
  15   2   3   -0.60    1.83
 -15   2  -3   -0.10    2.32
  15   2   3    0.87    2.15
 -15   2  -3    0.27    1.97
 -15   2  -3   -0.88    2.04
  15   2   3   -0.65    1.60
  15   2   3   -1.36    1.91
 -15   2  -3    0.05    1.89
 -15  -2  -3   -1.24    1.56
  15  -2   3    1.83    2.51
  15  -2   3   -0.48    2.36
  15  -2   3   -1.43    2.75
 -15  -2  -3    1.93    1.50
  15  -2   3   -2.24    2.23
  15  -2   3    0.27    2.47
  15  -2   3   -2.50    2.27
 -15  -2  -3   -0.78    1.69
 -15  -2  -3    0.08    1.78
 -15   3   4    1.34    2.04
 -15   3   4    0.34    1.82
 -15   3   4    2.84    1.86
 -15   3   4    2.33    1.96
 -15   3   4    4.76    2.24
 -15   3   4   -1.98    1.94
  15  -3  -4    1.79    2.36
  15  -3  -4   -0.37    2.06
  15  -3  -4    4.80    2.70
  15  -3  -4    2.55    2.23
  15  -3  -4   -0.61    1.98
  15  -3  -4    0.36    2.33
 -15   3   3   18.88    2.44
 -15   3   3   19.23    2.19
 -15   3   3   17.73    2.39
 -15   3   3   19.97    2.35
 -15   3   3   19.12    2.53
 -15   3   3   16.06    2.11
  15  -3  -3   20.41    2.63
  15  -3  -3   21.74    2.51
  15  -3  -3   15.63    2.45
  15  -3  -3   17.28    2.35
  15  -3  -3   20.85    2.75
  15  -3  -3   22.79    2.42
 -15   3   2    5.25    1.81
 -15   3   2    9.98    2.05
 -15   3   2    6.44    2.04
 -15   3   2    8.25    2.11
 -15   3   2    7.37    1.99
 -15   3   2    5.99    2.06
  15  -3  -2    3.76    2.21
  15  -3  -2    1.86    2.26
  15  -3  -2    8.26    2.51
  15  -3  -2    9.30    2.22
  15  -3  -2   10.36    2.23
  15  -3  -2    4.89    2.61
 -15   3   1    4.62    1.97
 -15   3   1    4.16    2.05
 -15   3   1    6.18    2.04
 -15   3   1    1.11    1.91
 -15   3   1    3.98    1.96
 -15   3   1    6.89    2.16
  15  -3  -1    0.29    2.10
  15  -3  -1    2.03    2.41
  15  -3  -1    4.32    2.02
  15  -3  -1   -0.61    2.33
  15  -3  -1    5.39    2.10
  15  -3  -1    6.44    2.22
  15   3   0   10.41    1.70
 -15   3   0    7.44    2.01
 -15   3   0   11.16    2.24
  15   3   0   10.61    1.66
 -15   3   0   10.01    2.11
 -15   3   0   15.15    2.30
 -15   3   0   12.03    2.12
 -15   3   0   10.43    2.24
  15  -3   0   10.63    2.21
  15  -3   0   12.73    2.65
  15  -3   0   13.29    2.24
  15  -3   0   17.38    2.48
  15  -3   0    9.85    3.15
  15  -3   0   18.67    2.45
  15   3   1    7.11    1.86
 -15   3  -1    8.38    2.34
 -15   3  -1   11.32    2.05
  15   3   1    7.78    1.80
 -15   3  -1    7.30    2.37
 -15   3  -1    5.36    2.12
 -15   3  -1    5.56    2.11
 -15   3  -1    8.03    2.54
  15  -3   1    7.91    2.93
  15  -3   1    5.94    2.26
  15  -3   1    9.96    2.74
  15  -3   1    3.84    2.41
  15  -3   1   11.37    2.49
  15  -3   1    8.96    2.69
  16   0  -7   -2.57    1.81
  16   0  -7    2.28    2.73
  16   0  -7   -0.26    1.60
  16   0  -7    2.15    1.73
  16   0  -7   -0.41    1.76
  16   0  -7   -0.10    1.72
 -16   0   7    0.10    1.64
 -16   0   7    0.92    1.77
 -16   0   7    0.42    1.63
 -16   0   7   -1.21    1.63
  16   0  -6    1.02    2.50
  16   0  -6   -1.60    1.66
  16   0  -6    1.56    1.63
  16   0  -6    0.61    1.51
 -16   0   6   -0.39    1.48
  16   0  -6    0.14    1.74
 -16   0   6    2.00    1.53
 -16   0   6   -0.82    1.49
 -16   0   6   -0.03    1.61
 -16   0   5   -1.00    1.41
  16   0  -5    0.71    1.65
 -16   0   5   -3.03    1.32
  16   0  -5    2.89    2.84
  16   0  -5    1.38    1.56
 -16   0   5   -3.30    1.49
  16   0  -5   -0.49    1.44
 -16   0   5   -2.14    1.40
  16   0  -5    1.18    1.53
 -16   0   4   38.12    2.67
  16   0  -4   39.48    2.69
 -16   0   4   37.77    2.50
 -16   0   4   35.96    2.58
  16   0  -4   34.79    2.63
 -16   0   4   41.85    2.58
  16   0  -4   42.42    2.77
  16   0  -4   44.04    2.85
  16   0  -4   39.53    4.10
  16   0  -4   41.32    2.95
 -16   0   3   -1.17    1.35
  16   0  -3   -1.04    1.47
 -16   0   3    0.09    1.24
  16   0  -3   -2.02    1.36
 -16   0   3    2.04    1.38
  16   0  -3   -0.04    1.60
  16   0  -3   -0.19    1.53
  16   0  -3   -1.88    1.40
 -16   0   3   -0.20    1.74
  16   0  -3   -1.80    1.38
  16   0  -2    2.88    1.47
  16   0  -2    0.49    1.39
 -16   0   2    2.22    1.36
  16   0  -2    0.08    1.51
 -16   0   2    1.65    1.28
  16   0  -2    0.69    1.67
 -16   0   2    2.16    1.03
 -16   0   2    0.82    1.38
  16   0  -2    0.33    1.52
  16   0  -1   -2.50    1.46
  16   0  -1    1.86    1.49
  16   0  -1   -1.95    1.55
 -16   0   1   -1.25    1.45
 -16   0   1    0.11    1.28
 -16   0   1   -1.03    1.15
  16   0  -1   -2.17    1.44
  16   0  -1   -0.02    1.68
  16   0  -1    3.12    1.53
 -16   0   1    0.00    1.48
 -16   0   1   -1.40    1.04
 -16   0   1   -0.53    1.35
  16   0   0    4.72    1.61
  16   0   0    4.28    1.67
 -16   0   0    5.15    1.33
 -16   0   0    5.55    1.43
  16   0   0    5.34    1.87
  16   0   0    3.93    1.58
 -16   0   0    4.42    1.69
  16   0   0    1.54    1.58
  16   0   0    7.98    2.21
 -16   0   0    3.13    1.61
 -16   0   0    5.63    1.53
 -16   0   0    5.24    1.23
 -16   0  -1   -0.02    1.66
  16   0   1   -1.39    1.89
  16   0   1    3.80    1.82
 -16   0  -1   -0.56    1.43
 -16   0  -1    1.96    1.42
  16   0   1    1.03    1.93
 -16   0  -1   -0.92    1.32
  16   0   1   -2.45    1.78
 -16   0  -1   -0.12    1.67
  16   0   1   -3.07    1.63
  16   0   1   -0.39    1.73
 -16   0  -1    1.56    1.50
 -16   0  -2    1.67    1.74
  16   0   2   -0.52    1.92
  16   0   2    1.91    1.98
 -16   0  -2    6.43    1.88
  16   0   2   -1.08    1.79
  16   0   2    0.27    1.90
 -16   0  -2    2.05    1.50
 -16   0  -2   -1.65    1.88
  16   0   2   -2.44    2.18
 -16   0  -2    0.77    1.56
 -16   0  -2    2.61    1.60
  16   0   2   -0.09    2.07
  16   0   3   -1.49    2.07
 -16   0  -3   -3.22    1.68
 -16   0  -3    2.23    1.73
 -16   0  -3    0.64    1.99
  16   0   3   -0.46    1.94
 -16   0  -3   -2.88    1.63
 -16   0  -3    3.43    2.08
  16   0   3   -0.23    2.20
  16   0   3   -4.26    2.31
  16   0   3   -0.68    2.04
  16   0   3   -3.69    2.16
 -16   0  -4   -4.01    2.30
 -16   0  -4   -0.37    1.86
  16   0   4   -0.44    2.13
  16   0   4   -2.33    2.41
  16   0   4   -0.77    2.55
  16   0   4   -0.56    2.43
 -16   0  -4    0.20    1.79
  16   0   4   -1.95    2.34
 -16   0  -4   -0.45    1.82
  16   0   4    3.54    2.54
 -16   0  -4   -2.40    1.73
 -16   0  -4    0.93    2.20
  16   1  -7   12.00    1.50
 -16   1   7   13.74    2.08
  16   1  -7   12.91    1.82
  16   1  -7   10.07    1.78
 -16   1   7   12.86    2.22
 -16   1   7   13.92    2.06
  16   1  -7   14.52    2.31
  16   1  -7   11.37    1.63
 -16   1   7   15.26    2.22
  16   1  -7   11.73    1.81
 -16   1   7   18.69    1.74
 -16   1   7   13.09    1.69
  16  -1  -7    9.84    2.31
 -16  -1   7   10.65    1.63
 -16  -1   7   11.15    1.67
  16  -1  -7   11.19    2.13
 -16  -1   7   12.49    1.57
  16  -1  -7   10.98    2.09
 -16  -1   7   11.47    1.51
  16  -1  -7   10.34    2.05
  16  -1  -7    6.69    2.13
  16  -1  -7   13.75    2.27
 -16   1   6    3.31    1.83
 -16   1   6   -1.18    1.36
 -16   1   6   -0.67    1.89
  16   1  -6    1.54    1.41
 -16   1   6    2.23    1.75
  16   1  -6    0.17    1.48
  16   1  -6    0.16    1.28
  16   1  -6    1.08    1.45
 -16   1   6    1.58    1.70
 -16   1   6   -0.40    1.40
  16   1  -6    1.98    1.61
  16   1  -6    3.29    1.57
 -16  -1   6    1.41    1.40
  16  -1  -6    0.60    1.72
  16  -1  -6    1.24    1.92
 -16  -1   6    0.85    1.26
 -16  -1   6    1.80    1.29
  16  -1  -6   -0.15    1.87
  16  -1  -6   -1.62    1.93
 -16  -1   6    0.70    1.36
  16  -1  -6    0.99    1.93
  16  -1  -6   -0.86    1.75
 -16   1   5   27.89    2.45
  16   1  -5   26.27    2.63
 -16   1   5   28.88    2.07
  16   1  -5   35.34    2.56
  16   1  -5   28.22    2.65
 -16   1   5   32.96    3.04
 -16   1   5   25.69    2.18
 -16   1   5   30.44    2.37
 -16   1   5   29.77    2.07
  16   1  -5   30.15    2.28
  16   1  -5   29.89    2.52
  16   1  -5   27.16    2.41
 -16  -1   5   32.49    2.30
  16  -1  -5   30.30    2.29
 -16  -1   5   31.34    2.34
  16  -1  -5   31.13    2.54
 -16  -1   5   28.80    2.10
  16  -1  -5   33.67    3.13
 -16  -1   5   29.58    2.25
  16  -1  -5   32.99    3.11
  16  -1  -5   25.52    2.38
  16   1  -4    1.60    1.25
 -16   1   4    2.38    1.68
 -16   1   4    1.33    1.50
  16   1  -4    0.57    1.16
  16   1  -4    2.97    1.41
 -16   1   4    1.58    1.51
  16   1  -4    0.48    1.44
  16   1  -4    0.95    1.39
 -16   1   4    1.63    1.34
 -16   1   4    2.14    1.64
 -16   1   4    1.85    1.37
  16  -1  -4    0.02    1.66
  16  -1  -4    2.89    1.86
  16  -1  -4    4.25    1.74
  16  -1  -4    1.21    2.04
 -16  -1   4    3.25    1.16
 -16  -1   4    2.37    1.27
 -16  -1   4    2.84    1.28
 -16  -1   4    1.87    1.33
  16  -1  -4    0.84    1.78
  16  -1  -4    1.81    1.76
  16   1  -3   25.04    2.40
 -16   1   3   20.75    2.02
 -16   1   3   28.01    2.81
 -16   1   3   23.17    1.90
  16   1  -3   26.24    2.27
  16   1  -3   30.41    2.15
 -16   1   3   26.30    2.27
  16   1  -3   26.35    2.40
 -16   1   3   28.73    2.49
 -16   1   3   22.94    1.88
  16   1  -3   31.86    2.27
  16   1  -3   24.64    2.47
 -16  -1   3   22.01    2.17
 -16  -1   3   27.09    2.04
  16  -1  -3   25.08    2.14
  16  -1  -3   27.64    2.08
  16  -1  -3   28.83    2.89
 -16  -1   3   25.76    2.03
  16  -1  -3   24.84    1.95
 -16  -1   3   24.96    2.22
  16  -1  -3   26.04    2.33
  16  -1  -3   22.84    2.13
 -16   1   2    8.81    1.50
  16   1  -2    7.60    1.59
 -16   1   2    8.10    1.61
  16   1  -2    7.38    1.48
 -16   1   2   10.90    1.44
  16   1  -2    7.82    1.39
  16   1  -2   10.01    1.40
  16   1  -2    9.08    1.55
  16   1  -2    7.18    1.53
 -16   1   2   10.64    1.87
 -16   1   2    8.43    1.79
 -16   1   2    7.05    1.51
  16  -1  -2    5.71    1.80
  16  -1  -2    5.86    1.63
  16  -1  -2    5.17    1.92
 -16  -1   2    6.36    1.27
  16  -1  -2    9.57    1.89
 -16  -1   2    7.60    1.38
 -16  -1   2    9.95    1.43
  16  -1  -2    8.73    1.69
  16  -1  -2    6.71    1.84
 -16   1   1    7.81    1.42
 -16   1   1    6.63    1.76
  16   1  -1    7.17    1.51
  16   1  -1    7.74    1.54
  16   1  -1    7.84    1.46
  16   1  -1    7.13    1.77
  16   1  -1    7.87    1.70
 -16   1   1   10.30    1.64
 -16   1   1    7.42    1.69
 -16   1   1    8.26    1.72
  16   1  -1   10.59    1.64
 -16   1   1    6.62    1.57
  16  -1  -1    8.76    2.14
  16  -1  -1    8.54    1.86
  16  -1  -1    9.47    1.82
  16  -1  -1    8.05    1.87
 -16  -1   1    8.12    1.30
 -16  -1   1    9.24    1.53
  16  -1  -1    9.00    1.81
 -16  -1   1   10.21    1.35
 -16  -1   1    7.63    1.45
  16  -1  -1    8.55    1.79
 -16   1   0   10.45    1.68
  16   1   0   14.69    1.87
  16   1   0   12.35    1.63
 -16   1   0   10.66    1.53
 -16   1   0   14.88    1.82
  16   1   0   15.79    1.65
 -16   1   0   13.53    2.05
  16   1   0   13.18    1.71
  16   1   0   15.30    1.81
 -16   1   0   10.58    2.04
 -16   1   0    8.99    1.73
  16   1   0    9.76    1.71
 -16  -1   0   13.56    1.52
  16  -1   0   12.14    2.01
  16  -1   0   11.20    2.06
 -16  -1   0   13.40    1.73
  16  -1   0   11.30    1.99
  16  -1   0   15.85    1.97
 -16  -1   0   11.17    1.46
  16  -1   0   11.88    2.14
 -16  -1   0   11.54    1.64
  16  -1   0   11.50    2.06
 -16   1  -1    1.64    1.97
 -16   1  -1   -0.84    1.59
 -16   1  -1    0.62    1.81
  16   1   1    0.58    1.58
  16   1   1   -0.76    1.81
 -16   1  -1   -0.61    1.57
  16   1   1    2.34    1.64
  16   1   1    2.49    1.79
  16   1   1    0.96    1.66
  16   1   1    0.24    2.77
 -16   1  -1   -0.15    1.66
  16  -1   1   -3.13    2.00
 -16  -1  -1    0.75    1.46
  16  -1   1   -2.48    1.89
  16  -1   1    1.73    1.92
 -16  -1  -1    2.54    1.65
  16  -1   1    2.53    2.04
 -16  -1  -1   -1.18    1.34
  16  -1   1   -3.20    1.82
 -16  -1  -1    1.67    1.58
  16  -1   1    2.70    1.95
  16   1   2    2.21    1.87
 -16   1  -2    2.32    2.13
 -16   1  -2   -0.62    1.61
  16   1   2   -2.00    1.77
  16   1   2   -0.49    2.02
  16   1   2    0.09    1.75
 -16   1  -2    1.86    1.68
  16   1   2   -3.34    1.85
 -16   1  -2   -0.11    1.83
  16   1   2   -1.13    1.84
 -16   1  -2    2.17    1.86
 -16   1  -2    1.33    1.63
 -16  -1  -2    0.74    1.69
  16  -1   2   -1.09    1.92
  16  -1   2   -1.74    1.96
  16  -1   2    1.35    2.15
  16  -1   2   -1.78    2.13
  16  -1   2    1.95    2.29
 -16  -1  -2    1.02    1.56
  16  -1   2    1.23    2.09
 -16  -1  -2    0.22    1.46
  16   1   3   -0.23    1.97
  16   1   3    0.20    1.97
 -16   1  -3    1.79    2.30
 -16   1  -3    0.33    1.79
  16   1   3   -0.91    2.23
  16   1   3   -0.54    2.08
 -16   1  -3    0.85    1.88
 -16   1  -3   -1.86    2.13
 -16   1  -3   -1.07    2.17
  16   1   3    2.22    2.06
  16   1   3    0.34    2.08
 -16  -1  -3   -0.28    1.72
  16  -1   3    1.73    2.37
 -16  -1  -3    1.25    1.59
  16  -1   3    1.32    2.35
  16  -1   3   -3.12    2.37
 -16  -1  -3    2.33    2.05
 -16  -1  -3   -0.70    2.07
 -16  -1  -3    0.31    1.53
  16  -1   3    3.45    2.26
 -16  -1  -3    0.51    1.34
  16  -1   3    0.44    2.21
  16  -1   3    3.09    2.70
 -16   2   6    4.97    1.82
  16   2  -6    0.51    1.48
 -16   2   6    4.03    2.36
 -16   2   6    6.90    3.39
 -16   2   6    1.65    1.92
 -16   2   6    2.80    1.79
  16   2  -6    3.11    1.57
 -16   2   6    3.45    2.21
  16  -2  -6    3.84    2.07
  16  -2  -6    6.96    2.25
  16  -2  -6    6.60    2.24
  16  -2  -6    0.27    2.25
  16  -2  -6    1.67    2.35
 -16   2   5   -1.81    1.65
 -16   2   5   -0.96    1.99
  16   2  -5    2.31    1.45
 -16   2   5    2.66    1.77
 -16   2   5   -1.98    1.80
 -16   2   5    3.09    2.06
 -16   2   5    1.77    1.94
  16  -2  -5    4.29    2.16
  16  -2  -5    0.06    2.29
  16  -2  -5   -0.49    2.13
  16  -2  -5   -1.65    2.83
  16  -2  -5   -1.60    2.00
  16  -2  -5   -3.17    2.31
 -16   2   4    8.75    2.14
 -16   2   4    5.85    1.70
 -16   2   4    6.29    2.10
 -16   2   4    9.20    2.02
 -16   2   4   10.46    2.09
 -16   2   4    5.06    1.82
  16  -2  -4    4.66    2.22
  16  -2  -4    5.74    1.98
  16  -2  -4   10.89    2.15
  16  -2  -4   12.12    2.86
  16  -2  -4    7.78    2.26
  16  -2  -4    7.60    2.21
 -16   2   3   -2.65    1.58
 -16   2   3    1.09    1.93
 -16   2   3   -0.06    1.52
 -16   2   3    2.06    1.70
  16   2  -3    1.72    1.31
 -16   2   3   -1.02    1.70
 -16   2   3   -1.86    1.71
  16  -2  -3    0.02    2.10
  16  -2  -3   -1.19    1.82
  16  -2  -3   -0.96    2.28
  16  -2  -3    3.55    1.98
  16  -2  -3   -2.21    2.09
  16  -2  -3    0.84    1.87
 -16   2   2    0.73    1.54
  16   2  -2    1.37    1.36
 -16   2   2    1.83    1.82
  16   2  -2    4.00    1.38
 -16   2   2    3.55    1.59
 -16   2   2    2.25    1.76
 -16   2   2    6.46    2.19
 -16   2   2    0.42    1.74
  16  -2  -2    5.17    2.16
  16  -2  -2    0.43    1.95
  16  -2  -2    2.82    2.08
  16  -2  -2   -0.02    2.00
  16  -2  -2    0.35    2.67
  16  -2  -2    2.98    1.88
 -16   2   1   -2.69    1.82
 -16   2   1   -1.85    1.65
 -16   2   1    0.06    1.79
  16   2  -1    2.50    1.46
 -16   2   1   -1.23    1.94
 -16   2   1   -2.49    1.54
 -16   2   1   -1.06    1.74
  16   2  -1    0.20    1.52
  16   2  -1    1.62    1.17
  16  -2  -1   -2.57    1.82
  16  -2  -1   -0.67    2.05
  16  -2  -1    0.06    2.34
  16  -2  -1   -3.45    2.82
  16  -2  -1    1.81    2.19
  16  -2  -1    0.70    1.82
  16   2   0    0.24    1.60
  16   2   0    4.01    2.31
 -16   2   0    2.33    1.87
  16   2   0   -0.71    1.58
  16   2   0    4.27    1.68
 -16   2   0    3.57    2.21
  16   2   0    1.60    1.59
  16   2   0    1.96    1.23
 -16   2   0    1.46    1.80
 -16   2   0    4.57    2.29
 -16   2   0    0.79    1.63
  16  -2   0    0.80    2.44
  16  -2   0    2.23    2.02
  16  -2   0    3.38    2.22
  16  -2   0    2.12    2.14
  16  -2   0   -0.70    2.22
  16  -2   0   -1.09    1.83
 -16  -2   0   -0.21    1.84
 -16   2  -1    8.89    2.04
 -16   2  -1    3.25    1.96
  16   2   1    7.90    1.86
 -16   2  -1    4.67    2.01
  16   2   1    2.59    1.73
  16   2   1    6.25    1.89
  16   2   1    2.07    1.77
 -16   2  -1    5.12    1.85
  16   2   1    4.50    1.58
  16   2   1    4.07    1.53
 -16   2  -1    4.29    2.31
 -16   2  -1    5.65    2.06
 -16  -2  -1    7.50    1.70
  16  -2   1    7.56    2.11
  16  -2   1    2.06    2.18
  16  -2   1    8.27    2.37
 -16  -2  -1    4.47    1.54
  16  -2   1    5.77    2.45
  16  -2   1    6.94    2.30
 -16  -2  -1    5.02    1.44
  16  -2   1    4.06    2.48
 -16   2  -2   -1.83    2.35
 -16   2  -2   -3.22    1.88
  16   2   2   -2.08    1.56
 -16   2  -2    3.33    2.09
  16   2   2   -0.56    1.76
  16   2   2   -0.45    1.91
 -16   2  -2    2.01    1.89
 -16   2  -2   -1.83    1.98
  16   2   2    3.24    2.08
 -16   2  -2    1.12    2.06
  16   2   2    0.43    1.75
  16  -2   2   -4.26    2.28
 -16  -2  -2    0.48    1.49
  16  -2   2    1.57    2.56
 -16  -2  -2   -1.36    1.50
  16  -2   2   -2.33    2.08
  16  -2   2   -2.41    2.53
  16  -2   2   -3.13    2.27
 -16  -2  -2   -0.02    1.88
  16  -2   2    1.82    2.50
 -16  -2  -2    3.77    1.67
 -16   3   2    0.26    2.07
 -16   3   2   -0.24    2.07
 -16   3   2   -0.71    2.02
 -16   3   2    5.04    2.52
 -16   3   2    4.92    2.29
  16  -3  -2    2.82    2.44
  16  -3  -2    2.25    2.58
  16  -3  -2   -2.13    2.22
  16  -3  -2   -0.33    2.41
  16  -3  -2    0.12    2.37
  16  -3  -2   -1.17    2.07
 -17   0   7    0.64    1.85
  17   0  -7    0.39    1.91
 -17   0   7   -5.04    1.81
  17   0  -7   -1.26    2.01
  17   0  -7   -0.88    1.86
  17   0  -7   -0.46    3.05
 -17   0   7    0.97    1.72
  17   0  -7    5.18    2.04
  17   0  -7    0.64    1.75
  17   0  -6    0.39    1.67
  17   0  -6   -1.25    1.81
  17   0  -6    0.65    2.23
 -17   0   6    0.21    1.60
 -17   0   6   -1.70    1.59
  17   0  -6   -2.16    1.84
  17   0  -6    1.68    1.63
 -17   0   6   -2.44    1.60
 -17   0   6   -0.88    1.62
  17   0  -6   -3.32    1.68
 -17   0   5    1.64    1.64
  17   0  -5   -2.70    1.72
  17   0  -5    0.68    1.58
 -17   0   5    1.21    1.60
  17   0  -5    0.46    2.86
  17   0  -5    2.38    2.65
 -17   0   5   -1.05    1.55
 -17   0   5   -1.00    1.52
  17   0  -5    0.98    1.65
 -17   0   4    0.46    1.46
 -17   0   4    1.84    1.65
  17   0  -4    2.89    1.86
  17   0  -4    3.38    1.80
  17   0  -4    2.78    1.56
 -17   0   4   -1.60    1.51
 -17   0   4    2.10    1.46
  17   0  -4    3.83    1.57
  17   0  -4    2.95    1.75
 -17   0   3   -2.96    1.42
  17   0  -3   -0.23    1.75
  17   0  -3   -0.93    1.51
  17   0  -3   -0.61    1.52
  17   0  -3   -1.85    1.92
 -17   0   3    2.90    1.38
  17   0  -3    0.38    1.55
 -17   0   3   -1.44    1.54
 -17   0   3   -1.34    1.50
  17   0  -3   -1.17    1.63
  17   0  -2   28.37    2.79
  17   0  -2   20.06    1.98
 -17   0   2   29.03    2.71
  17   0  -2   23.75    2.12
 -17   0   2   23.33    1.77
 -17   0   2   29.42    2.75
  17   0  -2   23.10    1.89
  17   0  -2   25.52    2.18
  17   0  -2   23.61    2.19
  17   0  -1    0.05    1.69
 -17   0   1   -0.80    1.37
  17   0  -1   -5.29    1.58
 -17   0   1   -0.76    1.51
 -17   0   1   -0.59    1.62
 -17   0   1    0.30    1.59
  17   0  -1    0.57    1.76
  17   0  -1   -0.53    1.87
  17   0  -1   -2.39    1.76
 -17   0   1    0.92    1.26
 -17   0   1    0.71    1.18
  17   0   0    2.84    2.07
 -17   0   0    6.44    1.81
 -17   0   0    2.58    1.77
 -17   0   0    0.82    1.56
 -17   0   0    0.73    1.31
  17   0   0    1.92    1.86
 -17   0   0    1.38    1.40
 -17   0   0    1.99    1.54
  17   0   0    0.32    1.78
  17   0   0    0.45    1.72
  17   0   0    4.66    1.84
  17   0   0    2.96    1.83
 -17   0  -1   -1.16    1.74
  17   0   1   -4.23    1.91
  17   0   1   -1.32    2.03
 -17   0  -1   -1.15    1.53
 -17   0  -1   -0.26    1.83
 -17   0  -1   -2.94    1.57
 -17   0  -1    0.87    1.68
 -17   0  -1   -0.46    1.45
  17   0   1   -3.24    1.94
  17   0   1   -1.37    1.85
  17   0   1   -2.86    1.81
  17   0   1   -0.99    2.15
 -17   0  -2    2.13    1.86
 -17   0  -2   -1.32    2.12
  17   0   2    2.59    2.03
 -17   0  -2    1.63    1.84
 -17   0  -2    1.91    1.68
  17   0   2   -0.92    2.06
  17   0   2   -0.28    2.17
 -17   0  -2   -0.08    1.73
 -17   0  -2    0.97    1.99
  17   0   2   -2.77    1.95
  17   0   2    4.65    2.29
  17   0   2    1.67    2.07
 -17   0  -3    1.12    2.28
  17   0   3   -6.18    2.42
 -17   0  -3   -1.62    2.28
  17   0   3   -0.65    2.48
  17   0   3   -2.27    2.52
  17   0   3   -0.51    2.23
 -17   0  -3   -0.06    1.87
 -17   0  -3    0.64    1.99
  17   0   3    2.09    2.71
 -17   0  -3    0.03    2.04
  17   0   3    2.69    2.48
  17   1  -6    7.24    1.54
 -17   1   6   11.41    2.12
  17   1  -6    7.13    1.91
 -17   1   6    9.77    2.00
 -17   1   6   10.99    2.28
 -17   1   6    7.43    1.59
 -17   1   6   10.65    1.67
  17   1  -6    8.05    1.49
  17   1  -6    7.38    1.70
  17   1  -6    9.25    1.81
 -17   1   6   10.17    2.10
  17   1  -6    9.20    2.65
  17  -1  -6    9.88    2.11
  17  -1  -6   13.37    2.14
 -17  -1   6    9.82    1.67
  17  -1  -6   11.01    2.11
 -17  -1   6    9.42    1.43
  17  -1  -6    6.79    2.38
 -17  -1   6   11.71    1.55
  17  -1  -6   10.94    2.19
 -17  -1   6   10.15    1.63
 -17   1   5    1.75    1.83
  17   1  -5    0.64    1.64
 -17   1   5    0.83    1.99
 -17   1   5    1.28    1.79
 -17   1   5    1.50    1.37
 -17   1   5    1.09    1.82
  17   1  -5    0.70    1.62
  17   1  -5    0.64    1.35
  17   1  -5    1.49    1.36
  17   1  -5    0.74    1.49
 -17   1   5    1.51    1.48
  17  -1  -5   -1.89    1.93
 -17  -1   5    1.31    1.27
 -17  -1   5   -1.17    1.28
  17  -1  -5    2.93    1.98
  17  -1  -5   -0.04    1.86
  17  -1  -5    5.50    2.21
  17  -1  -5   -1.82    2.17
  17  -1  -5    0.49    2.00
 -17  -1   5    1.19    1.41
 -17  -1   5    0.61    1.41
 -17   1   4    0.56    1.75
 -17   1   4   -2.05    1.62
 -17   1   4    2.03    1.80
 -17   1   4   -1.38    1.45
 -17   1   4   -2.18    1.75
  17   1  -4    0.68    1.46
  17   1  -4   -0.02    1.53
 -17   1   4    1.49    1.33
  17   1  -4   -0.96    1.56
  17   1  -4   -0.69    1.56
  17   1  -4    0.64    1.29
 -17  -1   4   -1.91    1.21
  17  -1  -4   -1.52    1.83
  17  -1  -4   -1.97    1.77
  17  -1  -4   -2.78    1.85
  17  -1  -4   -1.02    1.85
 -17  -1   4   -1.27    1.35
  17  -1  -4   -1.78    1.77
  17  -1  -4   -3.08    2.03
 -17  -1   4   -0.11    1.26
 -17  -1   4    0.92    1.38
 -17   1   3    2.58    1.93
  17   1  -3    1.21    1.66
  17   1  -3    3.76    1.57
  17   1  -3    1.20    1.39
  17   1  -3    1.01    1.35
 -17   1   3   -1.10    1.34
 -17   1   3    0.86    1.74
 -17   1   3    0.24    1.57
  17   1  -3    2.91    1.58
 -17   1   3    0.69    1.51
  17   1  -3   -0.09    1.48
 -17   1   3    1.94    1.81
 -17  -1   3    1.02    1.41
 -17  -1   3    0.26    1.23
 -17  -1   3    0.81    1.17
 -17  -1   3    0.12    1.44
  17  -1  -3   -0.80    1.72
  17  -1  -3    3.89    1.96
  17  -1  -3    2.82    1.98
  17  -1  -3   -1.57    1.86
  17  -1  -3    0.49    1.86
  17  -1  -3    0.05    1.72
  17   1  -2    2.93    1.40
 -17   1   2    3.43    1.93
  17   1  -2   -1.06    1.44
  17   1  -2    3.83    1.64
 -17   1   2   -0.73    1.68
 -17   1   2    0.22    1.74
  17   1  -2    3.56    1.71
  17   1  -2    1.51    1.52
 -17   1   2    3.24    1.58
  17   1  -2    1.51    1.51
 -17   1   2    1.49    1.46
 -17   1   2    2.83    1.53
  17  -1  -2    2.13    1.95
 -17  -1   2    3.63    1.52
 -17  -1   2    1.77    1.42
  17  -1  -2    0.37    1.79
 -17  -1   2    2.32    1.24
  17  -1  -2    0.96    2.12
  17  -1  -2    2.03    1.82
  17  -1  -2    4.97    1.80
 -17  -1   2    3.46    1.37
  17  -1  -2    1.14    1.92
  17   1  -1    4.52    1.56
 -17   1   1    5.38    1.84
  17   1  -1    3.00    1.54
  17   1  -1    2.96    1.63
 -17   1   1    6.08    1.59
 -17   1   1    3.74    1.94
 -17   1   1    5.04    1.65
  17   1  -1    4.47    1.66
  17   1  -1    4.84    1.66
  17   1  -1    8.59    1.84
 -17   1   1    6.27    1.57
 -17   1   1    4.97    1.73
 -17  -1   1    4.44    1.55
 -17  -1   1    4.54    1.33
  17  -1  -1    7.22    2.00
 -17  -1   1    5.73    1.40
  17  -1  -1    6.63    1.94
  17  -1  -1    9.40    1.93
  17  -1  -1    4.65    2.02
  17  -1  -1    3.74    1.79
 -17  -1   1    5.79    1.64
  17  -1  -1    6.25    2.28
  17   1   0    4.20    1.72
  17   1   0   -0.99    1.68
 -17   1   0    0.78    1.74
 -17   1   0    3.30    2.01
 -17   1   0   -1.06    1.85
  17   1   0    1.82    1.61
 -17   1   0    0.77    1.66
  17   1   0    3.18    1.91
  17   1   0    3.17    1.67
 -17   1   0    3.31    1.73
  17  -1   0    1.51    2.05
 -17  -1   0    5.34    1.71
  17  -1   0    0.23    1.93
  17  -1   0    6.84    2.26
 -17  -1   0    3.12    1.48
 -17  -1   0    2.32    1.43
  17  -1   0    1.18    1.90
  17  -1   0    1.40    2.30
  17  -1   0    8.28    2.14
 -17  -1   0    0.85    1.64
  17   1   1    1.20    1.87
  17   1   1    0.95    1.75
 -17   1  -1    0.26    1.99
 -17   1  -1   -1.28    1.62
 -17   1  -1   -2.38    1.86
 -17   1  -1    2.31    2.09
  17   1   1   -3.21    1.78
 -17   1  -1    0.25    1.73
  17   1   1   -1.49    2.04
 -17   1  -1   -0.93    1.93
  17   1   1    0.22    1.88
  17   1   1   -1.90    1.88
 -17  -1  -1   -0.31    1.49
 -17  -1  -1    1.04    1.83
  17  -1   1    1.31    2.12
  17  -1   1   -4.27    2.17
  17  -1   1    2.35    2.37
  17  -1   1   -0.70    1.94
 -17  -1  -1    1.57    1.78
  17  -1   1   -3.95    2.07
  17  -1   1    3.42    2.20
 -17  -1  -1   -0.59    1.57
 -17   1  -2   -1.75    2.31
 -17   1  -2    3.04    2.17
  17   1   2    1.43    1.86
  17   1   2    2.36    2.05
  17   1   2    1.42    2.25
  17   1   2    2.55    2.07
 -17   1  -2    1.63    2.04
  17   1   2   -0.21    1.92
 -17   1  -2    1.87    2.02
  17   1   2    2.02    2.12
 -17   1  -2    2.37    2.34
 -17   1  -2    2.60    1.88
  17  -1   2    0.61    2.56
  17  -1   2    3.89    2.37
  17  -1   2    6.24    2.66
 -17  -1  -2    1.67    2.44
 -17  -1  -2   -0.34    1.67
 -17  -1  -2    2.47    1.93
 -17  -1  -2    2.02    1.75
  17  -1   2    1.64    2.29
  17  -1   2    0.12    2.18
  17  -1   2    4.71    3.62
 -17   2   5    3.71    2.01
 -17   2   5    3.40    2.27
  17   2  -5    2.32    1.59
 -17   2   5    0.95    2.02
 -17   2   5    1.92    1.86
 -17   2   5    1.72    1.88
  17  -2  -5    2.07    2.22
  17  -2  -5    0.90    2.03
  17  -2  -5    3.37    2.10
  17  -2  -5    3.58    2.36
  17  -2  -5    7.38    2.42
  17  -2  -5   -1.11    2.36
 -17   2   4   -0.75    2.14
  17   2  -4    1.75    1.56
 -17   2   4    0.48    1.77
 -17   2   4    3.21    1.86
  17   2  -4   -1.20    1.43
 -17   2   4    0.87    2.07
 -17   2   4    0.44    2.10
 -17   2   4    5.16    2.01
  17  -2  -4    1.99    2.46
  17  -2  -4   -2.85    2.09
  17  -2  -4   -0.84    2.09
  17  -2  -4   -4.80    2.00
  17  -2  -4    2.14    2.24
  17  -2  -4   -1.05    2.18
 -17   2   3   28.53    2.41
  17   2  -3   25.94    2.50
 -17   2   3   16.68    2.41
 -17   2   3   26.50    2.75
 -17   2   3   24.17    2.09
 -17   2   3   24.68    2.24
  17   2  -3   27.75    2.65
 -17   2   3   23.90    2.28
  17  -2  -3   19.51    2.88
  17  -2  -3   25.61    2.58
  17  -2  -3   20.32    2.36
  17  -2  -3   22.27    2.40
  17  -2  -3   25.69    2.54
  17  -2  -3   18.95    2.56
 -17   2   2   15.38    1.97
  17   2  -2   19.43    1.79
 -17   2   2   16.82    2.10
 -17   2   2   13.95    2.31
 -17   2   2   16.70    2.76
  17   2  -2   14.84    1.72
 -17   2   2   11.46    1.98
 -17   2   2   18.12    2.65
  17  -2  -2   20.12    2.69
  17  -2  -2   16.95    2.20
  17  -2  -2   16.79    2.49
  17  -2  -2   15.08    2.48
  17  -2  -2   17.56    2.33
  17  -2  -2   15.75    2.58
 -17   2   1    0.04    2.13
  17   2  -1    1.45    1.62
 -17   2   1    1.33    2.94
  17   2  -1   -0.62    1.49
  17   2  -1   -0.09    1.52
  17   2  -1    0.48    1.61
  17   2  -1   -0.18    1.68
 -17   2   1   -2.50    1.93
 -17   2   1    1.19    1.75
 -17   2   1    0.81    2.27
 -17   2   1    1.53    1.74
  17  -2  -1   -2.56    2.24
  17  -2  -1   -1.97    2.17
  17  -2  -1   -3.80    2.21
  17  -2  -1   -1.57    2.10
  17  -2  -1   -1.07    2.47
  17  -2  -1    6.27    2.37
  17   2   0    8.50    1.82
 -17   2   0    8.26    2.01
  17   2   0    6.42    1.95
 -17   2   0    5.42    1.93
  17   2   0    6.45    1.86
 -17   2   0    7.00    2.24
 -17   2   0    4.40    2.50
 -17   2   0    3.56    2.27
  17   2   0   10.22    1.40
  17   2   0    9.76    1.58
  17   2   0    6.29    1.85
 -17   2   0    5.44    1.93
  17  -2   0    4.17    2.27
  17  -2   0    5.78    2.35
  17  -2   0    9.74    2.79
  17  -2   0   12.68    2.52
  17  -2   0   13.51    2.30
 -17  -2   0    8.75    1.56
  17  -2   0    8.07    2.45
 -17   2  -1   13.84    2.32
  17   2   1   18.42    2.27
  17   2   1   20.68    1.96
  17   2   1   15.47    2.25
 -17   2  -1   18.61    2.56
  17   2   1   17.86    2.32
  17   2   1   15.30    1.81
 -17   2  -1   13.31    2.26
  17   2   1   13.72    2.07
 -17   2  -1   13.04    2.46
 -17   2  -1   15.89    2.43
 -17   2  -1   21.94    2.41
  17  -2   1   14.14    2.68
  17  -2   1   12.60    2.78
  17  -2   1   18.91    2.74
 -17  -2  -1   13.43    1.81
 -17  -2  -1   18.84    1.75
  17  -2   1   21.67    2.63
 -17  -2  -1   14.75    2.04
  17  -2   1   15.51    2.92
  17  -2   1   13.07    2.65
  18   0  -5    3.09    1.99
 -18   0   5    1.99    1.80
  18   0  -5    0.34    1.88
  18   0  -5   -5.62    1.60
 -18   0   5   -0.51    1.62
  18   0  -5    1.05    1.73
 -18   0   5    3.13    1.74
 -18   0   5   -2.13    1.81
  18   0  -5    2.88    2.03
  18   0  -5   -2.23    1.88
  18   0  -4   26.36    2.22
  18   0  -4   30.68    2.99
  18   0  -4   40.78    3.43
 -18   0   4   24.50    2.12
 -18   0   4   23.11    2.09
 -18   0   4   30.09    2.78
  18   0  -4   35.81    3.02
  18   0  -4   22.42    2.15
 -18   0   4   35.19    2.91
  18   0  -3   -0.18    1.83
  18   0  -3   -1.69    1.72
 -18   0   3   -0.41    1.65
 -18   0   3    3.19    1.82
  18   0  -3   -4.26    1.73
  18   0  -3   -1.51    1.89
  18   0  -3   -2.48    1.70
 -18   0   3   -0.74    1.64
  18   0  -3   -0.83    1.71
 -18   0   3   -0.37    1.54
  18   0  -2   11.39    1.86
  18   0  -2   11.34    1.93
  18   0  -2   17.75    2.34
 -18   0   2   15.65    1.93
 -18   0   2    9.51    1.90
  18   0  -2   12.87    1.94
 -18   0   2   13.17    1.75
  18   0  -2   14.29    1.97
  18   0  -2   14.09    2.04
  18   0  -1   -3.03    1.82
  18   0  -1    2.48    1.89
  18   0  -1   -2.92    1.79
 -18   0   1   -0.23    1.94
  18   0  -1   -0.19    1.76
  18   0  -1   -0.49    2.07
 -18   0   1    2.08    1.70
 -18   0   1   -0.68    1.59
 -18   0   1    1.18    1.76
  18   0  -1    1.15    1.91
  18   0   0    4.51    1.98
 -18   0   0    1.86    1.50
  18   0   0    2.79    2.11
 -18   0   0    3.01    1.47
  18   0   0    2.13    1.97
 -18   0   0    4.15    1.81
  18   0   0    2.80    2.27
 -18   0   0    4.38    1.95
  18   0   0    3.09    2.10
 -18   0   0    2.29    2.03
 -18   0   0    2.79    1.90
  18   0   0    0.65    2.00
 -18   0  -1   -4.02    1.88
 -18   0  -1   -0.25    1.94
 -18   0  -1    1.13    2.09
  18   0   1   -2.37    2.16
  18   0   1   -1.92    2.03
  18   0   1   -2.35    2.10
 -18   0  -1    1.15    1.61
  18   0   1   -1.38    2.02
 -18   0  -1   -1.24    1.90
  18   0   1   -3.59    2.31
  18   0   1    0.30    2.25
 -18   0  -1   -0.53    1.65
  18   1  -5   15.17    1.96
  18   1  -5   17.14    1.72
  18   1  -5   20.80    2.07
  18   1  -5   22.05    3.58
 -18   1   5   16.84    1.83
 -18   1   5   13.23    2.32
 -18   1   5   15.60    2.34
  18   1  -5   18.60    1.98
 -18   1   5   19.60    1.71
  18   1  -5   19.36    1.69
 -18   1   5   19.46    2.25
 -18   1   5   20.09    2.18
 -18  -1   5   18.57    1.81
  18  -1  -5   25.25    2.50
  18  -1  -5   16.69    2.25
  18  -1  -5   19.06    2.47
  18  -1  -5   15.86    2.49
  18  -1  -5   19.39    2.42
  18  -1  -5   16.60    2.29
 -18  -1   5   19.02    1.61
 -18  -1   5   18.48    1.61
 -18  -1   5   16.12    1.76
 -18   1   4    8.73    1.71
  18   1  -4    7.94    1.88
 -18   1   4   12.89    1.97
 -18   1   4    8.07    1.57
 -18   1   4    7.27    1.97
  18   1  -4   10.22    1.52
  18   1  -4    5.10    1.68
  18   1  -4    6.27    1.81
 -18   1   4    8.64    2.10
  18   1  -4    9.20    2.13
 -18   1   4    7.71    2.15
  18   1  -4    8.84    1.59
  18  -1  -4    5.49    2.20
  18  -1  -4    6.60    2.21
 -18  -1   4    6.65    1.62
 -18  -1   4    8.59    1.49
  18  -1  -4    9.35    2.17
 -18  -1   4    9.65    1.47
  18  -1  -4   11.61    2.24
 -18  -1   4    7.52    1.63
  18  -1  -4    8.77    2.47
  18  -1  -4    9.87    2.19
 -18   1   3    7.11    1.70
 -18   1   3    3.36    2.21
  18   1  -3   10.49    1.92
 -18   1   3    2.52    1.99
  18   1  -3    7.24    1.97
  18   1  -3    7.84    1.57
  18   1  -3    6.43    1.85
  18   1  -3    7.93    1.57
 -18   1   3    8.31    2.02
 -18   1   3    8.28    1.81
  18   1  -3    8.44    1.74
 -18   1   3    5.65    1.58
  18  -1  -3    5.00    2.04
 -18  -1   3    7.32    1.68
 -18  -1   3    7.85    1.48
  18  -1  -3    5.02    2.02
  18  -1  -3    7.34    2.19
  18  -1  -3    4.64    2.28
  18  -1  -3    5.40    2.00
  18  -1  -3   11.39    2.36
 -18  -1   3    6.69    1.43
 -18  -1   3    5.22    1.62
  18   1  -2    5.12    1.57
 -18   1   2    7.38    1.62
  18   1  -2    7.64    2.00
 -18   1   2    7.29    1.95
  18   1  -2    8.27    3.09
 -18   1   2    5.32    1.75
  18   1  -2    8.58    1.83
  18   1  -2    4.48    1.77
 -18   1   2    5.09    1.79
  18   1  -2    9.32    1.58
 -18   1   2    4.00    1.96
 -18   1   2    4.88    1.91
  18  -1  -2    6.32    2.10
  18  -1  -2    6.89    2.23
  18  -1  -2    9.27    2.46
  18  -1  -2    9.19    2.14
 -18  -1   2    8.38    1.58
  18  -1  -2    4.85    2.10
 -18  -1   2    4.46    1.69
 -18  -1   2    6.24    1.47
 -18  -1   2    4.41    1.69
  18  -1  -2    7.66    2.11
  18   1  -1   47.76    3.47
  18   1  -1   53.34    3.07
  18   1  -1   55.30    3.45
 -18   1   1   54.60    3.53
  18   1  -1   50.72    3.56
  18   1  -1   44.81    3.31
 -18   1   1   40.62    3.54
 -18   1   1   54.64    3.24
 -18   1   1   46.95    3.76
  18   1  -1   56.90    3.08
 -18   1   1   51.23    3.69
 -18   1   1   47.01    3.68
 -18  -1   1   45.44    3.20
 -18  -1   1   50.15    2.88
  18  -1  -1   54.22    3.85
  18  -1  -1   54.10    3.96
  18  -1  -1   49.00    4.19
  18  -1  -1   50.89    3.86
  18  -1  -1   56.18    4.03
 -18  -1   1   49.27    2.90
 -18  -1   1   50.81    3.14
  18  -1  -1   51.61    3.90
 -18   1   0    2.94    1.92
  18   1   0   -1.78    2.04
 -18   1   0    0.68    2.09
 -18   1   0    0.53    2.08
  18   1   0    2.80    1.75
 -18   1   0    0.86    1.92
  18   1   0   -0.52    1.91
  18   1   0    3.41    1.90
  18   1   0    2.13    1.94
  18   1   0    1.97    1.82
 -18   1   0    3.46    1.70
  18  -1   0    0.18    2.47
 -18  -1   0    0.55    1.87
 -18  -1   0   -0.13    1.60
  18  -1   0   -0.04    2.17
  18  -1   0   -1.44    2.24
  18  -1   0   -1.91    2.14
 -18  -1   0    0.60    1.90
  18  -1   0    0.59    2.15
  18  -1   0    4.79    2.33
 -18  -1   0   -0.93    1.63
 -18   1  -1    6.80    2.45
 -18   1  -1    5.57    2.12
 -18   1  -1    5.13    2.14
 -18   1  -1    4.90    1.79
 -18   1  -1    5.15    2.08
  18   1   1    4.98    2.14
  18   1   1    5.32    2.19
  18   1   1    4.15    2.37
  18   1   1    6.13    2.18
  18   1   1    4.63    1.94
  18   1   1    6.76    2.09
 -18   1  -1    4.58    2.14
 -18  -1  -1    3.71    2.00
  18  -1   1   -1.50    2.52
 -18  -1  -1    4.34    2.07
 -18  -1  -1    7.12    1.71
  18  -1   1   -1.05    2.43
  18  -1   1    3.83    2.46
  18  -1   1    5.97    2.58
  18  -1   1    5.48    2.45
  18  -1   1    0.51    3.40
 -18  -1  -1    4.44    1.84
  19   0  -3   -3.04    1.87
 -19   0   3   -0.20    1.69
 -19   0   3    1.50    1.92
  19   0  -3    1.62    2.26
 -19   0   3    1.99    1.86
  19   0  -3   -2.71    1.80
  19   0  -3    0.63    2.03
  19   0  -3    1.97    2.02
 -19   0   3   -2.86    1.86
  19   0  -3   -0.15    2.23
 -19   0   2   22.45    2.08
 -19   0   2   22.25    2.26
  19   0  -2   24.28    2.66
 -19   0   2   23.83    2.23
  19   0  -2   20.85    2.25
  19   0  -2   36.04    3.40
  19   0  -2   35.46    3.55
  19   0  -2   22.58    2.36
  19   0  -2   19.33    2.19
 -19   0   1    0.70    3.38
 -19   0   1    2.09    2.01
  19   0  -1   -0.57    1.95
  19   0  -1    1.17    2.37
 -19   0   1   -1.39    1.88
 -19   0   1   -2.22    1.75
  19   0  -1    0.37    2.08
  19   0  -1   -1.44    2.09
  19   0  -1   -2.92    2.09
  19   0  -1   -0.94    2.02


 _exptl_absorpt_process_details 'SADABS 2014/5'
 _exptl_absorpt_correction_type   multi-scan
 _exptl_absorpt_correction_T_max  0.7450
 _exptl_absorpt_correction_T_min  0.7025
 _exptl_special_details
)
 The following wavelength and cell were deduced by SADABS from the
 direction cosines etc. They are given here for emergency use only:
 CELL 0.71071    9.867    4.798   16.888   90.004  101.294   90.001
)

_computing_structure_solution     'SHELXT 2014/4 (Sheldrick, 2014)'
;
_shelx_hkl_checksum              18224
loop_
_space_group_symop_operation_xyz
'x, y, z'
'-x, y+1/2, -z+1/2'
'-x, -y, -z'
'x, -y-1/2, z-1/2'
loop_
_atom_site_label
_atom_site_type_symbol
_atom_site_fract_x
_atom_site_fract_y
_atom_site_fract_z
_atom_site_U_iso_or_equiv
_atom_site_adp_type
_atom_site_occupancy
_atom_site_site_symmetry_order
_atom_site_calc_flag
_atom_site_refinement_flags_posn
_atom_site_refinement_flags_adp
_atom_site_refinement_flags_occupancy
_atom_site_disorder_assembly
_atom_site_disorder_group
N1 N 0.59176(16) 0.4429(5) 0.1443(2) 0.0477(7) Uani 1 1 d . . . . .
H1 H 0.607(2) 0.307(8) 0.092(4) 0.072 Uiso 1 1 d . U . . .
H2 H 0.598(2) 0.604(9) 0.108(4) 0.072 Uiso 1 1 d . U . . .
H3 H 0.533(2) 0.417(7) 0.155(4) 0.072 Uiso 1 1 d . U . . .
O1 O 0.56554(12) 0.8144(4) 0.33177(18) 0.0570(7) Uani 1 1 d . . . . .
O2 O 0.62384(16) 0.5507(4) 0.50788(19) 0.0697(8) Uani 1 1 d . . . . .
C1 C 0.60637(16) 0.6108(5) 0.3828(2) 0.0412(7) Uani 1 1 d . . . . .
C2 C 0.6460(6) 0.416(2) 0.2797(9) 0.0339(14) Uani 0.663(9) 1 d . . P A 1
H21 H 0.650925 0.221868 0.311031 0.041 Uiso 0.663(9) 1 calc R U P A 1
C3 C 0.7279(3) 0.5483(13) 0.2828(5) 0.0557(14) Uani 0.663(9) 1 d . . P A 1
H31 H 0.720375 0.739902 0.251386 0.067 Uiso 0.663(9) 1 calc R U P A 1
H32 H 0.757898 0.550882 0.377274 0.067 Uiso 0.663(9) 1 calc R U P A 1
C4 C 0.7761(4) 0.3972(18) 0.1945(9) 0.112(3) Uani 0.663(9) 1 d . . P A 1
H41 H 0.743901 0.382081 0.101879 0.134 Uiso 0.663(9) 1 calc R U P A 1
H42 H 0.786410 0.209548 0.230285 0.134 Uiso 0.663(9) 1 calc R U P A 1
S1 S 0.8693(2) 0.5546(11) 0.1841(5) 0.165(2) Uani 0.663(9) 1 d D . P A 1
C5 C 0.9254(13) 0.492(5) 0.324(2) 0.248(10) Uiso 0.663(9) 1 d D . P A 1
H51 H 0.977551 0.572917 0.325605 0.371 Uiso 0.663(9) 1 calc R U P A 1
H52 H 0.902707 0.571263 0.397668 0.371 Uiso 0.663(9) 1 calc R U P A 1
H53 H 0.930766 0.294303 0.337061 0.371 Uiso 0.663(9) 1 calc R U P A 1
C2B C 0.6334(13) 0.452(5) 0.301(2) 0.0339(14) Uani 0.337(9) 1 d . . P A 2
H22B H 0.617217 0.269751 0.331682 0.041 Uiso 0.337(9) 1 calc R U P A 2
C3B C 0.7265(10) 0.391(5) 0.2962(18) 0.108(6) Uiso 0.337(9) 1 d . . P A 2
H33B H 0.752751 0.303096 0.381748 0.130 Uiso 0.337(9) 1 calc R U P A 2
H34B H 0.729584 0.264351 0.220793 0.130 Uiso 0.337(9) 1 calc R U P A 2
C4B C 0.7664(16) 0.639(6) 0.278(3) 0.167(10) Uiso 0.337(9) 1 d . . P A 2
H43B H 0.757456 0.775722 0.345718 0.200 Uiso 0.337(9) 1 calc R U P A 2
H44B H 0.745580 0.714190 0.186446 0.200 Uiso 0.337(9) 1 calc R U P A 2
S1B S 0.8804(6) 0.562(5) 0.299(3) 0.382(15) Uani 0.337(9) 1 d D . P A 2
C5B C 0.888(3) 0.285(9) 0.378(6) 0.39(4) Uiso 0.337(9) 1 d D . P A 2
H54B H 0.942829 0.223695 0.395409 0.578 Uiso 0.337(9) 1 calc R U P A 2
H55B H 0.870659 0.311411 0.464657 0.578 Uiso 0.337(9) 1 calc R U P A 2
H56B H 0.854122 0.147500 0.324488 0.578 Uiso 0.337(9) 1 calc R U P A 2
loop_
_atom_site_aniso_label
_atom_site_aniso_U_11
_atom_site_aniso_U_22
_atom_site_aniso_U_33
_atom_site_aniso_U_23
_atom_site_aniso_U_13
_atom_site_aniso_U_12
N1 0.0676(16) 0.0439(13) 0.0332(13) -0.0068(9) 0.0140(10) -0.0051(10)
O1 0.0743(14) 0.0463(12) 0.0526(12) -0.0013(8) 0.0177(9) 0.0118(9)
O2 0.121(2) 0.0555(13) 0.0338(12) 0.0013(8) 0.0186(11) 0.0019(11)
C1 0.0587(16) 0.0346(13) 0.0324(13) -0.0007(9) 0.0144(10) -0.0086(11)
C2 0.049(4) 0.032(3) 0.026(3) -0.006(2) 0.0235(18) 0.015(2)
C3 0.049(3) 0.055(3) 0.064(3) 0.001(2) 0.013(2) -0.001(2)
C4 0.080(4) 0.122(6) 0.150(7) -0.048(5) 0.062(4) -0.005(4)
S1 0.102(2) 0.216(4) 0.196(4) 0.004(3) 0.076(2) -0.0317(19)
C2B 0.049(4) 0.032(3) 0.026(3) -0.006(2) 0.0235(18) 0.015(2)
S1B 0.107(6) 0.57(3) 0.48(3) 0.28(3) 0.094(12) -0.026(10)
loop_
_atom_type_symbol
_atom_type_description
_atom_type_scat_dispersion_real
_atom_type_scat_dispersion_imag
_atom_type_scat_source
C C 0.0033 0.0016 'International Tables Vol C Tables 4.2.6.8 and 6.1.1.4'
H H 0.0000 0.0000 'International Tables Vol C Tables 4.2.6.8 and 6.1.1.4'
N N 0.0061 0.0033 'International Tables Vol C Tables 4.2.6.8 and 6.1.1.4'
O O 0.0106 0.0060 'International Tables Vol C Tables 4.2.6.8 and 6.1.1.4'
S S 0.1246 0.1234 'International Tables Vol C Tables 4.2.6.8 and 6.1.1.4'
loop_
_geom_angle_atom_site_label_1
_geom_angle_atom_site_label_2
_geom_angle_atom_site_label_3
_geom_angle
C2 N1 H1 105(2)
C2B N1 H1 118(2)
C2 N1 H2 111(2)
C2B N1 H2 109(2)
H1 N1 H2 109(3)
C2 N1 H3 109.7(19)
C2B N1 H3 99(2)
H1 N1 H3 112(3)
H2 N1 H3 110(3)
C2B C1 O1 117.3(11)
C2B C1 O2 116.7(11)
O1 C1 O2 126.0(2)
O1 C1 C2 117.6(4)
O2 C1 C2 116.3(4)
N1 C2 C3 112.7(6)
N1 C2 C1 105.1(5)
C3 C2 C1 103.6(6)
N1 C2 H21 111.7
C3 C2 H21 111.7
C1 C2 H21 111.7
C4 C3 C2 112.7(5)
C4 C3 H31 109.1
C2 C3 H31 109.1
C4 C3 H32 109.1
C2 C3 H32 109.1
H31 C3 H32 107.8
C3 C4 S1 114.9(5)
C3 C4 H41 108.5
S1 C4 H41 108.5
C3 C4 H42 108.5
S1 C4 H42 108.5
H41 C4 H42 107.5
C5 S1 C4 105.2(9)
S1 C5 H51 109.5
S1 C5 H52 109.5
H51 C5 H52 109.5
S1 C5 H53 109.5
H51 C5 H53 109.5
H52 C5 H53 109.5
C1 C2B N1 119.9(15)
C1 C2B C3B 127.4(19)
N1 C2B C3B 102.6(11)
C1 C2B H22B 100.5
N1 C2B H22B 100.5
C3B C2B H22B 100.5
C4B C3B C2B 110(2)
C4B C3B H33B 109.6
C2B C3B H33B 109.6
C4B C3B H34B 109.6
C2B C3B H34B 109.6
H33B C3B H34B 108.1
C3B C4B S1B 108.6(19)
C3B C4B H43B 110.0
S1B C4B H43B 110.0
C3B C4B H44B 110.0
S1B C4B H44B 110.0
H43B C4B H44B 108.3
C4B S1B C5B 101(2)
S1B C5B H54B 109.5
S1B C5B H55B 109.5
H54B C5B H55B 109.5
S1B C5B H56B 109.5
H54B C5B H56B 109.5
H55B C5B H56B 109.5
loop_
_geom_bond_atom_site_label_1
_geom_bond_atom_site_label_2
_geom_bond_distance
N1 C2 1.469(10)
N1 C2B 1.57(2)
N1 H1 0.91(4)
N1 H2 0.87(4)
N1 H3 1.03(4)
O1 C1 1.243(3)
O2 C1 1.246(3)
C1 C2B 1.260(16)
C1 C2 1.619(6)
C2 C3 1.518(11)
C2 H21 0.9800
C3 C4 1.491(8)
C3 H31 0.9700
C3 H32 0.9700
C4 S1 1.768(7)
C4 H41 0.9700
C4 H42 0.9700
S1 C5 1.55(2)
C5 H51 0.9600
C5 H52 0.9600
C5 H53 0.9600
C2B C3B 1.61(2)
C2B H22B 0.9800
C3B C4B 1.40(3)
C3B H33B 0.9700
C3B H34B 0.9700
C4B S1B 1.93(3)
C4B H43B 0.9700
C4B H44B 0.9700
S1B C5B 1.54(3)
C5B H54B 0.9600
C5B H55B 0.9600
C5B H56B 0.9600
loop_
_geom_torsion_atom_site_label_1
_geom_torsion_atom_site_label_2
_geom_torsion_atom_site_label_3
_geom_torsion_atom_site_label_4
_geom_torsion
O1 C1 C2 N1 -28.2(7)
O2 C1 C2 N1 155.9(4)
O1 C1 C2 C3 90.2(6)
O2 C1 C2 C3 -85.7(6)
N1 C2 C3 C4 -67.7(8)
C1 C2 C3 C4 179.3(6)
C2 C3 C4 S1 175.8(6)
C3 C4 S1 C5 74.7(12)
O1 C1 C2B N1 -22(2)
O2 C1 C2B N1 158.4(12)
O1 C1 C2B C3B 117(2)
O2 C1 C2B C3B -62(2)
C1 C2B C3B C4B -57(3)
N1 C2B C3B C4B 87(2)
C2B C3B C4B S1B 172.1(17)
