#------------------------------------------------------------------------------
#$Date: 2017-02-10 05:55:50 +0200 (Fri, 10 Feb 2017) $
#$Revision: 191959 $
#$URL: file:///home/coder/svn-repositories/cod/cif/7/22/76/7227668.cif $
#------------------------------------------------------------------------------
#
# This file is available in the Crystallography Open Database (COD),
# http://www.crystallography.net/
#
# All data on this site have been placed in the public domain by the
# contributors.
#
data_7227668
loop_
_publ_author_name
'Hisaki, Ichiro'
'Affendy, Emilya N. Q.'
'Tohnai, Norimitsu'
_publ_section_title
;
 Precise Elucidations on Stacking Manners of Hydrogen-Bonded
 Two-Dimensional Organic Frameworks Composed of X-Shaped \p-Conjugated
 Systems
;
_journal_name_full               CrystEngComm
_journal_paper_doi               10.1039/C7CE00183E
_journal_year                    2017
_chemical_formula_moiety         'C38 H22 N4 O8'
_chemical_formula_sum            'C38 H22 N4 O8'
_chemical_formula_weight         662.61
_space_group_crystal_system      triclinic
_space_group_IT_number           2
_space_group_name_Hall           '-P 1'
_space_group_name_H-M_alt        'P -1'
_symmetry_space_group_name_Hall  '-P 1'
_symmetry_space_group_name_H-M   'P -1'
_atom_sites_solution_hydrogens   geom
_atom_sites_solution_primary     direct
_atom_sites_solution_secondary   difmap
_audit_update_record
;
2017-02-07 deposited with the CCDC.
2017-02-09 downloaded from the CCDC.
;
_cell_angle_alpha                75.237(2)
_cell_angle_beta                 82.3657(18)
_cell_angle_gamma                88.5990(19)
_cell_formula_units_Z            1
_cell_length_a                   5.60869(10)
_cell_length_b                   14.7726(4)
_cell_length_c                   18.7946(5)
_cell_measurement_reflns_used    8334
_cell_measurement_temperature    113
_cell_measurement_theta_max      75.77
_cell_measurement_theta_min      4.41
_cell_volume                     1492.40(6)
_computing_cell_refinement       'CrysAlisPro 1.171.39.5a (Rigaku OD, 2015)'
_computing_data_collection       'CrysAlisPro 1.171.39.5a (Rigaku OD, 2015)'
_computing_data_reduction        'CrysAlisPro 1.171.39.5a (Rigaku OD, 2015)'
_computing_molecular_graphics    'CrystalStructure 4.2'
_computing_publication_material  'CrystalStructure 4.2 (Rigaku, 2015)'
_computing_structure_refinement  'SHELXL Version 2014/7 (Sheldrick, 2008)'
_computing_structure_solution    'SHELXT Version 2014/5 (Sheldrick, 2014)'
_diffrn_ambient_temperature      113
_diffrn_detector_area_resol_mean 5.811
_diffrn_measured_fraction_theta_full 0.995
_diffrn_measured_fraction_theta_max 0.962
_diffrn_measurement_device_type  'Rigaku XtaLAB P200'
_diffrn_measurement_method       \w
_diffrn_radiation_type           'Cu K\a'
_diffrn_radiation_wavelength     1.54187
_diffrn_reflns_av_R_equivalents  0.0339
_diffrn_reflns_Laue_measured_fraction_full 0.995
_diffrn_reflns_Laue_measured_fraction_max 0.962
_diffrn_reflns_limit_h_max       5
_diffrn_reflns_limit_h_min       -6
_diffrn_reflns_limit_k_max       18
_diffrn_reflns_limit_k_min       -18
_diffrn_reflns_limit_l_max       23
_diffrn_reflns_limit_l_min       -23
_diffrn_reflns_number            15411
_diffrn_reflns_point_group_measured_fraction_full 0.995
_diffrn_reflns_point_group_measured_fraction_max 0.962
_diffrn_reflns_theta_full        67.687
_diffrn_reflns_theta_max         76.152
_diffrn_reflns_theta_min         4.411
_diffrn_standards_number         0
_exptl_absorpt_coefficient_mu    0.440
_exptl_absorpt_correction_T_max  0.957
_exptl_absorpt_correction_T_min  0.573
_exptl_absorpt_correction_type   multi-scan
_exptl_absorpt_process_details
;
CrysAlisPro 1.171.39.5a (Rigaku Oxford Diffraction, 2015)
Empirical absorption correction using spherical harmonics,
 implemented in SCALE3 ABSPACK scaling algorithm.
;
_exptl_crystal_colour            yellow
_exptl_crystal_density_diffrn    0.737
_exptl_crystal_density_method    'not measured'
_exptl_crystal_description       block
_exptl_crystal_F_000             342.00
_exptl_crystal_recrystallization_method
'Re-crystallisation from solvent: DMF, o-dichlorobenzene'
_exptl_crystal_size_max          0.600
_exptl_crystal_size_mid          0.300
_exptl_crystal_size_min          0.100
_refine_diff_density_max         0.40
_refine_diff_density_min         -0.33
_refine_ls_extinction_method     none
_refine_ls_goodness_of_fit_ref   1.107
_refine_ls_hydrogen_treatment    constr
_refine_ls_number_parameters     226
_refine_ls_number_reflns         5985
_refine_ls_number_restraints     0
_refine_ls_R_factor_all          0.0819
_refine_ls_R_factor_gt           0.0765
_refine_ls_shift/su_max          0.000
_refine_ls_structure_factor_coef Fsqd
_refine_ls_weighting_details
'w = 1/[\s^2^(Fo^2^)+(0.1564P)^2^+1.0531P] where P=(Fo^2^+2Fc^2^)/3'
_refine_ls_weighting_scheme      calc
_refine_ls_wR_factor_gt          0.2660
_refine_ls_wR_factor_ref         0.2723
_reflns_Friedel_coverage         0.000
_reflns_number_gt                5159
_reflns_number_total             5985
_reflns_threshold_expression     F^2^>2.0\s(F^2^)
_cod_data_source_file            c7ce00183e2.cif
_cod_data_source_block           X-PyQ-1_oDCB
_cod_database_code               7227668
_shelx_res_file
;

    shelxl.res created by SHELXL-2014/7

TITL X-PyQ-1_oDCB
CELL  1.54187 5.60869 14.77260 18.79460 75.23700 82.36570 88.59900
ZERR  1 0.00010 0.00040 0.00050 0.00200 0.00180 0.00190
LATT 1
SFAC C H N O
UNIT 38 22 4 8
L.S. 10
FMAP 2
PLAN 25
WPDB -2
HTAB
BOND $H
CONF
LIST 4
TEMP -160.0
ACTA
SIZE 0.600 0.300 0.100
ABIN
WGHT    0.156400    1.053100
FVAR       0.66947
O1    4    1.624478    0.085648    0.431775    11.00000    0.03966    0.08515 =
         0.03557    0.02821   -0.01303    0.00110
O2    4    1.256442    0.023293    0.444603    11.00000    0.04180    0.07969 =
         0.03225    0.03067   -0.00842   -0.00173
AFIX  83
H2O   2    1.296780   -0.008097    0.485073    11.00000   -1.20000
AFIX   0
O3    4   -0.243746    0.999625   -0.057360    11.00000    0.03631    0.03119 =
         0.04968   -0.00699   -0.00871    0.01868
O4    4   -0.381062    0.891372    0.046556    11.00000    0.03303    0.04079 =
         0.04303   -0.01005   -0.00096    0.01991
AFIX  83
H4O   2   -0.490902    0.930697    0.048479    11.00000   -1.20000
AFIX   0
N1    3    1.077190    0.365168    0.127278    11.00000    0.02467    0.02696 =
         0.01960    0.00516   -0.00127    0.00959
N2    3    0.605458    0.615878    0.005344    11.00000    0.02209    0.02432 =
         0.02223    0.00169   -0.00212    0.00939
C1    1    1.268823    0.313187    0.124009    11.00000    0.02380    0.02462 =
         0.02049    0.00470   -0.00255    0.00683
C2    1    1.036930    0.431324    0.063951    11.00000    0.02275    0.02438 =
         0.01860    0.00256   -0.00291    0.00753
C3    1    0.835406    0.488231    0.066023    11.00000    0.02338    0.02673 =
         0.01821    0.00252    0.00104    0.00847
AFIX  43
H3    2    0.725442    0.480368    0.110235    11.00000   -1.20000
AFIX   0
C4    1    0.797399    0.556941    0.002228    11.00000    0.02091    0.02397 =
         0.02147    0.00092   -0.00235    0.00709
C5    1    0.573040    0.680334   -0.054967    11.00000    0.02194    0.02402 =
         0.02174    0.00187   -0.00266    0.00637
C6    1    1.313282    0.250621    0.197310    11.00000    0.02634    0.02941 =
         0.01985    0.00564   -0.00120    0.01235
C7    1    1.141402    0.183752    0.236584    11.00000    0.02524    0.04155 =
         0.02707    0.01093   -0.00425    0.00831
AFIX  43
H7    2    0.999818    0.176176    0.215914    11.00000   -1.20000
AFIX   0
C8    1    1.176281    0.128351    0.305590    11.00000    0.02763    0.04845 =
         0.03011    0.01490   -0.00107    0.00514
AFIX  43
H8    2    1.060018    0.082152    0.332224    11.00000   -1.20000
AFIX   0
C9    1    1.383034    0.140693    0.335839    11.00000    0.03008    0.04557 =
         0.02164    0.00995   -0.00149    0.01318
C10   1    1.553142    0.208171    0.296898    11.00000    0.02897    0.04296 =
         0.02483    0.00476   -0.00667    0.01103
AFIX  43
H10   2    1.692726    0.216868    0.318120    11.00000   -1.20000
AFIX   0
C11   1    1.520068    0.262938    0.227126    11.00000    0.02744    0.03296 =
         0.02535    0.00616   -0.00271    0.00783
AFIX  43
H11   2    1.637636    0.308365    0.200056    11.00000   -1.20000
AFIX   0
C12   1    1.430379    0.080246    0.409045    11.00000    0.02870    0.05791 =
         0.02589    0.01414   -0.00203    0.00934
C13   1    0.369798    0.745512   -0.046036    11.00000    0.02320    0.02436 =
         0.02399   -0.00143   -0.00585    0.00931
C14   1    0.185043    0.714587    0.012290    11.00000    0.02570    0.02545 =
         0.02715    0.00134   -0.00368    0.00835
AFIX  43
H14   2    0.191959    0.653602    0.044240    11.00000   -1.20000
AFIX   0
C15   1   -0.008394    0.771582    0.024264    11.00000    0.02580    0.02952 =
         0.02915   -0.00421   -0.00180    0.00850
AFIX  43
H15   2   -0.133338    0.749578    0.063984    11.00000   -1.20000
AFIX   0
C16   1   -0.018664    0.861480   -0.022342    11.00000    0.02652    0.02713 =
         0.03301   -0.00805   -0.00920    0.01262
C17   1    0.167650    0.893507   -0.079645    11.00000    0.03266    0.02453 =
         0.03051   -0.00063   -0.00885    0.00993
AFIX  43
H17   2    0.162124    0.954991   -0.110897    11.00000   -1.20000
AFIX   0
C18   1    0.359849    0.836841   -0.091414    11.00000    0.02798    0.02593 =
         0.02817    0.00133   -0.00438    0.00844
AFIX  43
H18   2    0.486357    0.859667   -0.130439    11.00000   -1.20000
AFIX   0
C19   1   -0.226597    0.922867   -0.011362    11.00000    0.02935    0.02910 =
         0.03622   -0.00945   -0.00945    0.01239
HKLF 4

REM  X-PyQ-1_oDCB
REM R1 =  0.0765 for    5159 Fo > 4sig(Fo)  and  0.0819 for all    5985 data
REM    226 parameters refined using      0 restraints

END

WGHT      0.1564      1.0531

REM Instructions for potential hydrogen bonds
EQIV $1 -x+3, -y, -z+1
HTAB O2 O1_$1
EQIV $2 -x-1, -y+2, -z
HTAB O4 O3_$2

REM Highest difference peak  0.398,  deepest hole -0.330,  1-sigma level  0.082
Q1    1   0.6366  0.6805 -0.0867  11.00000  0.05    0.40
Q2    1   0.0805  0.8801 -0.0421  11.00000  0.05    0.37
Q3    1  -0.0933  0.8947 -0.0163  11.00000  0.05    0.35
Q4    1   0.9384  0.4601  0.0673  11.00000  0.05    0.33
Q5    1   1.0648  0.3921  0.0925  11.00000  0.05    0.33
Q6    1   0.2362  0.7262 -0.0306  11.00000  0.05    0.29
Q7    1   1.5535  0.2250  0.2499  11.00000  0.05    0.29
Q8    1   0.3633  0.7908 -0.0636  11.00000  0.05    0.28
Q9    1   1.7655  0.3983  0.5699  11.00000  0.05    0.28
Q10   1   1.1571 -0.3237  0.4036  11.00000  0.05    0.28
Q11   1   1.1210  0.4399  0.0415  11.00000  0.05    0.28
Q12   1   1.6198  0.0392  0.4175  11.00000  0.05    0.28
Q13   1  -0.0123  0.8393 -0.0032  11.00000  0.05    0.27
Q14   1   2.0149  0.3988  0.3926  11.00000  0.05    0.26
Q15   1   1.2922  0.3947  0.5879  11.00000  0.05    0.25
Q16   1   1.3756  0.1179  0.3791  11.00000  0.05    0.25
Q17   1   0.9908 -0.3778  0.4113  11.00000  0.05    0.25
Q18   1  -0.3583  0.9029  0.0108  11.00000  0.05    0.25
Q19   1   1.4113  0.2656  0.2215  11.00000  0.05    0.25
Q20   1   1.2174  0.2139  0.2231  11.00000  0.05    0.24
Q21   1   1.3919  0.3814  0.5815  11.00000  0.05    0.23
Q22   1   1.5260  0.4004  0.5802  11.00000  0.05    0.23
Q23   1   2.1196  0.4081  0.4089  11.00000  0.05    0.23
Q24   1  -0.2777  0.9140  0.0264  11.00000  0.05    0.23
Q25   1   1.2327  0.1542  0.3225  11.00000  0.05    0.23
;
_shelx_res_checksum              33726
_shelx_fab_file
;
    1    0    0      3.44      0.00
    2    0    0     -7.33      0.00
    3    0    0      8.05      0.00
    4    0    0      3.15      0.00
    5    0    0     -2.41      0.00
    6    0    0      0.34      0.00
   -6    1    0      0.07      0.00
   -5    1    0     -0.14      0.00
   -4    1    0     -1.80      0.00
   -3    1    0     -5.72      0.00
   -2    1    0      8.85      0.00
   -1    1    0     19.82      0.00
    1    1    0     -9.55      0.00
    2    1    0      3.06      0.00
    3    1    0     -4.23      0.00
    4    1    0     -0.61      0.00
    5    1    0      0.46      0.00
    6    1    0     -0.19      0.00
   -6    2    0      0.50      0.00
   -5    2    0     -3.22      0.00
   -4    2    0      3.65      0.00
   -3    2    0      6.60      0.00
   -2    2    0    -20.81      0.00
   -1    2    0     -7.38      0.00
    0    2    0     37.09      0.00
    1    2    0    -33.38      0.00
    2    2    0     -6.81      0.00
    3    2    0      3.59      0.00
    4    2    0     -0.76      0.00
    5    2    0     -0.91      0.00
    6    2    0      0.42      0.00
   -6    3    0      0.11      0.00
   -5    3    0      1.16      0.00
   -4    3    0     -2.04      0.00
   -3    3    0     -4.48      0.00
   -2    3    0     12.12      0.00
   -1    3    0      4.73      0.00
    0    3    0    -27.11      0.00
    1    3    0     -4.01      0.00
    2    3    0      1.97      0.00
    3    3    0      1.41      0.00
    4    3    0      0.97      0.00
    5    3    0      0.41      0.00
    6    3    0      0.17      0.00
   -6    4    0     -1.20      0.00
   -5    4    0     -1.82      0.00
   -4    4    0      6.16      0.00
   -3    4    0      2.54      0.00
   -2    4    0    -19.08      0.00
   -1    4    0      0.30      0.00
    0    4    0     -7.46      0.00
    1    4    0    -14.40      0.00
    2    4    0      0.42      0.00
    3    4    0      8.23      0.00
    4    4    0      0.93      0.00
    5    4    0     -1.57      0.00
    6    4    0      0.19      0.00
   -6    5    0      0.72      0.00
   -5    5    0      1.16      0.00
   -4    5    0     -5.05      0.00
   -3    5    0     -1.91      0.00
   -2    5    0     -5.37      0.00
   -1    5    0    -18.54      0.00
    0    5    0     14.39      0.00
    1    5    0      6.10      0.00
    2    5    0     -0.80      0.00
    3    5    0      2.59      0.00
    4    5    0     -0.26      0.00
    5    5    0      0.86      0.00
    6    5    0     -0.12      0.00
   -6    6    0     -0.72      0.00
   -5    6    0     -1.42      0.00
   -4    6    0      4.68      0.00
   -3    6    0      0.86      0.00
   -2    6    0    -14.10      0.00
   -1    6    0     16.93      0.00
    0    6    0     16.23      0.00
    1    6    0     -6.45      0.00
    2    6    0      1.78      0.00
    3    6    0      1.50      0.00
    4    6    0      1.09      0.00
    5    6    0     -0.03      0.00
    6    6    0     -0.12      0.00
   -6    7    0      0.97      0.00
   -5    7    0      0.57      0.00
   -4    7    0     -3.47      0.00
   -3    7    0      3.36      0.00
   -2    7    0     -3.66      0.00
   -1    7    0      3.01      0.00
    0    7    0     -4.61      0.00
    1    7    0      0.02      0.00
    2    7    0     -1.38      0.00
    3    7    0      3.70      0.00
    4    7    0     -1.79      0.00
    5    7    0     -0.59      0.00
    6    7    0      0.90      0.00
   -6    8    0     -1.48      0.00
   -5    8    0     -0.09      0.00
   -4    8    0      3.62      0.00
   -3    8    0     -3.01      0.00
   -2    8    0     -8.52      0.00
   -1    8    0     19.48      0.00
    0    8    0     -6.88      0.00
    1    8    0     -9.96      0.00
    2    8    0      0.37      0.00
    3    8    0     -1.63      0.00
    4    8    0     -1.19      0.00
    5    8    0      0.25      0.00
    6    8    0      0.15      0.00
   -5    9    0      0.39      0.00
   -4    9    0     -1.70      0.00
   -3    9    0      0.30      0.00
   -2    9    0      1.77      0.00
   -1    9    0      7.40      0.00
    0    9    0     -3.96      0.00
    1    9    0     -1.86      0.00
    2    9    0     -1.45      0.00
    3    9    0      1.57      0.00
    4    9    0     -0.18      0.00
    5    9    0      0.03      0.00
    6    9    0      0.35      0.00
   -5   10    0      0.32      0.00
   -4   10    0      1.79      0.00
   -3   10    0     -2.21      0.00
   -2   10    0     -2.32      0.00
   -1   10    0      8.97      0.00
    0   10    0     -5.45      0.00
    1   10    0     -3.25      0.00
    2   10    0     -0.08      0.00
    3   10    0     -0.79      0.00
    4   10    0     -1.11      0.00
    5   10    0      0.26      0.00
   -5   11    0      0.12      0.00
   -4   11    0     -0.62      0.00
   -3   11    0      0.33      0.00
   -2   11    0      2.02      0.00
   -1   11    0      3.24      0.00
    0   11    0     -2.47      0.00
    1   11    0     -4.74      0.00
    2   11    0      0.68      0.00
    3   11    0     -0.70      0.00
    4   11    0     -0.81      0.00
    5   11    0     -0.05      0.00
   -5   12    0      0.32      0.00
   -4   12    0      1.09      0.00
   -3   12    0      0.15      0.00
   -2   12    0      1.74      0.00
   -1   12    0      0.81      0.00
    0   12    0     -3.10      0.00
    1   12    0     -1.31      0.00
    2   12    0      2.14      0.00
    3   12    0     -0.15      0.00
    4   12    0     -0.48      0.00
    5   12    0     -0.36      0.00
   -4   13    0      1.01      0.00
   -3   13    0     -1.44      0.00
   -2   13    0     -1.28      0.00
   -1   13    0      3.65      0.00
    0   13    0     -1.03      0.00
    1   13    0     -1.23      0.00
    2   13    0      2.48      0.00
    3   13    0     -0.78      0.00
    4   13    0     -0.93      0.00
   -4   14    0      0.29      0.00
   -3   14    0     -1.90      0.00
   -2   14    0      1.31      0.00
   -1   14    0     -1.30      0.00
    0   14    0     -0.78      0.00
    1   14    0      1.53      0.00
    2   14    0      1.02      0.00
    3   14    0      0.63      0.00
    4   14    0      0.11      0.00
   -3   15    0     -1.85      0.00
   -2   15    0     -0.06      0.00
   -1   15    0      2.33      0.00
    0   15    0      0.24      0.00
    1   15    0      0.78      0.00
    2   15    0      2.55      0.00
    3   15    0     -0.23      0.00
   -3   16    0     -0.93      0.00
   -2   16    0      2.46      0.00
   -1   16    0     -0.32      0.00
    0   16    0     -0.19      0.00
    1   16    0      1.04      0.00
    2   16    0      0.04      0.00
    3   16    0     -0.40      0.00
   -2   17    0      0.56      0.00
   -1   17    0     -0.12      0.00
    0   17    0     -0.95      0.00
    1   17    0     -0.49      0.00
   -1  -17    1      0.06      0.00
    0  -17    1     -0.22      0.00
    1  -17    1     -1.04      0.00
    2  -17    1     -0.40      0.00
   -2  -16    1      0.54      0.00
   -1  -16    1      0.75      0.00
    0  -16    1     -0.76      0.00
    1  -16    1     -1.66      0.00
    2  -16    1      0.47      0.00
    3  -16    1      0.33      0.00
   -3  -15    1      0.33      0.00
   -2  -15    1     -1.57      0.00
   -1  -15    1      0.20      0.00
    0  -15    1     -0.09      0.00
    1  -15    1     -3.59      0.00
    2  -15    1      1.18      0.00
    3  -15    1      0.91      0.00
   -4  -14    1      0.08      0.00
   -3  -14    1     -0.81      0.00
   -2  -14    1      0.29      0.00
   -1  -14    1      2.30      0.00
    0  -14    1     -0.12      0.00
    1  -14    1     -2.01      0.00
    2  -14    1      2.40      0.00
    3  -14    1     -0.37      0.00
    4  -14    1     -0.89      0.00
   -4  -13    1      0.48      0.00
   -3  -13    1      0.26      0.00
   -2  -13    1      0.89      0.00
   -1  -13    1      2.22      0.00
    0  -13    1      0.94      0.00
    1  -13    1     -3.92      0.00
    2  -13    1      2.84      0.00
    3  -13    1     -1.51      0.00
    4  -13    1     -0.70      0.00
   -4  -12    1      0.44      0.00
   -3  -12    1     -0.35      0.00
   -2  -12    1      0.29      0.00
   -1  -12    1      2.56      0.00
    0  -12    1      0.36      0.00
    1  -12    1     -1.57      0.00
    2  -12    1      2.74      0.00
    3  -12    1     -1.82      0.00
    4  -12    1     -0.65      0.00
   -5  -11    1     -0.12      0.00
   -4  -11    1     -0.86      0.00
   -3  -11    1     -2.52      0.00
   -2  -11    1      3.54      0.00
   -1  -11    1      2.23      0.00
    0  -11    1     -0.48      0.00
    1  -11    1     -1.67      0.00
    2  -11    1      2.25      0.00
    3  -11    1     -1.04      0.00
    4  -11    1     -0.19      0.00
    5  -11    1      0.19      0.00
   -5  -10    1     -0.10      0.00
   -4  -10    1     -0.55      0.00
   -3  -10    1      0.64      0.00
   -2  -10    1      2.37      0.00
   -1  -10    1     -0.56      0.00
    0  -10    1      1.70      0.00
    1  -10    1     -4.24      0.00
    2  -10    1      4.72      0.00
    3  -10    1      0.82      0.00
    4  -10    1     -0.06      0.00
    5  -10    1      0.18      0.00
   -5   -9    1      0.10      0.00
   -4   -9    1     -0.69      0.00
   -3   -9    1     -2.64      0.00
   -2   -9    1      2.91      0.00
   -1   -9    1      3.32      0.00
    0   -9    1     -4.00      0.00
    1   -9    1      1.34      0.00
    2   -9    1      2.40      0.00
    3   -9    1     -3.10      0.00
    4   -9    1     -0.19      0.00
    5   -9    1      0.29      0.00
   -6   -8    1     -0.21      0.00
   -5   -8    1     -0.01      0.00
   -4   -8    1     -0.14      0.00
   -3   -8    1      0.24      0.00
   -2   -8    1     -0.49      0.00
   -1   -8    1     -2.37      0.00
    0   -8    1     -5.25      0.00
    1   -8    1     -8.60      0.00
    2   -8    1      5.48      0.00
    3   -8    1     -0.18      0.00
    4   -8    1     -0.55      0.00
    5   -8    1     -0.03      0.00
    6   -8    1      0.27      0.00
   -6   -7    1      0.13      0.00
   -5   -7    1      1.09      0.00
   -4   -7    1     -1.29      0.00
   -3   -7    1     -1.41      0.00
   -2   -7    1      3.95      0.00
   -1   -7    1      0.55      0.00
    0   -7    1    -14.49      0.00
    1   -7    1     15.38      0.00
    2   -7    1     10.04      0.00
    3   -7    1     -3.22      0.00
    4   -7    1      0.64      0.00
    5   -7    1      2.56      0.00
    6   -7    1     -0.36      0.00
   -6   -6    1      0.82      0.00
   -5   -6    1     -0.48      0.00
   -4   -6    1     -0.68      0.00
   -3   -6    1     -2.23      0.00
   -2   -6    1     -3.65      0.00
   -1   -6    1     -0.27      0.00
    0   -6    1    -13.23      0.00
    1   -6    1      6.03      0.00
    2   -6    1      1.90      0.00
    3   -6    1      1.19      0.00
    4   -6    1     -0.59      0.00
    5   -6    1     -0.97      0.00
    6   -6    1     -0.06      0.00
   -6   -5    1      0.22      0.00
   -5   -5    1      1.19      0.00
   -4   -5    1     -2.70      0.00
   -3   -5    1     -0.04      0.00
   -2   -5    1      3.71      0.00
   -1   -5    1     -2.94      0.00
    0   -5    1    -13.50      0.00
    1   -5    1     22.52      0.00
    2   -5    1      3.66      0.00
    3   -5    1     -3.64      0.00
    4   -5    1      0.17      0.00
    5   -5    1      2.96      0.00
    6   -5    1     -0.37      0.00
   -6   -4    1      0.07      0.00
   -5   -4    1      0.77      0.00
   -4   -4    1      0.83      0.00
   -3   -4    1     -2.02      0.00
   -2   -4    1     -2.03      0.00
   -1   -4    1     11.06      0.00
    0   -4    1     16.30      0.00
    1   -4    1      6.97      0.00
    2   -4    1     -5.95      0.00
    3   -4    1      2.60      0.00
    4   -4    1     -0.23      0.00
    5   -4    1     -2.00      0.00
    6   -4    1      0.28      0.00
   -6   -3    1      0.92      0.00
   -5   -3    1      0.22      0.00
   -4   -3    1     -3.87      0.00
   -3   -3    1      5.47      0.00
   -2   -3    1      6.30      0.00
   -1   -3    1     -1.54      0.00
    0   -3    1    -14.55      0.00
    1   -3    1     10.33      0.00
    2   -3    1     -8.89      0.00
    3   -3    1     -9.43      0.00
    4   -3    1     -0.59      0.00
    5   -3    1      3.45      0.00
    6   -3    1     -0.72      0.00
   -6   -2    1     -1.08      0.00
   -5   -2    1      0.52      0.00
   -4   -2    1      3.03      0.00
   -3   -2    1     -0.45      0.00
   -2   -2    1      2.97      0.00
   -1   -2    1      5.24      0.00
    0   -2    1    -40.62      0.00
    1   -2    1    -29.18      0.00
    2   -2    1     -3.37      0.00
    3   -2    1      2.15      0.00
    4   -2    1      0.60      0.00
    5   -2    1     -1.64      0.00
    6   -2    1     -0.37      0.00
   -6   -1    1      1.80      0.00
   -5   -1    1      0.26      0.00
   -4   -1    1     -3.55      0.00
   -3   -1    1      4.79      0.00
   -2   -1    1      6.81      0.00
   -1   -1    1    -16.16      0.00
    0   -1    1    -50.73      0.00
    1   -1    1     30.08      0.00
    2   -1    1     -4.28      0.00
    3   -1    1     -6.06      0.00
    4   -1    1     -0.45      0.00
    5   -1    1      2.58      0.00
    6   -1    1     -0.62      0.00
   -6    0    1     -1.43      0.00
   -5    0    1      1.39      0.00
   -4    0    1      1.14      0.00
   -3    0    1     -3.47      0.00
   -2    0    1     -0.71      0.00
   -1    0    1     -7.05      0.00
    1    0    1     -9.68      0.00
    2    0    1     -3.20      0.00
    3    0    1      3.13      0.00
    4    0    1      1.83      0.00
    5    0    1     -2.08      0.00
    6    0    1      1.04      0.00
   -6    1    1      0.97      0.00
   -5    1    1     -0.38      0.00
   -4    1    1     -1.06      0.00
   -3    1    1      7.28      0.00
   -2    1    1      6.69      0.00
   -1    1    1    -44.69      0.00
    1    1    1     43.49      0.00
    2    1    1     -2.11      0.00
    3    1    1     -6.07      0.00
    4    1    1      2.07      0.00
    5    1    1      0.87      0.00
    6    1    1     -1.37      0.00
   -6    2    1     -0.38      0.00
   -5    2    1      1.77      0.00
   -4    2    1      0.09      0.00
   -3    2    1     -3.62      0.00
   -2    2    1      5.55      0.00
   -1    2    1     27.17      0.00
    0    2    1     67.70      0.00
    1    2    1     14.59      0.00
    2    2    1      1.69      0.00
    3    2    1      3.40      0.00
    4    2    1     -0.37      0.00
    5    2    1     -2.61      0.00
    6    2    1      0.96      0.00
   -5    3    1     -3.17      0.00
   -4    3    1     -2.20      0.00
   -3    3    1      7.41      0.00
   -2    3    1      5.69      0.00
   -1    3    1    -43.91      0.00
    0    3    1     29.66      0.00
    1    3    1      3.36      0.00
    2    3    1      0.51      0.00
    3    3    1     -9.88      0.00
    4    3    1      2.08      0.00
    5    3    1      0.96      0.00
    6    3    1     -1.47      0.00
   -5    4    1      1.00      0.00
   -4    4    1      0.29      0.00
   -3    4    1     -6.79      0.00
   -2    4    1     -2.18      0.00
   -1    4    1      7.14      0.00
    0    4    1      6.56      0.00
    1    4    1    -11.90      0.00
    2    4    1     -5.18      0.00
    3    4    1      3.44      0.00
    4    4    1     -2.31      0.00
    5    4    1     -1.23      0.00
    6    4    1      0.89      0.00
   -5    5    1     -2.95      0.00
   -4    5    1      0.21      0.00
   -3    5    1      6.23      0.00
   -2    5    1      8.06      0.00
   -1    5    1     -3.18      0.00
    0    5    1      3.49      0.00
    1    5    1      6.01      0.00
    2    5    1      0.09      0.00
    3    5    1     -2.40      0.00
    4    5    1      3.77      0.00
    5    5    1     -0.18      0.00
    6    5    1     -0.64      0.00
   -6    6    1     -0.52      0.00
   -5    6    1      1.79      0.00
   -4    6    1      1.07      0.00
   -3    6    1     -2.61      0.00
   -2    6    1     -2.92      0.00
   -1    6    1    -14.03      0.00
    0    6    1      1.50      0.00
    1    6    1     -5.48      0.00
    2    6    1     -2.63      0.00
    3    6    1      4.78      0.00
    4    6    1     -0.67      0.00
    5    6    1      0.20      0.00
    6    6    1     -0.45      0.00
   -6    7    1      0.42      0.00
   -5    7    1     -2.67      0.00
   -4    7    1     -2.55      0.00
   -3    7    1      4.31      0.00
   -2    7    1     -3.53      0.00
   -1    7    1    -15.51      0.00
    0    7    1     11.99      0.00
    1    7    1      5.15      0.00
    2    7    1     -4.86      0.00
    3    7    1     -2.43      0.00
    4    7    1      4.06      0.00
    5    7    1      0.15      0.00
    6    7    1     -0.65      0.00
   -6    8    1      0.71      0.00
   -5    8    1      1.08      0.00
   -4    8    1      1.01      0.00
   -3    8    1      3.35      0.00
   -2    8    1     -2.45      0.00
   -1    8    1     -2.47      0.00
    0    8    1      7.15      0.00
    1    8    1      1.49      0.00
    2    8    1      0.21      0.00
    3    8    1      4.03      0.00
    4    8    1     -0.11      0.00
    5    8    1     -0.12      0.00
    6    8    1     -0.10      0.00
   -5    9    1     -1.08      0.00
   -4    9    1     -1.23      0.00
   -3    9    1      3.45      0.00
   -2    9    1     -5.90      0.00
   -1    9    1     -7.59      0.00
    0    9    1      1.00      0.00
    1    9    1     -1.16      0.00
    2    9    1     -2.59      0.00
    3    9    1      0.23      0.00
    4    9    1      1.14      0.00
    5    9    1     -0.15      0.00
   -5   10    1     -0.41      0.00
   -4   10    1      0.70      0.00
   -3   10    1     -0.88      0.00
   -2   10    1     -7.17      0.00
   -1   10    1      4.38      0.00
    0   10    1      0.97      0.00
    1   10    1      0.21      0.00
    2   10    1     -2.53      0.00
    3   10    1     -0.49      0.00
    4   10    1      0.31      0.00
    5   10    1     -0.47      0.00
   -5   11    1     -0.18      0.00
   -4   11    1     -0.06      0.00
   -3   11    1      2.89      0.00
   -2   11    1     -3.55      0.00
   -1   11    1      3.42      0.00
    0   11    1      5.25      0.00
    1   11    1      0.10      0.00
    2   11    1     -2.95      0.00
    3   11    1      2.80      0.00
    4   11    1     -0.35      0.00
    5   11    1     -0.09      0.00
   -5   12    1      0.09      0.00
   -4   12    1      0.29      0.00
   -3   12    1     -0.06      0.00
   -2   12    1     -2.60      0.00
   -1   12    1      5.05      0.00
    0   12    1     -0.16      0.00
    1   12    1     -2.10      0.00
    2   12    1     -0.91      0.00
    3   12    1     -1.71      0.00
    4   12    1     -0.23      0.00
    5   12    1     -0.16      0.00
   -4   13    1     -0.01      0.00
   -3   13    1      2.83      0.00
   -2   13    1      0.17      0.00
   -1   13    1      1.96      0.00
    0   13    1      0.87      0.00
    1   13    1     -2.56      0.00
    2   13    1     -2.27      0.00
    3   13    1      0.87      0.00
    4   13    1      0.15      0.00
   -4   14    1      0.65      0.00
   -3   14    1      0.38      0.00
   -2   14    1     -1.63      0.00
   -1   14    1      1.90      0.00
    0   14    1      0.29      0.00
    1   14    1     -2.37      0.00
    2   14    1      0.44      0.00
    3   14    1      0.04      0.00
    4   14    1     -0.06      0.00
   -3   15    1      0.90      0.00
   -2   15    1     -1.77      0.00
   -1   15    1      1.33      0.00
    0   15    1      0.51      0.00
    1   15    1     -0.28      0.00
    2   15    1     -0.03      0.00
    3   15    1      0.99      0.00
   -3   16    1      0.07      0.00
   -2   16    1     -1.95      0.00
   -1   16    1      0.54      0.00
    0   16    1      1.66      0.00
    1   16    1     -0.70      0.00
    2   16    1      0.70      0.00
    3   16    1      0.74      0.00
   -2   17    1     -0.31      0.00
   -1   17    1      1.93      0.00
    0   17    1      0.54      0.00
    1   17    1      0.14      0.00
    2   17    1      1.23      0.00
   -1   18    1      0.86      0.00
    0   18    1      0.35      0.00
   -1  -17    2      0.00      0.00
    0  -17    2      0.39      0.00
    1  -17    2      0.60      0.00
   -2  -16    2     -0.27      0.00
   -1  -16    2     -1.30      0.00
    0  -16    2     -0.62      0.00
    1  -16    2      1.07      0.00
    2  -16    2     -1.16      0.00
   -3  -15    2     -0.40      0.00
   -2  -15    2     -1.26      0.00
   -1  -15    2      0.20      0.00
    0  -15    2      0.49      0.00
    1  -15    2     -0.53      0.00
    2  -15    2     -0.89      0.00
    3  -15    2      0.64      0.00
   -4  -14    2     -0.83      0.00
   -3  -14    2      0.29      0.00
   -2  -14    2     -0.08      0.00
   -1  -14    2     -1.36      0.00
    0  -14    2      0.49      0.00
    1  -14    2      1.24      0.00
    2  -14    2     -3.42      0.00
    3  -14    2      1.75      0.00
    4  -14    2      0.26      0.00
   -4  -13    2      0.94      0.00
   -3  -13    2      1.03      0.00
   -2  -13    2     -3.05      0.00
   -1  -13    2      0.79      0.00
    0  -13    2      1.22      0.00
    1  -13    2     -4.49      0.00
    2  -13    2     -1.07      0.00
    3  -13    2      1.44      0.00
    4  -13    2     -0.57      0.00
   -4  -12    2     -0.04      0.00
   -3  -12    2      0.80      0.00
   -2  -12    2     -0.67      0.00
   -1  -12    2     -0.76      0.00
    0  -12    2      3.98      0.00
    1  -12    2     -1.42      0.00
    2  -12    2     -2.58      0.00
    3  -12    2      1.33      0.00
    4  -12    2     -0.18      0.00
    5  -12    2     -0.05      0.00
   -5  -11    2     -0.05      0.00
   -4  -11    2      2.14      0.00
   -3  -11    2      2.02      0.00
   -2  -11    2     -1.48      0.00
   -1  -11    2      2.98      0.00
    0  -11    2      0.15      0.00
    1  -11    2     -5.51      0.00
    2  -11    2      2.30      0.00
    3  -11    2      0.19      0.00
    4  -11    2     -0.69      0.00
    5  -11    2     -0.42      0.00
   -5  -10    2      0.49      0.00
   -4  -10    2      0.64      0.00
   -3  -10    2     -0.48      0.00
   -2  -10    2     -0.98      0.00
   -1  -10    2      1.80      0.00
    0  -10    2      7.66      0.00
    1  -10    2     -3.36      0.00
    2  -10    2      0.88      0.00
    3  -10    2      1.27      0.00
    4  -10    2     -1.38      0.00
    5  -10    2     -0.78      0.00
   -5   -9    2     -0.14      0.00
   -4   -9    2     -0.34      0.00
   -3   -9    2     -0.84      0.00
   -2   -9    2      1.41      0.00
   -1   -9    2      1.88      0.00
    0   -9    2      4.09      0.00
    1   -9    2     -4.72      0.00
    2   -9    2      0.63      0.00
    3   -9    2     -0.67      0.00
    4   -9    2      1.24      0.00
    5   -9    2      0.44      0.00
    6   -9    2     -0.59      0.00
   -6   -8    2      0.05      0.00
   -5   -8    2     -0.64      0.00
   -4   -8    2      1.20      0.00
   -3   -8    2     -0.40      0.00
   -2   -8    2     -0.64      0.00
   -1   -8    2      7.52      0.00
    0   -8    2     10.92      0.00
    1   -8    2     -4.85      0.00
    2   -8    2      3.51      0.00
    3   -8    2      2.91      0.00
    4   -8    2     -1.92      0.00
    5   -8    2     -1.22      0.00
    6   -8    2      0.88      0.00
   -6   -7    2     -0.35      0.00
   -5   -7    2     -0.18      0.00
   -4   -7    2     -0.93      0.00
   -3   -7    2     -2.60      0.00
   -2   -7    2      1.73      0.00
   -1   -7    2     -2.02      0.00
    0   -7    2      8.77      0.00
    1   -7    2    -12.08      0.00
    2   -7    2     -3.52      0.00
    3   -7    2     -4.20      0.00
    4   -7    2      2.44      0.00
    5   -7    2      0.25      0.00
    6   -7    2     -0.50      0.00
   -6   -6    2     -0.04      0.00
   -5   -6    2     -0.56      0.00
   -4   -6    2      0.91      0.00
   -3   -6    2      0.85      0.00
   -2   -6    2     -2.21      0.00
   -1   -6    2      7.76      0.00
    0   -6    2     -4.90      0.00
    1   -6    2    -15.75      0.00
    2   -6    2     10.58      0.00
    3   -6    2      5.74      0.00
    4   -6    2     -3.34      0.00
    5   -6    2     -0.02      0.00
    6   -6    2      1.38      0.00
   -6   -5    2     -0.06      0.00
   -5   -5    2      0.03      0.00
   -4   -5    2      0.04      0.00
   -3   -5    2     -4.08      0.00
   -2   -5    2      1.04      0.00
   -1   -5    2     -2.44      0.00
    0   -5    2      1.88      0.00
    1   -5    2      1.95      0.00
    2   -5    2      8.10      0.00
    3   -5    2     -0.91      0.00
    4   -5    2      3.52      0.00
    5   -5    2      0.57      0.00
    6   -5    2     -0.52      0.00
   -6   -4    2     -0.42      0.00
   -5   -4    2      0.99      0.00
   -4   -4    2      1.16      0.00
   -3   -4    2     -3.75      0.00
   -2   -4    2     -6.40      0.00
   -1   -4    2     14.89      0.00
    0   -4    2    -12.64      0.00
    1   -4    2    -10.81      0.00
    2   -4    2     15.35      0.00
    3   -4    2      3.81      0.00
    4   -4    2     -6.07      0.00
    5   -4    2      1.09      0.00
    6   -4    2      0.83      0.00
   -6   -3    2      0.35      0.00
   -5   -3    2      0.22      0.00
   -4   -3    2     -0.46      0.00
   -3   -3    2     -0.81      0.00
   -2   -3    2     -2.29      0.00
   -1   -3    2     -1.93      0.00
    0   -3    2    -12.27      0.00
    1   -3    2     19.22      0.00
    2   -3    2     -0.37      0.00
    3   -3    2      1.89      0.00
    4   -3    2      4.28      0.00
    5   -3    2     -0.49      0.00
    6   -3    2     -0.36      0.00
   -6   -2    2     -0.44      0.00
   -5   -2    2      1.27      0.00
   -4   -2    2      0.09      0.00
   -3   -2    2     -3.84      0.00
   -2   -2    2     -2.52      0.00
   -1   -2    2     21.19      0.00
    0   -2    2     -2.43      0.00
    1   -2    2      5.44      0.00
    2   -2    2     15.60      0.00
    3   -2    2     -2.34      0.00
    4   -2    2     -5.38      0.00
    5   -2    2      1.89      0.00
    6   -2    2      0.44      0.00
   -6   -1    2      0.05      0.00
   -5   -1    2     -0.14      0.00
   -4   -1    2     -1.42      0.00
   -3   -1    2      2.27      0.00
   -2   -1    2      0.95      0.00
   -1   -1    2      4.05      0.00
    0   -1    2     -8.50      0.00
    1   -1    2    -18.58      0.00
    2   -1    2    -12.19      0.00
    3   -1    2      0.58      0.00
    4   -1    2      1.67      0.00
    5   -1    2     -0.21      0.00
    6   -1    2     -0.29      0.00
   -6    0    2     -0.47      0.00
   -5    0    2      1.34      0.00
   -4    0    2      0.38      0.00
   -3    0    2     -7.04      0.00
   -2    0    2      6.81      0.00
   -1    0    2     22.56      0.00
    0    0    2    -91.47      0.00
    1    0    2     -8.63      0.00
    2    0    2     10.44      0.00
    3    0    2     -4.88      0.00
    4    0    2     -6.97      0.00
    5    0    2      1.77      0.00
    6    0    2     -0.25      0.00
   -6    1    2      0.13      0.00
   -5    1    2     -0.64      0.00
   -4    1    2     -0.04      0.00
   -3    1    2      4.31      0.00
   -2    1    2     -4.27      0.00
   -1    1    2     11.67      0.00
    0    1    2     -2.52      0.00
    1    1    2     -6.08      0.00
    2    1    2     -5.72      0.00
    3    1    2      2.12      0.00
    4    1    2      2.91      0.00
    5    1    2      0.49      0.00
    6    1    2     -0.27      0.00
   -6    2    2     -0.53      0.00
   -5    2    2      1.90      0.00
   -4    2    2     -0.37      0.00
   -3    2    2     -6.14      0.00
   -2    2    2     10.30      0.00
   -1    2    2     12.88      0.00
    0    2    2   -105.74      0.00
    1    2    2      4.88      0.00
    2    2    2      5.71      0.00
    3    2    2     -2.49      0.00
    4    2    2     -1.96      0.00
    5    2    2      1.56      0.00
    6    2    2      0.20      0.00
   -5    3    2      0.30      0.00
   -4    3    2      0.89      0.00
   -3    3    2      4.72      0.00
   -2    3    2     -2.73      0.00
   -1    3    2     -1.73      0.00
    0    3    2     19.30      0.00
    1    3    2     13.17      0.00
    2    3    2     -4.56      0.00
    3    3    2     -0.79      0.00
    4    3    2      1.02      0.00
    5    3    2     -0.36      0.00
    6    3    2     -0.57      0.00
   -5    4    2      2.21      0.00
   -4    4    2     -3.41      0.00
   -3    4    2     -3.19      0.00
   -2    4    2     22.97      0.00
   -1    4    2      0.22      0.00
    0    4    2    -14.32      0.00
    1    4    2     10.58      0.00
    2    4    2     12.42      0.00
    3    4    2     -6.28      0.00
    4    4    2     -0.81      0.00
    5    4    2      0.59      0.00
    6    4    2     -0.15      0.00
   -5    5    2     -1.54      0.00
   -4    5    2      2.34      0.00
   -3    5    2      0.40      0.00
   -2    5    2     -6.01      0.00
   -1    5    2    -15.46      0.00
    0    5    2      2.57      0.00
    1    5    2      3.61      0.00
    2    5    2     -3.42      0.00
    3    5    2     -0.31      0.00
    4    5    2      0.18      0.00
    5    5    2     -1.06      0.00
    6    5    2     -0.38      0.00
   -5    6    2      1.29      0.00
   -4    6    2     -4.24      0.00
   -3    6    2     -5.94      0.00
   -2    6    2     14.78      0.00
   -1    6    2      2.41      0.00
    0    6    2      0.46      0.00
    1    6    2      4.75      0.00
    2    6    2      6.98      0.00
    3    6    2     -4.35      0.00
    4    6    2     -1.61      0.00
    5    6    2      0.44      0.00
    6    6    2      0.19      0.00
   -5    7    2     -1.25      0.00
   -4    7    2      4.66      0.00
   -3    7    2     -0.16      0.00
   -2    7    2      1.79      0.00
   -1    7    2     -1.24      0.00
    0    7    2      4.63      0.00
    1    7    2      4.15      0.00
    2    7    2     -0.23      0.00
    3    7    2     -1.05      0.00
    4    7    2      0.94      0.00
    5    7    2     -0.13      0.00
    6    7    2     -0.65      0.00
   -5    8    2      1.10      0.00
   -4    8    2     -4.09      0.00
   -3    8    2     -2.14      0.00
   -2    8    2      8.29      0.00
   -1    8    2    -10.34      0.00
    0    8    2     -3.04      0.00
    1    8    2      4.79      0.00
    2    8    2     -1.11      0.00
    3    8    2     -1.54      0.00
    4    8    2      0.36      0.00
    5    8    2      0.56      0.00
    6    8    2     -0.18      0.00
   -5    9    2     -0.83      0.00
   -4    9    2      2.23      0.00
   -3    9    2      1.01      0.00
   -2    9    2      2.30      0.00
   -1    9    2     -4.27      0.00
    0    9    2      1.48      0.00
    1    9    2      1.01      0.00
    2    9    2     -1.36      0.00
    3    9    2     -0.82      0.00
    4    9    2      0.96      0.00
    5    9    2      0.56      0.00
   -5   10    2      1.13      0.00
   -4   10    2     -2.34      0.00
   -3   10    2      1.72      0.00
   -2   10    2      8.21      0.00
   -1   10    2    -12.48      0.00
    0   10    2     -2.06      0.00
    1   10    2      5.30      0.00
    2   10    2      1.38      0.00
    3   10    2      0.20      0.00
    4   10    2      1.54      0.00
    5   10    2      0.45      0.00
   -5   11    2     -0.66      0.00
   -4   11    2      0.65      0.00
   -3   11    2     -0.87      0.00
   -2   11    2     -4.11      0.00
   -1   11    2     -6.58      0.00
    0   11    2     -1.99      0.00
    1   11    2      3.03      0.00
    2   11    2     -2.89      0.00
    3   11    2     -1.33      0.00
    4   11    2      1.15      0.00
    5   11    2      0.47      0.00
   -5   12    2      0.00      0.00
   -4   12    2     -1.40      0.00
   -3   12    2      1.34      0.00
   -2   12    2      0.19      0.00
   -1   12    2     -4.19      0.00
    0   12    2      3.24      0.00
    1   12    2      2.31      0.00
    2   12    2     -1.13      0.00
    3   12    2      1.18      0.00
    4   12    2      0.11      0.00
    5   12    2     -0.21      0.00
   -4   13    2      0.22      0.00
   -3   13    2      0.96      0.00
   -2   13    2     -2.09      0.00
   -1   13    2     -1.49      0.00
    0   13    2      1.72      0.00
    1   13    2      2.02      0.00
    2   13    2     -0.95      0.00
    3   13    2     -0.21      0.00
    4   13    2     -0.14      0.00
   -4   14    2     -0.67      0.00
   -3   14    2      1.49      0.00
   -2   14    2     -0.16      0.00
   -1   14    2      1.99      0.00
    0   14    2      1.25      0.00
    1   14    2     -0.18      0.00
    2   14    2     -2.32      0.00
    3   14    2     -0.88      0.00
    4   14    2      0.32      0.00
   -4   15    2     -0.66      0.00
   -3   15    2      0.46      0.00
   -2   15    2      0.75      0.00
   -1   15    2     -1.55      0.00
    0   15    2      0.17      0.00
    1   15    2     -0.63      0.00
    2   15    2     -1.57      0.00
    3   15    2     -0.17      0.00
    4   15    2     -0.02      0.00
   -3   16    2      0.97      0.00
   -2   16    2     -0.65      0.00
   -1   16    2      0.81      0.00
    0   16    2      0.39      0.00
    1   16    2     -0.25      0.00
    2   16    2     -1.03      0.00
    3   16    2     -0.66      0.00
   -2   17    2     -0.10      0.00
   -1   17    2     -1.19      0.00
    0   17    2      1.28      0.00
    1   17    2      0.03      0.00
    2   17    2     -0.81      0.00
    0   18    2     -0.01      0.00
    1   18    2     -0.91      0.00
    0  -17    3     -0.18      0.00
    1  -17    3     -0.09      0.00
   -1  -16    3     -0.65      0.00
    0  -16    3     -0.05      0.00
    1  -16    3      1.24      0.00
    2  -16    3     -0.31      0.00
   -3  -15    3     -0.30      0.00
   -2  -15    3      0.68      0.00
   -1  -15    3     -1.43      0.00
    0  -15    3     -1.38      0.00
    1  -15    3      2.29      0.00
    2  -15    3      0.21      0.00
    3  -15    3     -0.42      0.00
   -3  -14    3      0.30      0.00
   -2  -14    3     -0.88      0.00
   -1  -14    3     -1.82      0.00
    0  -14    3     -1.19      0.00
    1  -14    3      2.15      0.00
    2  -14    3     -0.70      0.00
    3  -14    3     -0.64      0.00
    4  -14    3      0.38      0.00
   -4  -13    3     -0.58      0.00
   -3  -13    3     -0.83      0.00
   -2  -13    3      1.10      0.00
   -1  -13    3     -1.17      0.00
    0  -13    3     -1.85      0.00
    1  -13    3      5.50      0.00
    2  -13    3     -1.10      0.00
    3  -13    3      0.77      0.00
    4  -13    3      0.18      0.00
   -4  -12    3     -0.14      0.00
   -3  -12    3      1.34      0.00
   -2  -12    3     -1.02      0.00
   -1  -12    3     -2.25      0.00
    0  -12    3     -0.10      0.00
    1  -12    3      1.52      0.00
    2  -12    3     -3.77      0.00
    3  -12    3     -0.18      0.00
    4  -12    3      1.22      0.00
    5  -12    3      0.39      0.00
   -5  -11    3     -0.22      0.00
   -4  -11    3     -0.17      0.00
   -3  -11    3      0.68      0.00
   -2  -11    3     -2.40      0.00
   -1  -11    3     -2.08      0.00
    0  -11    3      1.67      0.00
    1  -11    3      3.99      0.00
    2  -11    3     -5.27      0.00
    3  -11    3      0.00      0.00
    4  -11    3      0.08      0.00
    5  -11    3      0.04      0.00
   -5  -10    3     -0.39      0.00
   -4  -10    3      0.12      0.00
   -3  -10    3      1.59      0.00
   -2  -10    3      0.41      0.00
   -1  -10    3     -1.25      0.00
    0  -10    3     -1.54      0.00
    1  -10    3     -0.18      0.00
    2  -10    3     -4.60      0.00
    3  -10    3      1.52      0.00
    4  -10    3      1.00      0.00
    5  -10    3     -0.14      0.00
   -5   -9    3     -0.01      0.00
   -4   -9    3      1.41      0.00
   -3   -9    3      3.75      0.00
   -2   -9    3     -2.68      0.00
   -1   -9    3     -2.58      0.00
    0   -9    3      2.71      0.00
    1   -9    3     -2.38      0.00
    2   -9    3     -0.51      0.00
    3   -9    3      1.52      0.00
    4   -9    3     -0.29      0.00
    5   -9    3     -0.42      0.00
   -5   -8    3      0.67      0.00
   -4   -8    3      0.19      0.00
   -3   -8    3     -0.75      0.00
   -2   -8    3      0.17      0.00
   -1   -8    3      0.83      0.00
    0   -8    3      0.24      0.00
    1   -8    3     -0.28      0.00
    2   -8    3     -6.02      0.00
    3   -8    3     -0.77      0.00
    4   -8    3     -0.06      0.00
    5   -8    3     -0.40      0.00
    6   -8    3      0.08      0.00
   -6   -7    3     -0.33      0.00
   -5   -7    3     -0.97      0.00
   -4   -7    3      2.04      0.00
   -3   -7    3      2.19      0.00
   -2   -7    3     -1.47      0.00
   -1   -7    3     -1.06      0.00
    0   -7    3      7.77      0.00
    1   -7    3     -1.43      0.00
    2   -7    3      1.50      0.00
    3   -7    3      2.70      0.00
    4   -7    3      0.57      0.00
    5   -7    3     -0.99      0.00
    6   -7    3     -0.42      0.00
   -6   -6    3     -0.09      0.00
   -5   -6    3      0.33      0.00
   -4   -6    3     -0.55      0.00
   -3   -6    3     -2.17      0.00
   -2   -6    3      1.87      0.00
   -1   -6    3     -1.40      0.00
    0   -6    3     14.38      0.00
    1   -6    3      2.69      0.00
    2   -6    3     -5.50      0.00
    3   -6    3     -2.85      0.00
    4   -6    3      0.28      0.00
    5   -6    3      0.22      0.00
    6   -6    3      0.66      0.00
   -6   -5    3      0.23      0.00
   -5   -5    3     -2.33      0.00
   -4   -5    3      0.31      0.00
   -3   -5    3      1.17      0.00
   -2   -5    3     -2.74      0.00
   -1   -5    3     -5.85      0.00
    0   -5    3      4.89      0.00
    1   -5    3    -11.08      0.00
    2   -5    3     -9.99      0.00
    3   -5    3      1.99      0.00
    4   -5    3      1.40      0.00
    5   -5    3     -2.26      0.00
    6   -5    3     -0.21      0.00
   -6   -4    3     -0.66      0.00
   -5   -4    3     -0.13      0.00
   -4   -4    3     -0.24      0.00
   -3   -4    3     -0.52      0.00
   -2   -4    3      4.27      0.00
   -1   -4    3     -7.07      0.00
    0   -4    3     22.55      0.00
    1   -4    3     -8.29      0.00
    2   -4    3      6.65      0.00
    3   -4    3      1.50      0.00
    4   -4    3     -0.08      0.00
    5   -4    3      1.31      0.00
    6   -4    3      1.27      0.00
   -6   -3    3     -0.39      0.00
   -5   -3    3     -1.12      0.00
   -4   -3    3      2.34      0.00
   -3   -3    3     -3.60      0.00
   -2   -3    3     -6.86      0.00
   -1   -3    3      2.45      0.00
    0   -3    3     26.10      0.00
    1   -3    3     -8.79      0.00
    2   -3    3     -2.65      0.00
    3   -3    3      6.63      0.00
    4   -3    3      1.12      0.00
    5   -3    3     -2.49      0.00
    6   -3    3     -0.21      0.00
   -6   -2    3      0.23      0.00
   -5   -2    3      0.01      0.00
   -4   -2    3      0.06      0.00
   -3   -2    3      1.31      0.00
   -2   -2    3     -2.37      0.00
   -1   -2    3     -0.26      0.00
    0   -2    3     -5.24      0.00
    1   -2    3     -7.26      0.00
    2   -2    3      8.41      0.00
    3   -2    3      0.18      0.00
    4   -2    3     -1.67      0.00
    5   -2    3      1.66      0.00
    6   -2    3      0.56      0.00
   -6   -1    3     -0.87      0.00
   -5   -1    3     -0.83      0.00
   -4   -1    3      3.46      0.00
   -3   -1    3     -0.70      0.00
   -2   -1    3     -9.27      0.00
   -1   -1    3     -1.78      0.00
    0   -1    3     10.99      0.00
    1   -1    3     -2.41      0.00
    2   -1    3      1.17      0.00
    3   -1    3      6.98      0.00
    4   -1    3      3.15      0.00
    5   -1    3     -2.34      0.00
    6   -1    3     -0.07      0.00
   -6    0    3      0.97      0.00
   -5    0    3      0.40      0.00
   -4    0    3     -3.08      0.00
   -3    0    3      0.97      0.00
   -2    0    3     -4.30      0.00
   -1    0    3      4.09      0.00
    0    0    3      1.31      0.00
    1    0    3      2.32      0.00
    2    0    3      7.89      0.00
    3    0    3     -0.60      0.00
    4    0    3     -1.94      0.00
    5    0    3      2.35      0.00
    6    0    3      0.60      0.00
   -6    1    3     -0.83      0.00
   -5    1    3     -0.06      0.00
   -4    1    3      1.91      0.00
   -3    1    3     -3.76      0.00
   -2    1    3     -0.81      0.00
   -1    1    3      4.78      0.00
    0    1    3    -15.41      0.00
    1    1    3    -25.57      0.00
    2    1    3     -6.10      0.00
    3    1    3      4.84      0.00
    4    1    3     -1.17      0.00
    5    1    3     -2.44      0.00
    6    1    3      0.60      0.00
   -6    2    3     -0.02      0.00
   -5    2    3     -0.34      0.00
   -4    2    3     -1.10      0.00
   -3    2    3      2.77      0.00
   -2    2    3     -6.54      0.00
   -1    2    3     -2.54      0.00
    0    2    3     11.40      0.00
    1    2    3     -4.00      0.00
    2    2    3      4.48      0.00
    3    2    3     -4.75      0.00
    4    2    3     -2.08      0.00
    5    2    3      2.75      0.00
    6    2    3     -0.68      0.00
   -5    3    3     -0.54      0.00
   -4    3    3      2.59      0.00
   -3    3    3     -2.92      0.00
   -2    3    3     -8.77      0.00
   -1    3    3     51.00      0.00
    0    3    3     -8.67      0.00
    2    3    3     -3.28      0.00
    3    3    3      9.93      0.00
    4    3    3     -0.30      0.00
    5    3    3     -1.61      0.00
    6    3    3      1.09      0.00
   -5    4    3      0.09      0.00
   -4    4    3     -0.84      0.00
   -3    4    3      2.44      0.00
   -2    4    3     -1.91      0.00
   -1    4    3     -4.78      0.00
    0    4    3    -46.56      0.00
    1    4    3     -4.77      0.00
    2    4    3      1.31      0.00
    3    4    3     -6.92      0.00
    4    4    3     -0.30      0.00
    5    4    3      2.57      0.00
    6    4    3     -0.80      0.00
   -5    5    3      1.44      0.00
   -4    5    3      0.84      0.00
   -3    5    3     -1.85      0.00
   -2    5    3     -4.16      0.00
   -1    5    3     30.10      0.00
    0    5    3     -9.56      0.00
    1    5    3    -14.93      0.00
    2    5    3     -2.89      0.00
    3    5    3      3.34      0.00
    4    5    3     -2.22      0.00
    5    5    3     -0.83      0.00
    6    5    3      1.11      0.00
   -5    6    3     -0.42      0.00
   -4    6    3      0.07      0.00
   -3    6    3      2.21      0.00
   -2    6    3      8.61      0.00
   -1    6    3      0.18      0.00
    0    6    3    -20.35      0.00
    1    6    3      9.82      0.00
    2    6    3      4.23      0.00
    3    6    3     -2.77      0.00
    4    6    3      1.59      0.00
    5    6    3     -0.13      0.00
    6    6    3     -0.38      0.00
   -5    7    3      1.76      0.00
   -4    7    3      0.91      0.00
   -3    7    3     -5.79      0.00
   -2    7    3     -3.12      0.00
   -1    7    3      6.61      0.00
    0    7    3      1.92      0.00
    1    7    3    -10.54      0.00
    2    7    3      5.50      0.00
    3    7    3      3.54      0.00
    4    7    3     -3.07      0.00
    5    7    3     -0.58      0.00
    6    7    3      0.66      0.00
   -5    8    3     -1.37      0.00
   -4    8    3     -0.68      0.00
   -3    8    3     -1.74      0.00
   -2    8    3      3.58      0.00
   -1    8    3     -1.29      0.00
    0    8    3      2.76      0.00
    1    8    3     10.32      0.00
    2    8    3      4.87      0.00
    3    8    3     -3.65      0.00
    4    8    3      1.02      0.00
    5    8    3     -0.38      0.00
    6    8    3     -0.31      0.00
   -5    9    3      1.26      0.00
   -4    9    3      2.57      0.00
   -3    9    3     -3.17      0.00
   -2    9    3      0.70      0.00
   -1    9    3      8.85      0.00
    0    9    3      3.32      0.00
    1    9    3     -2.59      0.00
    2    9    3      4.06      0.00
    3    9    3      2.47      0.00
    4    9    3     -2.23      0.00
    5    9    3     -0.41      0.00
   -5   10    3     -0.55      0.00
   -4   10    3     -1.15      0.00
   -3   10    3     -1.68      0.00
   -2   10    3      2.64      0.00
   -1   10    3     -0.74      0.00
    0   10    3     -1.55      0.00
    1   10    3     -1.27      0.00
    2   10    3      1.74      0.00
    3   10    3     -0.36      0.00
    4   10    3     -0.38      0.00
    5   10    3      0.27      0.00
   -5   11    3      0.52      0.00
   -4   11    3      1.72      0.00
   -3   11    3     -2.75      0.00
   -2   11    3      5.69      0.00
   -1   11    3      3.26      0.00
    0   11    3     -4.55      0.00
    1   11    3      0.71      0.00
    2   11    3      3.95      0.00
    3   11    3     -0.69      0.00
    4   11    3      0.43      0.00
    5   11    3      0.46      0.00
   -5   12    3      0.04      0.00
   -4   12    3     -1.16      0.00
   -3   12    3     -0.70      0.00
   -2   12    3      2.59      0.00
   -1   12    3     -4.55      0.00
    0   12    3     -3.24      0.00
    1   12    3      1.40      0.00
    2   12    3     -0.67      0.00
    3   12    3      0.97      0.00
    4   12    3      0.65      0.00
    5   12    3      0.79      0.00
   -4   13    3      0.14      0.00
   -3   13    3     -2.96      0.00
   -2   13    3      2.07      0.00
   -1   13    3     -2.09      0.00
    0   13    3     -3.34      0.00
    1   13    3      1.12      0.00
    2   13    3      1.80      0.00
    3   13    3     -1.50      0.00
    4   13    3      0.43      0.00
    5   13    3      0.51      0.00
   -4   14    3     -0.58      0.00
   -3   14    3      0.82      0.00
   -2   14    3      0.85      0.00
   -1   14    3     -4.25      0.00
    0   14    3     -0.72      0.00
    1   14    3      1.32      0.00
    2   14    3      0.11      0.00
    3   14    3      1.07      0.00
    4   14    3     -0.11      0.00
   -4   15    3     -0.03      0.00
   -3   15    3     -0.45      0.00
   -2   15    3      0.57      0.00
   -1   15    3      0.47      0.00
    0   15    3     -1.19      0.00
    1   15    3      0.79      0.00
    2   15    3      0.42      0.00
    3   15    3     -0.72      0.00
    4   15    3      0.12      0.00
   -3   16    3     -0.13      0.00
   -2   16    3      0.71      0.00
   -1   16    3     -1.22      0.00
    0   16    3     -1.61      0.00
    1   16    3      0.78      0.00
    2   16    3     -0.27      0.00
    3   16    3      0.15      0.00
   -2   17    3      0.40      0.00
   -1   17    3     -0.44      0.00
    0   17    3     -0.89      0.00
    1   17    3      0.71      0.00
    2   17    3     -0.13      0.00
    0   18    3     -0.07      0.00
    1   18    3      0.79      0.00
   -1  -16    4      0.29      0.00
    0  -16    4      1.00      0.00
    1  -16    4     -0.27      0.00
    2  -16    4      0.47      0.00
   -2  -15    4      0.80      0.00
   -1  -15    4      0.75      0.00
    0  -15    4     -0.05      0.00
    1  -15    4      0.07      0.00
    2  -15    4      0.85      0.00
    3  -15    4     -0.59      0.00
   -3  -14    4      0.07      0.00
   -2  -14    4      0.02      0.00
   -1  -14    4      0.33      0.00
    0  -14    4      0.61      0.00
    1  -14    4     -0.47      0.00
    2  -14    4      1.41      0.00
    3  -14    4     -0.25      0.00
    4  -14    4     -0.13      0.00
   -3  -13    4     -0.67      0.00
   -2  -13    4      1.80      0.00
   -1  -13    4     -0.26      0.00
    0  -13    4     -2.60      0.00
    1  -13    4      1.82      0.00
    2  -13    4      0.93      0.00
    3  -13    4     -1.45      0.00
    4  -13    4      0.38      0.00
   -4  -12    4      0.41      0.00
   -3  -12    4     -0.75      0.00
   -2  -12    4      0.44      0.00
   -1  -12    4      1.74      0.00
    0  -12    4     -3.99      0.00
    1  -12    4     -0.13      0.00
    2  -12    4      4.15      0.00
    3  -12    4      0.32      0.00
    4  -12    4     -0.38      0.00
   -4  -11    4     -1.13      0.00
   -3  -11    4     -1.00      0.00
   -2  -11    4      2.14      0.00
   -1  -11    4     -2.09      0.00
    0  -11    4     -2.39      0.00
    1  -11    4      4.40      0.00
    2  -11    4      0.04      0.00
    3  -11    4     -1.23      0.00
    4  -11    4      1.70      0.00
    5  -11    4      0.65      0.00
   -5  -10    4     -0.31      0.00
   -4  -10    4      0.21      0.00
   -3  -10    4     -0.66      0.00
   -2  -10    4     -1.72      0.00
   -1  -10    4      0.61      0.00
    0  -10    4     -6.28      0.00
    1  -10    4      4.35      0.00
    2  -10    4      1.96      0.00
    3  -10    4     -2.05      0.00
    4  -10    4     -0.77      0.00
    5  -10    4      0.35      0.00
   -5   -9    4      0.03      0.00
   -4   -9    4     -1.56      0.00
   -3   -9    4     -1.28      0.00
   -2   -9    4      0.99      0.00
   -1   -9    4     -3.46      0.00
    0   -9    4     -0.06      0.00
    1   -9    4      8.95      0.00
    2   -9    4     -4.66      0.00
    3   -9    4     -0.23      0.00
    4   -9    4      0.71      0.00
    5   -9    4     -0.19      0.00
   -5   -8    4      0.23      0.00
   -4   -8    4     -0.72      0.00
   -3   -8    4      2.44      0.00
   -2   -8    4      0.90      0.00
   -1   -8    4     -1.45      0.00
    0   -8    4    -10.25      0.00
    1   -8    4      3.38      0.00
    2   -8    4     -0.04      0.00
    3   -8    4     -0.94      0.00
    4   -8    4      0.61      0.00
    5   -8    4      0.97      0.00
    6   -8    4     -0.39      0.00
   -5   -7    4      0.60      0.00
   -4   -7    4      0.18      0.00
   -3   -7    4      1.80      0.00
   -2   -7    4     -1.03      0.00
   -1   -7    4     -0.51      0.00
    0   -7    4     -4.95      0.00
    1   -7    4      3.20      0.00
    2   -7    4     -7.76      0.00
    3   -7    4      0.42      0.00
    4   -7    4     -1.54      0.00
    5   -7    4     -1.50      0.00
    6   -7    4      0.78      0.00
   -6   -6    4     -0.29      0.00
   -5   -6    4      0.66      0.00
   -4   -6    4      0.03      0.00
   -3   -6    4      1.71      0.00
   -2   -6    4      4.82      0.00
   -1   -6    4     -0.05      0.00
    0   -6    4     -8.22      0.00
    1   -6    4      0.44      0.00
    2   -6    4     -1.80      0.00
    3   -6    4     -4.37      0.00
    4   -6    4      1.15      0.00
    5   -6    4      1.06      0.00
    6   -6    4     -1.57      0.00
   -6   -5    4     -0.04      0.00
   -5   -5    4     -0.08      0.00
   -4   -5    4      1.56      0.00
   -3   -5    4      3.95      0.00
   -2   -5    4     -0.13      0.00
   -1   -5    4      0.95      0.00
    0   -5    4     -2.13      0.00
    1   -5    4      5.98      0.00
    2   -5    4      0.06      0.00
    3   -5    4      2.51      0.00
    4   -5    4     -1.55      0.00
    5   -5    4     -1.34      0.00
    6   -5    4      0.75      0.00
   -6   -4    4      0.53      0.00
   -5   -4    4     -0.48      0.00
   -4   -4    4     -2.20      0.00
   -3   -4    4     -1.45      0.00
   -2   -4    4      7.65      0.00
   -1   -4    4     -9.89      0.00
    0   -4    4     -8.19      0.00
    1   -4    4     14.16      0.00
    2   -4    4     -8.22      0.00
    3   -4    4     -8.68      0.00
    4   -4    4      3.44      0.00
    5   -4    4      0.73      0.00
    6   -4    4     -1.34      0.00
   -6   -3    4     -0.20      0.00
   -5   -3    4     -0.89      0.00
   -4   -3    4     -0.23      0.00
   -3   -3    4      3.18      0.00
   -2   -3    4     -0.32      0.00
   -1   -3    4     -6.33      0.00
    0   -3    4     15.19      0.00
    1   -3    4     -7.85      0.00
    2   -3    4     -2.64      0.00
    3   -3    4      2.24      0.00
    4   -3    4     -2.33      0.00
    5   -3    4     -1.35      0.00
    6   -3    4      1.23      0.00
   -6   -2    4      0.52      0.00
   -5   -2    4     -0.38      0.00
   -4   -2    4     -1.68      0.00
   -3   -2    4     -1.95      0.00
   -2   -2    4     11.06      0.00
   -1   -2    4    -17.89      0.00
    0   -2    4     36.08      0.00
    1   -2    4     31.09      0.00
    2   -2    4     -7.78      0.00
    3   -2    4     -2.61      0.00
    4   -2    4      5.77      0.00
    5   -2    4     -0.41      0.00
    6   -2    4     -0.78      0.00
   -6   -1    4     -0.38      0.00
   -5   -1    4     -1.12      0.00
   -4   -1    4      1.08      0.00
   -3   -1    4     -0.18      0.00
   -2   -1    4     -4.63      0.00
   -1   -1    4      1.76      0.00
    0   -1    4     42.26      0.00
    1   -1    4    -14.01      0.00
    2   -1    4      2.62      0.00
    3   -1    4      1.57      0.00
    4   -1    4     -2.52      0.00
    5   -1    4     -0.77      0.00
    6   -1    4      0.56      0.00
   -6    0    4      0.69      0.00
   -5    0    4     -0.89      0.00
   -4    0    4     -0.22      0.00
   -3    0    4      4.19      0.00
   -2    0    4      1.40      0.00
   -1    0    4    -24.41      0.00
    0    0    4     20.89      0.00
    1    0    4      9.51      0.00
    2    0    4    -11.58      0.00
    3    0    4     -0.69      0.00
    4    0    4      5.00      0.00
    5    0    4     -1.19      0.00
    6    0    4     -0.81      0.00
   -6    1    4      0.11      0.00
   -5    1    4     -0.72      0.00
   -4    1    4      1.93      0.00
   -3    1    4     -2.41      0.00
   -2    1    4     -6.61      0.00
   -1    1    4      2.34      0.00
    0    1    4     -6.47      0.00
    1    1    4     -6.13      0.00
    2    1    4      7.42      0.00
    3    1    4      2.50      0.00
    4    1    4     -0.53      0.00
    5    1    4     -0.15      0.00
    6    1    4      0.71      0.00
   -6    2    4      1.12      0.00
   -5    2    4      0.09      0.00
   -4    2    4     -3.13      0.00
   -3    2    4      3.70      0.00
   -2    2    4      1.40      0.00
   -1    2    4    -25.02      0.00
    0    2    4     34.62      0.00
    1    2    4      6.14      0.00
    2    2    4     -8.80      0.00
    3    2    4      2.89      0.00
    4    2    4      3.82      0.00
    5    2    4     -0.96      0.00
    6    2    4      0.19      0.00
   -5    3    4      0.69      0.00
   -4    3    4      1.45      0.00
   -3    3    4     -3.11      0.00
   -2    3    4     -1.84      0.00
   -1    3    4    -19.08      0.00
    0    3    4    -12.09      0.00
    1    3    4    -11.46      0.00
    2    3    4      0.58      0.00
    3    3    4     -0.44      0.00
    4    3    4     -1.71      0.00
    5    3    4      0.23      0.00
    6    3    4      0.71      0.00
   -5    4    4     -1.59      0.00
   -4    4    4      0.43      0.00
   -3    4    4      7.12      0.00
   -2    4    4    -10.31      0.00
   -1    4    4     -1.25      0.00
    0    4    4     74.83      0.00
    1    4    4     10.39      0.00
    2    4    4     -8.49      0.00
    3    4    4      4.76      0.00
    4    4    4      1.91      0.00
    5    4    4     -0.29      0.00
    6    4    4     -0.12      0.00
   -5    5    4      0.71      0.00
   -4    5    4      0.18      0.00
   -3    5    4     -1.54      0.00
   -2    5    4     -1.06      0.00
   -1    5    4      7.39      0.00
    0    5    4    -18.35      0.00
    1    5    4     -5.20      0.00
    2    5    4      5.94      0.00
    3    5    4      0.73      0.00
    4    5    4     -0.92      0.00
    5    5    4      0.20      0.00
    6    5    4      0.55      0.00
   -5    6    4     -1.47      0.00
   -4    6    4      1.05      0.00
   -3    6    4      7.88      0.00
   -2    6    4    -19.03      0.00
   -1    6    4     -1.62      0.00
    0    6    4      6.38      0.00
    1    6    4     -9.99      0.00
    2    6    4    -13.17      0.00
    3    6    4     -0.27      0.00
    4    6    4     -0.38      0.00
    5    6    4      0.36      0.00
    6    6    4      0.12      0.00
   -5    7    4      1.02      0.00
   -4    7    4     -0.78      0.00
   -3    7    4     -2.12      0.00
   -2    7    4      2.46      0.00
   -1    7    4     20.85      0.00
    0    7    4    -16.99      0.00
    1    7    4     -8.41      0.00
    2    7    4     -1.69      0.00
    3    7    4      0.17      0.00
    4    7    4     -0.77      0.00
    5    7    4     -0.39      0.00
    6    7    4      0.84      0.00
   -5    8    4     -0.62      0.00
   -4    8    4      1.86      0.00
   -3    8    4      4.46      0.00
   -2    8    4     -6.77      0.00
   -1    8    4      6.22      0.00
    0    8    4      0.79      0.00
    1    8    4     -6.82      0.00
    2    8    4     -2.44      0.00
    3    8    4      1.55      0.00
    4    8    4     -0.37      0.00
    5    8    4     -0.53      0.00
    6    8    4      0.37      0.00
   -5    9    4      0.89      0.00
   -4    9    4     -2.42      0.00
   -3    9    4     -3.12      0.00
   -2    9    4     -1.23      0.00
   -1    9    4      1.04      0.00
    0    9    4      0.30      0.00
    1    9    4     -0.38      0.00
    2    9    4      0.78      0.00
    3    9    4     -0.11      0.00
    4    9    4      0.01      0.00
    5    9    4     -0.40      0.00
   -5   10    4     -1.12      0.00
   -4   10    4      2.27      0.00
   -3   10    4      2.25      0.00
   -2   10    4     -4.69      0.00
   -1   10    4      7.11      0.00
    0   10    4      5.89      0.00
    1   10    4     -2.52      0.00
    2   10    4      0.16      0.00
    3   10    4      1.33      0.00
    4   10    4     -0.55      0.00
    5   10    4     -0.89      0.00
    6   10    4      0.09      0.00
   -5   11    4      0.82      0.00
   -4   11    4     -1.10      0.00
   -3   11    4     -0.37      0.00
   -2   11    4      0.65      0.00
   -1   11    4      1.08      0.00
    0   11    4      3.63      0.00
    1   11    4     -4.63      0.00
    2   11    4      4.02      0.00
    3   11    4      1.21      0.00
    4   11    4     -1.79      0.00
    5   11    4     -0.74      0.00
   -5   12    4     -0.86      0.00
   -4   12    4      2.03      0.00
   -3   12    4     -1.33      0.00
   -2   12    4     -3.02      0.00
   -1   12    4      6.52      0.00
    0   12    4     -0.69      0.00
    1   12    4     -1.86      0.00
    2   12    4      0.63      0.00
    3   12    4     -0.34      0.00
    4   12    4     -0.13      0.00
    5   12    4     -0.16      0.00
   -4   13    4     -0.39      0.00
   -3   13    4     -1.11      0.00
   -2   13    4      1.05      0.00
   -1   13    4      2.64      0.00
    0   13    4      0.49      0.00
    1   13    4     -2.20      0.00
    2   13    4      1.41      0.00
    3   13    4      1.72      0.00
    4   13    4     -0.33      0.00
    5   13    4     -0.10      0.00
   -4   14    4      0.85      0.00
   -3   14    4     -2.06      0.00
   -2   14    4      0.46      0.00
   -1   14    4      1.44      0.00
    0   14    4     -1.66      0.00
    1   14    4     -0.50      0.00
    2   14    4      1.51      0.00
    3   14    4     -0.79      0.00
    4   14    4     -0.13      0.00
   -4   15    4     -0.28      0.00
   -3   15    4     -1.14      0.00
   -2   15    4      0.46      0.00
   -1   15    4     -0.42      0.00
    0   15    4     -1.07      0.00
    1   15    4     -0.53      0.00
    2   15    4      0.14      0.00
    3   15    4      0.01      0.00
    4   15    4      0.11      0.00
   -3   16    4     -0.41      0.00
   -2   16    4      1.15      0.00
   -1   16    4      0.03      0.00
    0   16    4     -0.46      0.00
    1   16    4     -0.78      0.00
    2   16    4      0.92      0.00
    3   16    4      0.72      0.00
   -2   17    4      0.36      0.00
   -1   17    4     -0.06      0.00
    0   17    4     -1.47      0.00
    1   17    4     -0.11      0.00
    2   17    4      0.41      0.00
    0   18    4     -0.96      0.00
    1   18    4      0.61      0.00
   -1  -16    5      0.64      0.00
    0  -16    5      0.57      0.00
    1  -16    5     -1.10      0.00
   -2  -15    5      0.65      0.00
   -1  -15    5      1.03      0.00
    0  -15    5      1.34      0.00
    1  -15    5     -1.05      0.00
    2  -15    5      0.55      0.00
   -2  -14    5      0.04      0.00
   -1  -14    5      0.93      0.00
    0  -14    5      1.44      0.00
    1  -14    5     -2.46      0.00
    2  -14    5      1.80      0.00
    3  -14    5      0.32      0.00
   -3  -13    5     -0.28      0.00
   -2  -13    5     -1.16      0.00
   -1  -13    5      1.14      0.00
    0  -13    5      2.99      0.00
    1  -13    5     -1.88      0.00
    2  -13    5      0.79      0.00
    3  -13    5     -0.66      0.00
    4  -13    5     -0.09      0.00
   -4  -12    5     -0.76      0.00
   -3  -12    5     -1.17      0.00
   -2  -12    5      1.14      0.00
   -1  -12    5      1.60      0.00
    0  -12    5      1.85      0.00
    1  -12    5     -0.83      0.00
    2  -12    5      1.26      0.00
    3  -12    5      0.46      0.00
    4  -12    5     -0.99      0.00
   -4  -11    5     -0.02      0.00
   -3  -11    5     -0.55      0.00
   -2  -11    5      0.01      0.00
   -1  -11    5      2.65      0.00
    0  -11    5     -0.01      0.00
    1  -11    5     -4.91      0.00
    2  -11    5      2.70      0.00
    3  -11    5      0.36      0.00
    4  -11    5     -0.09      0.00
    5  -11    5     -0.04      0.00
   -5  -10    5      0.40      0.00
   -4  -10    5      0.28      0.00
   -3  -10    5     -1.48      0.00
   -2  -10    5      0.64      0.00
   -1  -10    5      1.71      0.00
    0  -10    5     -1.28      0.00
    1  -10    5     -3.45      0.00
    2  -10    5      1.53      0.00
    3  -10    5      0.08      0.00
    4  -10    5     -0.50      0.00
    5  -10    5      0.55      0.00
   -5   -9    5     -0.04      0.00
   -4   -9    5      0.35      0.00
   -3   -9    5     -1.56      0.00
   -2   -9    5      0.36      0.00
   -1   -9    5      2.68      0.00
    0   -9    5     -4.06      0.00
    1   -9    5     -4.37      0.00
    2   -9    5      6.05      0.00
    3   -9    5      0.69      0.00
    4   -9    5      0.11      0.00
    5   -9    5      0.27      0.00
   -5   -8    5     -0.21      0.00
   -4   -8    5      0.31      0.00
   -3   -8    5     -1.81      0.00
   -2   -8    5     -1.58      0.00
   -1   -8    5     -2.15      0.00
    0   -8    5     -1.05      0.00
    1   -8    5      4.59      0.00
    2   -8    5      6.77      0.00
    3   -8    5     -1.01      0.00
    4   -8    5     -0.95      0.00
    5   -8    5      0.90      0.00
    6   -8    5     -0.95      0.00
   -5   -7    5      0.80      0.00
   -4   -7    5     -1.56      0.00
   -3   -7    5     -2.71      0.00
   -2   -7    5     -0.06      0.00
   -1   -7    5      3.45      0.00
    0   -7    5     -8.14      0.00
    1   -7    5      4.31      0.00
    2   -7    5      3.00      0.00
    3   -7    5      0.80      0.00
    4   -7    5     -0.13      0.00
    5   -7    5      0.29      0.00
    6   -7    5      0.15      0.00
   -6   -6    5     -0.08      0.00
   -5   -6    5      0.36      0.00
   -4   -6    5      0.05      0.00
   -3   -6    5      1.35      0.00
   -2   -6    5     -1.89      0.00
   -1   -6    5     -1.70      0.00
    0   -6    5     -8.53      0.00
    1   -6    5      4.57      0.00
    2   -6    5      1.32      0.00
    3   -6    5     -1.16      0.00
    4   -6    5     -0.75      0.00
    5   -6    5      0.14      0.00
    6   -6    5     -0.60      0.00
   -6   -5    5      0.08      0.00
   -5   -5    5      1.92      0.00
   -4   -5    5     -1.07      0.00
   -3   -5    5     -1.72      0.00
   -2   -5    5      0.30      0.00
   -1   -5    5     10.04      0.00
    0   -5    5     -6.13      0.00
    1   -5    5     -1.10      0.00
    2   -5    5     -3.52      0.00
    3   -5    5     -2.38      0.00
    4   -5    5     -1.82      0.00
    5   -5    5      0.41      0.00
    6   -5    5      0.41      0.00
   -6   -4    5      0.13      0.00
   -5   -4    5     -0.47      0.00
   -4   -4    5      0.31      0.00
   -3   -4    5      4.69      0.00
   -2   -4    5     -0.36      0.00
   -1   -4    5      4.57      0.00
    0   -4    5    -19.29      0.00
    1   -4    5     -4.57      0.00
    2   -4    5     -2.12      0.00
    3   -4    5     -1.38      0.00
    4   -4    5      0.51      0.00
    5   -4    5     -0.49      0.00
    6   -4    5     -1.66      0.00
   -6   -3    5     -0.34      0.00
   -5   -3    5      1.63      0.00
   -4   -3    5      0.39      0.00
   -3   -3    5      0.30      0.00
   -2   -3    5      6.37      0.00
   -1   -3    5      9.24      0.00
    0   -3    5    -21.57      0.00
    1   -3    5     -0.02      0.00
    2   -3    5      7.56      0.00
    3   -3    5     -3.22      0.00
    4   -3    5     -2.64      0.00
    5   -3    5      1.91      0.00
    6   -3    5      0.31      0.00
   -6   -2    5      0.32      0.00
   -5   -2    5     -0.53      0.00
   -4   -2    5     -1.43      0.00
   -3   -2    5      1.63      0.00
   -2   -2    5     -2.71      0.00
   -1   -2    5      1.35      0.00
    0   -2    5    -23.59      0.00
    1   -2    5     -3.99      0.00
    2   -2    5     -6.24      0.00
    3   -2    5     -3.12      0.00
    4   -2    5      1.55      0.00
    5   -2    5     -0.87      0.00
    6   -2    5     -0.90      0.00
   -6   -1    5      0.26      0.00
   -5   -1    5      1.90      0.00
   -4   -1    5     -0.86      0.00
   -3   -1    5     -1.29      0.00
   -2   -1    5     12.89      0.00
   -1   -1    5      0.45      0.00
    0   -1    5     -6.65      0.00
    1   -1    5     22.77      0.00
    2   -1    5      9.59      0.00
    3   -1    5     -3.43      0.00
    4   -1    5     -2.74      0.00
    5   -1    5      1.52      0.00
    6   -1    5      0.17      0.00
   -6    0    5     -0.52      0.00
   -5    0    5     -0.42      0.00
   -4    0    5     -0.26      0.00
   -3    0    5      0.82      0.00
   -2    0    5      3.24      0.00
   -1    0    5     -5.97      0.00
    0    0    5     41.27      0.00
    1    0    5     18.54      0.00
    2    0    5     -4.64      0.00
    3    0    5     -1.52      0.00
    4    0    5      4.59      0.00
    5    0    5     -1.29      0.00
    6    0    5     -0.92      0.00
   -6    1    5      0.12      0.00
   -5    1    5      0.50      0.00
   -4    1    5     -1.42      0.00
   -3    1    5     -1.48      0.00
   -2    1    5      5.87      0.00
   -1    1    5     -5.60      0.00
    0    1    5     13.22      0.00
    1    1    5     13.28      0.00
    2    1    5      7.79      0.00
    3    1    5     -3.99      0.00
    4    1    5     -3.70      0.00
    5    1    5      1.15      0.00
    6    1    5     -0.24      0.00
   -6    2    5     -0.19      0.00
   -5    2    5     -1.49      0.00
   -4    2    5      2.27      0.00
   -3    2    5     -0.25      0.00
   -2    2    5      1.02      0.00
   -1    2    5     -7.72      0.00
    0    2    5     -2.03      0.00
    1    2    5      1.69      0.00
    2    2    5     -7.56      0.00
    3    2    5     -0.80      0.00
    4    2    5      3.25      0.00
    5    2    5     -2.21      0.00
    6    2    5     -0.78      0.00
   -5    3    5      0.89      0.00
   -4    3    5     -2.97      0.00
   -3    3    5     -1.39      0.00
   -2    3    5      5.08      0.00
   -1    3    5    -11.95      0.00
    0    3    5      8.55      0.00
    1    3    5     10.78      0.00
    2    3    5      8.90      0.00
    3    3    5     -2.53      0.00
    4    3    5     -0.97      0.00
    5    3    5      1.01      0.00
    6    3    5     -0.24      0.00
   -5    4    5     -0.71      0.00
   -4    4    5      0.92      0.00
   -3    4    5     -2.19      0.00
   -2    4    5      1.21      0.00
   -1    4    5     -7.91      0.00
    0    4    5     -4.70      0.00
    1    4    5      4.72      0.00
    2    4    5     -7.46      0.00
    3    4    5      4.16      0.00
    4    4    5      2.73      0.00
    5    4    5     -1.62      0.00
    6    4    5      0.23      0.00
   -5    5    5      0.86      0.00
   -4    5    5     -1.93      0.00
   -3    5    5     -0.95      0.00
   -2    5    5      8.37      0.00
   -1    5    5    -30.22      0.00
    0    5    5     17.66      0.00
    1    5    5      7.37      0.00
    2    5    5      0.99      0.00
    3    5    5     -3.85      0.00
    4    5    5      0.04      0.00
    5    5    5      2.00      0.00
    6    5    5     -0.71      0.00
   -5    6    5     -0.54      0.00
   -4    6    5      0.38      0.00
   -3    6    5      2.28      0.00
   -2    6    5     -0.11      0.00
   -1    6    5     -2.01      0.00
    0    6    5     24.87      0.00
    1    6    5      6.77      0.00
    2    6    5     -0.35      0.00
    3    6    5      5.30      0.00
    4    6    5      1.23      0.00
    5    6    5     -0.77      0.00
    6    6    5      0.33      0.00
   -5    7    5     -0.34      0.00
   -4    7    5     -0.77      0.00
   -3    7    5      5.99      0.00
   -2    7    5      1.94      0.00
   -1    7    5    -22.01      0.00
    0    7    5     -2.11      0.00
    1    7    5     11.57      0.00
    2    7    5     -0.24      0.00
    3    7    5     -2.73      0.00
    4    7    5      0.91      0.00
    5    7    5      1.25      0.00
    6    7    5     -0.68      0.00
   -5    8    5     -0.08      0.00
   -4    8    5      0.89      0.00
   -3    8    5      0.65      0.00
   -2    8    5     -9.08      0.00
   -1    8    5      1.09      0.00
    0    8    5      3.71      0.00
    1    8    5    -10.78      0.00
    2    8    5     -6.85      0.00
    3    8    5      1.99      0.00
    4    8    5     -0.60      0.00
    5    8    5     -0.12      0.00
    6    8    5      0.63      0.00
   -5    9    5     -0.38      0.00
   -4    9    5     -1.75      0.00
   -3    9    5      4.03      0.00
   -2    9    5      1.80      0.00
   -1    9    5      1.26      0.00
    0    9    5     -5.95      0.00
    1    9    5      5.40      0.00
    2    9    5     -2.84      0.00
    3    9    5     -3.69      0.00
    4    9    5      0.74      0.00
    5    9    5      0.19      0.00
   -5   10    5      0.52      0.00
   -4   10    5      0.80      0.00
   -3   10    5      0.13      0.00
   -2   10    5     -5.66      0.00
   -1   10    5      1.27      0.00
    0   10    5      3.43      0.00
    1   10    5     -2.81      0.00
    2   10    5     -5.28      0.00
    3   10    5      0.88      0.00
    4   10    5     -0.36      0.00
    5   10    5     -0.11      0.00
    6   10    5      0.10      0.00
   -5   11    5     -0.32      0.00
   -4   11    5     -2.37      0.00
   -3   11    5      2.48      0.00
   -2   11    5     -0.77      0.00
   -1   11    5     -0.18      0.00
    0   11    5      0.53      0.00
    1   11    5      1.14      0.00
    2   11    5     -4.17      0.00
    3   11    5     -1.33      0.00
    4   11    5      1.12      0.00
    5   11    5     -0.28      0.00
   -5   12    5      0.43      0.00
   -4   12    5      1.17      0.00
   -3   12    5      2.30      0.00
   -2   12    5     -0.43      0.00
   -1   12    5     -0.34      0.00
    0   12    5      3.51      0.00
    1   12    5     -0.97      0.00
    2   12    5      1.43      0.00
    3   12    5     -0.17      0.00
    4   12    5     -0.70      0.00
    5   12    5     -0.51      0.00
   -4   13    5     -1.07      0.00
   -3   13    5      2.29      0.00
   -2   13    5     -1.68      0.00
   -1   13    5     -0.92      0.00
    0   13    5      2.98      0.00
    1   13    5     -0.55      0.00
    2   13    5     -2.09      0.00
    3   13    5      0.31      0.00
    4   13    5     -0.02      0.00
    5   13    5     -0.47      0.00
   -4   14    5      1.18      0.00
   -3   14    5     -0.02      0.00
   -2   14    5     -2.58      0.00
   -1   14    5      2.27      0.00
    0   14    5      2.41      0.00
    1   14    5     -1.16      0.00
    2   14    5      0.83      0.00
    3   14    5      0.38      0.00
    4   14    5     -0.13      0.00
   -3   15    5      1.46      0.00
   -2   15    5     -1.25      0.00
   -1   15    5      0.54      0.00
    0   15    5      3.15      0.00
    1   15    5     -0.38      0.00
    2   15    5      0.22      0.00
    3   15    5      0.97      0.00
    4   15    5     -0.36      0.00
   -3   16    5     -1.04      0.00
   -2   16    5     -1.96      0.00
   -1   16    5      1.16      0.00
    0   16    5      0.66      0.00
    1   16    5     -0.19      0.00
    2   16    5     -0.20      0.00
    3   16    5     -0.58      0.00
   -2   17    5     -0.37      0.00
   -1   17    5      0.43      0.00
    0   17    5      1.87      0.00
    1   17    5     -1.39      0.00
    2   17    5     -0.26      0.00
   -1   18    5      0.47      0.00
    0   18    5      0.26      0.00
    1   18    5     -0.38      0.00
    0  -16    6     -0.73      0.00
    1  -16    6      0.00      0.00
   -1  -15    6     -1.58      0.00
    0  -15    6     -0.01      0.00
    1  -15    6      0.32      0.00
    2  -15    6     -1.97      0.00
   -2  -14    6     -0.07      0.00
   -1  -14    6      1.30      0.00
    0  -14    6     -0.20      0.00
    1  -14    6     -0.16      0.00
    2  -14    6     -1.44      0.00
    3  -14    6      0.39      0.00
   -3  -13    6      1.17      0.00
   -2  -13    6     -0.25      0.00
   -1  -13    6     -1.57      0.00
    0  -13    6      1.42      0.00
    1  -13    6     -2.55      0.00
    2  -13    6     -0.90      0.00
    3  -13    6      1.90      0.00
    4  -13    6     -0.24      0.00
   -3  -12    6      0.09      0.00
   -2  -12    6     -1.28      0.00
   -1  -12    6     -1.12      0.00
    0  -12    6      1.22      0.00
    1  -12    6      0.36      0.00
    2  -12    6     -0.46      0.00
    3  -12    6     -0.65      0.00
    4  -12    6      0.36      0.00
   -4  -11    6     -0.07      0.00
   -3  -11    6      0.60      0.00
   -2  -11    6     -0.70      0.00
   -1  -11    6      0.28      0.00
    0  -11    6      3.95      0.00
    1  -11    6     -0.55      0.00
    2  -11    6      0.05      0.00
    3  -11    6      1.49      0.00
    4  -11    6     -1.25      0.00
    5  -11    6     -0.30      0.00
   -4  -10    6     -0.75      0.00
   -3  -10    6      0.32      0.00
   -2  -10    6      0.84      0.00
   -1  -10    6     -1.25      0.00
    0  -10    6      7.77      0.00
    1  -10    6      1.81      0.00
    2  -10    6     -1.21      0.00
    3  -10    6      0.30      0.00
    4  -10    6      1.09      0.00
    5  -10    6     -0.46      0.00
   -5   -9    6     -0.07      0.00
   -4   -9    6      1.21      0.00
   -3   -9    6      0.26      0.00
   -2   -9    6     -1.76      0.00
   -1   -9    6      3.09      0.00
    0   -9    6      1.59      0.00
    1   -9    6     -5.81      0.00
    2   -9    6     -3.93      0.00
    3   -9    6     -0.03      0.00
    4   -9    6     -1.59      0.00
    5   -9    6     -0.18      0.00
   -5   -8    6     -0.49      0.00
   -4   -8    6     -0.44      0.00
   -3   -8    6     -0.36      0.00
   -2   -8    6      1.06      0.00
   -1   -8    6     -0.56      0.00
    0   -8    6     11.14      0.00
    1   -8    6     -8.40      0.00
    2   -8    6     -3.10      0.00
    3   -8    6      2.10      0.00
    4   -8    6      1.48      0.00
    5   -8    6     -0.35      0.00
    6   -8    6      0.57      0.00
   -5   -7    6     -0.57      0.00
   -4   -7    6      1.95      0.00
   -3   -7    6      0.34      0.00
   -2   -7    6     -1.23      0.00
   -1   -7    6      0.82      0.00
    0   -7    6      2.50      0.00
    1   -7    6     -6.04      0.00
    2   -7    6      8.19      0.00
    3   -7    6      1.69      0.00
    4   -7    6     -0.03      0.00
    5   -7    6      1.18      0.00
    6   -7    6     -0.39      0.00
   -5   -6    6     -0.62      0.00
   -4   -6    6      0.13      0.00
   -3   -6    6     -1.53      0.00
   -2   -6    6     -3.74      0.00
   -1   -6    6      0.30      0.00
    0   -6    6      9.21      0.00
    1   -6    6     -3.46      0.00
    2   -6    6      3.28      0.00
    3   -6    6      4.85      0.00
    4   -6    6      0.45      0.00
    5   -6    6     -0.66      0.00
    6   -6    6      0.75      0.00
   -6   -5    6     -0.15      0.00
   -5   -5    6      0.35      0.00
   -4   -5    6      0.37      0.00
   -3   -5    6     -2.77      0.00
   -2   -5    6     -1.07      0.00
   -1   -5    6     -2.16      0.00
    0   -5    6     -5.18      0.00
    1   -5    6     -2.43      0.00
    2   -5    6      8.13      0.00
    3   -5    6     -0.22      0.00
    4   -5    6     -0.22      0.00
    5   -5    6      1.71      0.00
    6   -5    6     -0.56      0.00
   -5   -4    6      0.68      0.00
   -4   -4    6      1.55      0.00
   -3   -4    6     -0.15      0.00
   -2   -4    6     -9.14      0.00
   -1   -4    6      4.46      0.00
    0   -4    6     10.56      0.00
    1   -4    6      4.09      0.00
    2   -4    6     -0.04      0.00
    3   -4    6      5.07      0.00
    4   -4    6     -1.23      0.00
    5   -4    6     -1.66      0.00
    6   -4    6      1.28      0.00
   -6   -3    6      0.61      0.00
   -5   -3    6      0.24      0.00
   -4   -3    6     -1.95      0.00
   -3   -3    6     -3.56      0.00
   -2   -3    6     -0.60      0.00
   -1   -3    6      3.29      0.00
    0   -3    6     -8.81      0.00
    1   -3    6     -3.13      0.00
    2   -3    6     -4.51      0.00
    3   -3    6     -4.22      0.00
    4   -3    6      0.82      0.00
    5   -3    6      1.69      0.00
    6   -3    6     -0.99      0.00
   -6   -2    6     -0.67      0.00
   -5   -2    6     -0.14      0.00
   -4   -2    6      2.62      0.00
   -3   -2    6      2.92      0.00
   -2   -2    6     -9.47      0.00
   -1   -2    6     10.82      0.00
    0   -2    6    -12.98      0.00
    1   -2    6    -24.23      0.00
    2   -2    6     -0.45      0.00
    3   -2    6      5.73      0.00
    4   -2    6     -4.17      0.00
    5   -2    6     -1.25      0.00
    6   -2    6      0.77      0.00
   -6   -1    6      0.27      0.00
   -5   -1    6      0.86      0.00
   -4   -1    6     -0.85      0.00
   -3   -1    6     -1.00      0.00
   -2   -1    6      2.07      0.00
   -1   -1    6     11.73      0.00
    0   -1    6    -27.82      0.00
    1   -1    6     -8.61      0.00
    2   -1    6     -0.93      0.00
    3   -1    6     -4.27      0.00
    4   -1    6      0.71      0.00
    5   -1    6      2.14      0.00
    6   -1    6     -0.13      0.00
   -6    0    6     -0.68      0.00
   -5    0    6      0.08      0.00
   -4    0    6      2.13      0.00
   -3    0    6      0.28      0.00
   -2    0    6     -7.35      0.00
   -1    0    6     24.68      0.00
    0    0    6    -32.35      0.00
    1    0    6    -25.14      0.00
    2    0    6      4.56      0.00
    3    0    6      4.33      0.00
    4    0    6     -4.80      0.00
    5    0    6     -0.24      0.00
    6    0    6      0.53      0.00
   -6    1    6      0.16      0.00
   -5    1    6      2.14      0.00
   -4    1    6     -1.51      0.00
   -3    1    6      2.07      0.00
   -2    1    6      8.26      0.00
   -1    1    6      4.64      0.00
    0    1    6     -8.47      0.00
    1    1    6     13.59      0.00
    2    1    6      0.72      0.00
    3    1    6     -3.92      0.00
    4    1    6      1.74      0.00
    5    1    6      1.31      0.00
    6    1    6     -0.45      0.00
   -6    2    6     -1.03      0.00
   -5    2    6     -0.51      0.00
   -4    2    6      3.30      0.00
   -3    2    6     -3.13      0.00
   -2    2    6     -0.59      0.00
   -1    2    6     21.99      0.00
    0    2    6     -3.64      0.00
    1    2    6     -4.99      0.00
    2    2    6     11.04      0.00
    3    2    6      1.80      0.00
    4    2    6     -3.25      0.00
    5    2    6      0.19      0.00
    6    2    6      0.25      0.00
   -6    3    6     -0.68      0.00
   -5    3    6      0.48      0.00
   -4    3    6     -2.81      0.00
   -3    3    6      1.28      0.00
   -2    3    6      5.83      0.00
   -1    3    6     -5.54      0.00
    0    3    6    -10.96      0.00
    1    3    6      8.83      0.00
    2    3    6      1.49      0.00
    3    3    6     -2.89      0.00
    4    3    6      0.84      0.00
    5    3    6      0.38      0.00
    6    3    6     -0.63      0.00
   -5    4    6      0.19      0.00
   -4    4    6      2.23      0.00
   -3    4    6     -5.85      0.00
   -2    4    6      0.91      0.00
   -1    4    6      5.63      0.00
    0    4    6    -15.85      0.00
    1    4    6     -9.54      0.00
    2    4    6      8.68      0.00
    3    4    6     -1.24      0.00
    4    4    6     -3.10      0.00
    5    4    6     -0.92      0.00
    6    4    6     -0.08      0.00
   -5    5    6     -0.71      0.00
   -4    5    6     -1.71      0.00
   -3    5    6      1.19      0.00
   -2    5    6      0.51      0.00
   -1    5    6      8.81      0.00
    0    5    6     11.30      0.00
    1    5    6     15.32      0.00
    2    5    6      1.08      0.00
    3    5    6     -0.14      0.00
    4    5    6      1.79      0.00
    5    5    6     -0.07      0.00
    6    5    6     -0.48      0.00
   -5    6    6      0.91      0.00
   -4    6    6      0.04      0.00
   -3    6    6    -11.42      0.00
   -2    6    6      8.58      0.00
   -1    6    6      1.37      0.00
    0    6    6    -21.08      0.00
    1    6    6     -5.52      0.00
    2    6    6      5.98      0.00
    3    6    6     -0.13      0.00
    4    6    6     -1.42      0.00
    5    6    6      0.01      0.00
    6    6    6     -0.24      0.00
   -5    7    6     -0.59      0.00
   -4    7    6     -2.54      0.00
   -3    7    6      1.60      0.00
   -2    7    6      3.77      0.00
   -1    7    6    -11.11      0.00
    0    7    6      8.92      0.00
    1    7    6      4.91      0.00
    2    7    6     -1.96      0.00
    3    7    6     -2.55      0.00
    4    7    6      0.64      0.00
    5    7    6      1.14      0.00
    6    7    6     -0.65      0.00
   -5    8    6      0.42      0.00
   -4    8    6      0.84      0.00
   -3    8    6     -3.24      0.00
   -2    8    6     12.77      0.00
   -1    8    6     -1.56      0.00
    0    8    6     -5.82      0.00
    1    8    6      7.70      0.00
    2    8    6      5.86      0.00
    3    8    6      1.93      0.00
    4    8    6      0.62      0.00
    5    8    6      0.49      0.00
    6    8    6     -0.35      0.00
   -5    9    6     -0.34      0.00
   -4    9    6     -0.16      0.00
   -3    9    6      3.58      0.00
   -2    9    6      0.98      0.00
   -1    9    6    -15.42      0.00
    0    9    6      0.82      0.00
    1    9    6      3.02      0.00
    2    9    6      1.25      0.00
    3    9    6     -0.02      0.00
    4    9    6      0.46      0.00
    5    9    6      0.86      0.00
   -5   10    6      0.40      0.00
   -4   10    6     -1.04      0.00
   -3   10    6     -2.25      0.00
   -2   10    6      4.43      0.00
   -1   10    6     -4.25      0.00
    0   10    6     -4.79      0.00
    1   10    6      3.67      0.00
    2   10    6      1.60      0.00
    3   10    6     -1.66      0.00
    4   10    6      0.64      0.00
    5   10    6      0.57      0.00
    6   10    6     -0.11      0.00
   -5   11    6     -0.55      0.00
   -4   11    6      1.00      0.00
   -3   11    6      1.25      0.00
   -2   11    6     -2.43      0.00
   -1   11    6     -3.58      0.00
    0   11    6      0.12      0.00
    1   11    6      5.42      0.00
    2   11    6     -2.26      0.00
    3   11    6     -0.13      0.00
    4   11    6      0.21      0.00
    5   11    6      0.37      0.00
   -5   12    6      0.72      0.00
   -4   12    6     -1.80      0.00
   -3   12    6     -0.57      0.00
   -2   12    6      2.49      0.00
   -1   12    6      0.09      0.00
    0   12    6     -1.00      0.00
    1   12    6      0.16      0.00
    2   12    6     -1.37      0.00
    3   12    6     -1.04      0.00
    4   12    6      0.23      0.00
    5   12    6      0.17      0.00
   -4   13    6      0.48      0.00
   -3   13    6      1.20      0.00
   -2   13    6      0.36      0.00
   -1   13    6     -1.44      0.00
    0   13    6     -3.02      0.00
    1   13    6      3.78      0.00
    2   13    6     -1.66      0.00
    3   13    6     -1.62      0.00
    4   13    6      0.60      0.00
    5   13    6      0.15      0.00
   -4   14    6     -1.45      0.00
   -3   14    6      1.24      0.00
   -2   14    6      2.39      0.00
   -1   14    6     -1.90      0.00
    0   14    6      1.30      0.00
    1   14    6      1.01      0.00
    2   14    6     -0.88      0.00
    3   14    6     -0.02      0.00
    4   14    6      0.23      0.00
   -3   15    6      1.14      0.00
   -2   15    6      0.40      0.00
   -1   15    6     -0.85      0.00
    0   15    6     -0.49      0.00
    1   15    6      0.84      0.00
    2   15    6     -0.22      0.00
    3   15    6     -0.73      0.00
    4   15    6      0.42      0.00
   -3   16    6      1.55      0.00
   -2   16    6      0.03      0.00
   -1   16    6     -1.34      0.00
    0   16    6      2.05      0.00
    1   16    6      0.81      0.00
    2   16    6     -0.37      0.00
    3   16    6      0.58      0.00
   -2   17    6     -1.05      0.00
   -1   17    6     -0.26      0.00
    0   17    6      0.66      0.00
    1   17    6      0.63      0.00
    2   17    6      0.29      0.00
   -1   18    6     -0.26      0.00
    0   18    6      1.21      0.00
    1   18    6     -0.27      0.00
   -1  -15    7      0.18      0.00
    0  -15    7     -0.66      0.00
    1  -15    7      0.26      0.00
    2  -15    7      0.19      0.00
   -2  -14    7      0.58      0.00
   -1  -14    7     -1.07      0.00
    0  -14    7     -1.94      0.00
    1  -14    7      1.83      0.00
    2  -14    7     -0.99      0.00
    3  -14    7     -1.16      0.00
   -2  -13    7     -0.68      0.00
   -1  -13    7     -0.32      0.00
    0  -13    7     -1.58      0.00
    1  -13    7      2.36      0.00
    2  -13    7     -1.75      0.00
    3  -13    7     -0.47      0.00
   -3  -12    7      0.52      0.00
   -2  -12    7      0.95      0.00
   -1  -12    7     -0.68      0.00
    0  -12    7     -1.67      0.00
    1  -12    7      0.05      0.00
    2  -12    7     -2.99      0.00
    3  -12    7     -0.65      0.00
    4  -12    7      0.13      0.00
   -4  -11    7      0.76      0.00
   -3  -11    7      1.54      0.00
   -2  -11    7      0.05      0.00
   -1  -11    7     -2.56      0.00
    0  -11    7     -2.72      0.00
    1  -11    7      0.86      0.00
    2  -11    7     -1.63      0.00
    3  -11    7      0.54      0.00
    4  -11    7      0.27      0.00
   -4  -10    7     -0.38      0.00
   -3  -10    7      1.04      0.00
   -2  -10    7      0.05      0.00
   -1  -10    7     -1.10      0.00
    0  -10    7     -1.84      0.00
    1  -10    7      1.11      0.00
    2  -10    7      0.91      0.00
    3  -10    7     -1.11      0.00
    4  -10    7      0.45      0.00
    5  -10    7      0.23      0.00
   -5   -9    7      0.06      0.00
   -4   -9    7     -0.75      0.00
   -3   -9    7      1.34      0.00
   -2   -9    7      1.58      0.00
   -1   -9    7     -2.62      0.00
    0   -9    7      3.98      0.00
    1   -9    7      7.36      0.00
    2   -9    7      0.92      0.00
    3   -9    7      0.65      0.00
    4   -9    7      0.60      0.00
    5   -9    7     -0.17      0.00
   -5   -8    7     -0.02      0.00
   -4   -8    7      0.05      0.00
   -3   -8    7      0.79      0.00
   -2   -8    7      0.50      0.00
   -1   -8    7     -0.46      0.00
    0   -8    7      1.05      0.00
    1   -8    7      3.98      0.00
    2   -8    7     -4.54      0.00
    3   -8    7     -2.12      0.00
    4   -8    7      0.51      0.00
    5   -8    7     -1.08      0.00
   -5   -7    7     -0.68      0.00
   -4   -7    7     -0.82      0.00
   -3   -7    7      0.53      0.00
   -2   -7    7      0.85      0.00
   -1   -7    7     -5.19      0.00
    0   -7    7      9.87      0.00
    1   -7    7      0.59      0.00
    2   -7    7     -7.88      0.00
    3   -7    7     -2.85      0.00
    4   -7    7     -0.20      0.00
    5   -7    7      0.05      0.00
   -5   -6    7     -0.43      0.00
   -4   -6    7     -0.67      0.00
   -3   -6    7      0.33      0.00
   -2   -6    7      1.20      0.00
   -1   -6    7     -1.84      0.00
    0   -6    7      8.46      0.00
    1   -6    7      0.18      0.00
    2   -6    7     -4.69      0.00
    3   -6    7      2.34      0.00
    4   -6    7      2.01      0.00
    5   -6    7     -0.86      0.00
    6   -6    7      0.40      0.00
   -5   -5    7     -1.20      0.00
   -4   -5    7      0.63      0.00
   -3   -5    7      3.09      0.00
   -2   -5    7      0.71      0.00
   -1   -5    7     -5.48      0.00
    0   -5    7     14.78      0.00
    1   -5    7     -1.21      0.00
    2   -5    7      2.14      0.00
    3   -5    7      1.22      0.00
    4   -5    7      1.58      0.00
    5   -5    7      0.59      0.00
    6   -5    7     -0.19      0.00
   -5   -4    7     -0.05      0.00
   -4   -4    7      0.28      0.00
   -3   -4    7     -2.41      0.00
   -2   -4    7      0.14      0.00
   -1   -4    7     -2.92      0.00
    0   -4    7     10.14      0.00
    1   -4    7     -8.31      0.00
    2   -4    7     -0.43      0.00
    3   -4    7      4.59      0.00
    4   -4    7      0.26      0.00
    5   -4    7     -0.15      0.00
    6   -4    7      1.12      0.00
   -6   -3    7     -0.21      0.00
   -5   -3    7     -0.70      0.00
   -4   -3    7      1.45      0.00
   -3   -3    7      2.61      0.00
   -2   -3    7     -2.17      0.00
   -1   -3    7     -8.61      0.00
    0   -3    7      7.43      0.00
    1   -3    7      8.99      0.00
    2   -3    7      5.54      0.00
    3   -3    7      1.82      0.00
    4   -3    7      1.91      0.00
    5   -3    7     -0.31      0.00
    6   -3    7     -0.49      0.00
   -6   -2    7      0.19      0.00
   -5   -2    7      0.45      0.00
   -4   -2    7     -0.03      0.00
   -3   -2    7     -3.01      0.00
   -2   -2    7     -0.85      0.00
   -1   -2    7     -3.55      0.00
    0   -2    7     18.09      0.00
    1   -2    7      7.84      0.00
    2   -2    7      0.64      0.00
    3   -2    7      3.38      0.00
    4   -2    7     -0.10      0.00
    5   -2    7      0.47      0.00
    6   -2    7      1.03      0.00
   -6   -1    7      0.22      0.00
   -5   -1    7     -1.76      0.00
   -4   -1    7     -0.53      0.00
   -3   -1    7      0.09      0.00
   -2   -1    7     -9.26      0.00
   -1   -1    7    -14.67      0.00
    0   -1    7     -5.10      0.00
    1   -1    7     -3.90      0.00
    2   -1    7    -11.04      0.00
    3   -1    7      0.94      0.00
    4   -1    7      2.34      0.00
    5   -1    7     -1.55      0.00
    6   -1    7     -0.61      0.00
   -6    0    7      0.09      0.00
   -5    0    7      0.58      0.00
   -4    0    7      0.48      0.00
   -3    0    7     -1.68      0.00
   -2    0    7     -1.66      0.00
   -1    0    7     -0.07      0.00
    0    0    7     -0.56      0.00
    1    0    7     -8.95      0.00
    2    0    7      1.12      0.00
    3    0    7      2.10      0.00
    4    0    7     -4.02      0.00
    5    0    7      0.55      0.00
    6    0    7      1.55      0.00
   -6    1    7      0.06      0.00
   -5    1    7     -1.34      0.00
   -4    1    7     -0.35      0.00
   -3    1    7      3.60      0.00
   -2    1    7     -9.47      0.00
   -1    1    7      5.32      0.00
    0    1    7      4.70      0.00
    1    1    7    -12.74      0.00
    2    1    7    -12.44      0.00
    3    1    7      2.21      0.00
    4    1    7      3.58      0.00
    5    1    7     -0.83      0.00
    6    1    7     -0.37      0.00
   -6    2    7      0.31      0.00
   -5    2    7      1.35      0.00
   -4    2    7      0.47      0.00
   -3    2    7      0.26      0.00
   -2    2    7     -3.68      0.00
   -1    2    7     20.16      0.00
    0    2    7    -15.94      0.00
    1    2    7    -19.89      0.00
    2    2    7      2.32      0.00
    3    2    7      1.39      0.00
    4    2    7     -4.80      0.00
    5    2    7      1.01      0.00
    6    2    7      1.31      0.00
   -6    3    7      0.46      0.00
   -5    3    7     -1.07      0.00
   -4    3    7      2.37      0.00
   -3    3    7      3.88      0.00
   -2    3    7     -3.97      0.00
   -1    3    7     14.67      0.00
    0    3    7     -2.29      0.00
    1    3    7     -9.69      0.00
    2    3    7    -10.47      0.00
    3    3    7     -0.41      0.00
    4    3    7      2.58      0.00
    5    3    7     -0.80      0.00
    6    3    7     -0.19      0.00
   -5    4    7      1.15      0.00
   -4    4    7     -0.69      0.00
   -3    4    7      0.01      0.00
   -2    4    7      0.77      0.00
   -1    4    7     14.10      0.00
    0    4    7    -14.95      0.00
    1    4    7    -10.37      0.00
    2    4    7      9.53      0.00
    3    4    7      0.80      0.00
    4    4    7     -1.39      0.00
    5    4    7      1.30      0.00
    6    4    7      0.77      0.00
   -5    5    7     -0.71      0.00
   -4    5    7      2.11      0.00
   -3    5    7      1.87      0.00
   -2    5    7     -4.32      0.00
   -1    5    7      0.29      0.00
    0    5    7     -9.74      0.00
    1    5    7     -7.03      0.00
    2    5    7     -4.69      0.00
    3    5    7      1.85      0.00
    4    5    7      0.99      0.00
    5    5    7     -1.45      0.00
    6    5    7      0.02      0.00
   -5    6    7      1.28      0.00
   -4    6    7      0.14      0.00
   -3    6    7     -1.38      0.00
   -2    6    7     -2.87      0.00
   -1    6    7      6.28      0.00
    0    6    7      1.64      0.00
    1    6    7     -4.24      0.00
    2    6    7      7.41      0.00
    3    6    7     -2.19      0.00
    4    6    7     -0.26      0.00
    5    6    7      0.29      0.00
    6    6    7      0.31      0.00
   -5    7    7     -0.39      0.00
   -4    7    7      1.87      0.00
   -3    7    7     -3.07      0.00
   -2    7    7     -5.85      0.00
   -1    7    7     18.47      0.00
    0    7    7     10.82      0.00
    1    7    7      0.56      0.00
    2    7    7      1.40      0.00
    3    7    7      4.13      0.00
    4    7    7     -0.01      0.00
    5    7    7     -1.67      0.00
    6    7    7      0.09      0.00
   -5    8    7      0.43      0.00
   -4    8    7     -1.50      0.00
   -3    8    7     -4.70      0.00
   -2    8    7      0.58      0.00
   -1    8    7     -0.69      0.00
    0    8    7    -12.99      0.00
    1    8    7     -3.64      0.00
    2    8    7      3.71      0.00
    3    8    7     -3.31      0.00
    4    8    7     -1.06      0.00
    5    8    7      0.31      0.00
    6    8    7     -0.42      0.00
   -5    9    7     -0.77      0.00
   -4    9    7      1.92      0.00
   -3    9    7     -3.39      0.00
   -2    9    7     -1.19      0.00
   -1    9    7     11.58      0.00
    0    9    7      5.84      0.00
    1    9    7     -8.06      0.00
    2    9    7     -1.84      0.00
    3    9    7      2.00      0.00
    4    9    7     -0.32      0.00
    5    9    7     -0.30      0.00
   -5   10    7      0.74      0.00
   -4   10    7     -0.20      0.00
   -3   10    7     -0.38      0.00
   -2   10    7      7.59      0.00
   -1   10    7      1.34      0.00
    0   10    7     -8.99      0.00
    1   10    7      3.80      0.00
    2   10    7      5.45      0.00
    3   10    7      0.18      0.00
    4   10    7     -0.38      0.00
    5   10    7      0.52      0.00
    6   10    7     -0.08      0.00
   -5   11    7     -0.14      0.00
   -4   11    7      1.27      0.00
   -3   11    7     -1.93      0.00
   -2   11    7      0.51      0.00
   -1   11    7     -2.84      0.00
    0   11    7      0.80      0.00
    1   11    7     -3.61      0.00
    2   11    7      1.95      0.00
    3   11    7      0.87      0.00
    4   11    7     -0.12      0.00
    5   11    7      0.36      0.00
   -5   12    7     -0.11      0.00
   -4   12    7     -0.79      0.00
   -3   12    7     -1.99      0.00
   -2   12    7     -0.12      0.00
   -1   12    7     -3.14      0.00
    0   12    7     -3.73      0.00
    1   12    7      2.78      0.00
    2   12    7      0.93      0.00
    3   12    7      0.58      0.00
    4   12    7      0.14      0.00
    5   12    7      0.22      0.00
   -4   13    7      1.37      0.00
   -3   13    7     -0.93      0.00
   -2   13    7      0.26      0.00
   -1   13    7      1.44      0.00
    0   13    7      0.02      0.00
    1   13    7     -1.60      0.00
    2   13    7      2.10      0.00
    3   13    7      0.25      0.00
    4   13    7     -0.76      0.00
    5   13    7      0.13      0.00
   -4   14    7     -0.89      0.00
   -3   14    7     -1.18      0.00
   -2   14    7      0.74      0.00
   -1   14    7      0.60      0.00
    0   14    7     -4.43      0.00
    1   14    7      0.73      0.00
    2   14    7     -1.46      0.00
    3   14    7     -0.78      0.00
    4   14    7     -0.19      0.00
   -3   15    7     -1.83      0.00
   -2   15    7      0.58      0.00
   -1   15    7      1.36      0.00
    0   15    7     -2.12      0.00
    1   15    7      0.58      0.00
    2   15    7      0.40      0.00
    3   15    7     -0.86      0.00
    4   15    7     -0.25      0.00
   -3   16    7      0.16      0.00
   -2   16    7      2.10      0.00
   -1   16    7      1.09      0.00
    0   16    7     -1.94      0.00
    1   16    7      0.25      0.00
    2   16    7     -0.21      0.00
    3   16    7     -0.83      0.00
   -2   17    7      1.35      0.00
   -1   17    7     -0.08      0.00
    0   17    7     -1.49      0.00
    1   17    7      0.66      0.00
    2   17    7     -0.15      0.00
    3   17    7     -0.60      0.00
   -1   18    7     -0.44      0.00
    0   18    7     -0.15      0.00
    0  -15    8     -0.32      0.00
    1  -15    8     -0.34      0.00
   -1  -14    8     -0.59      0.00
    0  -14    8      0.24      0.00
    1  -14    8      0.05      0.00
    2  -14    8      1.30      0.00
   -2  -13    8      0.82      0.00
   -1  -13    8      2.05      0.00
    0  -13    8     -1.46      0.00
    1  -13    8     -0.22      0.00
    2  -13    8      2.12      0.00
    3  -13    8     -0.93      0.00
   -2  -12    8      0.27      0.00
   -1  -12    8     -0.35      0.00
    0  -12    8     -0.84      0.00
    1  -12    8      1.54      0.00
    2  -12    8      1.42      0.00
    3  -12    8     -0.28      0.00
    4  -12    8     -0.04      0.00
   -3  -11    8     -1.49      0.00
   -2  -11    8      0.07      0.00
   -1  -11    8      1.75      0.00
    0  -11    8     -2.04      0.00
    1  -11    8      1.71      0.00
    2  -11    8     -0.37      0.00
    3  -11    8     -2.65      0.00
    4  -11    8      0.10      0.00
   -4  -10    8      0.03      0.00
   -3  -10    8      0.71      0.00
   -2  -10    8     -0.04      0.00
   -1  -10    8      0.33      0.00
    0  -10    8     -4.42      0.00
    1  -10    8     -2.28      0.00
    2  -10    8     -2.42      0.00
    3  -10    8      0.82      0.00
    4  -10    8     -0.65      0.00
   -4   -9    8     -0.50      0.00
   -3   -9    8     -0.50      0.00
   -2   -9    8      1.27      0.00
   -1   -9    8     -0.02      0.00
    0   -9    8     -5.28      0.00
    1   -9    8     -0.04      0.00
    2   -9    8      1.85      0.00
    3   -9    8     -1.91      0.00
    4   -9    8      0.70      0.00
    5   -9    8      0.16      0.00
   -5   -8    8      0.08      0.00
   -4   -8    8     -0.33      0.00
   -3   -8    8      0.92      0.00
   -2   -8    8     -0.14      0.00
   -1   -8    8      3.89      0.00
    0   -8    8     -7.11      0.00
    1   -8    8      0.46      0.00
    2   -8    8      3.08      0.00
    3   -8    8      1.00      0.00
    4   -8    8     -1.13      0.00
    5   -8    8      0.51      0.00
   -5   -7    8      0.50      0.00
   -4   -7    8     -0.79      0.00
   -3   -7    8     -0.42      0.00
   -2   -7    8      3.73      0.00
   -1   -7    8     -0.87      0.00
    0   -7    8     -4.54      0.00
    1   -7    8      4.24      0.00
    2   -7    8      2.16      0.00
    3   -7    8     -0.96      0.00
    4   -7    8      1.08      0.00
    5   -7    8     -0.43      0.00
   -5   -6    8      0.12      0.00
   -4   -6    8      0.52      0.00
   -3   -6    8     -0.38      0.00
   -2   -6    8      1.46      0.00
   -1   -6    8      1.25      0.00
    0   -6    8     -8.26      0.00
    1   -6    8      3.53      0.00
    2   -6    8      0.51      0.00
    3   -6    8     -5.26      0.00
    4   -6    8     -2.21      0.00
    5   -6    8      0.32      0.00
    6   -6    8     -0.08      0.00
   -5   -5    8     -0.09      0.00
   -4   -5    8     -2.28      0.00
   -3   -5    8     -0.66      0.00
   -2   -5    8      2.75      0.00
   -1   -5    8     -5.36      0.00
    0   -5    8     -0.21      0.00
    1   -5    8      9.14      0.00
    2   -5    8     -7.73      0.00
    3   -5    8     -1.55      0.00
    4   -5    8      0.85      0.00
    5   -5    8     -1.12      0.00
    6   -5    8     -0.11      0.00
   -5   -4    8     -0.13      0.00
   -4   -4    8     -1.04      0.00
   -3   -4    8     -0.33      0.00
   -2   -4    8      4.67      0.00
   -1   -4    8     -2.04      0.00
    0   -4    8     -3.76      0.00
    1   -4    8      6.47      0.00
    2   -4    8      4.79      0.00
    3   -4    8     -3.70      0.00
    4   -4    8      0.39      0.00
    5   -4    8      1.11      0.00
    6   -4    8     -0.40      0.00
   -5   -3    8     -0.26      0.00
   -4   -3    8     -0.29      0.00
   -3   -3    8      1.47      0.00
   -2   -3    8      1.69      0.00
   -1   -3    8     -4.01      0.00
    0   -3    8     18.34      0.00
    1   -3    8      1.00      0.00
    2   -3    8     -7.69      0.00
    3   -3    8      2.82      0.00
    4   -3    8      0.99      0.00
    5   -3    8     -1.44      0.00
    6   -3    8      0.80      0.00
   -6   -2    8     -0.17      0.00
   -5   -2    8      0.17      0.00
   -4   -2    8     -0.91      0.00
   -3   -2    8     -0.30      0.00
   -2   -2    8      9.15      0.00
   -1   -2    8     -0.91      0.00
    0   -2    8     -4.32      0.00
    1   -2    8      5.00      0.00
    2   -2    8      7.10      0.00
    3   -2    8     -4.40      0.00
    4   -2    8      1.17      0.00
    5   -2    8      1.60      0.00
    6   -2    8     -0.57      0.00
   -6   -1    8     -0.30      0.00
   -5   -1    8     -0.56      0.00
   -4   -1    8      0.68      0.00
   -3   -1    8      3.06      0.00
   -2   -1    8     -0.17      0.00
   -1   -1    8     -7.69      0.00
    0   -1    8     24.35      0.00
    1   -1    8      4.30      0.00
    2   -1    8      2.33      0.00
    3   -1    8      5.19      0.00
    4   -1    8      1.12      0.00
    5   -1    8     -1.12      0.00
    6   -1    8     -0.10      0.00
   -6    0    8      0.28      0.00
   -5    0    8     -0.13      0.00
   -4    0    8     -1.52      0.00
   -3    0    8     -2.83      0.00
   -2    0    8      9.08      0.00
   -1    0    8    -12.82      0.00
    0    0    8     -8.02      0.00
    1    0    8     19.34      0.00
    2    0    8      0.94      0.00
    3    0    8     -4.49      0.00
    4    0    8      3.66      0.00
    5    0    8      1.30      0.00
    6    0    8     -0.34      0.00
   -6    1    8     -0.10      0.00
   -5    1    8     -1.26      0.00
   -4    1    8      0.01      0.00
   -3    1    8      0.00      0.00
   -2    1    8     -5.55      0.00
   -1    1    8    -20.15      0.00
    0    1    8     -2.48      0.00
    1    1    8     -3.31      0.00
    2    1    8     -1.74      0.00
    3    1    8      3.17      0.00
    4    1    8     -1.23      0.00
    5    1    8     -1.44      0.00
    6    1    8      0.17      0.00
   -6    2    8      0.40      0.00
   -5    2    8      0.91      0.00
   -4    2    8     -3.62      0.00
   -3    2    8      0.96      0.00
   -2    2    8      7.12      0.00
   -1    2    8    -27.13      0.00
    0    2    8     20.23      0.00
    1    2    8     28.22      0.00
    2    2    8     -5.66      0.00
    3    2    8     -2.37      0.00
    4    2    8      3.34      0.00
    5    2    8      0.49      0.00
    6    2    8     -0.60      0.00
   -6    3    8     -0.03      0.00
   -5    3    8     -1.28      0.00
   -4    3    8      1.79      0.00
   -3    3    8      1.34      0.00
   -2    3    8     -9.05      0.00
   -1    3    8      7.48      0.00
    0    3    8     13.39      0.00
    1    3    8    -10.96      0.00
    2    3    8     -2.39      0.00
    3    3    8      2.66      0.00
    4    3    8     -1.18      0.00
    5    3    8     -0.77      0.00
    6    3    8      0.37      0.00
   -5    4    8      0.47      0.00
   -4    4    8     -3.19      0.00
   -3    4    8      4.02      0.00
   -2    4    8      1.44      0.00
   -1    4    8    -10.09      0.00
    0    4    8      5.60      0.00
    1    4    8      8.74      0.00
    2    4    8    -11.63      0.00
    3    4    8     -3.78      0.00
    4    4    8     -0.17      0.00
    5    4    8      0.45      0.00
    6    4    8     -0.15      0.00
   -5    5    8     -1.03      0.00
   -4    5    8      2.24      0.00
   -3    5    8      1.22      0.00
   -2    5    8     -5.63      0.00
   -1    5    8     13.20      0.00
    0    5    8     -2.42      0.00
    1    5    8    -18.61      0.00
    2    5    8     -4.07      0.00
    3    5    8     -0.88      0.00
    4    5    8     -0.63      0.00
    5    5    8     -0.54      0.00
    6    5    8      0.21      0.00
   -5    6    8     -0.72      0.00
   -4    6    8     -1.22      0.00
   -3    6    8      7.69      0.00
   -2    6    8      1.09      0.00
   -1    6    8     -2.63      0.00
    0    6    8      1.58      0.00
    1    6    8      8.48      0.00
    2    6    8     -5.40      0.00
    3    6    8      0.37      0.00
    4    6    8      1.79      0.00
    5    6    8      0.27      0.00
    6    6    8      0.17      0.00
   -5    7    8      0.66      0.00
   -4    7    8      2.04      0.00
   -3    7    8     -0.89      0.00
   -2    7    8     -4.30      0.00
   -1    7    8     -1.16      0.00
    0    7    8     -8.31      0.00
    1    7    8    -13.14      0.00
    2    7    8     -1.21      0.00
    3    7    8      0.89      0.00
    4    7    8      0.66      0.00
    5    7    8     -0.35      0.00
    6    7    8      0.51      0.00
   -5    8    8      0.18      0.00
   -4    8    8     -0.88      0.00
   -3    8    8      6.05      0.00
   -2    8    8     -4.23      0.00
   -1    8    8      0.51      0.00
    0    8    8     17.87      0.00
    1    8    8      4.65      0.00
    2    8    8     -1.83      0.00
    3    8    8     -0.81      0.00
    4    8    8      0.56      0.00
    5    8    8     -0.05      0.00
    6    8    8      0.18      0.00
   -5    9    8     -0.08      0.00
   -4    9    8      1.88      0.00
   -3    9    8     -2.32      0.00
   -2    9    8     -5.22      0.00
   -1    9    8      3.59      0.00
    0    9    8     -1.08      0.00
    1    9    8     -1.50      0.00
    2    9    8      1.86      0.00
    3    9    8      3.57      0.00
    4    9    8      0.44      0.00
    5    9    8     -1.60      0.00
   -5   10    8     -0.62      0.00
   -4   10    8     -0.23      0.00
   -3   10    8      1.57      0.00
   -2   10    8     -6.92      0.00
   -1   10    8      2.15      0.00
    0   10    8      7.49      0.00
    1   10    8     -6.10      0.00
    2   10    8     -1.62      0.00
    3   10    8     -1.22      0.00
    4   10    8     -0.42      0.00
    5   10    8     -0.27      0.00
    6   10    8     -0.01      0.00
   -5   11    8     -0.06      0.00
   -4   11    8      0.98      0.00
   -3   11    8     -1.64      0.00
   -2   11    8      0.30      0.00
   -1   11    8      9.56      0.00
    0   11    8     -0.59      0.00
    1   11    8     -3.18      0.00
    2   11    8     -0.32      0.00
    3   11    8      2.11      0.00
    4   11    8      0.05      0.00
    5   11    8     -0.67      0.00
   -4   12    8      1.01      0.00
   -3   12    8      1.27      0.00
   -2   12    8     -0.96      0.00
   -1   12    8      0.94      0.00
    0   12    8      1.53      0.00
    1   12    8     -1.25      0.00
    2   12    8      0.58      0.00
    3   12    8      0.18      0.00
    4   12    8     -0.13      0.00
    5   12    8      0.49      0.00
   -4   13    8     -0.49      0.00
   -3   13    8     -1.72      0.00
   -2   13    8     -1.66      0.00
   -1   13    8      0.28      0.00
    0   13    8      1.31      0.00
    1   13    8     -3.06      0.00
    2   13    8      0.02      0.00
    3   13    8      1.97      0.00
    4   13    8      0.21      0.00
    5   13    8     -0.22      0.00
   -4   14    8      1.13      0.00
   -3   14    8      0.45      0.00
   -2   14    8     -0.97      0.00
   -1   14    8     -1.48      0.00
    0   14    8      0.22      0.00
    1   14    8     -0.74      0.00
    2   14    8      1.33      0.00
    3   14    8      0.80      0.00
    4   14    8      0.04      0.00
   -3   15    8     -0.24      0.00
   -2   15    8     -0.90      0.00
   -1   15    8      0.18      0.00
    0   15    8      0.23      0.00
    1   15    8     -2.46      0.00
    2   15    8     -0.17      0.00
    3   15    8      0.94      0.00
    4   15    8     -0.25      0.00
   -3   16    8     -1.13      0.00
   -2   16    8     -1.07      0.00
   -1   16    8      0.49      0.00
    0   16    8     -1.65      0.00
    1   16    8     -0.53      0.00
    2   16    8      0.11      0.00
    3   16    8     -0.12      0.00
   -2   17    8     -0.41      0.00
   -1   17    8      1.49      0.00
    0   17    8     -0.49      0.00
    1   17    8     -0.33      0.00
    2   17    8      0.32      0.00
   -1   18    8      0.81      0.00
    0   18    8     -1.17      0.00
   -1  -14    9     -0.12      0.00
    0  -14    9      1.11      0.00
    1  -14    9     -0.13      0.00
    2  -14    9     -0.42      0.00
   -1  -13    9     -0.50      0.00
    0  -13    9      1.47      0.00
    1  -13    9     -1.12      0.00
    2  -13    9      0.55      0.00
    3  -13    9      0.99      0.00
   -2  -12    9     -0.99      0.00
   -1  -12    9      0.59      0.00
    0  -12    9      1.43      0.00
    1  -12    9     -1.94      0.00
    2  -12    9      1.20      0.00
    3  -12    9      1.61      0.00
    4  -12    9      0.17      0.00
   -3  -11    9     -0.67      0.00
   -2  -11    9      0.81      0.00
   -1  -11    9      1.25      0.00
    0  -11    9      1.36      0.00
    1  -11    9     -2.18      0.00
    2  -11    9      2.96      0.00
    3  -11    9      0.70      0.00
    4  -11    9     -0.29      0.00
   -4  -10    9      0.98      0.00
   -3  -10    9     -0.70      0.00
   -2  -10    9     -1.93      0.00
   -1  -10    9      0.54      0.00
    0  -10    9      1.66      0.00
    1  -10    9      0.52      0.00
    2  -10    9      1.89      0.00
    3  -10    9      0.62      0.00
    4  -10    9     -0.38      0.00
   -4   -9    9      0.19      0.00
   -3   -9    9     -1.58      0.00
   -2   -9    9     -1.72      0.00
   -1   -9    9      0.74      0.00
    0   -9    9     -0.99      0.00
    1   -9    9     -2.54      0.00
    2   -9    9     -1.06      0.00
    3   -9    9     -0.67      0.00
    4   -9    9     -0.31      0.00
    5   -9    9      0.38      0.00
   -4   -8    9      0.48      0.00
   -3   -8    9     -0.54      0.00
   -2   -8    9     -1.25      0.00
   -1   -8    9      0.86      0.00
    0   -8    9     -2.59      0.00
    1   -8    9     -1.97      0.00
    2   -8    9      0.80      0.00
    3   -8    9      1.43      0.00
    4   -8    9     -0.65      0.00
    5   -8    9      0.19      0.00
   -5   -7    9      0.29      0.00
   -4   -7    9      0.03      0.00
   -3   -7    9     -0.07      0.00
   -2   -7    9     -2.28      0.00
   -1   -7    9      6.29      0.00
    0   -7    9     -4.51      0.00
    1   -7    9     -2.83      0.00
    2   -7    9     -0.31      0.00
    3   -7    9      0.01      0.00
    4   -7    9     -0.55      0.00
    5   -7    9     -0.04      0.00
   -5   -6    9      0.25      0.00
   -4   -6    9      0.73      0.00
   -3   -6    9     -0.21      0.00
   -2   -6    9      0.11      0.00
   -1   -6    9      4.15      0.00
    0   -6    9     -5.99      0.00
    1   -6    9     -7.77      0.00
    2   -6    9      2.25      0.00
    3   -6    9      1.65      0.00
    4   -6    9     -1.48      0.00
    5   -6    9      0.71      0.00
   -5   -5    9      0.66      0.00
   -4   -5    9      0.74      0.00
   -3   -5    9     -0.53      0.00
   -2   -5    9     -0.54      0.00
   -1   -5    9      9.46      0.00
    0   -5    9     -9.65      0.00
    1   -5    9     -5.14      0.00
    2   -5    9      3.19      0.00
    3   -5    9     -0.25      0.00
    4   -5    9     -0.84      0.00
    5   -5    9     -0.74      0.00
   -5   -4    9      0.04      0.00
   -4   -4    9      0.30      0.00
   -3   -4    9      0.15      0.00
   -2   -4    9      1.72      0.00
   -1   -4    9      2.01      0.00
    0   -4    9    -12.22      0.00
    1   -4    9     -1.01      0.00
    2   -4    9      1.11      0.00
    3   -4    9     -4.08      0.00
    4   -4    9     -2.08      0.00
    5   -4    9      0.87      0.00
    6   -4    9     -0.71      0.00
   -5   -3    9      0.54      0.00
   -4   -3    9     -0.35      0.00
   -3   -3    9     -2.83      0.00
   -2   -3    9     -0.33      0.00
   -1   -3    9      6.91      0.00
    0   -3    9    -13.83      0.00
    1   -3    9     -1.41      0.00
    2   -3    9      3.12      0.00
    3   -3    9     -0.44      0.00
    4   -3    9     -0.74      0.00
    5   -3    9     -0.89      0.00
    6   -3    9     -0.10      0.00
   -5   -2    9      0.23      0.00
   -4   -2    9     -0.45      0.00
   -3   -2    9     -0.55      0.00
   -2   -2    9      2.08      0.00
   -1   -2    9     -1.74      0.00
    0   -2    9     -3.24      0.00
    1   -2    9      8.87      0.00
    2   -2    9      0.49      0.00
    3   -2    9     -3.24      0.00
    4   -2    9     -0.32      0.00
    5   -2    9      0.39      0.00
    6   -2    9     -0.06      0.00
   -6   -1    9      0.21      0.00
   -5   -1    9      0.78      0.00
   -4   -1    9     -0.08      0.00
   -3   -1    9     -1.36      0.00
   -2   -1    9      3.50      0.00
   -1   -1    9     12.96      0.00
    0   -1    9      3.94      0.00
    1   -1    9      0.74      0.00
    2   -1    9      3.54      0.00
    3   -1    9     -0.86      0.00
    4   -1    9     -1.33      0.00
    5   -1    9     -0.05      0.00
    6   -1    9      0.61      0.00
   -6    0    9      0.28      0.00
   -5    0    9     -0.17      0.00
   -4    0    9     -0.33      0.00
   -3    0    9      0.45      0.00
   -2    0    9      1.20      0.00
   -1    0    9     -3.32      0.00
    0    0    9     12.45      0.00
    1    0    9     -0.33      0.00
    2    0    9      0.43      0.00
    3    0    9     -2.21      0.00
    4    0    9      1.48      0.00
    5    0    9      0.14      0.00
    6    0    9     -1.37      0.00
   -6    1    9     -0.41      0.00
   -5    1    9      0.55      0.00
   -4    1    9      1.52      0.00
   -3    1    9     -3.33      0.00
   -2    1    9      6.35      0.00
   -1    1    9     13.72      0.00
    0    1    9     -5.24      0.00
    1    1    9      1.83      0.00
    2    1    9     10.04      0.00
    3    1    9     -0.02      0.00
    4    1    9     -1.70      0.00
    5    1    9      0.54      0.00
    6    1    9      0.86      0.00
   -6    2    9      0.48      0.00
   -5    2    9     -1.01      0.00
   -4    2    9     -1.62      0.00
   -3    2    9     -0.39      0.00
   -2    2    9      2.22      0.00
   -1    2    9    -13.57      0.00
    0    2    9     -8.24      0.00
    1    2    9      0.88      0.00
    2    2    9      0.60      0.00
    3    2    9     -1.91      0.00
    4    2    9      3.65      0.00
    5    2    9      1.01      0.00
    6    2    9     -0.95      0.00
   -5    3    9      1.20      0.00
   -4    3    9      0.82      0.00
   -3    3    9     -4.48      0.00
   -2    3    9      8.12      0.00
   -1    3    9    -13.09      0.00
    0    3    9     -9.14      0.00
    1    3    9     15.62      0.00
    2    3    9      6.84      0.00
    3    3    9      2.06      0.00
    4    3    9     -2.51      0.00
    5    3    9      0.04      0.00
    6    3    9      0.32      0.00
   -5    4    9     -0.48      0.00
   -4    4    9     -0.82      0.00
   -3    4    9      1.69      0.00
   -2    4    9      3.13      0.00
   -1    4    9    -12.10      0.00
    0    4    9     12.30      0.00
    1    4    9     12.53      0.00
    2    4    9      0.00      0.00
    3    4    9     -0.73      0.00
    4    4    9      3.44      0.00
    5    4    9      0.12      0.00
    6    4    9     -0.99      0.00
   -5    5    9      1.41      0.00
   -4    5    9     -1.20      0.00
   -3    5    9     -3.06      0.00
   -2    5    9      5.41      0.00
   -1    5    9    -10.12      0.00
    0    5    9      1.18      0.00
    1    5    9     13.55      0.00
    2    5    9      4.52      0.00
    3    5    9      0.97      0.00
    4    5    9     -3.61      0.00
    5    5    9      0.76      0.00
    6    5    9      0.42      0.00
   -5    6    9     -1.08      0.00
   -4    6    9     -1.18      0.00
   -3    6    9      2.18      0.00
   -2    6    9     -1.78      0.00
   -1    6    9     -8.25      0.00
    0    6    9      0.07      0.00
    1    6    9      0.41      0.00
    2    6    9     -8.94      0.00
    3    6    9     -3.94      0.00
    4    6    9     -0.89      0.00
    5    6    9     -0.38      0.00
    6    6    9     -1.05      0.00
   -5    7    9     -0.54      0.00
   -4    7    9     -1.03      0.00
   -3    7    9      0.70      0.00
   -2    7    9      3.78      0.00
   -1    7    9      0.35      0.00
    0    7    9      0.40      0.00
    1    7    9      3.47      0.00
    2    7    9      1.06      0.00
    3    7    9     -1.53      0.00
    4    7    9     -1.50      0.00
    5    7    9     -0.20      0.00
    6    7    9      0.35      0.00
   -5    8    9     -0.51      0.00
   -4    8    9     -0.15      0.00
   -3    8    9      2.54      0.00
   -2    8    9      0.10      0.00
   -1    8    9     -0.31      0.00
    0    8    9     -1.35      0.00
    1    8    9      4.19      0.00
    2    8    9     -6.43      0.00
    3    8    9      0.37      0.00
    4    8    9      0.85      0.00
    5    8    9      0.33      0.00
    6    8    9     -0.23      0.00
   -5    9    9      0.95      0.00
   -4    9    9     -2.51      0.00
   -3    9    9      0.98      0.00
   -2    9    9      4.64      0.00
   -1    9    9     -5.35      0.00
    0    9    9     -4.54      0.00
    1    9    9     -0.73      0.00
    2    9    9      0.14      0.00
    3    9    9     -3.91      0.00
    4    9    9     -1.03      0.00
    5    9    9      0.81      0.00
   -5   10    9     -0.67      0.00
   -4   10    9     -0.11      0.00
   -3   10    9      3.02      0.00
   -2   10    9     -1.86      0.00
   -1   10    9     -3.25      0.00
    0   10    9      6.58      0.00
    1   10    9      2.90      0.00
    2   10    9     -4.80      0.00
    3   10    9      1.05      0.00
    4   10    9      0.83      0.00
    5   10    9     -0.71      0.00
   -5   11    9      0.49      0.00
   -4   11    9     -1.05      0.00
   -3   11    9      1.37      0.00
   -2   11    9      0.66      0.00
   -1   11    9     -2.24      0.00
    0   11    9     -1.32      0.00
    1   11    9      1.49      0.00
    2   11    9      2.71      0.00
    3   11    9     -1.28      0.00
    4   11    9     -0.35      0.00
    5   11    9     -0.13      0.00
   -4   12    9      0.29      0.00
   -3   12    9      1.40      0.00
   -2   12    9     -1.66      0.00
   -1   12    9     -0.47      0.00
    0   12    9      6.54      0.00
    1   12    9     -1.25      0.00
    2   12    9     -2.24      0.00
    3   12    9      0.04      0.00
    4   12    9      0.70      0.00
    5   12    9     -0.98      0.00
   -4   13    9     -0.60      0.00
   -3   13    9      0.12      0.00
   -2   13    9      1.00      0.00
   -1   13    9      1.56      0.00
    0   13    9     -0.70      0.00
    1   13    9      2.03      0.00
    2   13    9     -0.11      0.00
    3   13    9     -0.55      0.00
    4   13    9      0.14      0.00
   -4   14    9      0.42      0.00
   -3   14    9      0.55      0.00
   -2   14    9     -1.87      0.00
   -1   14    9     -0.24      0.00
    0   14    9      4.58      0.00
    1   14    9     -0.65      0.00
    2   14    9     -0.44      0.00
    3   14    9      0.48      0.00
    4   14    9      0.27      0.00
   -3   15    9      0.18      0.00
   -2   15    9      0.80      0.00
   -1   15    9     -0.95      0.00
    0   15    9      1.01      0.00
    1   15    9      0.81      0.00
    2   15    9     -0.18      0.00
    3   15    9      0.60      0.00
    4   15    9      0.37      0.00
   -3   16    9      0.63      0.00
   -2   16    9     -0.77      0.00
   -1   16    9     -2.05      0.00
    0   16    9      2.47      0.00
    1   16    9     -0.59      0.00
    2   16    9      0.44      0.00
    3   16    9      0.62      0.00
   -2   17    9      0.03      0.00
   -1   17    9     -0.64      0.00
    0   17    9      1.02      0.00
    1   17    9     -0.53      0.00
    2   17    9     -0.97      0.00
   -1   18    9     -0.08      0.00
    0   18    9      0.29      0.00
    1  -14   10     -0.67      0.00
   -1  -13   10     -0.88      0.00
    0  -13   10      0.85      0.00
    1  -13   10      1.31      0.00
    2  -13   10     -1.29      0.00
   -2  -12   10     -0.15      0.00
   -1  -12   10      0.04      0.00
    0  -12   10      1.71      0.00
    1  -12   10      0.57      0.00
    2  -12   10     -1.00      0.00
    3  -12   10      0.02      0.00
   -2  -11   10     -0.63      0.00
   -1  -11   10     -2.32      0.00
    0  -11   10      2.27      0.00
    1  -11   10      0.04      0.00
    2  -11   10     -2.08      0.00
    3  -11   10      1.39      0.00
    4  -11   10      0.41      0.00
   -3  -10   10     -0.60      0.00
   -2  -10   10      0.88      0.00
   -1  -10   10      0.63      0.00
    0  -10   10      2.74      0.00
    1  -10   10     -1.04      0.00
    2  -10   10     -0.18      0.00
    3  -10   10      0.70      0.00
    4  -10   10      0.05      0.00
   -4   -9   10      0.27      0.00
   -3   -9   10      1.79      0.00
   -2   -9   10     -0.58      0.00
   -1   -9   10     -1.85      0.00
    0   -9   10      4.10      0.00
    1   -9   10     -1.51      0.00
    2   -9   10     -0.05      0.00
    3   -9   10      2.96      0.00
    4   -9   10     -0.33      0.00
   -4   -8   10      0.88      0.00
   -3   -8   10     -1.55      0.00
   -2   -8   10     -0.42      0.00
   -1   -8   10     -3.10      0.00
    0   -8   10      3.97      0.00
    1   -8   10      0.51      0.00
    2   -8   10      0.43      0.00
    3   -8   10     -0.94      0.00
    4   -8   10      0.64      0.00
    5   -8   10     -0.19      0.00
   -4   -7   10      0.30      0.00
   -3   -7   10      1.25      0.00
   -2   -7   10     -2.98      0.00
   -1   -7   10     -1.45      0.00
    0   -7   10      1.01      0.00
    1   -7   10     -1.50      0.00
    2   -7   10     -0.74      0.00
    3   -7   10      2.65      0.00
    4   -7   10     -0.17      0.00
    5   -7   10      0.47      0.00
   -5   -6   10      0.23      0.00
   -4   -6   10      0.00      0.00
   -3   -6   10     -0.34      0.00
   -2   -6   10     -1.01      0.00
   -1   -6   10     -2.88      0.00
    0   -6   10      5.56      0.00
    1   -6   10      3.78      0.00
    2   -6   10      0.26      0.00
    3   -6   10      0.47      0.00
    4   -6   10      1.27      0.00
    5   -6   10     -0.36      0.00
   -5   -5   10     -0.34      0.00
   -4   -5   10      1.38      0.00
   -3   -5   10      0.60      0.00
   -2   -5   10     -4.39      0.00
   -1   -5   10      3.69      0.00
    0   -5   10      1.66      0.00
    1   -5   10     -5.83      0.00
    2   -5   10     -4.24      0.00
    3   -5   10      0.96      0.00
    4   -5   10     -1.49      0.00
    5   -5   10      0.17      0.00
   -5   -4   10     -0.02      0.00
   -4   -4   10     -0.18      0.00
   -3   -4   10      1.91      0.00
   -2   -4   10     -2.37      0.00
   -1   -4   10      2.10      0.00
    0   -4   10      4.13      0.00
    1   -4   10     -6.81      0.00
    2   -4   10     -3.71      0.00
    3   -4   10      2.66      0.00
    4   -4   10      0.37      0.00
    5   -4   10     -0.93      0.00
   -5   -3   10     -0.10      0.00
   -4   -3   10      1.31      0.00
   -3   -3   10      0.60      0.00
   -2   -3   10     -3.42      0.00
   -1   -3   10      5.77      0.00
    0   -3   10     -5.96      0.00
    1   -3   10     -9.49      0.00
    2   -3   10      1.66      0.00
    3   -3   10     -1.44      0.00
    4   -3   10     -1.94      0.00
    5   -3   10      0.59      0.00
    6   -3   10     -0.19      0.00
   -5   -2   10     -0.46      0.00
   -4   -2   10      0.59      0.00
   -3   -2   10      2.15      0.00
   -2   -2   10     -4.72      0.00
   -1   -2   10      7.47      0.00
    0   -2   10     -0.95      0.00
    1   -2   10    -13.28      0.00
    2   -2   10     -5.41      0.00
    3   -2   10      2.56      0.00
    4   -2   10     -0.06      0.00
    5   -2   10     -1.29      0.00
    6   -2   10     -0.55      0.00
   -5   -1   10      0.68      0.00
   -4   -1   10      0.75      0.00
   -3   -1   10     -2.39      0.00
   -2   -1   10      0.16      0.00
   -1   -1   10      5.30      0.00
    0   -1   10    -22.43      0.00
    1   -1   10     -2.87      0.00
    2   -1   10      4.87      0.00
    3   -1   10     -2.35      0.00
    4   -1   10     -2.05      0.00
    5   -1   10      0.59      0.00
    6   -1   10      0.20      0.00
   -5    0   10     -0.16      0.00
   -4    0   10      0.57      0.00
   -3    0   10      2.95      0.00
   -2    0   10     -4.87      0.00
   -1    0   10      8.13      0.00
    0    0   10     10.15      0.00
    1    0   10     -0.08      0.00
    2    0   10     -1.14      0.00
    3    0   10      2.81      0.00
    4    0   10     -0.69      0.00
    5    0   10     -1.04      0.00
    6    0   10     -0.20      0.00
   -5    1   10      0.74      0.00
   -4    1   10      0.44      0.00
   -3    1   10     -3.20      0.00
   -2    1   10      1.11      0.00
   -1    1   10      6.49      0.00
    0    1   10      3.07      0.00
    1    1   10      1.65      0.00
    2    1   10      0.87      0.00
    3    1   10     -1.83      0.00
    4    1   10     -0.51      0.00
    5    1   10      0.28      0.00
    6    1   10      0.15      0.00
   -5    2   10     -0.49      0.00
   -4    2   10      2.26      0.00
   -3    2   10      0.60      0.00
   -2    2   10     -8.87      0.00
   -1    2   10     13.38      0.00
    0    2   10      0.47      0.00
    1    2   10    -13.30      0.00
    2    2   10      1.83      0.00
    3    2   10      1.22      0.00
    4    2   10     -2.32      0.00
    5    2   10     -1.57      0.00
    6    2   10     -0.35      0.00
   -5    3   10      0.65      0.00
   -4    3   10     -1.49      0.00
   -3    3   10     -3.05      0.00
   -2    3   10      3.58      0.00
   -1    3   10      2.44      0.00
    0    3   10      6.73      0.00
    1    3   10     -1.80      0.00
    2    3   10      4.52      0.00
    3    3   10     -1.41      0.00
    4    3   10      0.86      0.00
    5    3   10      1.80      0.00
    6    3   10      0.46      0.00
   -5    4   10     -1.39      0.00
   -4    4   10      3.54      0.00
   -3    4   10     -2.61      0.00
   -2    4   10     -6.21      0.00
   -1    4   10     12.47      0.00
    0    4   10    -13.07      0.00
    1    4   10    -11.31      0.00
    2    4   10      2.69      0.00
    3    4   10      3.79      0.00
    4    4   10     -0.20      0.00
    5    4   10     -0.85      0.00
    6    4   10      0.10      0.00
   -5    5   10      1.38      0.00
   -4    5   10     -0.73      0.00
   -3    5   10     -2.75      0.00
   -2    5   10      7.96      0.00
   -1    5   10     -3.61      0.00
    0    5   10     -2.21      0.00
    1    5   10      4.85      0.00
    2    5   10      6.66      0.00
    3    5   10      0.41      0.00
    4    5   10      1.23      0.00
    5    5   10      1.11      0.00
    6    5   10      0.19      0.00
   -5    6   10      0.26      0.00
   -4    6   10      2.68      0.00
   -3    6   10     -3.24      0.00
   -2    6   10      1.82      0.00
   -1    6   10      3.98      0.00
    0    6   10     -2.74      0.00
    1    6   10     -0.98      0.00
    2    6   10      4.42      0.00
    3    6   10      4.01      0.00
    4    6   10     -0.05      0.00
    5    6   10      0.06      0.00
    6    6   10      0.10      0.00
   -5    7   10      1.07      0.00
   -4    7   10     -1.99      0.00
   -3    7   10     -1.00      0.00
   -2    7   10      4.98      0.00
   -1    7   10    -10.07      0.00
    0    7   10     -8.67      0.00
    1    7   10     10.03      0.00
    2    7   10      4.30      0.00
    3    7   10     -0.61      0.00
    4    7   10     -0.03      0.00
    5    7   10      1.33      0.00
    6    7   10     -0.27      0.00
   -5    8   10     -0.24      0.00
   -4    8   10      1.71      0.00
   -3    8   10     -2.89      0.00
   -2    8   10     -0.57      0.00
   -1    8   10     -2.94      0.00
    0    8   10     -1.32      0.00
    1    8   10     -5.91      0.00
    2    8   10      0.46      0.00
    3    8   10      0.97      0.00
    4    8   10     -1.29      0.00
    5    8   10     -1.15      0.00
    6    8   10     -0.06      0.00
   -5    9   10     -0.03      0.00
   -4    9   10     -0.93      0.00
   -3    9   10      0.58      0.00
   -2    9   10      3.51      0.00
   -1    9   10      0.88      0.00
    0    9   10     -1.62      0.00
    1    9   10      9.88      0.00
    2    9   10      1.44      0.00
    3    9   10     -1.45      0.00
    4    9   10      0.18      0.00
    5    9   10      1.32      0.00
   -5   10   10      0.41      0.00
   -4   10   10      0.48      0.00
   -3   10   10     -3.01      0.00
   -2   10   10      2.33      0.00
   -1   10   10      0.04      0.00
    0   10   10     -4.49      0.00
    1   10   10     -0.10      0.00
    2   10   10      0.05      0.00
    3   10   10      0.58      0.00
    4   10   10      0.02      0.00
    5   10   10     -0.17      0.00
   -4   11   10     -1.51      0.00
   -3   11   10      0.87      0.00
   -2   11   10      1.47      0.00
   -1   11   10     -3.19      0.00
    0   11   10     -3.63      0.00
    1   11   10      2.01      0.00
    2   11   10     -1.67      0.00
    3   11   10     -3.73      0.00
    4   11   10     -1.07      0.00
    5   11   10      1.08      0.00
   -4   12   10     -0.36      0.00
   -3   12   10     -0.48      0.00
   -2   12   10      2.31      0.00
   -1   12   10      1.54      0.00
    0   12   10     -2.99      0.00
    1   12   10      1.37      0.00
    2   12   10      0.11      0.00
    3   12   10      0.28      0.00
    4   12   10     -0.02      0.00
    5   12   10     -0.27      0.00
   -4   13   10     -0.19      0.00
   -3   13   10      2.05      0.00
   -2   13   10      1.76      0.00
   -1   13   10     -3.61      0.00
    0   13   10      0.15      0.00
    1   13   10      2.05      0.00
    2   13   10      1.33      0.00
    3   13   10     -2.06      0.00
    4   13   10     -0.08      0.00
   -3   14   10     -0.48      0.00
   -2   14   10      0.99      0.00
   -1   14   10      1.47      0.00
    0   14   10     -0.79      0.00
    1   14   10      1.00      0.00
    2   14   10     -0.64      0.00
    3   14   10     -0.25      0.00
    4   14   10      0.34      0.00
   -3   15   10      0.59      0.00
   -2   15   10     -0.04      0.00
   -1   15   10     -1.46      0.00
    0   15   10      0.46      0.00
    1   15   10      1.92      0.00
    2   15   10      0.66      0.00
    3   15   10     -0.54      0.00
    4   15   10     -0.03      0.00
   -2   16   10      0.35      0.00
   -1   16   10      0.85      0.00
    0   16   10      0.72      0.00
    1   16   10      0.35      0.00
    2   16   10     -0.15      0.00
    3   16   10      0.06      0.00
   -1   17   10     -1.49      0.00
    0   17   10      0.25      0.00
    1   17   10      1.11      0.00
    2   17   10      0.41      0.00
    0   18   10      1.59      0.00
   -1  -13   11      0.38      0.00
    1  -13   11     -0.36      0.00
   -1  -12   11      0.08      0.00
    0  -12   11     -1.66      0.00
    1  -12   11      0.13      0.00
    2  -12   11     -0.05      0.00
    3  -12   11     -1.04      0.00
   -2  -11   11      0.22      0.00
   -1  -11   11      0.03      0.00
    0  -11   11     -0.60      0.00
    1  -11   11      2.74      0.00
    2  -11   11     -0.41      0.00
    3  -11   11     -0.87      0.00
   -2  -10   11      1.21      0.00
   -1  -10   11     -0.65      0.00
    0  -10   11     -1.22      0.00
    1  -10   11      1.79      0.00
    2  -10   11     -0.26      0.00
    3  -10   11     -1.64      0.00
    4  -10   11      0.32      0.00
   -3   -9   11      0.07      0.00
   -2   -9   11      0.52      0.00
   -1   -9   11      0.06      0.00
    0   -9   11      0.70      0.00
    1   -9   11      3.78      0.00
    2   -9   11     -1.95      0.00
    3   -9   11     -0.98      0.00
    4   -9   11      0.40      0.00
   -4   -8   11     -0.79      0.00
   -3   -8   11      0.52      0.00
   -2   -8   11      2.58      0.00
   -1   -8   11     -1.50      0.00
    0   -8   11      2.33      0.00
    1   -8   11      0.76      0.00
    2   -8   11     -1.41      0.00
    3   -8   11     -0.31      0.00
    4   -8   11      0.76      0.00
   -4   -7   11      0.12      0.00
   -3   -7   11      0.26      0.00
   -2   -7   11      1.20      0.00
   -1   -7   11     -3.33      0.00
    0   -7   11      4.16      0.00
    1   -7   11      2.08      0.00
    2   -7   11      0.15      0.00
    3   -7   11      0.65      0.00
    4   -7   11      0.45      0.00
    5   -7   11     -0.63      0.00
   -4   -6   11     -0.97      0.00
   -3   -6   11      0.63      0.00
   -2   -6   11      1.13      0.00
   -1   -6   11     -2.86      0.00
    0   -6   11      1.33      0.00
    1   -6   11      3.31      0.00
    2   -6   11     -1.58      0.00
    3   -6   11     -1.01      0.00
    4   -6   11      1.81      0.00
    5   -6   11      0.43      0.00
   -5   -5   11     -0.30      0.00
   -4   -5   11     -0.29      0.00
   -3   -5   11      0.00      0.00
   -2   -5   11      1.46      0.00
   -1   -5   11     -8.46      0.00
    0   -5   11      7.05      0.00
    1   -5   11      2.81      0.00
    2   -5   11      3.75      0.00
    3   -5   11      2.50      0.00
    4   -5   11      1.00      0.00
    5   -5   11      0.47      0.00
   -5   -4   11      0.48      0.00
   -4   -4   11      0.13      0.00
   -3   -4   11     -0.69      0.00
   -2   -4   11     -0.80      0.00
   -1   -4   11     -3.63      0.00
    0   -4   11      5.16      0.00
    1   -4   11     11.10      0.00
    2   -4   11     -2.74      0.00
    3   -4   11     -0.18      0.00
    4   -4   11      2.29      0.00
    5   -4   11     -0.25      0.00
   -5   -3   11     -0.61      0.00
   -4   -3   11     -0.60      0.00
   -3   -3   11      1.49      0.00
   -2   -3   11      1.10      0.00
   -1   -3   11     -8.43      0.00
    0   -3   11      5.63      0.00
    1   -3   11     -0.24      0.00
    2   -3   11     -2.67      0.00
    3   -3   11      0.54      0.00
    4   -3   11     -0.50      0.00
    5   -3   11      0.74      0.00
   -5   -2   11      0.11      0.00
   -4   -2   11      0.25      0.00
   -3   -2   11      0.83      0.00
   -2   -2   11     -4.69      0.00
   -1   -2   11     -6.77      0.00
    0   -2   11      5.76      0.00
    1   -2   11      4.02      0.00
    2   -2   11     -5.23      0.00
    3   -2   11      1.17      0.00
    4   -2   11      1.18      0.00
    5   -2   11     -1.34      0.00
    6   -2   11     -0.07      0.00
   -5   -1   11     -0.49      0.00
   -4   -1   11     -0.84      0.00
   -3   -1   11      2.52      0.00
   -2   -1   11     -2.35      0.00
   -1   -1   11     -1.41      0.00
    0   -1   11      4.68      0.00
    1   -1   11     -5.92      0.00
    2   -1   11     -4.77      0.00
    3   -1   11     -0.38      0.00
    4   -1   11     -0.03      0.00
    5   -1   11      0.53      0.00
    6   -1   11      0.06      0.00
   -5    0   11     -0.45      0.00
   -4    0   11      0.40      0.00
   -3    0   11      1.47      0.00
   -2    0   11     -2.45      0.00
   -1    0   11      2.16      0.00
    0    0   11     -6.55      0.00
    1    0   11    -10.18      0.00
    2    0   11     -5.04      0.00
    3    0   11      2.17      0.00
    4    0   11     -0.40      0.00
    5    0   11     -1.02      0.00
    6    0   11      0.51      0.00
   -5    1   11      0.33      0.00
   -4    1   11     -0.80      0.00
   -3    1   11      3.38      0.00
   -2    1   11     -0.11      0.00
   -1    1   11     -1.13      0.00
    0    1   11      0.34      0.00
    1    1   11      0.03      0.00
    2    1   11     -2.55      0.00
    3    1   11     -2.23      0.00
    4    1   11      0.49      0.00
    5    1   11      0.70      0.00
    6    1   11     -0.78      0.00
   -5    2   11     -0.22      0.00
   -4    2   11      1.28      0.00
   -3    2   11      1.15      0.00
   -2    2   11     -1.44      0.00
   -1    2   11     10.92      0.00
    0    2   11      4.11      0.00
    1    2   11     -2.57      0.00
    2    2   11     -2.79      0.00
    3    2   11      4.39      0.00
    4    2   11     -0.69      0.00
    5    2   11     -1.63      0.00
    6    2   11      1.19      0.00
   -5    3   11      0.03      0.00
   -4    3   11     -1.47      0.00
   -3    3   11      2.36      0.00
   -2    3   11     -3.86      0.00
   -1    3   11     -3.99      0.00
    0    3   11     -5.86      0.00
    1    3   11     -1.07      0.00
    2    3   11     -2.69      0.00
    3    3   11     -3.50      0.00
    4    3   11      1.36      0.00
    5    3   11      0.00      0.00
    6    3   11     -1.14      0.00
   -5    4   11      0.49      0.00
   -4    4   11      0.69      0.00
   -3    4   11      0.48      0.00
   -2    4   11     -4.91      0.00
   -1    4   11      2.63      0.00
    0    4   11     13.91      0.00
    1    4   11     -6.72      0.00
    2    4   11     -1.23      0.00
    3    4   11      1.62      0.00
    4    4   11     -2.53      0.00
    5    4   11     -1.15      0.00
    6    4   11      0.88      0.00
   -5    5   11     -1.43      0.00
   -4    5   11     -1.09      0.00
   -3    5   11      2.39      0.00
   -2    5   11     -6.33      0.00
   -1    5   11      6.08      0.00
    0    5   11      5.78      0.00
    1    5   11     -2.55      0.00
    2    5   11     -2.42      0.00
    3    5   11     -1.56      0.00
    4    5   11      2.88      0.00
    5    5   11     -0.23      0.00
    6    5   11     -0.51      0.00
   -5    6   11      0.41      0.00
   -4    6   11      1.73      0.00
   -3    6   11     -3.02      0.00
   -2    6   11     -4.13      0.00
   -1    6   11      9.17      0.00
    0    6   11      4.21      0.00
    1    6   11    -11.25      0.00
    2    6   11      4.13      0.00
    3    6   11      2.70      0.00
    4    6   11     -1.10      0.00
    5    6   11     -0.17      0.00
    6    6   11      1.03      0.00
   -5    7   11     -0.65      0.00
   -4    7   11      0.67      0.00
   -3    7   11      0.82      0.00
   -2    7   11     -1.28      0.00
   -1    7   11      5.13      0.00
    0    7   11      3.64      0.00
    1    7   11     -4.03      0.00
    2    7   11     -4.17      0.00
    3    7   11     -0.73      0.00
    4    7   11      1.48      0.00
    5    7   11      0.14      0.00
    6    7   11     -0.47      0.00
   -5    8   11      0.61      0.00
   -4    8   11      0.36      0.00
   -3    8   11     -2.32      0.00
   -2    8   11     -0.01      0.00
   -1    8   11      5.98      0.00
    0    8   11     -5.19      0.00
    1    8   11     -3.62      0.00
    2    8   11      7.17      0.00
    3    8   11      2.40      0.00
    4    8   11      0.58      0.00
    5    8   11      0.18      0.00
    6    8   11      0.71      0.00
   -5    9   11     -0.08      0.00
   -4    9   11      0.87      0.00
   -3    9   11      0.19      0.00
   -2    9   11     -1.39      0.00
   -1    9   11     -4.10      0.00
    0    9   11      1.76      0.00
    1    9   11     -1.45      0.00
    2    9   11     -2.34      0.00
    3    9   11      1.92      0.00
    4    9   11      0.51      0.00
    5    9   11      0.19      0.00
   -4   10   11      0.32      0.00
   -3   10   11     -2.00      0.00
   -2   10   11      0.79      0.00
   -1   10   11      1.74      0.00
    0   10   11     -5.50      0.00
    1   10   11     -2.90      0.00
    2   10   11      5.07      0.00
    3   10   11      0.13      0.00
    4   10   11     -0.03      0.00
    5   10   11      0.50      0.00
   -4   11   11      1.19      0.00
   -3   11   11      0.15      0.00
   -2   11   11     -0.22      0.00
   -1   11   11      0.44      0.00
    0   11   11      5.50      0.00
    1   11   11      3.47      0.00
    2   11   11     -1.56      0.00
    3   11   11      2.83      0.00
    4   11   11      1.09      0.00
    5   11   11     -0.26      0.00
   -4   12   11      0.57      0.00
   -3   12   11     -2.10      0.00
   -2   12   11     -0.16      0.00
   -1   12   11      0.64      0.00
    0   12   11     -6.71      0.00
    1   12   11     -2.35      0.00
    2   12   11      2.43      0.00
    3   12   11     -0.54      0.00
    4   12   11     -0.82      0.00
    5   12   11      0.91      0.00
   -4   13   11      0.13      0.00
   -3   13   11      0.03      0.00
   -2   13   11     -1.24      0.00
   -1   13   11      1.53      0.00
    0   13   11     -0.16      0.00
    1   13   11     -0.24      0.00
    2   13   11     -2.29      0.00
    3   13   11     -0.31      0.00
    4   13   11     -0.29      0.00
   -3   14   11     -0.35      0.00
   -2   14   11      1.44      0.00
   -1   14   11      1.47      0.00
    0   14   11     -3.79      0.00
    1   14   11      0.06      0.00
    2   14   11      1.82      0.00
    3   14   11     -0.27      0.00
    4   14   11     -0.71      0.00
   -2   15   11     -0.18      0.00
   -1   15   11      1.07      0.00
    0   15   11     -0.78      0.00
    1   15   11     -0.47      0.00
    2   15   11     -0.61      0.00
    3   15   11     -0.92      0.00
    4   15   11      0.18      0.00
   -2   16   11      0.72      0.00
   -1   16   11      0.54      0.00
    0   16   11     -2.19      0.00
    1   16   11      0.25      0.00
    2   16   11     -0.07      0.00
    3   16   11      0.13      0.00
   -1   17   11      0.38      0.00
    0   17   11     -0.42      0.00
    1   17   11     -0.20      0.00
    2   17   11      0.82      0.00
    0   18   11     -1.46      0.00
   -1  -12   12      0.28      0.00
    0  -12   12     -1.21      0.00
    1  -12   12     -0.33      0.00
    2  -12   12     -0.32      0.00
   -1  -11   12      0.93      0.00
    0  -11   12     -1.82      0.00
    1  -11   12     -2.30      0.00
    2  -11   12      0.77      0.00
    3  -11   12     -0.19      0.00
   -2  -10   12     -0.12      0.00
   -1  -10   12      0.45      0.00
    0  -10   12     -1.18      0.00
    1  -10   12     -0.07      0.00
    2  -10   12      0.69      0.00
    3  -10   12     -0.42      0.00
    4  -10   12     -0.05      0.00
   -3   -9   12     -0.34      0.00
   -2   -9   12      0.48      0.00
   -1   -9   12      2.60      0.00
    0   -9   12     -3.52      0.00
    1   -9   12     -1.40      0.00
    2   -9   12      2.38      0.00
    3   -9   12     -1.25      0.00
    4   -9   12     -0.25      0.00
   -3   -8   12      0.78      0.00
   -2   -8   12     -0.48      0.00
   -1   -8   12      1.34      0.00
    0   -8   12     -2.99      0.00
    1   -8   12      1.57      0.00
    2   -8   12      1.21      0.00
    3   -8   12     -1.37      0.00
    4   -8   12     -0.68      0.00
   -4   -7   12     -0.02      0.00
   -3   -7   12     -1.95      0.00
   -2   -7   12      1.81      0.00
   -1   -7   12      1.78      0.00
    0   -7   12     -1.73      0.00
    1   -7   12      1.70      0.00
    2   -7   12      1.06      0.00
    3   -7   12     -3.17      0.00
    4   -7   12      0.18      0.00
    5   -7   12      0.33      0.00
   -4   -6   12     -0.65      0.00
   -3   -6   12      0.34      0.00
   -2   -6   12     -0.35      0.00
   -1   -6   12      0.48      0.00
    0   -6   12     -1.42      0.00
    1   -6   12      0.49      0.00
    2   -6   12      0.47      0.00
    3   -6   12      0.71      0.00
    4   -6   12     -0.32      0.00
    5   -6   12     -0.18      0.00
   -4   -5   12     -0.57      0.00
   -3   -5   12     -1.03      0.00
   -2   -5   12      3.15      0.00
   -1   -5   12      0.02      0.00
    0   -5   12     -2.70      0.00
    1   -5   12      5.96      0.00
    2   -5   12      2.12      0.00
    3   -5   12     -3.03      0.00
    4   -5   12      0.96      0.00
    5   -5   12      0.28      0.00
   -4   -4   12     -0.59      0.00
   -3   -4   12     -0.40      0.00
   -2   -4   12      1.01      0.00
   -1   -4   12     -0.60      0.00
    0   -4   12      4.51      0.00
    1   -4   12     -3.21      0.00
    2   -4   12      0.25      0.00
    3   -4   12      1.21      0.00
    4   -4   12     -0.23      0.00
    5   -4   12      0.57      0.00
   -5   -3   12      0.54      0.00
   -4   -3   12     -0.31      0.00
   -3   -3   12     -1.39      0.00
   -2   -3   12      4.57      0.00
   -1   -3   12     -3.30      0.00
    0   -3   12     -0.97      0.00
    1   -3   12     11.61      0.00
    2   -3   12      4.86      0.00
    3   -3   12      0.32      0.00
    4   -3   12      2.33      0.00
    5   -3   12      0.75      0.00
   -5   -2   12      0.32      0.00
   -4   -2   12      0.37      0.00
   -3   -2   12     -1.53      0.00
   -2   -2   12      4.43      0.00
   -1   -2   12     -3.66      0.00
    0   -2   12      1.69      0.00
    1   -2   12      1.16      0.00
    2   -2   12      4.56      0.00
    3   -2   12     -0.36      0.00
    4   -2   12     -0.24      0.00
    5   -2   12      1.43      0.00
    6   -2   12      0.68      0.00
   -5   -1   12      0.04      0.00
   -4   -1   12     -0.43      0.00
   -3   -1   12      0.49      0.00
   -2   -1   12      1.59      0.00
   -1   -1   12    -12.80      0.00
    0   -1   12     -1.91      0.00
    1   -1   12     12.04      0.00
    2   -1   12     -3.19      0.00
    3   -1   12      0.40      0.00
    4   -1   12      2.12      0.00
    5   -1   12      0.07      0.00
    6   -1   12     -0.46      0.00
   -5    0   12      0.69      0.00
   -4    0   12     -0.28      0.00
   -3    0   12     -2.84      0.00
   -2    0   12      0.23      0.00
   -1    0   12     -6.73      0.00
    0    0   12     -6.09      0.00
    1    0   12      4.57      0.00
    2    0   12      4.68      0.00
    3    0   12     -1.34      0.00
    4    0   12     -0.45      0.00
    5    0   12      0.20      0.00
    6    0   12      0.58      0.00
   -5    1   12     -0.94      0.00
   -4    1   12     -1.47      0.00
   -3    1   12      3.57      0.00
   -2    1   12      0.58      0.00
   -1    1   12    -10.17      0.00
    0    1   12      7.10      0.00
    1    1   12      5.47      0.00
    2    1   12     -6.53      0.00
    3    1   12      1.14      0.00
    4    1   12      0.87      0.00
    5    1   12      0.25      0.00
    6    1   12     -0.08      0.00
   -5    2   12      0.86      0.00
   -4    2   12     -0.50      0.00
   -3    2   12     -1.46      0.00
   -2    2   12      3.36      0.00
   -1    2   12     -1.71      0.00
    0    2   12     -5.23      0.00
    1    2   12      0.58      0.00
    2    2   12      0.33      0.00
    3    2   12     -3.49      0.00
    4    2   12      0.02      0.00
    5    2   12      0.70      0.00
    6    2   12      0.48      0.00
   -5    3   12     -0.73      0.00
   -4    3   12      0.02      0.00
   -3    3   12      4.17      0.00
   -2    3   12      0.12      0.00
   -1    3   12      2.06      0.00
    0    3   12      6.00      0.00
    1    3   12     -1.55      0.00
    2    3   12     -6.76      0.00
    3    3   12      1.28      0.00
    4    3   12     -0.06      0.00
    5    3   12     -0.89      0.00
    6    3   12     -0.04      0.00
   -5    4   12      1.12      0.00
   -4    4   12     -1.32      0.00
   -3    4   12     -0.17      0.00
   -2    4   12      7.12      0.00
   -1    4   12     -1.45      0.00
    0    4   12    -11.17      0.00
    1    4   12      4.69      0.00
    2    4   12      1.66      0.00
    3    4   12     -3.11      0.00
    4    4   12      0.87      0.00
    5    4   12      1.06      0.00
    6    4   12      0.28      0.00
   -5    5   12     -0.61      0.00
   -4    5   12     -0.51      0.00
   -3    5   12      3.96      0.00
   -2    5   12     -4.72      0.00
   -1    5   12     -7.83      0.00
    0    5   12     -0.31      0.00
    1    5   12     -1.90      0.00
    2    5   12     -7.46      0.00
    3    5   12      0.33      0.00
    4    5   12      0.54      0.00
    5    5   12     -1.01      0.00
    6    5   12     -0.35      0.00
   -5    6   12      0.58      0.00
   -4    6   12     -2.11      0.00
   -3    6   12      1.86      0.00
   -2    6   12      2.92      0.00
   -1    6   12     -4.02      0.00
    0    6   12      5.42      0.00
    1    6   12      8.68      0.00
    2    6   12      1.33      0.00
    3    6   12     -3.04      0.00
    4    6   12      0.06      0.00
    5    6   12     -0.34      0.00
    6    6   12      0.12      0.00
   -5    7   12     -0.70      0.00
   -4    7   12      0.83      0.00
   -3    7   12      2.53      0.00
   -2    7   12     -5.85      0.00
   -1    7   12      2.17      0.00
    0    7   12      9.27      0.00
    1    7   12     -4.90      0.00
    2    7   12     -2.99      0.00
    3    7   12      1.12      0.00
    4    7   12      0.36      0.00
    5    7   12     -0.89      0.00
    6    7   12      0.02      0.00
   -4    8   12     -1.20      0.00
   -3    8   12      0.89      0.00
   -2    8   12     -0.90      0.00
   -1    8   12     -2.44      0.00
    0    8   12      5.62      0.00
    1    8   12      3.24      0.00
    2    8   12     -0.70      0.00
    3    8   12     -2.06      0.00
    4    8   12     -0.25      0.00
    5    8   12      0.48      0.00
    6    8   12      0.05      0.00
   -4    9   12      1.13      0.00
   -3    9   12      1.11      0.00
   -2    9   12     -5.76      0.00
   -1    9   12      5.38      0.00
    0    9   12      5.81      0.00
    1    9   12     -8.84      0.00
    2    9   12     -2.67      0.00
    3    9   12     -0.16      0.00
    4    9   12      0.32      0.00
    5    9   12     -1.74      0.00
   -4   10   12     -0.73      0.00
   -3   10   12      0.95      0.00
   -2   10   12     -0.73      0.00
   -1   10   12      0.70      0.00
    0   10   12      3.29      0.00
    1   10   12      3.03      0.00
    2   10   12      0.26      0.00
    3   10   12      0.70      0.00
    4   10   12     -0.88      0.00
    5   10   12      0.60      0.00
   -4   11   12     -0.14      0.00
   -3   11   12     -0.79      0.00
   -2   11   12     -2.59      0.00
   -1   11   12      0.20      0.00
    0   11   12     -0.28      0.00
    1   11   12     -6.06      0.00
    2   11   12     -0.52      0.00
    3   11   12      0.90      0.00
    4   11   12      1.23      0.00
    5   11   12     -0.60      0.00
   -4   12   12     -0.27      0.00
   -3   12   12      0.82      0.00
   -2   12   12      0.06      0.00
   -1   12   12     -0.61      0.00
    0   12   12      3.73      0.00
    1   12   12      1.03      0.00
    2   12   12     -0.83      0.00
    3   12   12      0.92      0.00
    4   12   12     -0.73      0.00
   -3   13   12     -1.04      0.00
   -2   13   12     -1.03      0.00
   -1   13   12      0.93      0.00
    0   13   12      1.48      0.00
    1   13   12     -1.91      0.00
    2   13   12      0.11      0.00
    3   13   12      2.50      0.00
    4   13   12      0.79      0.00
   -3   14   12      0.36      0.00
   -2   14   12     -0.65      0.00
   -1   14   12     -1.49      0.00
    0   14   12      0.26      0.00
    1   14   12     -1.33      0.00
    2   14   12     -0.54      0.00
    3   14   12     -0.40      0.00
    4   14   12     -0.38      0.00
   -3   15   12     -0.93      0.00
   -2   15   12     -1.32      0.00
   -1   15   12      1.83      0.00
    0   15   12      0.28      0.00
    1   15   12     -0.95      0.00
    2   15   12     -0.65      0.00
    3   15   12      1.01      0.00
   -2   16   12     -0.45      0.00
   -1   16   12      0.55      0.00
    0   16   12     -0.54      0.00
    1   16   12     -0.11      0.00
    2   16   12      0.70      0.00
   -1   17   12      1.14      0.00
    0   17   12     -0.19      0.00
    1   17   12     -0.98      0.00
    2   17   12     -1.03      0.00
    1  -12   13      0.29      0.00
   -1  -11   13      0.60      0.00
    0  -11   13      0.13      0.00
    1  -11   13     -0.50      0.00
    2  -11   13     -0.11      0.00
   -2  -10   13     -0.20      0.00
   -1  -10   13     -1.02      0.00
    0  -10   13      0.49      0.00
    1  -10   13     -1.17      0.00
    2  -10   13     -1.28      0.00
    3  -10   13      0.94      0.00
   -3   -9   13      0.07      0.00
   -2   -9   13     -0.74      0.00
   -1   -9   13     -0.03      0.00
    0   -9   13      1.10      0.00
    1   -9   13     -1.57      0.00
    2   -9   13      0.30      0.00
    3   -9   13      0.94      0.00
    4   -9   13     -0.23      0.00
   -3   -8   13      0.08      0.00
   -2   -8   13     -0.92      0.00
   -1   -8   13      1.80      0.00
    0   -8   13      0.17      0.00
    1   -8   13     -3.39      0.00
    2   -8   13     -1.11      0.00
    3   -8   13      1.54      0.00
    4   -8   13     -0.39      0.00
   -3   -7   13      0.85      0.00
   -2   -7   13     -0.51      0.00
   -1   -7   13      1.72      0.00
    0   -7   13     -2.40      0.00
    1   -7   13     -4.63      0.00
    2   -7   13      0.89      0.00
    3   -7   13      0.68      0.00
    4   -7   13     -1.16      0.00
   -4   -6   13      0.75      0.00
   -3   -6   13     -0.05      0.00
   -2   -6   13     -1.59      0.00
   -1   -6   13      3.77      0.00
    0   -6   13     -0.85      0.00
    1   -6   13     -3.87      0.00
    2   -6   13      1.07      0.00
    3   -6   13     -0.28      0.00
    4   -6   13     -1.57      0.00
    5   -6   13     -0.24      0.00
   -4   -5   13     -0.10      0.00
   -3   -5   13     -0.80      0.00
   -2   -5   13     -1.21      0.00
   -1   -5   13      3.55      0.00
    0   -5   13     -5.36      0.00
    1   -5   13     -2.73      0.00
    2   -5   13      0.09      0.00
    3   -5   13     -0.76      0.00
    4   -5   13     -0.39      0.00
    5   -5   13      0.06      0.00
   -4   -4   13      0.19      0.00
   -3   -4   13     -0.41      0.00
   -2   -4   13     -0.86      0.00
   -1   -4   13      2.53      0.00
    0   -4   13     -5.81      0.00
    1   -4   13     -2.43      0.00
    2   -4   13      5.75      0.00
    3   -4   13      0.31      0.00
    4   -4   13     -1.34      0.00
    5   -4   13     -0.25      0.00
   -4   -3   13     -0.27      0.00
   -3   -3   13     -0.69      0.00
   -2   -3   13     -2.00      0.00
   -1   -3   13      5.70      0.00
    0   -3   13      2.71      0.00
    1   -3   13      1.16      0.00
    2   -3   13     -3.74      0.00
    3   -3   13     -1.81      0.00
    4   -3   13      0.00      0.00
    5   -3   13     -0.44      0.00
   -5   -2   13     -0.64      0.00
   -4   -2   13     -0.36      0.00
   -3   -2   13     -1.37      0.00
   -2   -2   13      2.51      0.00
   -1   -2   13      5.19      0.00
    0   -2   13     -2.45      0.00
    1   -2   13     -4.37      0.00
    2   -2   13      5.50      0.00
    3   -2   13      1.36      0.00
    4   -2   13     -1.85      0.00
    5   -2   13      0.52      0.00
   -5   -1   13      0.26      0.00
   -4   -1   13      0.80      0.00
   -3   -1   13     -0.87      0.00
   -2   -1   13      1.57      0.00
   -1   -1   13      4.87      0.00
    0   -1   13      9.97      0.00
    1   -1   13      0.49      0.00
    2   -1   13      2.88      0.00
    3   -1   13     -0.02      0.00
    4   -1   13      1.00      0.00
    5   -1   13     -0.07      0.00
    6   -1   13      0.24      0.00
   -5    0   13      0.31      0.00
   -4    0   13      0.16      0.00
   -3    0   13     -1.24      0.00
   -2    0   13      4.76      0.00
   -1    0   13      2.77      0.00
    0    0   13     -8.17      0.00
    1    0   13     -1.50      0.00
    2    0   13      3.48      0.00
    3    0   13     -0.06      0.00
    4    0   13     -0.33      0.00
    5    0   13      1.72      0.00
    6    0   13      0.14      0.00
   -4    1   13      1.19      0.00
   -3    1   13     -2.80      0.00
   -2    1   13     -0.86      0.00
   -1    1   13     -2.42      0.00
    0    1   13     -7.85      0.00
    1    1   13     -1.18      0.00
    2    1   13      5.16      0.00
    3    1   13      1.79      0.00
    4    1   13      0.84      0.00
    5    1   13     -0.66      0.00
    6    1   13     -0.31      0.00
   -5    2   13      0.24      0.00
   -4    2   13     -1.51      0.00
   -3    2   13     -1.82      0.00
   -2    2   13      4.06      0.00
   -1    2   13     -8.63      0.00
    0    2   13     -4.92      0.00
    1    2   13     10.79      0.00
    2    2   13      3.58      0.00
    3    2   13     -1.40      0.00
    4    2   13     -0.95      0.00
    5    2   13      1.77      0.00
    6    2   13     -0.62      0.00
   -5    3   13     -0.61      0.00
   -4    3   13      1.34      0.00
   -3    3   13     -0.76      0.00
   -2    3   13     -0.52      0.00
   -1    3   13      1.20      0.00
    0    3   13      1.23      0.00
    1    3   13      1.65      0.00
    2    3   13      1.98      0.00
    3    3   13      2.13      0.00
    4    3   13     -0.05      0.00
    5    3   13     -0.62      0.00
    6    3   13      0.20      0.00
   -5    4   13      0.02      0.00
   -4    4   13     -1.42      0.00
   -3    4   13     -2.65      0.00
   -2    4   13      3.15      0.00
   -1    4   13     -4.78      0.00
    0    4   13     -1.96      0.00
    1    4   13      5.00      0.00
    2    4   13     -0.32      0.00
    3    4   13     -2.30      0.00
    4    4   13     -1.21      0.00
    5    4   13      1.13      0.00
    6    4   13     -0.63      0.00
   -5    5   13      0.50      0.00
   -4    5   13      1.75      0.00
   -3    5   13     -0.53      0.00
   -2    5   13      3.13      0.00
   -1    5   13      5.72      0.00
    0    5   13     -3.26      0.00
    1    5   13     -3.34      0.00
    2    5   13      0.71      0.00
    3    5   13     -0.11      0.00
    4    5   13     -2.08      0.00
    5    5   13     -0.43      0.00
    6    5   13      0.29      0.00
   -4    6   13     -2.07      0.00
   -3    6   13      0.46      0.00
   -2    6   13      4.27      0.00
   -1    6   13     -4.78      0.00
    0    6   13     -9.89      0.00
    1    6   13      5.83      0.00
    2    6   13     -2.52      0.00
    3    6   13     -1.37      0.00
    4    6   13      1.57      0.00
    5    6   13      1.42      0.00
    6    6   13     -0.46      0.00
   -4    7   13      0.55      0.00
   -3    7   13     -1.47      0.00
   -2    7   13      2.63      0.00
   -1    7   13      0.08      0.00
    0    7   13     -5.23      0.00
    1    7   13      0.41      0.00
    2    7   13      1.63      0.00
    3    7   13      0.17      0.00
    4    7   13     -1.38      0.00
    5    7   13     -0.63      0.00
    6    7   13      0.22      0.00
   -4    8   13     -1.12      0.00
   -3    8   13      2.12      0.00
   -2    8   13      4.45      0.00
   -1    8   13     -3.22      0.00
    0    8   13     -1.93      0.00
    1    8   13      4.58      0.00
    2    8   13     -2.40      0.00
    3    8   13     -2.04      0.00
    4    8   13      0.45      0.00
    5    8   13      0.13      0.00
   -4    9   13     -0.23      0.00
   -3    9   13     -0.04      0.00
   -2    9   13      1.43      0.00
   -1    9   13     -1.89      0.00
    0    9   13     -0.77      0.00
    1    9   13      4.08      0.00
    2    9   13      2.61      0.00
    3    9   13      0.66      0.00
    4    9   13     -0.33      0.00
    5    9   13     -0.07      0.00
   -4   10   13     -0.05      0.00
   -3   10   13      1.67      0.00
   -2   10   13     -0.76      0.00
   -1   10   13     -4.46      0.00
    0   10   13      3.13      0.00
    1   10   13     -1.14      0.00
    2   10   13     -2.53      0.00
    3   10   13     -2.23      0.00
    4   10   13      0.78      0.00
    5   10   13     -0.36      0.00
   -4   11   13      0.30      0.00
   -3   11   13      0.20      0.00
   -2   11   13     -0.80      0.00
   -1   11   13      0.75      0.00
    0   11   13      0.69      0.00
    1   11   13      0.62      0.00
    2   11   13      1.28      0.00
    3   11   13     -0.44      0.00
    4   11   13     -1.21      0.00
    5   11   13     -0.26      0.00
   -4   12   13     -0.73      0.00
   -3   12   13      0.82      0.00
   -2   12   13     -0.31      0.00
   -1   12   13     -1.15      0.00
    0   12   13      2.93      0.00
    1   12   13      1.91      0.00
    2   12   13     -0.97      0.00
    3   12   13     -0.58      0.00
    4   12   13      1.24      0.00
   -3   13   13     -0.37      0.00
   -2   13   13      0.55      0.00
   -1   13   13     -0.74      0.00
    0   13   13     -0.54      0.00
    1   13   13     -1.72      0.00
    2   13   13      0.48      0.00
    3   13   13     -0.25      0.00
    4   13   13     -0.28      0.00
   -3   14   13      0.54      0.00
   -2   14   13     -0.37      0.00
   -1   14   13     -1.15      0.00
    0   14   13      2.71      0.00
    1   14   13      1.56      0.00
    2   14   13     -1.50      0.00
    3   14   13      0.29      0.00
    4   14   13      0.41      0.00
   -2   15   13      1.55      0.00
   -1   15   13     -1.59      0.00
    0   15   13      0.30      0.00
    1   15   13     -1.10      0.00
    2   15   13      0.48      0.00
    3   15   13      0.37      0.00
   -2   16   13     -0.56      0.00
   -1   16   13     -1.32      0.00
    0   16   13      1.81      0.00
    1   16   13      0.21      0.00
    2   16   13     -0.95      0.00
   -1   17   13     -0.37      0.00
    0   17   13     -0.31      0.00
    1   17   13      0.17      0.00
    1  -11   14      1.40      0.00
   -1  -10   14      0.22      0.00
    1  -10   14      0.17      0.00
    2  -10   14      0.91      0.00
    3  -10   14      0.45      0.00
   -2   -9   14      0.65      0.00
   -1   -9   14     -2.05      0.00
    0   -9   14      0.84      0.00
    1   -9   14      1.23      0.00
    2   -9   14     -1.91      0.00
    3   -9   14     -0.09      0.00
   -3   -8   14     -0.39      0.00
   -2   -8   14     -0.57      0.00
   -1   -8   14     -1.34      0.00
    0   -8   14      1.31      0.00
    1   -8   14      1.70      0.00
    2   -8   14      0.13      0.00
    3   -8   14      0.71      0.00
    4   -8   14      0.55      0.00
   -3   -7   14      0.33      0.00
   -2   -7   14     -0.05      0.00
   -1   -7   14     -2.08      0.00
    0   -7   14      2.54      0.00
    1   -7   14      1.46      0.00
    2   -7   14     -2.41      0.00
    3   -7   14      1.14      0.00
    4   -7   14      0.29      0.00
   -3   -6   14      0.54      0.00
   -2   -6   14      0.62      0.00
   -1   -6   14     -0.96      0.00
    0   -6   14      0.98      0.00
    1   -6   14     -1.81      0.00
    2   -6   14     -3.35      0.00
    3   -6   14      0.63      0.00
    4   -6   14     -0.14      0.00
   -4   -5   14      0.45      0.00
   -3   -5   14      2.17      0.00
   -2   -5   14     -2.01      0.00
   -1   -5   14      0.67      0.00
    0   -5   14      3.17      0.00
    1   -5   14     -5.07      0.00
    2   -5   14     -3.27      0.00
    3   -5   14      2.04      0.00
    4   -5   14     -0.84      0.00
    5   -5   14     -0.79      0.00
   -4   -4   14      0.33      0.00
   -3   -4   14      0.02      0.00
   -2   -4   14     -0.07      0.00
   -1   -4   14      2.33      0.00
    0   -4   14     -1.73      0.00
    1   -4   14     -2.57      0.00
    2   -4   14     -2.50      0.00
    3   -4   14     -1.43      0.00
    4   -4   14     -0.38      0.00
    5   -4   14     -0.51      0.00
   -4   -3   14      0.20      0.00
   -3   -3   14      1.32      0.00
   -2   -3   14     -3.00      0.00
   -1   -3   14      2.43      0.00
    0   -3   14     -2.99      0.00
    1   -3   14    -10.01      0.00
    2   -3   14      0.36      0.00
    3   -3   14      2.04      0.00
    4   -3   14     -0.59      0.00
    5   -3   14     -0.60      0.00
   -4   -2   14     -0.33      0.00
   -3   -2   14      0.04      0.00
   -2   -2   14     -2.71      0.00
   -1   -2   14      1.18      0.00
    0   -2   14     -3.27      0.00
    1   -2   14      3.67      0.00
    2   -2   14     -1.09      0.00
    3   -2   14     -1.48      0.00
    4   -2   14      0.35      0.00
    5   -2   14     -0.42      0.00
   -4   -1   14      0.38      0.00
   -3   -1   14     -0.62      0.00
   -2   -1   14     -2.36      0.00
   -1   -1   14      5.73      0.00
    0   -1   14      1.78      0.00
    1   -1   14     -6.64      0.00
    2   -1   14     -0.45      0.00
    3   -1   14      0.85      0.00
    4   -1   14     -1.78      0.00
    5   -1   14     -0.82      0.00
    6   -1   14     -0.34      0.00
   -4    0   14     -0.48      0.00
   -3    0   14      1.81      0.00
   -2    0   14     -2.13      0.00
   -1    0   14      1.79      0.00
    0    0   14     10.98      0.00
    1    0   14      2.23      0.00
    2    0   14     -1.85      0.00
    3    0   14     -0.37      0.00
    4    0   14     -0.22      0.00
    5    0   14     -0.68      0.00
    6    0   14     -0.13      0.00
   -5    1   14      0.28      0.00
   -4    1   14      1.03      0.00
   -3    1   14     -2.27      0.00
   -2    1   14     -1.74      0.00
   -1    1   14     10.24      0.00
    0    1   14      4.80      0.00
    1    1   14     -7.47      0.00
    2    1   14      1.19      0.00
    3    1   14      0.50      0.00
    4    1   14     -0.05      0.00
    5    1   14     -0.49      0.00
    6    1   14      0.52      0.00
   -4    2   14      0.40      0.00
   -3    2   14      2.36      0.00
   -2    2   14     -0.75      0.00
   -1    2   14      3.04      0.00
    0    2   14      1.94      0.00
    1    2   14     -6.02      0.00
    2    2   14     -0.13      0.00
    3    2   14      1.79      0.00
    4    2   14      0.68      0.00
    5    2   14      0.42      0.00
    6    2   14      0.24      0.00
   -5    3   14      0.68      0.00
   -4    3   14      0.65      0.00
   -3    3   14     -4.63      0.00
   -2    3   14     -0.74      0.00
   -1    3   14      1.28      0.00
    0    3   14     -6.14      0.00
    1    3   14     -3.00      0.00
    2    3   14      4.33      0.00
    3    3   14      0.61      0.00
    4    3   14      0.21      0.00
    5    3   14      0.19      0.00
   -5    4   14     -1.02      0.00
   -4    4   14      0.84      0.00
   -3    4   14      2.52      0.00
   -2    4   14     -1.53      0.00
   -1    4   14      2.14      0.00
    0    4   14      4.46      0.00
    1    4   14      1.06      0.00
    2    4   14      0.80      0.00
    3    4   14      2.37      0.00
    4    4   14      0.49      0.00
    5    4   14      0.21      0.00
    6    4   14     -0.54      0.00
   -4    5   14      0.97      0.00
   -3    5   14     -4.98      0.00
   -2    5   14      0.23      0.00
   -1    5   14      1.04      0.00
    0    5   14     -2.93      0.00
    1    5   14      1.29      0.00
    2    5   14      4.54      0.00
    3    5   14      1.50      0.00
    4    5   14     -0.97      0.00
    5    5   14      0.43      0.00
    6    5   14      0.06      0.00
   -4    6   14      0.68      0.00
   -3    6   14      0.36      0.00
   -2    6   14     -3.78      0.00
   -1    6   14     -2.00      0.00
    0    6   14     -1.17      0.00
    1    6   14     -3.25      0.00
    2    6   14     -1.69      0.00
    3    6   14      0.26      0.00
    4    6   14     -0.94      0.00
    5    6   14     -0.35      0.00
    6    6   14     -0.70      0.00
   -4    7   14      0.20      0.00
   -3    7   14     -2.20      0.00
   -2    7   14      2.21      0.00
   -1    7   14      2.96      0.00
    0    7   14     -0.66      0.00
    1    7   14      1.74      0.00
    2    7   14      2.44      0.00
    3    7   14      1.04      0.00
    4    7   14     -0.80      0.00
    5    7   14      0.84      0.00
   -4    8   14      0.77      0.00
   -3    8   14     -1.58      0.00
   -2    8   14     -0.85      0.00
   -1    8   14      3.88      0.00
    0    8   14     -4.78      0.00
    1    8   14     -1.56      0.00
    2    8   14     -1.13      0.00
    3    8   14      0.50      0.00
    4    8   14     -0.17      0.00
    5    8   14      0.11      0.00
   -4    9   14     -0.57      0.00
   -3    9   14     -1.97      0.00
   -2    9   14      4.44      0.00
   -1    9   14      2.13      0.00
    0    9   14     -4.52      0.00
    1    9   14      1.26      0.00
    2    9   14      1.91      0.00
    3    9   14     -0.30      0.00
    4    9   14     -1.02      0.00
    5    9   14      0.84      0.00
   -4   10   14      0.46      0.00
   -3   10   14     -0.08      0.00
   -2   10   14      1.67      0.00
   -1   10   14      2.77      0.00
    0   10   14     -4.41      0.00
    1   10   14      0.88      0.00
    2   10   14     -1.51      0.00
    3   10   14     -0.54      0.00
    4   10   14      0.19      0.00
    5   10   14     -0.39      0.00
   -3   11   14     -0.39      0.00
   -2   11   14      2.42      0.00
   -1   11   14     -0.96      0.00
    0   11   14     -2.87      0.00
    1   11   14      1.52      0.00
    2   11   14      2.59      0.00
    3   11   14     -0.11      0.00
    4   11   14     -0.41      0.00
   -3   12   14      0.01      0.00
   -2   12   14     -0.16      0.00
   -1   12   14     -0.76      0.00
    0   12   14     -1.55      0.00
    1   12   14     -0.99      0.00
    2   12   14     -0.08      0.00
    3   12   14     -1.14      0.00
    4   12   14      0.32      0.00
   -3   13   14     -0.20      0.00
   -2   13   14      0.72      0.00
   -1   13   14     -0.62      0.00
    0   13   14     -1.26      0.00
    1   13   14      2.33      0.00
    2   13   14      1.14      0.00
    3   13   14     -0.69      0.00
    4   13   14     -0.35      0.00
   -3   14   14     -0.31      0.00
   -2   14   14      0.04      0.00
   -1   14   14      0.99      0.00
    0   14   14      0.89      0.00
    1   14   14      0.24      0.00
    2   14   14      1.36      0.00
    3   14   14     -0.09      0.00
   -2   15   14      0.63      0.00
   -1   15   14     -0.43      0.00
    0   15   14     -1.05      0.00
    1   15   14      1.47      0.00
    2   15   14      0.46      0.00
    3   15   14     -0.97      0.00
   -1   16   14      0.05      0.00
    0   16   14      0.55      0.00
    1   16   14     -0.03      0.00
    2   16   14     -0.35      0.00
    0   17   14      0.38      0.00
    1   17   14      0.65      0.00
    0  -10   15     -0.29      0.00
    1  -10   15      0.73      0.00
   -1   -9   15     -0.68      0.00
    0   -9   15     -0.53      0.00
    1   -9   15      0.19      0.00
    2   -9   15      0.63      0.00
    3   -9   15      0.07      0.00
   -2   -8   15      0.21      0.00
   -1   -8   15     -0.37      0.00
    0   -8   15     -0.45      0.00
    1   -8   15      0.42      0.00
    2   -8   15      0.58      0.00
    3   -8   15     -0.69      0.00
   -3   -7   15     -0.81      0.00
   -2   -7   15      0.63      0.00
   -1   -7   15     -0.38      0.00
    0   -7   15      0.16      0.00
    1   -7   15      2.58      0.00
    2   -7   15      0.74      0.00
    3   -7   15     -0.19      0.00
    4   -7   15      0.72      0.00
   -3   -6   15     -0.74      0.00
   -2   -6   15      0.97      0.00
   -1   -6   15     -2.41      0.00
    0   -6   15     -0.37      0.00
    1   -6   15      3.92      0.00
    2   -6   15      2.58      0.00
    3   -6   15     -0.51      0.00
    4   -6   15      0.59      0.00
   -3   -5   15     -0.02      0.00
   -2   -5   15      1.63      0.00
   -1   -5   15     -3.21      0.00
    0   -5   15      0.92      0.00
    1   -5   15      5.53      0.00
    2   -5   15     -1.26      0.00
    3   -5   15     -0.65      0.00
    4   -5   15      0.37      0.00
   -4   -4   15      0.13      0.00
   -3   -4   15      0.76      0.00
   -2   -4   15      0.86      0.00
   -1   -4   15     -3.44      0.00
    0   -4   15      1.40      0.00
    1   -4   15      2.24      0.00
    2   -4   15     -2.94      0.00
    3   -4   15     -0.09      0.00
    4   -4   15      0.72      0.00
    5   -4   15      0.24      0.00
   -4   -3   15     -0.33      0.00
   -3   -3   15      0.59      0.00
   -2   -3   15      0.70      0.00
   -1   -3   15     -2.18      0.00
    0   -3   15      2.40      0.00
    1   -3   15      1.91      0.00
    2   -3   15     -2.05      0.00
    3   -3   15     -0.57      0.00
    4   -3   15     -0.32      0.00
    5   -3   15     -0.83      0.00
   -4   -2   15      0.15      0.00
   -3   -2   15      2.09      0.00
   -2   -2   15     -0.57      0.00
   -1   -2   15      0.18      0.00
    0   -2   15      1.58      0.00
    1   -2   15     -1.91      0.00
    2   -2   15     -6.02      0.00
    3   -2   15     -1.07      0.00
    4   -2   15      1.06      0.00
    5   -2   15     -0.15      0.00
   -4   -1   15     -0.65      0.00
   -3   -1   15      0.15      0.00
   -2   -1   15      0.09      0.00
   -1   -1   15     -1.60      0.00
    0   -1   15     -5.93      0.00
    1   -1   15     -4.50      0.00
    2   -1   15      0.84      0.00
    3   -1   15      0.76      0.00
    4   -1   15     -0.64      0.00
    5   -1   15     -0.05      0.00
   -4    0   15      0.04      0.00
   -3    0   15      0.69      0.00
   -2    0   15     -1.38      0.00
   -1    0   15     -1.44      0.00
    0    0   15      0.77      0.00
    1    0   15      3.73      0.00
    2    0   15     -2.99      0.00
    3    0   15     -1.51      0.00
    4    0   15      1.57      0.00
    5    0   15     -0.35      0.00
   -4    1   15     -0.44      0.00
   -3    1   15      2.17      0.00
   -2    1   15     -0.01      0.00
   -1    1   15     -0.90      0.00
    0    1   15     -0.95      0.00
    1    1   15     -0.91      0.00
    2    1   15     -1.33      0.00
    3    1   15     -0.26      0.00
    4    1   15     -2.47      0.00
    5    1   15     -0.24      0.00
   -4    2   15      0.77      0.00
   -3    2   15      0.39      0.00
   -2    2   15     -4.72      0.00
   -1    2   15     -0.97      0.00
    0    2   15      8.15      0.00
    1    2   15      3.32      0.00
    2    2   15     -3.55      0.00
    3    2   15     -1.03      0.00
    4    2   15      1.93      0.00
    5    2   15     -1.55      0.00
    6    2   15     -0.61      0.00
   -4    3   15     -1.43      0.00
   -3    3   15      1.64      0.00
   -2    3   15      0.06      0.00
   -1    3   15      1.54      0.00
    0    3   15      2.74      0.00
    1    3   15     -2.75      0.00
    2    3   15     -0.57      0.00
    3    3   15     -0.32      0.00
    4    3   15     -1.19      0.00
    5    3   15      0.01      0.00
    6    3   15      1.43      0.00
   -4    4   15      0.84      0.00
   -3    4   15      1.49      0.00
   -2    4   15     -4.05      0.00
   -1    4   15     -0.63      0.00
    0    4   15      6.96      0.00
    1    4   15     -3.47      0.00
    2    4   15     -2.40      0.00
    3    4   15      0.79      0.00
    4    4   15      2.32      0.00
    5    4   15     -0.90      0.00
   -4    5   15     -0.72      0.00
   -3    5   15      0.24      0.00
   -2    5   15      0.79      0.00
   -1    5   15      2.59      0.00
    0    5   15      2.01      0.00
    1    5   15     -1.65      0.00
    2    5   15      0.70      0.00
    3    5   15     -0.45      0.00
    4    5   15      0.41      0.00
    5    5   15      0.52      0.00
   -4    6   15      1.59      0.00
   -3    6   15      0.78      0.00
   -2    6   15     -2.33      0.00
   -1    6   15      2.90      0.00
    0    6   15      6.58      0.00
    1    6   15     -4.23      0.00
    2    6   15      0.11      0.00
    3    6   15      1.65      0.00
    4    6   15      0.61      0.00
    5    6   15     -0.72      0.00
   -4    7   15     -0.83      0.00
   -3    7   15      0.78      0.00
   -2    7   15     -1.58      0.00
   -1    7   15     -4.51      0.00
    0    7   15     -5.29      0.00
    1    7   15      1.34      0.00
    2    7   15     -0.10      0.00
    3    7   15     -0.77      0.00
    4    7   15      0.83      0.00
    5    7   15      0.40      0.00
   -4    8   15      1.32      0.00
   -3    8   15      0.77      0.00
   -2    8   15     -3.60      0.00
   -1    8   15     -1.16      0.00
    0    8   15      6.67      0.00
    1    8   15     -4.55      0.00
    2    8   15     -0.20      0.00
    3    8   15      2.60      0.00
    4    8   15      0.18      0.00
    5    8   15     -0.51      0.00
   -4    9   15     -0.19      0.00
   -3    9   15      0.28      0.00
   -2    9   15     -0.66      0.00
   -1    9   15      0.38      0.00
    0    9   15     -1.77      0.00
    1    9   15      1.30      0.00
    2    9   15     -0.33      0.00
    3    9   15     -0.16      0.00
    4    9   15      0.36      0.00
    5    9   15      0.16      0.00
   -4   10   15      0.50      0.00
   -3   10   15     -1.02      0.00
   -2   10   15     -1.06      0.00
   -1   10   15      1.81      0.00
    0   10   15      2.53      0.00
    1   10   15     -0.25      0.00
    2   10   15      0.52      0.00
    3   10   15      1.80      0.00
    4   10   15     -0.67      0.00
    5   10   15      0.44      0.00
   -3   11   15     -0.16      0.00
   -2   11   15      0.29      0.00
   -1   11   15      1.89      0.00
    0   11   15     -0.79      0.00
    1   11   15     -0.28      0.00
    2   11   15     -1.64      0.00
    3   11   15     -0.91      0.00
    4   11   15      0.31      0.00
   -3   12   15     -0.09      0.00
   -2   12   15     -0.43      0.00
   -1   12   15      2.93      0.00
    0   12   15     -2.28      0.00
    1   12   15     -0.36      0.00
    2   12   15      0.39      0.00
    3   12   15      1.19      0.00
    4   12   15     -0.75      0.00
   -3   13   15      0.47      0.00
   -2   13   15      0.11      0.00
   -1   13   15      0.83      0.00
    0   13   15     -0.04      0.00
    1   13   15      0.35      0.00
    2   13   15     -0.24      0.00
    3   13   15     -0.39      0.00
   -2   14   15     -0.03      0.00
   -1   14   15      0.56      0.00
    0   14   15     -2.66      0.00
    1   14   15     -1.60      0.00
    2   14   15     -0.04      0.00
    3   14   15      0.33      0.00
   -2   15   15     -1.04      0.00
   -1   15   15      0.56      0.00
    0   15   15      0.52      0.00
    1   15   15      0.79      0.00
    2   15   15      0.30      0.00
    3   15   15      0.62      0.00
   -1   16   15      0.54      0.00
    0   16   15     -0.72      0.00
    1   16   15     -0.34      0.00
    2   16   15      1.07      0.00
   -1   -9   16      2.05      0.00
    0   -9   16      0.03      0.00
    1   -9   16     -0.25      0.00
   -1   -8   16      0.61      0.00
    0   -8   16     -1.06      0.00
    1   -8   16     -0.16      0.00
    2   -8   16     -0.59      0.00
    3   -8   16     -0.41      0.00
   -2   -7   16     -1.09      0.00
   -1   -7   16      0.43      0.00
    0   -7   16     -0.37      0.00
    1   -7   16     -1.51      0.00
    2   -7   16      1.04      0.00
    3   -7   16     -0.30      0.00
   -3   -6   16     -0.16      0.00
   -2   -6   16      0.31      0.00
   -1   -6   16      1.70      0.00
    0   -6   16      0.58      0.00
    1   -6   16     -0.38      0.00
    2   -6   16      0.36      0.00
    3   -6   16      0.01      0.00
    4   -6   16      0.40      0.00
   -3   -5   16     -0.86      0.00
   -2   -5   16      0.21      0.00
   -1   -5   16      0.67      0.00
    0   -5   16     -1.16      0.00
    1   -5   16     -0.59      0.00
    2   -5   16      3.62      0.00
    3   -5   16      0.24      0.00
    4   -5   16      0.14      0.00
   -3   -4   16     -0.71      0.00
   -2   -4   16      0.75      0.00
   -1   -4   16     -0.90      0.00
    0   -4   16     -0.73      0.00
    1   -4   16      3.40      0.00
    2   -4   16      3.13      0.00
    3   -4   16      0.27      0.00
    4   -4   16      0.19      0.00
   -3   -3   16     -1.08      0.00
   -2   -3   16      2.52      0.00
   -1   -3   16     -2.56      0.00
    0   -3   16     -3.58      0.00
    1   -3   16      4.21      0.00
    2   -3   16      2.42      0.00
    3   -3   16     -1.04      0.00
    4   -3   16      0.28      0.00
   -4   -2   16     -0.25      0.00
   -3   -2   16     -0.50      0.00
   -2   -2   16      0.37      0.00
   -1   -2   16     -3.73      0.00
    0   -2   16     -0.08      0.00
    1   -2   16      3.56      0.00
    2   -2   16      1.75      0.00
    3   -2   16      0.48      0.00
    4   -2   16      0.27      0.00
    5   -2   16     -0.02      0.00
   -4   -1   16      0.04      0.00
   -3   -1   16      0.29      0.00
   -2   -1   16      1.45      0.00
   -1   -1   16     -2.05      0.00
    0   -1   16     -0.38      0.00
    1   -1   16      8.08      0.00
    2   -1   16     -1.74      0.00
    3   -1   16     -1.73      0.00
    4   -1   16      0.48      0.00
    5   -1   16      0.57      0.00
   -4    0   16      0.01      0.00
   -3    0   16     -0.11      0.00
   -2    0   16      1.51      0.00
   -1    0   16     -0.46      0.00
    0    0   16     -0.36      0.00
    1    0   16     -5.61      0.00
    2    0   16     -1.31      0.00
    3    0   16      0.67      0.00
    4    0   16     -0.36      0.00
    5    0   16     -0.14      0.00
   -4    1   16     -0.81      0.00
   -3    1   16      0.13      0.00
   -2    1   16      2.19      0.00
   -1    1   16     -3.87      0.00
    0    1   16     -3.89      0.00
    1    1   16      5.57      0.00
    2    1   16      0.39      0.00
    3    1   16     -1.43      0.00
    4    1   16      0.73      0.00
    5    1   16      0.64      0.00
   -4    2   16     -0.03      0.00
   -3    2   16     -0.26      0.00
   -2    2   16      1.97      0.00
   -1    2   16      2.29      0.00
    0    2   16     -1.58      0.00
    1    2   16     -3.85      0.00
    2    2   16     -0.57      0.00
    3    2   16     -0.02      0.00
    4    2   16     -0.80      0.00
    5    2   16     -0.07      0.00
   -4    3   16      0.31      0.00
   -3    3   16      2.16      0.00
   -2    3   16      1.56      0.00
   -1    3   16     -4.44      0.00
    0    3   16     -5.45      0.00
    1    3   16      6.57      0.00
    2    3   16     -1.10      0.00
    3    3   16     -2.19      0.00
    4    3   16     -0.01      0.00
    5    3   16      0.43      0.00
   -4    4   16     -0.83      0.00
   -3    4   16     -1.41      0.00
   -2    4   16     -0.26      0.00
   -1    4   16     -0.78      0.00
    0    4   16     -1.53      0.00
    1    4   16     -0.11      0.00
    2    4   16      0.15      0.00
    3    4   16     -0.32      0.00
    4    4   16     -0.33      0.00
    5    4   16     -1.04      0.00
   -4    5   16     -1.04      0.00
   -3    5   16      3.58      0.00
   -2    5   16      0.34      0.00
   -1    5   16     -5.41      0.00
    0    5   16      3.42      0.00
    1    5   16      6.10      0.00
    2    5   16     -1.69      0.00
    3    5   16     -1.32      0.00
    4    5   16      0.59      0.00
    5    5   16     -0.01      0.00
   -4    6   16     -0.15      0.00
   -3    6   16     -1.53      0.00
   -2    6   16      0.24      0.00
   -1    6   16      1.32      0.00
    0    6   16      2.32      0.00
    1    6   16     -1.14      0.00
    2    6   16      0.34      0.00
    3    6   16      0.18      0.00
    4    6   16      0.48      0.00
    5    6   16     -0.41      0.00
   -4    7   16     -0.88      0.00
   -3    7   16      1.47      0.00
   -2    7   16      0.43      0.00
   -1    7   16     -1.76      0.00
    0    7   16      6.50      0.00
    1    7   16     -0.44      0.00
    2    7   16     -0.84      0.00
    3    7   16     -1.63      0.00
    4    7   16      0.00      0.00
    5    7   16     -0.33      0.00
   -4    8   16     -0.30      0.00
   -3    8   16     -0.29      0.00
   -2    8   16      0.01      0.00
   -1    8   16     -0.17      0.00
    0    8   16     -0.84      0.00
    1    8   16      0.71      0.00
    2    8   16      0.16      0.00
    3    8   16     -0.46      0.00
    4    8   16      0.44      0.00
    5    8   16     -0.11      0.00
   -4    9   16     -0.47      0.00
   -3    9   16      1.28      0.00
   -2    9   16     -2.38      0.00
   -1    9   16     -3.81      0.00
    0    9   16      3.61      0.00
    1    9   16     -2.05      0.00
    2    9   16     -1.21      0.00
    3    9   16     -0.30      0.00
    4    9   16      1.07      0.00
    5    9   16     -0.28      0.00
   -3   10   16      0.72      0.00
   -2   10   16      0.67      0.00
   -1   10   16     -0.60      0.00
    0   10   16      0.28      0.00
    1   10   16     -0.52      0.00
    2   10   16      0.69      0.00
    3   10   16      1.05      0.00
    4   10   16      0.11      0.00
   -3   11   16      0.74      0.00
   -2   11   16     -0.45      0.00
   -1   11   16     -2.61      0.00
    0   11   16      1.79      0.00
    1   11   16      0.61      0.00
    2   11   16     -1.65      0.00
    3   11   16      0.16      0.00
    4   11   16      0.53      0.00
   -3   12   16     -0.21      0.00
   -2   12   16     -0.37      0.00
   -1   12   16     -0.92      0.00
    0   12   16      2.53      0.00
    1   12   16      0.12      0.00
    2   12   16      0.09      0.00
    3   12   16      0.43      0.00
   -2   13   16     -0.54      0.00
   -1   13   16     -0.34      0.00
    0   13   16      0.16      0.00
    1   13   16     -0.23      0.00
    2   13   16     -1.14      0.00
    3   13   16      0.21      0.00
   -2   14   16     -0.32      0.00
   -1   14   16      0.48      0.00
    0   14   16      0.46      0.00
    1   14   16      0.33      0.00
    2   14   16     -0.37      0.00
   -1   15   16      0.70      0.00
    0   15   16      0.25      0.00
    1   15   16     -0.96      0.00
    2   15   16     -0.81      0.00
    0   16   16     -0.95      0.00
    1   16   16      0.09      0.00
    0   -8   17     -0.17      0.00
    1   -8   17     -0.52      0.00
   -1   -7   17      1.75      0.00
    0   -7   17     -0.75      0.00
    1   -7   17     -0.41      0.00
    2   -7   17     -0.55      0.00
    3   -7   17     -0.10      0.00
   -2   -6   17     -0.40      0.00
   -1   -6   17     -0.07      0.00
    0   -6   17      0.39      0.00
    1   -6   17     -1.25      0.00
    2   -6   17     -0.63      0.00
    3   -6   17     -0.03      0.00
   -2   -5   17     -1.37      0.00
   -1   -5   17      1.56      0.00
    0   -5   17      1.26      0.00
    1   -5   17     -1.55      0.00
    2   -5   17     -0.31      0.00
    3   -5   17     -0.60      0.00
   -3   -4   17      0.59      0.00
   -2   -4   17     -0.77      0.00
   -1   -4   17      1.39      0.00
    0   -4   17      2.30      0.00
    1   -4   17     -3.01      0.00
    2   -4   17     -0.49      0.00
    3   -4   17      1.25      0.00
    4   -4   17     -0.07      0.00
   -2   -3   17     -1.02      0.00
   -1   -3   17      1.84      0.00
    0   -3   17      1.61      0.00
    1   -3   17     -2.22      0.00
    2   -3   17      1.16      0.00
    3   -3   17      1.05      0.00
    4   -3   17     -0.20      0.00
   -3   -2   17     -0.62      0.00
   -2   -2   17      0.61      0.00
   -1   -2   17      1.82      0.00
    0   -2   17     -1.56      0.00
    1   -2   17     -2.43      0.00
    2   -2   17      3.44      0.00
    3   -2   17      0.74      0.00
    4   -2   17     -0.25      0.00
   -3   -1   17     -0.68      0.00
   -2   -1   17     -0.53      0.00
   -1   -1   17     -1.24      0.00
    0   -1   17     -1.85      0.00
    1   -1   17     -0.29      0.00
    2   -1   17      1.48      0.00
    3   -1   17      0.16      0.00
    4   -1   17      0.24      0.00
    5   -1   17      0.41      0.00
   -3    0   17     -1.22      0.00
   -2    0   17     -0.14      0.00
   -1    0   17      0.76      0.00
    0    0   17     -4.41      0.00
    1    0   17      2.75      0.00
    2    0   17      4.46      0.00
    3    0   17      1.40      0.00
    4    0   17     -0.64      0.00
    5    0   17      0.42      0.00
   -3    1   17     -0.52      0.00
   -2    1   17      0.92      0.00
   -1    1   17     -1.40      0.00
    0    1   17      2.57      0.00
    1    1   17      2.01      0.00
    2    1   17     -1.06      0.00
    3    1   17     -0.45      0.00
    4    1   17      0.90      0.00
    5    1   17      0.41      0.00
   -4    2   17      0.12      0.00
   -3    2   17     -0.56      0.00
   -2    2   17      1.30      0.00
   -1    2   17     -0.73      0.00
    0    2   17     -4.85      0.00
    1    2   17     -0.84      0.00
    2    2   17      2.12      0.00
    3    2   17      1.51      0.00
    4    2   17     -1.83      0.00
    5    2   17      0.05      0.00
   -4    3   17     -0.03      0.00
   -3    3   17     -1.02      0.00
   -2    3   17      0.66      0.00
   -1    3   17      2.02      0.00
    0    3   17      4.63      0.00
    1    3   17     -0.63      0.00
    2    3   17     -0.72      0.00
    3    3   17     -0.96      0.00
    4    3   17      0.86      0.00
    5    3   17      0.10      0.00
   -3    4   17     -0.86      0.00
   -2    4   17      3.54      0.00
   -1    4   17      2.17      0.00
    0    4   17     -8.91      0.00
    1    4   17     -1.23      0.00
    2    4   17      1.80      0.00
    3    4   17      0.31      0.00
    4    4   17     -1.87      0.00
    5    4   17      0.87      0.00
   -3    5   17     -0.06      0.00
   -2    5   17     -0.56      0.00
   -1    5   17      0.05      0.00
    0    5   17     -2.16      0.00
    1    5   17     -0.04      0.00
    2    5   17     -0.39      0.00
    3    5   17     -1.01      0.00
    4    5   17      0.53      0.00
    5    5   17      0.10      0.00
   -3    6   17     -0.81      0.00
   -2    6   17      3.33      0.00
   -1    6   17      0.71      0.00
    0    6   17     -5.98      0.00
    1    6   17      3.56      0.00
    2    6   17      1.07      0.00
    3    6   17     -0.56      0.00
    4    6   17     -1.06      0.00
    5    6   17      0.40      0.00
   -3    7   17      0.70      0.00
   -2    7   17     -0.08      0.00
   -1    7   17      0.02      0.00
    0    7   17      0.60      0.00
    1    7   17      1.01      0.00
    2    7   17      0.39      0.00
    3    7   17      0.66      0.00
    4    7   17      0.80      0.00
   -3    8   17     -0.89      0.00
   -2    8   17      2.41      0.00
   -1    8   17     -1.06      0.00
    0    8   17     -2.47      0.00
    1    8   17      2.59      0.00
    2    8   17      1.54      0.00
    3    8   17     -1.11      0.00
    4    8   17     -1.05      0.00
    5    8   17      0.40      0.00
   -3    9   17     -0.01      0.00
   -2    9   17     -0.18      0.00
   -1    9   17     -1.14      0.00
    0    9   17      2.56      0.00
    1    9   17     -0.06      0.00
    2    9   17     -0.36      0.00
    3    9   17     -0.32      0.00
    4    9   17     -0.01      0.00
   -3   10   17     -0.84      0.00
   -2   10   17     -0.84      0.00
   -1   10   17     -0.28      0.00
    0   10   17     -0.22      0.00
    1   10   17      0.57      0.00
    2   10   17      1.40      0.00
    3   10   17     -0.92      0.00
    4   10   17      0.43      0.00
   -3   11   17     -0.29      0.00
   -2   11   17     -0.30      0.00
   -1   11   17     -0.16      0.00
    0   11   17      1.34      0.00
    1   11   17     -0.26      0.00
    2   11   17      0.38      0.00
    3   11   17      0.36      0.00
    4   11   17     -0.45      0.00
   -2   12   17      1.04      0.00
   -1   12   17     -0.92      0.00
    0   12   17     -0.61      0.00
    1   12   17     -0.50      0.00
    2   12   17     -0.03      0.00
    3   12   17     -0.59      0.00
   -1   13   17     -0.85      0.00
    0   13   17      0.88      0.00
    1   13   17      0.00      0.00
    2   13   17     -0.27      0.00
    3   13   17      0.52      0.00
   -1   14   17     -2.19      0.00
    0   14   17      0.47      0.00
    1   14   17      0.42      0.00
    2   14   17      0.17      0.00
    0   15   17      0.18      0.00
    1   15   17     -0.13      0.00
    2   15   17     -0.04      0.00
    0   -7   18     -0.76      0.00
    1   -7   18      0.43      0.00
   -1   -6   18     -0.07      0.00
    0   -6   18     -0.21      0.00
    1   -6   18      0.03      0.00
    2   -6   18     -0.57      0.00
    3   -6   18      0.14      0.00
   -2   -5   18      0.93      0.00
   -1   -5   18      0.02      0.00
    0   -5   18     -0.15      0.00
    1   -5   18     -0.33      0.00
    2   -5   18     -1.15      0.00
    3   -5   18      0.19      0.00
   -2   -4   18     -0.97      0.00
   -1   -4   18      0.25      0.00
    0   -4   18      0.00      0.00
    1   -4   18      0.22      0.00
    2   -4   18     -0.18      0.00
    3   -4   18     -0.76      0.00
   -3   -3   18      0.78      0.00
   -2   -3   18     -0.59      0.00
   -1   -3   18     -0.29      0.00
    0   -3   18      2.81      0.00
    1   -3   18     -0.70      0.00
    2   -3   18     -1.71      0.00
    3   -3   18     -0.01      0.00
    4   -3   18      0.20      0.00
   -2   -2   18     -0.66      0.00
   -1   -2   18      0.15      0.00
    0   -2   18      3.08      0.00
    1   -2   18     -0.55      0.00
    2   -2   18     -1.74      0.00
    3   -2   18      0.43      0.00
    4   -2   18     -0.43      0.00
   -3   -1   18      0.68      0.00
   -2   -1   18     -1.23      0.00
   -1   -1   18      1.93      0.00
    0   -1   18      4.16      0.00
    1   -1   18     -3.39      0.00
    2   -1   18      0.36      0.00
    3   -1   18      1.09      0.00
    4   -1   18      0.55      0.00
   -3    0   18     -0.10      0.00
   -2    0   18     -1.20      0.00
   -1    0   18      0.76      0.00
    0    0   18      2.42      0.00
    1    0   18     -1.38      0.00
    2    0   18     -1.65      0.00
    3    0   18     -0.30      0.00
    4    0   18     -0.02      0.00
    5    0   18     -0.26      0.00
   -3    1   18      0.03      0.00
   -2    1   18     -2.40      0.00
   -1    1   18      2.80      0.00
    0    1   18     -0.98      0.00
    1    1   18     -5.07      0.00
    2    1   18      1.91      0.00
    3    1   18      1.36      0.00
    4    1   18      0.27      0.00
    5    1   18     -0.10      0.00
   -3    2   18     -0.83      0.00
   -2    2   18     -0.11      0.00
   -1    2   18     -1.21      0.00
    0    2   18      1.60      0.00
    1    2   18      2.62      0.00
    2    2   18      1.15      0.00
    3    2   18      0.61      0.00
    4    2   18      0.78      0.00
    5    2   18      0.72      0.00
   -3    3   18      0.07      0.00
   -2    3   18     -1.62      0.00
   -1    3   18      0.94      0.00
    0    3   18     -0.27      0.00
    1    3   18     -1.92      0.00
    2    3   18     -0.09      0.00
    3    3   18      2.37      0.00
    4    3   18     -0.12      0.00
    5    3   18     -0.21      0.00
   -3    4   18      0.00      0.00
   -2    4   18     -0.53      0.00
   -1    4   18     -0.72      0.00
    0    4   18      1.86      0.00
    1    4   18     -0.11      0.00
    2    4   18      0.43      0.00
    3    4   18     -0.50      0.00
    4    4   18     -0.48      0.00
    5    4   18     -0.01      0.00
   -3    5   18     -1.52      0.00
   -2    5   18     -0.91      0.00
   -1    5   18      2.55      0.00
    0    5   18      1.05      0.00
    1    5   18     -2.20      0.00
    2    5   18     -0.32      0.00
    3    5   18      2.26      0.00
    4    5   18     -0.31      0.00
    5    5   18     -0.22      0.00
   -3    6   18      0.94      0.00
   -2    6   18     -0.48      0.00
   -1    6   18      0.69      0.00
    0    6   18     -1.62      0.00
    1    6   18     -0.58      0.00
    2    6   18      0.96      0.00
    3    6   18     -0.96      0.00
    4    6   18     -0.82      0.00
    5    6   18      0.52      0.00
   -3    7   18     -2.30      0.00
   -2    7   18     -0.75      0.00
   -1    7   18      4.00      0.00
    0    7   18     -0.84      0.00
    1    7   18     -2.11      0.00
    2    7   18     -1.63      0.00
    3    7   18      0.78      0.00
    4    7   18     -0.34      0.00
    5    7   18     -0.09      0.00
   -3    8   18      1.16      0.00
   -2    8   18      1.29      0.00
   -1    8   18      3.21      0.00
    0    8   18     -2.29      0.00
    1    8   18     -1.02      0.00
    2    8   18      0.79      0.00
    3    8   18     -0.76      0.00
    4    8   18     -0.54      0.00
   -2    9   18      0.93      0.00
   -1    9   18      2.66      0.00
    0    9   18     -3.80      0.00
    1    9   18      0.61      0.00
    2    9   18      0.35      0.00
    3    9   18      1.17      0.00
    4    9   18     -0.25      0.00
   -3   10   18      0.80      0.00
   -2   10   18      0.51      0.00
   -1   10   18     -1.96      0.00
    0   10   18     -1.46      0.00
    1   10   18     -0.59      0.00
    2   10   18     -0.20      0.00
    3   10   18     -1.28      0.00
    4   10   18     -0.40      0.00
   -2   11   18      0.13      0.00
   -1   11   18      2.66      0.00
    0   11   18     -0.23      0.00
    1   11   18     -0.02      0.00
    2   11   18      1.36      0.00
    3   11   18      0.70      0.00
   -2   12   18      0.04      0.00
   -1   12   18     -0.51      0.00
    0   12   18     -0.09      0.00
    1   12   18      0.89      0.00
    2   12   18      0.64      0.00
    3   12   18     -0.64      0.00
   -1   13   18      1.47      0.00
    0   13   18      0.11      0.00
    1   13   18     -0.69      0.00
    2   13   18      0.89      0.00
    3   13   18     -0.43      0.00
   -1   14   18      0.30      0.00
    0   14   18     -0.64      0.00
    1   14   18      0.03      0.00
    2   14   18     -0.34      0.00
    0   15   18     -0.37      0.00
    1   15   18     -0.29      0.00
    0   -6   19     -0.93      0.00
    1   -6   19      0.68      0.00
   -1   -5   19     -1.41      0.00
    0   -5   19     -0.68      0.00
    1   -5   19      1.07      0.00
    2   -5   19     -0.39      0.00
   -1   -4   19      0.18      0.00
    0   -4   19     -0.98      0.00
    1   -4   19      0.04      0.00
    2   -4   19     -0.51      0.00
    3   -4   19     -0.33      0.00
   -2   -3   19      0.76      0.00
   -1   -3   19      0.38      0.00
    0   -3   19     -1.55      0.00
    1   -3   19      1.09      0.00
    2   -3   19     -0.71      0.00
    3   -3   19      0.35      0.00
   -2   -2   19      0.23      0.00
   -1   -2   19      0.20      0.00
    0   -2   19     -0.80      0.00
    1   -2   19      0.06      0.00
    2   -2   19      0.06      0.00
    3   -2   19     -1.28      0.00
    4   -2   19     -0.06      0.00
   -2   -1   19      1.11      0.00
   -1   -1   19     -1.18      0.00
    0   -1   19     -0.52      0.00
    1   -1   19      1.65      0.00
    2   -1   19     -1.13      0.00
    3   -1   19     -0.20      0.00
    4   -1   19     -0.25      0.00
   -3    0   19      0.64      0.00
   -2    0   19      0.26      0.00
   -1    0   19     -1.30      0.00
    0    0   19      1.50      0.00
    1    0   19      1.38      0.00
    2    0   19     -0.36      0.00
    3    0   19     -0.62      0.00
    4    0   19      0.18      0.00
   -3    1   19      0.29      0.00
   -2    1   19     -0.89      0.00
   -1    1   19      0.49      0.00
    0    1   19      2.83      0.00
    1    1   19      1.23      0.00
    2    1   19     -1.95      0.00
    3    1   19     -0.06      0.00
    4    1   19      0.04      0.00
   -3    2   19      0.66      0.00
   -2    2   19     -0.66      0.00
   -1    2   19     -0.42      0.00
    0    2   19      2.64      0.00
    1    2   19     -0.90      0.00
    2    2   19     -1.15      0.00
    3    2   19     -1.77      0.00
    4    2   19      0.91      0.00
   -3    3   19      0.08      0.00
   -2    3   19     -0.94      0.00
   -1    3   19     -0.11      0.00
    0    3   19      2.58      0.00
    1    3   19     -1.50      0.00
    2    3   19     -0.05      0.00
    3    3   19      0.99      0.00
    4    3   19      0.11      0.00
   -3    4   19      0.70      0.00
   -2    4   19     -0.55      0.00
   -1    4   19     -0.46      0.00
    0    4   19      2.63      0.00
    1    4   19      1.50      0.00
    2    4   19     -1.35      0.00
    3    4   19     -0.33      0.00
    4    4   19      1.83      0.00
   -3    5   19      0.21      0.00
   -2    5   19     -0.01      0.00
   -1    5   19     -0.53      0.00
    0    5   19     -0.89      0.00
    1    5   19     -3.28      0.00
    2    5   19      0.42      0.00
    3    5   19      0.85      0.00
    4    5   19     -0.38      0.00
   -3    6   19      0.66      0.00
   -2    6   19     -2.07      0.00
   -1    6   19     -2.90      0.00
    0    6   19      2.71      0.00
    1    6   19      2.01      0.00
    2    6   19     -1.78      0.00
    3    6   19      0.69      0.00
    4    6   19      1.20      0.00
   -3    7   19      0.31      0.00
   -2    7   19     -0.05      0.00
   -1    7   19     -0.54      0.00
    0    7   19     -0.86      0.00
    1    7   19     -0.58      0.00
    2    7   19      1.39      0.00
    3    7   19      0.73      0.00
    4    7   19     -0.58      0.00
   -3    8   19     -0.20      0.00
   -2    8   19     -2.77      0.00
   -1    8   19     -1.93      0.00
    0    8   19      5.40      0.00
    1    8   19      1.08      0.00
    2    8   19     -2.07      0.00
    3    8   19      0.87      0.00
    4    8   19      0.82      0.00
   -2    9   19      0.26      0.00
   -1    9   19      3.34      0.00
    0    9   19     -1.02      0.00
    1    9   19     -2.05      0.00
    2    9   19     -0.11      0.00
    3    9   19     -0.68      0.00
    4    9   19     -0.94      0.00
   -2   10   19     -0.12      0.00
   -1   10   19      1.29      0.00
    0   10   19      1.05      0.00
    1   10   19     -0.07      0.00
    2   10   19     -1.47      0.00
    3   10   19      0.86      0.00
   -2   11   19     -0.19      0.00
   -1   11   19      0.41      0.00
    0   11   19     -2.42      0.00
    1   11   19     -1.15      0.00
    2   11   19     -0.37      0.00
    3   11   19     -0.45      0.00
   -1   12   19      0.68      0.00
    0   12   19      0.10      0.00
    1   12   19     -0.31      0.00
    2   12   19     -0.44      0.00
    3   12   19      0.73      0.00
   -1   13   19      0.33      0.00
    0   13   19     -0.69      0.00
    1   13   19      0.42      0.00
    2   13   19      0.35      0.00
    0   14   19      0.94      0.00
    1   14   19      0.19      0.00
    0   -5   20     -0.22      0.00
    1   -5   20     -0.09      0.00
    0   -4   20     -1.41      0.00
    1   -4   20     -0.22      0.00
    2   -4   20      0.96      0.00
   -1   -3   20     -0.33      0.00
    0   -3   20     -0.23      0.00
    1   -3   20      0.73      0.00
    2   -3   20      0.33      0.00
    3   -3   20     -0.09      0.00
   -1   -2   20      0.53      0.00
    0   -2   20     -1.00      0.00
    1   -2   20      1.15      0.00
    2   -2   20     -0.93      0.00
    3   -2   20      0.01      0.00
   -2   -1   20      0.27      0.00
   -1   -1   20      1.17      0.00
    0   -1   20     -1.49      0.00
    1   -1   20     -1.76      0.00
    2   -1   20      0.58      0.00
    3   -1   20     -0.16      0.00
    4   -1   20     -0.52      0.00
   -2    0   20      1.24      0.00
   -1    0   20      0.48      0.00
    0    0   20     -1.85      0.00
    1    0   20      0.32      0.00
    2    0   20     -0.28      0.00
    3    0   20     -0.31      0.00
    4    0   20      0.14      0.00
   -2    1   20      1.34      0.00
   -1    1   20      0.17      0.00
    0    1   20     -3.34      0.00
    1    1   20      0.94      0.00
    2    1   20      1.04      0.00
    3    1   20     -0.87      0.00
    4    1   20     -1.02      0.00
   -2    2   20      0.08      0.00
   -1    2   20     -0.30      0.00
    0    2   20     -2.27      0.00
    1    2   20      0.65      0.00
    2    2   20     -0.89      0.00
    3    2   20     -0.30      0.00
    4    2   20     -0.48      0.00
   -2    3   20      1.25      0.00
   -1    3   20     -0.79      0.00
    0    3   20     -1.50      0.00
    1    3   20      3.44      0.00
    2    3   20      1.43      0.00
    3    3   20     -1.34      0.00
    4    3   20     -0.09      0.00
   -2    4   20     -0.47      0.00
   -1    4   20     -0.77      0.00
    0    4   20      2.96      0.00
    1    4   20      0.17      0.00
    2    4   20     -1.26      0.00
    3    4   20     -0.22      0.00
    4    4   20     -0.34      0.00
   -2    5   20      1.21      0.00
   -1    5   20     -0.67      0.00
    0    5   20      0.34      0.00
    1    5   20      1.79      0.00
    2    5   20      0.74      0.00
    3    5   20     -1.50      0.00
    4    5   20      0.41      0.00
   -2    6   20      0.88      0.00
   -1    6   20      1.18      0.00
    0    6   20      2.33      0.00
    1    6   20     -2.65      0.00
    2    6   20     -1.45      0.00
    3    6   20     -0.10      0.00
    4    6   20      0.24      0.00
   -2    7   20      0.99      0.00
   -1    7   20     -2.30      0.00
    0    7   20     -2.71      0.00
    1    7   20      1.45      0.00
    2    7   20      0.26      0.00
    3    7   20     -1.02      0.00
    4    7   20      0.45      0.00
   -2    8   20      0.07      0.00
   -1    8   20     -1.39      0.00
    0    8   20     -0.34      0.00
    1    8   20     -0.99      0.00
    2    8   20     -0.26      0.00
    3    8   20      0.53      0.00
    4    8   20      0.59      0.00
   -2    9   20      0.06      0.00
   -1    9   20     -3.78      0.00
    0    9   20      1.60      0.00
    1    9   20      2.62      0.00
    2    9   20      0.02      0.00
    3    9   20     -0.10      0.00
   -2   10   20     -0.48      0.00
   -1   10   20     -0.06      0.00
    0   10   20      0.27      0.00
    1   10   20      0.60      0.00
    2   10   20      0.15      0.00
    3   10   20      0.37      0.00
   -1   11   20     -1.86      0.00
    0   11   20      1.69      0.00
    1   11   20      0.68      0.00
    2   11   20     -0.89      0.00
    0   12   20     -0.22      0.00
    1   12   20     -0.59      0.00
    2   12   20     -0.47      0.00
    0   13   20      0.15      0.00
    1   13   20      0.21      0.00
    2   13   20     -0.51      0.00
    1   -4   21      0.31      0.00
    0   -3   21     -0.83      0.00
    1   -3   21     -2.16      0.00
    2   -3   21      1.03      0.00
    0   -2   21      0.81      0.00
    1   -2   21      0.59      0.00
    2   -2   21      0.30      0.00
   -1   -1   21      0.15      0.00
    0   -1   21     -0.25      0.00
    1   -1   21      1.57      0.00
    2   -1   21      0.50      0.00
    3   -1   21     -0.81      0.00
   -1    0   21     -0.92      0.00
    0    0   21      0.80      0.00
    1    0   21     -1.81      0.00
    2    0   21     -0.12      0.00
    3    0   21      1.23      0.00
   -2    1   21      0.05      0.00
   -1    1   21      0.30      0.00
    0    1   21      0.30      0.00
    1    1   21      0.29      0.00
    2    1   21     -0.20      0.00
    3    1   21     -0.21      0.00
   -2    2   21      0.11      0.00
   -1    2   21      2.43      0.00
    0    2   21     -0.95      0.00
    1    2   21     -2.18      0.00
    2    2   21      0.76      0.00
    3    2   21      0.58      0.00
   -1    3   21     -0.39      0.00
    0    3   21     -2.79      0.00
    1    3   21     -1.00      0.00
    2    3   21     -0.79      0.00
    3    3   21     -0.71      0.00
    4    3   21     -0.76      0.00
   -1    4   21      2.03      0.00
    0    4   21     -4.41      0.00
    1    4   21     -0.32      0.00
    2    4   21      2.18      0.00
    3    4   21      0.48      0.00
    4    4   21     -0.34      0.00
   -2    5   21      0.20      0.00
   -1    5   21     -1.39      0.00
    0    5   21      0.16      0.00
    1    5   21      2.51      0.00
    2    5   21     -0.20      0.00
    3    5   21      0.11      0.00
   -2    6   21     -0.06      0.00
   -1    6   21      0.56      0.00
    0    6   21     -1.37      0.00
    1    6   21      0.35      0.00
    2    6   21      2.73      0.00
    3    6   21      0.10      0.00
   -2    7   21      0.11      0.00
   -1    7   21      0.90      0.00
    0    7   21      2.68      0.00
    1    7   21      0.24      0.00
    2    7   21     -1.22      0.00
    3    7   21     -0.44      0.00
   -2    8   21      0.76      0.00
   -1    8   21      0.96      0.00
    0    8   21     -2.20      0.00
    1    8   21     -0.08      0.00
    2    8   21      1.45      0.00
    3    8   21     -0.48      0.00
   -1    9   21      0.10      0.00
    0    9   21      0.45      0.00
    1    9   21     -0.93      0.00
    2    9   21     -0.02      0.00
    0   10   21     -0.92      0.00
    1   10   21     -0.02      0.00
    2   10   21      0.27      0.00
    0   11   21     -0.88      0.00
    1   11   21      0.73      0.00
    2   11   21      0.49      0.00
    1   12   21      0.78      0.00
    1   -2   22     -1.13      0.00
    0   -1   22      0.75      0.00
    1   -1   22     -0.16      0.00
    0    0   22     -0.25      0.00
    1    0   22      0.64      0.00
    2    0   22      0.95      0.00
   -1    1   22     -1.62      0.00
    1    1   22      0.03      0.00
    2    1   22     -0.11      0.00
    3    1   22      0.99      0.00
   -1    2   22     -1.18      0.00
    0    2   22      0.68      0.00
    1    2   22      1.32      0.00
    2    2   22     -0.08      0.00
    3    2   22     -0.06      0.00
   -1    3   22      0.70      0.00
    0    3   22      2.13      0.00
    1    3   22     -1.48      0.00
    2    3   22     -0.24      0.00
    3    3   22      0.72      0.00
   -1    4   22     -0.14      0.00
    0    4   22      0.34      0.00
    1    4   22     -0.32      0.00
    2    4   22     -0.98      0.00
   -1    5   22      1.58      0.00
    0    5   22     -1.59      0.00
    1    5   22     -2.28      0.00
    2    5   22     -0.42      0.00
    3    5   22     -0.38      0.00
   -1    6   22     -0.38      0.00
    0    6   22     -0.56      0.00
    1    6   22      0.44      0.00
    2    6   22     -0.05      0.00
    3    6   22      0.64      0.00
   -1    7   22      0.63      0.00
    0    7   22     -0.87      0.00
    1    7   22     -0.08      0.00
    2    7   22      1.23      0.00
   -1    8   22      0.49      0.00
    0    8   22      0.06      0.00
    1    8   22      0.23      0.00
    2    8   22      0.01      0.00
   -1    9   22      0.34      0.00
    0    9   22      0.23      0.00
    1    9   22      0.51      0.00
    2    9   22      0.53      0.00
    0   10   22      0.23      0.00
    1   10   22     -0.76      0.00
    2   10   22      0.58      0.00
    1   11   22     -0.13      0.00
    1    1   23     -0.27      0.00
    0    2   23      0.45      0.00
    1    2   23      0.36      0.00
    0    3   23     -0.11      0.00
    1    3   23      1.06      0.00
    0    4   23      1.38      0.00
    1    4   23      0.39      0.00
    2    4   23      0.27      0.00
    0    5   23      1.05      0.00
    1    5   23      0.43      0.00
    2    5   23     -0.53      0.00
    0    6   23      0.20      0.00
    1    6   23      0.06      0.00
    2    6   23     -1.04      0.00
    0    7   23      1.12      0.00
    1    7   23     -0.96      0.00
    0    8   23     -0.44      0.00
    1    8   23      0.07      0.00
    0    1    0     -4.74      0.00
   -6    9    0      0.20      0.00
   -5   13    0      0.01      0.00
   -4   15    0      0.44      0.00
    4   15    0     -0.19      0.00
    2   17    0      0.10      0.00
   -1   18    0     -0.26      0.00
    0   18    0     -0.03      0.00
    1   18    0      0.34      0.00
    0  -18    1      0.01      0.00
   -2  -17    1     -0.79      0.00
   -3  -16    1     -0.18      0.00
    4  -15    1     -0.26      0.00
   -5  -12    1      0.26      0.00
    5  -12    1     -0.45      0.00
   -6   -9    1      0.18      0.00
    6   -9    1      0.26      0.00
    0    0    1    -50.91      0.00
    0    1    1     53.08      0.00
   -6    3    1      0.56      0.00
   -6    4    1     -0.06      0.00
   -6    5    1      0.17      0.00
   -6    9    1     -0.18      0.00
    6    9    1     -0.11      0.00
   -5   13    1     -0.13      0.00
    5   13    1     -0.16      0.00
   -4   15    1      0.59      0.00
    4   15    1     -0.02      0.00
    1   18    1     -0.13      0.00
    2  -17    2     -0.28      0.00
    3  -16    2     -0.05      0.00
   -5  -12    2      0.24      0.00
   -6    3    2      0.30      0.00
   -6    4    2      0.03      0.00
   -6    5    2     -0.34      0.00
   -6    6    2      0.32      0.00
   -6    7    2     -0.58      0.00
   -6    8    2      0.13      0.00
   -6    9    2      0.04      0.00
    6    9    2     -0.43      0.00
    6   10    2     -0.16      0.00
   -5   13    2      0.20      0.00
    5   13    2      0.05      0.00
   -1   18    2      0.19      0.00
   -1  -17    3     -0.03      0.00
   -2  -16    3     -0.19      0.00
    3  -16    3      0.15      0.00
   -4  -14    3      0.60      0.00
    6   -9    3      0.03      0.00
   -6   -8    3      0.25      0.00
   -6    3    3     -0.23      0.00
    1    3    3    -10.03      0.00
   -6    4    3      0.17      0.00
   -6    5    3      0.06      0.00
   -6    6    3      0.10      0.00
   -6    7    3     -0.33      0.00
   -6    8    3      0.15      0.00
   -6    9    3     -0.10      0.00
    6    9    3      0.16      0.00
    6   10    3      0.05      0.00
   -5   13    3      0.06      0.00
    3   17    3     -0.72      0.00
   -1   18    3     -0.25      0.00
    2   18    3     -0.19      0.00
    0  -17    4      0.06      0.00
    1  -17    4     -0.03      0.00
   -2  -16    4      0.14      0.00
   -3  -15    4      0.12      0.00
   -4  -13    4     -0.45      0.00
    5  -12    4      0.02      0.00
   -5  -11    4      0.17      0.00
    6   -9    4     -0.06      0.00
   -6   -7    4      0.03      0.00
   -6    3    4     -0.34      0.00
   -6    4    4      0.09      0.00
   -6    5    4     -0.14      0.00
   -6    6    4      0.31      0.00
   -6    7    4     -0.08      0.00
   -6    8    4     -0.01      0.00
   -6    9    4      0.05      0.00
    6    9    4      0.07      0.00
   -5   13    4      0.03      0.00
    3   17    4      0.28      0.00
   -2   18    4      0.10      0.00
   -1   18    4     -0.55      0.00
    2   18    4      0.23      0.00
    2  -16    5     -0.13      0.00
    3  -15    5      0.34      0.00
   -3  -14    5      0.02      0.00
    4  -14    5     -0.09      0.00
   -4  -13    5      0.01      0.00
    5  -12    5     -0.26      0.00
    6   -9    5      0.19      0.00
   -6    3    5      0.50      0.00
   -6    4    5      0.54      0.00
   -6    5    5     -0.04      0.00
   -6    6    5     -0.07      0.00
   -6    7    5      0.18      0.00
   -6    8    5      0.03      0.00
   -6    9    5      0.00      0.00
    6    9    5      0.02      0.00
   -5   13    5     -0.28      0.00
   -4   15    5      0.31      0.00
    3   17    5      0.33      0.00
   -2   18    5      0.18      0.00
    2   18    5      0.01      0.00
   -1  -16    6      0.07      0.00
   -2  -15    6     -0.89      0.00
    3  -15    6      0.09      0.00
   -3  -14    6     -0.19      0.00
   -4  -12    6      0.53      0.00
   -5  -10    6     -0.04      0.00
   -6   -6    6      0.14      0.00
   -6   -4    6      0.21      0.00
   -6    4    6     -0.33      0.00
   -6    5    6      0.16      0.00
   -6    6    6     -0.11      0.00
   -6    7    6      0.08      0.00
   -6    8    6     -0.29      0.00
    6    9    6     -0.10      0.00
   -4   15    6      0.16      0.00
    3   17    6      0.19      0.00
    2   18    6     -0.19      0.00
    0  -16    7     -0.50      0.00
    1  -16    7      0.10      0.00
   -2  -15    7     -0.10      0.00
   -3  -13    7      0.17      0.00
    4  -13    7      0.06      0.00
   -4  -12    7      0.16      0.00
    5  -11    7     -0.26      0.00
    6   -8    7      0.26      0.00
    6   -7    7      0.10      0.00
   -6   -5    7     -0.01      0.00
   -6   -4    7     -0.23      0.00
   -6    4    7     -0.64      0.00
   -6    5    7     -0.08      0.00
   -6    6    7      0.00      0.00
   -6    7    7      0.02      0.00
   -6    8    7     -0.18      0.00
    6    9    7      0.09      0.00
   -4   15    7     -0.02      0.00
    1   18    7     -0.01      0.00
    2   18    7      0.01      0.00
   -1  -15    8      0.36      0.00
    2  -15    8      0.71      0.00
   -2  -14    8      0.20      0.00
    3  -14    8      0.56      0.00
   -3  -13    8     -0.17      0.00
   -3  -12    8      0.00      0.00
   -4  -11    8      0.19      0.00
    5  -10    8     -0.09      0.00
    6   -7    8     -0.06      0.00
   -6   -4    8     -0.15      0.00
   -6   -3    8     -0.05      0.00
   -6    4    8      0.57      0.00
   -6    5    8      0.18      0.00
   -6    6    8      0.00      0.00
   -6    7    8      0.05      0.00
    6    9    8      0.06      0.00
   -5   12    8     -0.06      0.00
    3   17    8      0.17      0.00
    1   18    8     -0.04      0.00
    2   18    8      0.03      0.00
    0  -15    9      0.22      0.00
    1  -15    9      0.01      0.00
   -2  -13    9     -0.20      0.00
   -3  -12    9     -0.06      0.00
    5  -10    9     -0.17      0.00
    6   -7    9     -0.03      0.00
    6   -6    9     -0.13      0.00
    6   -5    9      0.17      0.00
   -6   -2    9      0.13      0.00
   -6    3    9     -0.33      0.00
   -6    4    9      0.12      0.00
   -6    5    9     -0.28      0.00
   -6    6    9     -0.04      0.00
    6    9    9      0.13      0.00
    6   10    9      0.19      0.00
    5   13    9      0.27      0.00
    3   17    9      0.10      0.00
    1   18    9      0.00      0.00
    2   18    9      0.23      0.00
   -1  -14   10      0.26      0.00
    0  -14   10      0.10      0.00
    2  -14   10      0.10      0.00
   -2  -13   10      0.04      0.00
    3  -13   10     -0.31      0.00
   -3  -12   10      0.08      0.00
   -3  -11   10      0.41      0.00
   -4  -10   10      0.03      0.00
    5   -9   10     -0.28      0.00
   -5   -7   10     -0.29      0.00
    6   -6   10      0.04      0.00
    6   -5   10      0.02      0.00
    6   -4   10      0.07      0.00
   -6    0   10      0.17      0.00
   -6    1   10      0.12      0.00
   -6    2   10     -0.48      0.00
   -6    3   10      0.23      0.00
   -6    4   10     -0.09      0.00
    6    9   10     -0.35      0.00
    6   10   10     -0.14      0.00
   -5   11   10      0.19      0.00
    5   13   10      0.02      0.00
   -4   14   10     -0.29      0.00
   -3   16   10     -0.22      0.00
   -2   17   10     -0.26      0.00
    3   17   10     -0.10      0.00
   -1   18   10     -0.06      0.00
    1   18   10     -0.04      0.00
    2   18   10     -0.14      0.00
    0  -13   11     -1.02      0.00
    2  -13   11     -0.15      0.00
   -2  -12   11      0.32      0.00
   -3  -11   11      0.10      0.00
    4  -11   11      0.20      0.00
   -3  -10   11      0.29      0.00
   -4   -9   11     -0.03      0.00
    5   -9   11     -0.08      0.00
    5   -8   11     -0.04      0.00
    6   -5   11      0.17      0.00
    6   -4   11      0.14      0.00
    6   -3   11      0.29      0.00
    6    9   11     -0.14      0.00
   -5   10   11      0.32      0.00
    5   13   11     -0.14      0.00
   -3   15   11      0.52      0.00
   -2   17   11      0.56      0.00
   -1   18   11     -0.13      0.00
    1   18   11      0.11      0.00
    0  -13   12     -0.50      0.00
    1  -13   12     -0.40      0.00
   -2  -12   12     -0.03      0.00
    3  -12   12     -0.17      0.00
   -2  -11   12     -0.06      0.00
   -3  -10   12     -0.01      0.00
   -4   -8   12     -0.12      0.00
    5   -8   12     -0.05      0.00
   -5   -4   12     -0.42      0.00
    6   -4   12      0.01      0.00
    6   -3   12     -0.05      0.00
   -5    8   12     -0.09      0.00
   -5    9   12     -0.49      0.00
    6    9   12      0.17      0.00
    5   12   12      0.04      0.00
   -4   13   12      0.56      0.00
    5   13   12     -0.13      0.00
    4   15   12     -0.42      0.00
    3   16   12     -0.68      0.00
    0   18   12     -0.48      0.00
    1   18   12      0.12      0.00
   -1  -12   13     -0.10      0.00
    0  -12   13      0.48      0.00
    2  -12   13      0.49      0.00
   -2  -11   13     -0.23      0.00
    3  -11   13      0.13      0.00
   -4   -7   13      0.29      0.00
    5   -7   13     -0.29      0.00
   -5   -3   13      0.08      0.00
    6   -3   13     -0.12      0.00
    6   -2   13     -0.23      0.00
   -5    1   13     -0.04      0.00
   -5    6   13     -0.39      0.00
   -5    7   13      0.37      0.00
   -5    8   13     -0.02      0.00
    6    8   13     -0.41      0.00
    5   12   13     -0.17      0.00
   -3   15   13     -0.03      0.00
    4   15   13      0.40      0.00
    3   16   13      0.31      0.00
    2   17   13      0.30      0.00
    1  -12   14      0.17      0.00
   -1  -11   14     -0.92      0.00
    0  -11   14      0.25      0.00
    2  -11   14      0.14      0.00
   -2  -10   14     -0.24      0.00
    0  -10   14      0.45      0.00
    4   -9   14      0.20      0.00
   -4   -6   14      0.24      0.00
    5   -6   14     -0.06      0.00
    6   -2   14      0.02      0.00
   -5   -1   14     -0.25      0.00
   -5    0   14     -0.45      0.00
   -5    2   14     -0.46      0.00
    6    3   14     -0.22      0.00
   -5    5   14      0.14      0.00
   -5    6   14      0.00      0.00
   -5    7   14      0.25      0.00
    6    7   14      0.25      0.00
   -4   11   14     -0.39      0.00
    5   11   14      0.51      0.00
   -4   12   14      0.44      0.00
    5   12   14     -0.13      0.00
    4   14   14      0.48      0.00
   -2   16   14      0.53      0.00
    3   16   14     -0.08      0.00
   -1   17   14     -0.44      0.00
    2   17   14      0.34      0.00
    0  -11   15      0.60      0.00
    1  -11   15      0.04      0.00
   -1  -10   15      0.50      0.00
    2  -10   15      0.07      0.00
   -2   -9   15      0.09      0.00
    4   -8   15     -0.08      0.00
    5   -5   15      0.36      0.00
    6    0   15     -0.40      0.00
    6    1   15      0.06      0.00
    6    4   15      0.27      0.00
    6    5   15      0.17      0.00
    6    6   15      0.36      0.00
   -4   11   15      0.13      0.00
    5   11   15      0.00      0.00
    4   13   15      0.00      0.00
    4   14   15     -0.01      0.00
    0   17   15      0.14      0.00
    1   17   15      0.04      0.00
    0  -10   16     -0.05      0.00
    1  -10   16      0.15      0.00
    2  -10   16     -0.24      0.00
    2   -9   16      0.43      0.00
    3   -9   16     -0.13      0.00
   -2   -8   16      0.49      0.00
    4   -7   16     -0.03      0.00
    5   -4   16      0.46      0.00
   -4   -3   16      0.23      0.00
    5   -3   16      0.94      0.00
    5   10   16     -0.31      0.00
    4   12   16     -0.02      0.00
   -3   13   16      0.23      0.00
    4   13   16      0.13      0.00
    3   14   16     -0.07      0.00
   -2   15   16     -0.01      0.00
    3   15   16     -0.03      0.00
   -1   16   16      0.29      0.00
    2   16   16     -0.42      0.00
    0   -9   17      0.04      0.00
    1   -9   17     -0.24      0.00
    2   -9   17      0.07      0.00
   -1   -8   17      0.20      0.00
    2   -8   17      0.05      0.00
    3   -8   17     -0.07      0.00
   -2   -7   17     -0.10      0.00
    4   -6   17     -0.12      0.00
   -3   -5   17      0.30      0.00
    4   -5   17      0.03      0.00
   -3   -3   17     -0.36      0.00
    5   -3   17      0.34      0.00
    5   -2   17      0.05      0.00
   -4   -1   17      0.21      0.00
   -4    0   17      0.45      0.00
   -4    1   17     -0.04      0.00
   -4    4   17      0.01      0.00
   -4    5   17      0.31      0.00
   -4    6   17     -0.38      0.00
   -4    7   17      0.42      0.00
    5    7   17     -0.03      0.00
   -4    8   17     -0.53      0.00
    5    9   17     -0.13      0.00
   -3   12   17      0.11      0.00
    4   12   17      0.43      0.00
   -2   13   17     -0.06      0.00
    4   13   17     -0.01      0.00
   -2   14   17      0.39      0.00
    3   14   17     -0.23      0.00
   -1   15   17     -0.42      0.00
    0   16   17      0.69      0.00
    1   16   17      0.14      0.00
    0   -8   18      1.12      0.00
    1   -8   18     -0.40      0.00
    2   -8   18      0.21      0.00
   -1   -7   18     -1.34      0.00
    2   -7   18     -0.45      0.00
    3   -7   18     -0.01      0.00
   -2   -6   18     -0.38      0.00
    4   -5   18      0.05      0.00
    4   -4   18     -0.21      0.00
   -3   -2   18      0.41      0.00
    5   -1   18     -0.39      0.00
   -4    4   18      0.26      0.00
    5    8   18      0.05      0.00
   -3    9   18     -0.69      0.00
   -3   11   18     -0.16      0.00
    4   11   18      0.06      0.00
    4   12   18     -0.12      0.00
   -2   13   18     -0.30      0.00
    3   14   18      0.10      0.00
    2   15   18      0.37      0.00
    0   -7   19      0.68      0.00
    1   -7   19     -0.04      0.00
   -1   -6   19     -0.36      0.00
    2   -6   19      0.03      0.00
    3   -5   19     -0.06      0.00
   -2   -4   19      0.48      0.00
    4   -3   19     -0.09      0.00
   -3   -1   19      0.40      0.00
    5    2   19     -0.06      0.00
    5    3   19      0.07      0.00
    5    4   19      0.28      0.00
    5    5   19     -0.05      0.00
    5    6   19     -0.27      0.00
   -3    9   19     -0.41      0.00
    4   10   19      0.12      0.00
    4   11   19      0.10      0.00
   -2   12   19     -0.11      0.00
    3   13   19     -0.19      0.00
   -1   14   19      0.91      0.00
    2   14   19      0.47      0.00
    1   -6   20      0.13      0.00
    2   -5   20      0.03      0.00
   -1   -4   20     -0.36      0.00
    3   -4   20     -0.32      0.00
   -2   -3   20     -0.32      0.00
   -2   -2   20      0.45      0.00
   -3    2   20     -0.02      0.00
   -3    3   20     -0.23      0.00
   -3    4   20      0.32      0.00
   -3    5   20      0.04      0.00
   -3    6   20      0.08      0.00
    4    9   20      0.30      0.00
   -2   11   20      0.30      0.00
    3   11   20     -0.40      0.00
   -1   12   20      0.89      0.00
    3   12   20      0.21      0.00
   -1   13   20     -0.64      0.00
    1   14   20     -0.33      0.00
    0   -4   21      0.49      0.00
    2   -4   21     -0.44      0.00
   -1   -3   21      0.25      0.00
   -1   -2   21     -0.70      0.00
    3   -2   21      0.64      0.00
   -2    0   21     -0.12      0.00
    4    1   21      0.27      0.00
    4    2   21     -0.14      0.00
   -2    3   21      0.33      0.00
   -2    4   21      0.06      0.00
    4    5   21     -0.14      0.00
    4    6   21     -0.40      0.00
    4    7   21     -0.13      0.00
   -2    9   21      0.04      0.00
    3    9   21     -0.19      0.00
   -1   10   21     -0.17      0.00
    3   10   21     -0.35      0.00
   -1   11   21     -0.60      0.00
    3   11   21      0.18      0.00
    0   12   21      0.49      0.00
    2   12   21      0.36      0.00
    1   13   21     -0.21      0.00
    0   -2   22      0.15      0.00
    2   -2   22     -0.18      0.00
   -1   -1   22     -0.39      0.00
    2   -1   22     -0.17      0.00
   -1    0   22      0.38      0.00
    3    0   22     -0.39      0.00
    0    1   22      1.18      0.00
    3    4   22     -0.17      0.00
    3    7   22      0.25      0.00
    3    8   22      0.23      0.00
    3    9   22      0.19      0.00
   -1   10   22      0.34      0.00
    0   11   22      0.72      0.00
    2   11   22      0.12      0.00
    0    0   23      0.45      0.00
    1    0   23     -0.12      0.00
    0    1   23      0.09      0.00
    2    1   23      0.18      0.00
    2    2   23      0.36      0.00
   -1    3   23     -0.92      0.00
    2    3   23      0.01      0.00
   -1    4   23     -0.44      0.00
   -1    5   23     -0.11      0.00
   -1    6   23     -0.36      0.00
    2    7   23     -0.65      0.00
    2    8   23     -0.21      0.00
    0    9   23     -0.02      0.00
    1    9   23     -0.43      0.00
    2    9   23     -0.34      0.00
    0    0    0      0.00      0.00
# SQUEEZE RESULTS
# Note: Data are Listed for all Voids in the P1 Unit Cell
# i.e. Centre of Gravity, Solvent Accessible Volume,
# Recovered number of Electrons in the Void and
# Details about the Squeezed Material
loop_
  _platon_squeeze_void_nr
  _platon_squeeze_void_average_x
  _platon_squeeze_void_average_y
  _platon_squeeze_void_average_z
  _platon_squeeze_void_volume
  _platon_squeeze_void_count_electrons
  _platon_squeeze_void_content
   1 -0.031  0.500  0.500       845       217 ' '
_platon_squeeze_void_probe_radius                  1.20
_platon_squeeze_details
(replace by semicolon in column 1 when used as .sqf)
TITL shelxl    P -1         R = 0.30
CELL    5.6087   14.7726   18.7946     75.24     82.37     88.60
SPGR P-1
# Solvent Accessible Volume =     849.8
# Electrons Found in S.A.V. =     216.6
# Note: Atoms in Void as Cxxx and Qxxx all others
C101 0.691 0.980 0.267 !       7.65 eA-3
C102 0.281 0.515 0.208 !       6.84 eA-3
C103 0.159 0.134 0.576 !       3.49 eA-3
C104 0.282 0.170 0.566 !       3.35 eA-3
C105 0.908 0.076 0.780 !       3.26 eA-3
C106 0.528 0.064 0.773 !       3.23 eA-3
C107 0.655 0.453 0.291 !       3.13 eA-3
C108 1.001 0.676 0.593 !       2.89 eA-3
C109 0.193 0.471 0.266 !       2.53 eA-3
C110 0.817 0.614 0.606 !       2.44 eA-3
C111 0.937 0.812 0.205 !       2.02 eA-3
C112 0.369 0.413 0.383 !       1.78 eA-3
C113 0.998 0.455 0.283 !       1.76 eA-3
C114 0.655 0.445 0.563 !       1.54 eA-3
C115 0.904 0.627 0.656 !       1.30 eA-3
C116 0.567 0.381 0.794 !       1.29 eA-3
C117 1.005 0.144 0.625 !       1.29 eA-3
C118 0.255 0.475 0.327 !       1.28 eA-3
C119 0.127 0.128 0.702 !       1.27 eA-3
C120 0.341 0.109 0.688 !       1.24 eA-3
C121 0.469 0.365 0.804 !       1.23 eA-3
C122 0.471 0.541 0.252 !       1.20 eA-3
C123 0.308 0.424 0.334 !       1.11 eA-3
C124 0.219 0.790 0.215 !       1.10 eA-3
C125 0.279 0.319 0.763 !       1.09 eA-3
C126 0.122 0.165 0.658 !       1.06 eA-3
C127 0.504 0.148 0.620 !       0.98 eA-3
C128 0.283 0.395 0.785 !       0.94 eA-3
Q129 0.929 0.604 0.904 !       0.94 eA-3
C130 0.970 0.716 0.364 !       0.85 eA-3
Q131 0.723 0.267 0.033 !       0.85 eA-3
C132 0.658 0.462 0.651 !       0.84 eA-3
C133 0.629 0.428 0.672 !       0.84 eA-3
C134 0.564 0.646 0.578 !       0.83 eA-3
C135 0.529 0.527 0.317 !       0.82 eA-3
C136 0.341 0.175 0.803 !       0.80 eA-3
Q137 0.121 0.115 0.011 !       0.79 eA-3
Q138 0.322 0.315 0.079 !       0.78 eA-3
C139 0.244 0.347 0.688 !       0.78 eA-3
Q140 0.839 0.653 0.876 !       0.77 eA-3
C141 0.241 0.133 0.746 !       0.77 eA-3
Q142 0.066 0.526 0.942 !       0.74 eA-3
Q143 0.663 0.960 0.561 !       0.71 eA-3
C144 0.154 0.819 0.392 !       0.70 eA-3
Q145 0.693 0.594 0.003 !       0.69 eA-3
Q146 0.067 0.876 0.968 !       0.69 eA-3
Q147 0.366 0.078 0.993 !       0.67 eA-3
Q148 0.227 0.221 0.223 !       0.67 eA-3
C149 0.913 0.480 0.504 !       0.66 eA-3
Q150 0.721 1.015 0.207 !       0.66 eA-3
C151 0.942 0.509 0.479 !       0.66 eA-3
Q152 0.821 0.522 0.032 !       0.66 eA-3
Q153 0.412 0.843 0.922 !       0.65 eA-3
Q154 0.314 0.915 0.567 !       0.64 eA-3
Q155 0.503 0.244 0.262 !       0.64 eA-3
Q156 0.507 0.331 0.062 !       0.64 eA-3
Q157 0.529 0.305 0.047 !       0.63 eA-3
C158 0.998 0.691 0.315 !       0.61 eA-3
Q159 0.221 0.535 0.940 !       0.59 eA-3
Q160 0.429 0.270 0.232 !       0.59 eA-3
C161 0.059 0.202 0.697 !       0.56 eA-3
Q162 0.308 0.284 0.158 !       0.56 eA-3
Q163 1.000 0.573 0.959 !       0.56 eA-3
Q164 0.372 0.354 0.024 !       0.55 eA-3
Q165 1.002 0.836 0.984 !       0.54 eA-3
Q166 0.346 0.567 0.122 !       0.54 eA-3
Q167 0.420 0.742 0.767 !       0.53 eA-3
Q168 0.428 0.576 0.145 !       0.53 eA-3
Q169 0.859 0.565 0.935 !       0.52 eA-3
C170 0.913 0.241 0.501 !       0.52 eA-3
Q171 0.446 0.925 0.578 !       0.51 eA-3
Q172 0.867 0.321 0.050 !       0.51 eA-3
Q173 0.250 0.865 0.940 !       0.50 eA-3
Q174 0.939 0.586 0.134 !       0.50 eA-3
Q175 0.742 0.868 0.672 !       0.50 eA-3
(replace by semicolon in column 1 when used as .sqf)
;
_shelx_fab_checksum              22162
loop_
_space_group_symop_id
_space_group_symop_operation_xyz
1 +X,+Y,+Z
2 -X,-Y,-Z
loop_
_atom_site_label
_atom_site_type_symbol
_atom_site_fract_x
_atom_site_fract_y
_atom_site_fract_z
_atom_site_U_iso_or_equiv
_atom_site_adp_type
_atom_site_occupancy
_atom_site_site_symmetry_order
_atom_site_calc_flag
_atom_site_refinement_flags_posn
_atom_site_refinement_flags_adp
O1 O 1.6245(3) 0.08565(17) 0.43177(11) 0.0607(7) Uani 1 1 d . .
O2 O 1.2564(3) 0.02329(17) 0.44460(10) 0.0591(6) Uani 1 1 d . .
H2O H 1.2968 -0.0081 0.4851 0.071 Uiso 1 1 calc R U
O3 O -0.2437(3) 0.99962(11) -0.05736(10) 0.0397(4) Uani 1 1 d . .
O4 O -0.3811(3) 0.89137(12) 0.04656(10) 0.0398(4) Uani 1 1 d . .
H4O H -0.4909 0.9307 0.0485 0.048 Uiso 1 1 calc R U
N1 N 1.0772(3) 0.36517(12) 0.12728(9) 0.0261(4) Uani 1 1 d . .
N2 N 0.6055(3) 0.61588(12) 0.00534(9) 0.0245(4) Uani 1 1 d . .
C1 C 1.2688(4) 0.31319(14) 0.12401(11) 0.0250(4) Uani 1 1 d . .
C2 C 1.0369(4) 0.43132(14) 0.06395(11) 0.0235(4) Uani 1 1 d . .
C3 C 0.8354(4) 0.48823(14) 0.06602(11) 0.0248(4) Uani 1 1 d . .
H3 H 0.7254 0.4804 0.1102 0.030 Uiso 1 1 calc R U
C4 C 0.7974(3) 0.55694(14) 0.00223(11) 0.0235(4) Uani 1 1 d . .
C5 C 0.5730(4) 0.68033(14) -0.05497(11) 0.0241(4) Uani 1 1 d . .
C6 C 1.3133(4) 0.25062(15) 0.19731(11) 0.0278(5) Uani 1 1 d . .
C7 C 1.1414(4) 0.18375(17) 0.23658(13) 0.0349(5) Uani 1 1 d . .
H7 H 0.9998 0.1762 0.2159 0.042 Uiso 1 1 calc R U
C8 C 1.1763(4) 0.12835(19) 0.30559(13) 0.0403(6) Uani 1 1 d . .
H8 H 1.0600 0.0822 0.3322 0.048 Uiso 1 1 calc R U
C9 C 1.3830(4) 0.14069(18) 0.33584(12) 0.0362(5) Uani 1 1 d . .
C10 C 1.5531(4) 0.20817(17) 0.29690(12) 0.0346(5) Uani 1 1 d . .
H10 H 1.6927 0.2169 0.3181 0.042 Uiso 1 1 calc R U
C11 C 1.5201(4) 0.26294(16) 0.22713(12) 0.0313(5) Uani 1 1 d . .
H11 H 1.6376 0.3084 0.2001 0.038 Uiso 1 1 calc R U
C12 C 1.4304(4) 0.0802(2) 0.40905(13) 0.0423(6) Uani 1 1 d . .
C13 C 0.3698(4) 0.74551(14) -0.04604(11) 0.0246(4) Uani 1 1 d . .
C14 C 0.1850(4) 0.71459(15) 0.01229(12) 0.0277(4) Uani 1 1 d . .
H14 H 0.1920 0.6536 0.0442 0.033 Uiso 1 1 calc R U
C15 C -0.0084(4) 0.77158(15) 0.02426(12) 0.0291(5) Uani 1 1 d . .
H15 H -0.1333 0.7496 0.0640 0.035 Uiso 1 1 calc R U
C16 C -0.0187(4) 0.86148(15) -0.02234(12) 0.0285(5) Uani 1 1 d . .
C17 C 0.1676(4) 0.89351(15) -0.07965(12) 0.0301(5) Uani 1 1 d . .
H17 H 0.1621 0.9550 -0.1109 0.036 Uiso 1 1 calc R U
C18 C 0.3598(4) 0.83684(15) -0.09141(12) 0.0289(4) Uani 1 1 d . .
H18 H 0.4864 0.8597 -0.1304 0.035 Uiso 1 1 calc R U
C19 C -0.2266(4) 0.92287(15) -0.01136(13) 0.0311(5) Uani 1 1 d . .
loop_
_atom_site_aniso_label
_atom_site_aniso_U_11
_atom_site_aniso_U_22
_atom_site_aniso_U_33
_atom_site_aniso_U_23
_atom_site_aniso_U_13
_atom_site_aniso_U_12
O1 0.0397(11) 0.0851(16) 0.0356(10) 0.0282(10) -0.0130(8) 0.0011(10)
O2 0.0418(11) 0.0797(15) 0.0323(10) 0.0307(10) -0.0084(8) -0.0017(10)
O3 0.0363(9) 0.0312(8) 0.0497(10) -0.0070(7) -0.0087(7) 0.0187(7)
O4 0.0330(9) 0.0408(9) 0.0430(10) -0.0101(7) -0.0010(7) 0.0199(7)
N1 0.0247(9) 0.0270(8) 0.0196(8) 0.0052(7) -0.0013(6) 0.0096(7)
N2 0.0221(8) 0.0243(8) 0.0222(8) 0.0017(7) -0.0021(6) 0.0094(6)
C1 0.0238(10) 0.0246(9) 0.0205(10) 0.0047(7) -0.0026(7) 0.0068(7)
C2 0.0228(10) 0.0244(9) 0.0186(9) 0.0026(7) -0.0029(7) 0.0075(7)
C3 0.0234(10) 0.0267(10) 0.0182(9) 0.0025(7) 0.0010(7) 0.0085(8)
C4 0.0209(10) 0.0240(9) 0.0215(9) 0.0009(7) -0.0023(7) 0.0071(7)
C5 0.0219(10) 0.0240(9) 0.0217(9) 0.0019(7) -0.0027(7) 0.0064(7)
C6 0.0263(10) 0.0294(10) 0.0199(9) 0.0056(8) -0.0012(7) 0.0123(8)
C7 0.0252(11) 0.0415(12) 0.0271(11) 0.0109(9) -0.0043(8) 0.0083(9)
C8 0.0276(11) 0.0484(14) 0.0301(12) 0.0149(10) -0.0011(9) 0.0051(10)
C9 0.0301(12) 0.0456(13) 0.0216(10) 0.0100(9) -0.0015(8) 0.0132(9)
C10 0.0290(11) 0.0430(12) 0.0248(10) 0.0048(9) -0.0067(8) 0.0110(9)
C11 0.0274(11) 0.0330(11) 0.0254(10) 0.0062(8) -0.0027(8) 0.0078(8)
C12 0.0287(12) 0.0579(15) 0.0259(11) 0.0141(11) -0.0020(9) 0.0093(10)
C13 0.0232(10) 0.0244(10) 0.0240(9) -0.0014(8) -0.0059(7) 0.0093(7)
C14 0.0257(10) 0.0254(10) 0.0271(10) 0.0013(8) -0.0037(8) 0.0084(8)
C15 0.0258(10) 0.0295(10) 0.0291(10) -0.0042(8) -0.0018(8) 0.0085(8)
C16 0.0265(11) 0.0271(10) 0.0330(11) -0.0081(9) -0.0092(8) 0.0126(8)
C17 0.0327(11) 0.0245(10) 0.0305(11) -0.0006(8) -0.0089(8) 0.0099(8)
C18 0.0280(11) 0.0259(10) 0.0282(10) 0.0013(8) -0.0044(8) 0.0084(8)
C19 0.0293(11) 0.0291(11) 0.0362(12) -0.0094(9) -0.0095(9) 0.0124(8)
loop_
_atom_type_symbol
_atom_type_description
_atom_type_scat_dispersion_real
_atom_type_scat_dispersion_imag
_atom_type_scat_source
C C 0.0181 0.0091
;
International Tables for Crystallography
(Vol. C, Tables 4.2.6.8 and 6.1.1.4)
;
H H 0.0000 0.0000
;
International Tables for Crystallography
(Vol. C, Table 6.1.1.4)
;
N N 0.0311 0.0180
;
International Tables for Crystallography
(Vol. C, Tables 4.2.6.8 and 6.1.1.4)
;
O O 0.0492 0.0322
;
International Tables for Crystallography
(Vol. C, Tables 4.2.6.8 and 6.1.1.4)
;
loop_
_geom_angle_atom_site_label_1
_geom_angle_atom_site_label_2
_geom_angle_atom_site_label_3
_geom_angle
_geom_angle_site_symmetry_1
_geom_angle_site_symmetry_3
C12 O2 H2O 109.5 . .
C19 O4 H4O 109.5 . .
C1 N1 C2 117.83(17) . .
C5 N2 C4 118.27(17) . .
N1 C1 C5 121.86(17) . 2_765
N1 C1 C6 114.18(17) . .
C5 C1 C6 123.92(17) 2_765 .
N1 C2 C3 119.05(18) . .
N1 C2 C4 120.32(18) . 2_765
C3 C2 C4 120.60(18) . 2_765
C2 C3 C4 119.11(18) . .
C2 C3 H3 120.4 . .
C4 C3 H3 120.4 . .
N2 C4 C3 119.05(18) . .
N2 C4 C2 120.58(18) . 2_765
C3 C4 C2 120.29(18) . 2_765
N2 C5 C1 120.78(18) . 2_765
N2 C5 C13 115.16(17) . .
C1 C5 C13 124.05(17) 2_765 .
C11 C6 C7 120.54(19) . .
C11 C6 C1 119.70(19) . .
C7 C6 C1 119.69(19) . .
C8 C7 C6 120.1(2) . .
C8 C7 H7 119.9 . .
C6 C7 H7 119.9 . .
C7 C8 C9 119.6(2) . .
C7 C8 H8 120.2 . .
C9 C8 H8 120.2 . .
C10 C9 C8 120.2(2) . .
C10 C9 C12 118.7(2) . .
C8 C9 C12 121.0(2) . .
C11 C10 C9 120.3(2) . .
C11 C10 H10 119.9 . .
C9 C10 H10 119.9 . .
C10 C11 C6 119.3(2) . .
C10 C11 H11 120.4 . .
C6 C11 H11 120.4 . .
O1 C12 O2 124.4(2) . .
O1 C12 C9 120.3(2) . .
O2 C12 C9 115.3(2) . .
C14 C13 C18 118.68(18) . .
C14 C13 C5 117.83(17) . .
C18 C13 C5 123.45(19) . .
C15 C14 C13 120.98(19) . .
C15 C14 H14 119.5 . .
C13 C14 H14 119.5 . .
C14 C15 C16 119.7(2) . .
C14 C15 H15 120.1 . .
C16 C15 H15 120.1 . .
C17 C16 C15 119.60(19) . .
C17 C16 C19 119.88(19) . .
C15 C16 C19 120.5(2) . .
C18 C17 C16 120.62(19) . .
C18 C17 H17 119.7 . .
C16 C17 H17 119.7 . .
C17 C18 C13 120.4(2) . .
C17 C18 H18 119.8 . .
C13 C18 H18 119.8 . .
O3 C19 O4 124.22(19) . .
O3 C19 C16 119.7(2) . .
O4 C19 C16 116.08(19) . .
loop_
_geom_bond_atom_site_label_1
_geom_bond_atom_site_label_2
_geom_bond_distance
_geom_bond_site_symmetry_2
O1 C12 1.233(3) .
O2 C12 1.299(3) .
O2 H2O 0.8400 .
O3 C19 1.249(3) .
O4 C19 1.290(3) .
O4 H4O 0.8400 .
N1 C1 1.310(3) .
N1 C2 1.375(2) .
N2 C5 1.312(3) .
N2 C4 1.373(3) .
C1 C5 1.454(3) 2_765
C1 C6 1.498(3) .
C2 C3 1.394(3) .
C2 C4 1.425(3) 2_765
C3 C4 1.397(3) .
C3 H3 0.9500 .
C4 C2 1.425(3) 2_765
C5 C1 1.454(3) 2_765
C5 C13 1.494(3) .
C6 C11 1.388(3) .
C6 C7 1.391(3) .
C7 C8 1.382(3) .
C7 H7 0.9500 .
C8 C9 1.393(4) .
C8 H8 0.9500 .
C9 C10 1.389(3) .
C9 C12 1.490(3) .
C10 C11 1.388(3) .
C10 H10 0.9500 .
C11 H11 0.9500 .
C13 C14 1.397(3) .
C13 C18 1.405(3) .
C14 C15 1.387(3) .
C14 H14 0.9500 .
C15 C16 1.397(3) .
C15 H15 0.9500 .
C16 C17 1.393(3) .
C16 C19 1.485(3) .
C17 C18 1.378(3) .
C17 H17 0.9500 .
C18 H18 0.9500 .
loop_
_geom_hbond_atom_site_label_D
_geom_hbond_atom_site_label_H
_geom_hbond_atom_site_label_A
_geom_hbond_site_symmetry_A
_geom_hbond_distance_DA
_geom_hbond_distance_DH
_geom_hbond_distance_HA
_geom_hbond_angle_DHA
_geom_hbond_publ_flag
O2 H2O O1 2_856 2.625(3) 0.840 1.788 174.0 no
O4 H4O O3 2_475 2.636(2) 0.840 1.803 171.5 no
loop_
_geom_torsion_atom_site_label_1
_geom_torsion_atom_site_label_2
_geom_torsion_atom_site_label_3
_geom_torsion_atom_site_label_4
_geom_torsion
_geom_torsion_site_symmetry_1
_geom_torsion_site_symmetry_4
C2 N1 C1 C5 -4.2(3) . 2_765
C2 N1 C1 C6 173.53(19) . .
C1 N1 C2 C3 -179.4(2) . .
C1 N1 C2 C4 -1.1(3) . 2_765
N1 C2 C3 C4 178.5(2) . .
C4 C2 C3 C4 0.1(4) 2_765 .
C5 N2 C4 C3 179.66(19) . .
C5 N2 C4 C2 2.9(3) . 2_765
C2 C3 C4 N2 -176.87(19) . .
C2 C3 C4 C2 -0.1(4) . 2_765
C4 N2 C5 C1 2.3(3) . 2_765
C4 N2 C5 C13 -176.36(18) . .
N1 C1 C6 C11 -116.6(2) . .
C5 C1 C6 C11 61.1(3) 2_765 .
N1 C1 C6 C7 60.3(3) . .
C5 C1 C6 C7 -122.1(2) 2_765 .
C11 C6 C7 C8 -0.5(4) . .
C1 C6 C7 C8 -177.3(2) . .
C6 C7 C8 C9 0.8(4) . .
C7 C8 C9 C10 -0.1(4) . .
C7 C8 C9 C12 -178.1(2) . .
C8 C9 C10 C11 -0.9(4) . .
C12 C9 C10 C11 177.2(2) . .
C9 C10 C11 C6 1.1(4) . .
C7 C6 C11 C10 -0.4(3) . .
C1 C6 C11 C10 176.4(2) . .
C10 C9 C12 O1 -5.2(4) . .
C8 C9 C12 O1 172.8(3) . .
C10 C9 C12 O2 175.4(2) . .
C8 C9 C12 O2 -6.6(4) . .
N2 C5 C13 C14 -23.3(3) . .
C1 C5 C13 C14 158.2(2) 2_765 .
N2 C5 C13 C18 154.4(2) . .
C1 C5 C13 C18 -24.2(3) 2_765 .
C18 C13 C14 C15 1.8(3) . .
C5 C13 C14 C15 179.52(19) . .
C13 C14 C15 C16 -0.3(3) . .
C14 C15 C16 C17 -1.1(3) . .
C14 C15 C16 C19 178.8(2) . .
C15 C16 C17 C18 1.0(3) . .
C19 C16 C17 C18 -178.9(2) . .
C16 C17 C18 C13 0.5(3) . .
C14 C13 C18 C17 -1.8(3) . .
C5 C13 C18 C17 -179.5(2) . .
C17 C16 C19 O3 6.2(3) . .
C15 C16 C19 O3 -173.6(2) . .
C17 C16 C19 O4 -174.2(2) . .
C15 C16 C19 O4 5.9(3) . .
