#------------------------------------------------------------------------------
#$Date: 2016-12-19 12:49:07 +0200 (Mon, 19 Dec 2016) $
#$Revision: 189226 $
#$URL: file:///home/coder/svn-repositories/cod/cif/7/22/72/7227280.cif $
#------------------------------------------------------------------------------
#
# This file is available in the Crystallography Open Database (COD),
# http://www.crystallography.net/
#
# All data on this site have been placed in the public domain by the
# contributors.
#
data_7227280
loop_
_publ_author_name
'Ye, Yingxiang'
'Wu, Xiuzhen'
'Yao, Zizhu'
'Wu, Ling'
'Cai, Zetao'
'Wang, Lihua'
'Ma, Xiuling'
'Chen, Qian-Huo'
'Zhang, Zhangjing'
'Xiang, Shengchang'
_publ_section_title
;
 Metal--organic frameworks with a large breathing effect to host hydroxyl
 compounds for high anhydrous proton conductivity over a wide temperature
 range from subzero to 125 \^A\%C
;
_journal_issue                   11
_journal_name_full               'J. Mater. Chem. A'
_journal_page_first              4062
_journal_page_last               4070
_journal_paper_doi               10.1039/c5ta10765b
_journal_volume                  4
_journal_year                    2016
_chemical_formula_moiety         'C10 H6 N3 O4 Zn1.5'
_chemical_formula_sum            'C10 H6 N3 O4 Zn1.5'
_chemical_formula_weight         330.23
_chemical_name_systematic
;
 ?
;
_space_group_crystal_system      triclinic
_space_group_IT_number           2
_space_group_name_Hall           '-P 1'
_space_group_name_H-M_alt        'P -1'
_symmetry_space_group_name_Hall  '-P 1'
_symmetry_space_group_name_H-M   'P -1'
_atom_sites_solution_hydrogens   geom
_atom_sites_solution_primary     direct
_audit_creation_date             2015-09-29
_audit_creation_method
;
Olex2 1.2
(compiled 2015.01.26 svn.r3150 for OlexSys, GUI svn.r4998)
;
_audit_update_record
;
2015-12-12 deposited with the CCDC.
2016-02-16 downloaded from the CCDC.
;
_cell_angle_alpha                112.294(16)
_cell_angle_beta                 99.494(9)
_cell_angle_gamma                99.046(9)
_cell_formula_units_Z            2
_cell_length_a                   9.2142(6)
_cell_length_b                   11.1531(19)
_cell_length_c                   11.3582(19)
_cell_measurement_reflns_used    1538
_cell_measurement_temperature    293(2)
_cell_measurement_theta_max      72.0280
_cell_measurement_theta_min      4.3110
_cell_volume                     1033.8(3)
_computing_molecular_graphics    'Olex2 (Dolomanov et al., 2009)'
_computing_publication_material  'Olex2 (Dolomanov et al., 2009)'
_computing_structure_refinement  'ShelXL (Sheldrick, 2008)'
_computing_structure_solution    'SIR2004 (Burla et al., 2007)'
_diffrn_ambient_temperature      293(2)
_diffrn_measured_fraction_theta_full 0.992
_diffrn_measured_fraction_theta_max 0.959
_diffrn_measurement_device_type  'SuperNova, Dual, Cu at zero, Atlas'
_diffrn_measurement_method       '\w scans'
_diffrn_radiation_type           CuK\a
_diffrn_radiation_wavelength     1.54184
_diffrn_reflns_av_R_equivalents  0.0792
_diffrn_reflns_av_unetI/netI     0.1156
_diffrn_reflns_Laue_measured_fraction_full 0.992
_diffrn_reflns_Laue_measured_fraction_max 0.959
_diffrn_reflns_limit_h_max       11
_diffrn_reflns_limit_h_min       -11
_diffrn_reflns_limit_k_max       13
_diffrn_reflns_limit_k_min       -13
_diffrn_reflns_limit_l_max       10
_diffrn_reflns_limit_l_min       -13
_diffrn_reflns_number            9456
_diffrn_reflns_point_group_measured_fraction_full 0.992
_diffrn_reflns_point_group_measured_fraction_max 0.959
_diffrn_reflns_theta_full        67.684
_diffrn_reflns_theta_max         74.440
_diffrn_reflns_theta_min         4.340
_exptl_absorpt_coefficient_mu    2.336
_exptl_crystal_colour            colourless
_exptl_crystal_density_diffrn    1.061
_exptl_crystal_description       block
_exptl_crystal_F_000             328
_exptl_crystal_size_max          0.2
_exptl_crystal_size_mid          0.15
_exptl_crystal_size_min          0.1
_refine_diff_density_max         2.556
_refine_diff_density_min         -0.896
_refine_diff_density_rms         0.141
_refine_ls_extinction_coef       .
_refine_ls_extinction_method     none
_refine_ls_goodness_of_fit_ref   1.017
_refine_ls_hydrogen_treatment    constr
_refine_ls_matrix_type           full
_refine_ls_number_parameters     169
_refine_ls_number_reflns         4047
_refine_ls_number_restraints     0
_refine_ls_restrained_S_all      1.017
_refine_ls_R_factor_all          0.1124
_refine_ls_R_factor_gt           0.0835
_refine_ls_shift/su_max          0.000
_refine_ls_shift/su_mean         0.000
_refine_ls_structure_factor_coef Fsqd
_refine_ls_weighting_details
;
 w=1/[\s^2^(Fo^2^)+(0.1014P)^2^]
 where P=(Fo^2^+2Fc^2^)/3
;
_refine_ls_weighting_scheme      calc
_refine_ls_wR_factor_gt          0.1996
_refine_ls_wR_factor_ref         0.2213
_reflns_Friedel_coverage         0.000
_reflns_Friedel_fraction_full    .
_reflns_Friedel_fraction_max     .
_reflns_number_gt                2582
_reflns_number_total             4047
_reflns_threshold_expression     'I > 2\s(I)'
_cod_data_source_file            c5ta10765b2.cif
_cod_data_source_block           FJU-31-Ch
_cod_original_formula_sum        'C10 H6 N3 O4 Zn1.50'
_cod_database_code               7227280
_shelxl_version_number           2013-2
_shelx_space_group_comment
;
The symmetry employed for this shelxl refinement is uniquely defined
by the following loop, which should always be used as a source of
symmetry information in preference to the above space-group names.
They are only intended as comments.
;
_shelx_estimated_absorpt_t_max   0.800
_shelx_estimated_absorpt_t_min   0.652
_olex2_refinement_description
;
1. Fixed Uiso
 At 1.2 times of:
  All C(H) groups
2.a Aromatic/amide H refined with riding coordinates:
 C7(H7), C3(H3), C4(H4), C8(H8), C10(H10), C9(H9)
;
_shelx_res_file
;
TITL FJU-31-Ch in P-1
CELL 1.54184 9.214216 11.153141 11.358156 112.2943 99.4943 99.046
ZERR 2 0.000631 0.001907 0.001941 0.016 0.0091 0.0091
LATT 1
SFAC C H N O Zn
UNIT 20 12 6 8 3

L.S. 4 0 0
PLAN  20
SIZE 0.2 0.15 0.1
ABIN
fmap 2 53
acta
OMIT 1 1 1
OMIT 1 1 3
REM <olex2.extras>
REM <HklSrc "%.\\FJU-31-Ch.hkl">
REM </olex2.extras>

WGHT    0.101400
FVAR       5.46521
ZN2   5    0.183837    0.611800    0.111640    11.00000    0.02143    0.06192 =
         0.05001    0.03461    0.01052    0.00986
ZN1   5    0.500000    0.500000    0.000000    10.50000    0.02058    0.06027 =
         0.04637    0.03418    0.01194    0.01121
O4    4    0.280497    0.594649    0.265747    11.00000    0.05336    0.11212 =
         0.05503    0.05420    0.01464    0.03429
O2    4    0.268036    0.773561    0.094927    11.00000    0.04952    0.06834 =
         0.09441    0.05390    0.03223    0.01187
N2    3    0.844317    0.550542    0.053725    11.00000    0.01982    0.05611 =
         0.04496    0.02947    0.01127    0.01136
C7    1    0.563935    0.456100    0.394898    11.00000    0.05507    0.15356 =
         0.06146    0.06789    0.03259    0.06014
AFIX  43
H7    2    0.607265    0.426405    0.323879    11.00000   -1.20000
AFIX   0
O1    4    0.460676    0.690761    0.042861    11.00000    0.04998    0.06119 =
         0.12494    0.04961    0.02519    0.01901
O3    4    0.458826    0.503338    0.175226    11.00000    0.04751    0.13742 =
         0.06135    0.06348    0.02348    0.03434
C3    1    0.566889    0.893706   -0.031440    11.00000    0.05430    0.06255 =
         0.12653    0.05512    0.04708    0.02672
AFIX  43
H3    2    0.611527    0.821538   -0.053502    11.00000   -1.20000
AFIX   0
N3    3    0.730245    0.595871    0.100958    11.00000    0.02672    0.07011 =
         0.05416    0.02670    0.01730    0.01774
C4    1    0.379863    0.998569    0.057125    11.00000    0.05806    0.07671 =
         0.13122    0.06090    0.05894    0.02624
AFIX  43
H4    2    0.297837    0.997540    0.095014    11.00000   -1.20000
AFIX   0
C8    1    0.385308    0.566028    0.494786    11.00000    0.06284    0.14633 =
         0.06475    0.06184    0.03117    0.06416
AFIX  43
H8    2    0.308308    0.610440    0.491926    11.00000   -1.20000
AFIX   0
N1    3   -0.024010    0.632801    0.138591    11.00000    0.02173    0.06325 =
         0.05213    0.01997    0.00312    0.00193
C6    1    0.449290    0.522048    0.389828    11.00000    0.03596    0.09651 =
         0.04865    0.04762    0.01383    0.02161
C2    1    0.446546    0.893206    0.027401    11.00000    0.03661    0.06122 =
         0.07651    0.04534    0.02301    0.01212
C1    1    0.389805    0.775358    0.057743    11.00000    0.03764    0.05871 =
         0.07513    0.04006    0.01048    0.00388
C5    1    0.393595    0.543142    0.267227    11.00000    0.03052    0.08093 =
         0.04435    0.03727    0.01103    0.00735
C10   1   -0.061634    0.722092    0.235310    11.00000    0.05534    0.09084 =
         0.06076   -0.01951    0.01231    0.00777
AFIX  43
H10   2    0.006296    0.789176    0.309777    11.00000   -1.20000
AFIX   0
C9    1    0.788810    0.702038    0.210628    11.00000    0.05149    0.07860 =
         0.07094   -0.01826    0.02211    0.01057
AFIX  43
H9    2    0.734835    0.754601    0.262547    11.00000   -1.20000
AFIX   0
HKLF 4

REM  FJU-31-Ch in P-1
REM R1 =  0.0835 for    2582 Fo > 4sig(Fo)  and  0.1124 for all    4047 data
REM    169 parameters refined using      0 restraints

END

WGHT      0.1215      0.0000

REM Highest difference peak  2.556,  deepest hole -0.896,  1-sigma level  0.141
Q1    1   0.8150  0.4799 -0.0240  11.00000  0.05    2.56
Q2    1   0.5067  0.4166 -0.0819  11.00000  0.05    2.46
Q3    1   0.1768  0.7021  0.1941  11.00000  0.05    2.22
Q4    1   0.5032  0.5543 -0.0617  11.00000  0.05    0.95
Q5    1   0.1973  0.6725  0.0672  11.00000  0.05    0.89
Q6    1   0.8465  0.6234  0.1169  11.00000  0.05    0.75
Q7    1   0.1827  0.5576  0.1676  11.00000  0.05    0.71
Q8    1   0.4709  0.6240  0.2590  11.00000  0.05    0.59
Q9    1   0.2814  0.6748  0.0269  11.00000  0.05    0.58
Q10   1   0.2757  0.6832  0.3568  11.00000  0.05    0.51
Q11   1  -0.1351  0.7172  0.2242  11.00000  0.05    0.49
Q12   1   0.0000  0.5578  0.0387  11.00000  0.05    0.47
Q13   1   0.0406  0.5392  0.0735  11.00000  0.05    0.46
Q14   1  -0.0390  0.8181  0.2750  11.00000  0.05    0.45
Q15   1   0.2364  0.5339  0.2238  11.00000  0.05    0.41
Q16   1   0.4625  0.8042 -0.0574  11.00000  0.05    0.40
Q17   1   0.3826  0.8596  0.1400  11.00000  0.05    0.40
Q18   1   0.7845  0.5787 -0.0611  11.00000  0.05    0.39
Q19   1   0.6461  0.5166 -0.0151  11.00000  0.05    0.38
Q20   1   0.7397  0.6613  0.1644  11.00000  0.05    0.33
;
_shelx_res_checksum              69271
_shelx_fab_checksum              53129
_shelx_fab_file
;
   -1    0    0     56.35      0.02
   -1    0    0     56.35      0.02
   -2    0    0     56.59     -0.04
   -3    0    0     27.91     -0.09
   -4    0    0      7.53      0.04
   -5    0    0      9.53     -0.05
    6    0    0     -0.10     -0.02
   -6    0    0     -0.10      0.02
    7    0    0      0.04      0.04
   -7    0    0      0.04     -0.04
   -7    0    0      0.04     -0.04
   -7    0    0      0.04     -0.04
   -8    0    0     -1.68     -0.05
   -8    0    0     -1.68     -0.05
   -9    0    0      0.57     -0.02
  -10    0    0     -0.10      0.03
  -10   -1    1      0.16     -0.03
   -9   -1    1     -1.01      0.02
    9    1   -1     -1.01     -0.02
   -8   -1    1      0.25      0.15
   -8   -1    1      0.25      0.15
   -7   -1    1     -0.68     -0.01
   -7   -1    1     -0.68     -0.01
   -7   -1    1     -0.68     -0.01
    7    1   -1     -0.68      0.01
    6    1   -1      0.24      0.03
   -6   -1    1      0.24     -0.03
    5    1   -1     -3.50      0.01
   -5   -1    1     -3.50     -0.01
    4    1   -1      6.37     -0.02
   -4   -1    1      6.37      0.02
   -3   -1    1      9.84     -0.05
    3    1   -1      9.84      0.05
    2    1   -1     29.19      0.04
   -2   -1    1     29.19     -0.04
    2    1   -1     29.19      0.04
   -1   -1    1     65.95     -0.01
    1    1   -1     65.95      0.01
    1    1   -1     65.95      0.01
    1    1   -1     65.95      0.01
    0    1   -1     18.50      0.16
    0    1   -1     18.50      0.16
   -1    1   -1     72.17      0.03
   -2    1   -1     32.83      0.08
   -2    1   -1     32.83      0.08
   -3    1   -1     12.66     -0.05
   -4    1   -1      5.48     -0.04
   -5    1   -1     -2.78      0.03
   -6    1   -1      0.23      0.02
    7   -1    1      0.24      0.00
   -7    1   -1      0.24      0.00
   -7    1   -1      0.24      0.00
   -7    1   -1      0.24      0.00
   -7    1   -1      0.24      0.00
   -8    1   -1      0.26     -0.10
   -8    1   -1      0.26     -0.10
   -9    1   -1     -1.52      0.02
   -9    1   -1     -1.52      0.02
  -10    1   -1     -0.89      0.03
  -10   -2    2      0.04      0.02
   10    2   -2      0.04     -0.02
   -9   -2    2      0.08      0.02
   -8   -2    2     -0.29      0.00
   -8   -2    2     -0.29      0.00
   -7   -2    2     -1.26     -0.05
   -7   -2    2     -1.26     -0.05
    7    2   -2     -1.26      0.05
   -6   -2    2      2.30      0.13
   -6   -2    2      2.30      0.13
    6    2   -2      2.30     -0.13
   -5   -2    2      1.78      0.01
    5    2   -2      1.78     -0.01
   -4   -2    2     -0.33     -0.11
    4    2   -2     -0.33      0.11
   -3   -2    2      3.88      0.00
    3    2   -2      3.88      0.00
    3    2   -2      3.88      0.00
    3    2   -2      3.88      0.00
   -2   -2    2     -3.86      0.01
    2    2   -2     -3.86     -0.01
    2    2   -2     -3.86     -0.01
    2    2   -2     -3.86     -0.01
    1    2   -2      5.17     -0.09
    1    2   -2      5.17     -0.09
    1    2   -2      5.17     -0.09
    0    2   -2     18.55      0.03
    0    2   -2     18.55      0.03
    0    2   -2     18.55      0.03
   -1    2   -2      2.13     -0.04
   -2    2   -2     -1.83     -0.06
   -2    2   -2     -1.83     -0.06
   -3    2   -2      6.73      0.04
   -3    2   -2      6.73      0.04
   -3    2   -2      6.73      0.04
   -4    2   -2      0.85      0.06
   -4    2   -2      0.85      0.06
   -5    2   -2      2.05      0.00
   -6    2   -2      1.13     -0.05
   -6    2   -2      1.13     -0.05
   -6    2   -2      1.13     -0.05
   -6    2   -2      1.13     -0.05
   -7    2   -2     -2.24     -0.05
   -7    2   -2     -2.24     -0.05
   -7    2   -2     -2.24     -0.05
   -8    2   -2     -0.20     -0.05
   -8    2   -2     -0.20     -0.05
   -9    2   -2      0.23     -0.02
   -9    2   -2      0.23     -0.02
  -10    2   -2      0.80      0.05
  -10   -3    3     -0.57      0.04
   10    3   -3     -0.57     -0.04
   -9   -3    3     -0.22      0.03
   -8   -3    3      0.73      0.07
   -7   -3    3      4.09     -0.09
    7    3   -3      4.09      0.09
    6    3   -3     -1.35      0.73
   -6   -3    3     -1.35     -0.73
    6    3   -3     -1.35      0.73
    5    3   -3      3.16      0.17
    4    3   -3      2.34      0.01
   -4   -3    3      2.34     -0.01
   -3   -3    3     -1.24      0.03
    3    3   -3     -1.24     -0.03
    3    3   -3     -1.24     -0.03
    2    3   -3      7.71     -0.08
    2    3   -3      7.71     -0.08
    2    3   -3      7.71     -0.08
    1    3   -3    -13.85      0.06
    1    3   -3    -13.85      0.06
    1    3   -3    -13.85      0.06
    1    3   -3    -13.85      0.06
    0    3   -3     -4.52     -0.05
    0    3   -3     -4.52     -0.05
    0    3   -3     -4.52     -0.05
   -1    3   -3     -8.01      0.07
   -2    3   -3      8.75      0.04
   -2    3   -3      8.75      0.04
   -2    3   -3      8.75      0.04
   -3    3   -3     -2.12     -0.01
   -3    3   -3     -2.12     -0.01
   -3    3   -3     -2.12     -0.01
   -4    3   -3      2.73     -0.09
   -4    3   -3      2.73     -0.09
   -5    3   -3      2.09      0.00
   -6    3   -3     -0.93     -0.01
   -6    3   -3     -0.93     -0.01
   -6    3   -3     -0.93     -0.01
   -7    3   -3      3.42     -0.04
   -7    3   -3      3.42     -0.04
   -7    3   -3      3.42     -0.04
   -8    3   -3      1.78     -0.06
   -8    3   -3      1.78     -0.06
   -9    3   -3      0.43      0.00
   -9    3   -3      0.43      0.00
  -10    3   -3      0.36     -0.01
  -10    3   -3      0.36     -0.01
  -10   -4    4     -0.23     -0.04
   10    4   -4     -0.23      0.04
   -9   -4    4      0.39      0.08
   -8   -4    4      0.38      0.05
    7    4   -4     -1.44      0.10
   -7   -4    4     -1.44     -0.10
    6    4   -4      2.76      0.03
    6    4   -4      2.76      0.03
   -6   -4    4      2.76     -0.03
   -5   -4    4     -0.82     -0.21
    5    4   -4     -0.82      0.21
    4    4   -4      0.01      0.03
    3    4   -4      0.70     -0.10
    3    4   -4      0.70     -0.10
    3    4   -4      0.70     -0.10
    2    4   -4    -10.37     -0.08
    2    4   -4    -10.37     -0.08
    2    4   -4    -10.37     -0.08
    1    4   -4      1.22      0.05
    1    4   -4      1.22      0.05
    1    4   -4      1.22      0.05
    0    4   -4    -11.42      0.03
    0    4   -4    -11.42      0.03
    0    4   -4    -11.42      0.03
   -1    4   -4     -3.27      0.06
   -1    4   -4     -3.27      0.06
   -2    4   -4     -9.63      0.04
   -2    4   -4     -9.63      0.04
   -2    4   -4     -9.63      0.04
   -3    4   -4      1.28     -0.04
   -3    4   -4      1.28     -0.04
   -3    4   -4      1.28     -0.04
   -4    4   -4     -0.22     -0.07
   -4    4   -4     -0.22     -0.07
   -5    4   -4      0.17     -0.03
   -5    4   -4      0.17     -0.03
   -5    4   -4      0.17     -0.03
   -6    4   -4      2.48      0.01
   -6    4   -4      2.48      0.01
   -6    4   -4      2.48      0.01
   -6    4   -4      2.48      0.01
   -7    4   -4     -1.38     -0.04
   -7    4   -4     -1.38     -0.04
   -8    4   -4     -1.16      0.05
   -8    4   -4     -1.16      0.05
   -9    4   -4     -0.26      0.00
   -9    4   -4     -0.26      0.00
  -10    4   -4     -0.38     -0.07
  -10    4   -4     -0.38     -0.07
  -10    4   -4     -0.38     -0.07
   -9   -5    5      0.65      0.05
   -8   -5    5      1.91      0.09
   -7   -5    5      2.16      0.00
    7    5   -5      2.16      0.00
   -6   -5    5     -0.23     -0.01
    6    5   -5     -0.23      0.01
    5    5   -5      0.67      0.02
    5    5   -5      0.67      0.02
    4    5   -5     -0.25     -0.09
    3    5   -5     -0.59     -0.03
    3    5   -5     -0.59     -0.03
    2    5   -5      1.84      0.04
    2    5   -5      1.84      0.04
    1    5   -5     -4.90     -0.04
    1    5   -5     -4.90     -0.04
    0    5   -5     -0.99      0.05
    0    5   -5     -0.99      0.05
   -1    5   -5     -2.34     -0.09
   -2    5   -5      0.39     -0.02
   -2    5   -5      0.39     -0.02
   -3    5   -5     -3.55     -0.14
   -3    5   -5     -3.55     -0.14
   -4    5   -5     -1.72      0.04
   -4    5   -5     -1.72      0.04
   -4    5   -5     -1.72      0.04
   -5    5   -5     -0.15      0.00
   -5    5   -5     -0.15      0.00
   -5    5   -5     -0.15      0.00
   -5    5   -5     -0.15      0.00
   -5    5   -5     -0.15      0.00
   -5    5   -5     -0.15      0.00
   -6    5   -5      0.02     -0.01
   -6    5   -5      0.02     -0.01
   -6    5   -5      0.02     -0.01
   -6    5   -5      0.02     -0.01
   -6    5   -5      0.02     -0.01
   -7    5   -5      1.23      0.07
   -7    5   -5      1.23      0.07
   -7    5   -5      1.23      0.07
   -7    5   -5      1.23      0.07
   -8    5   -5     -0.85     -0.02
   -8    5   -5     -0.85     -0.02
   -8    5   -5     -0.85     -0.02
   -8    5   -5     -0.85     -0.02
   -9    5   -5     -0.75     -0.02
   -9    5   -5     -0.75     -0.02
   -9    5   -5     -0.75     -0.02
    9    6   -6      0.17      0.05
   -9   -6    6      0.17     -0.05
   -8   -6    6     -0.04     -0.03
   -7   -6    6      0.58      0.07
    7    6   -6      0.58     -0.07
    6    6   -6      0.75      0.01
   -6   -6    6      0.75     -0.01
    5    6   -6      1.34     -0.02
    5    6   -6      1.34     -0.02
    4    6   -6      1.03      0.04
    4    6   -6      1.03      0.04
    4    6   -6      1.03      0.04
    3    6   -6     -0.36      0.00
    3    6   -6     -0.36      0.00
    3    6   -6     -0.36      0.00
    3    6   -6     -0.36      0.00
    2    6   -6     -0.41      0.07
    2    6   -6     -0.41      0.07
    1    6   -6      0.68      0.04
    1    6   -6      0.68      0.04
    0    6   -6      3.16     -0.01
   -1    6   -6      0.73      0.00
   -2    6   -6     -0.51     -0.05
   -3    6   -6      0.42      0.06
   -3    6   -6      0.42      0.06
   -3    6   -6      0.42      0.06
   -3    6   -6      0.42      0.06
   -3    6   -6      0.42      0.06
   -4    6   -6      0.95      0.03
   -4    6   -6      0.95      0.03
   -4    6   -6      0.95      0.03
   -4    6   -6      0.95      0.03
   -4    6   -6      0.95      0.03
   -4    6   -6      0.95      0.03
   -5    6   -6      1.88      0.01
   -5    6   -6      1.88      0.01
   -5    6   -6      1.88      0.01
   -5    6   -6      1.88      0.01
   -5    6   -6      1.88      0.01
   -6    6   -6      1.52      0.01
   -6    6   -6      1.52      0.01
   -6    6   -6      1.52      0.01
   -6    6   -6      1.52      0.01
   -6    6   -6      1.52      0.01
   -7    6   -6     -0.16      0.11
   -7    6   -6     -0.16      0.11
   -7    6   -6     -0.16      0.11
   -7    6   -6     -0.16      0.11
   -8    6   -6      0.69      0.08
   -8    6   -6      0.69      0.08
   -9    6   -6     -0.49     -0.02
   -8   -7    7     -0.89      0.00
   -7   -7    7     -0.21     -0.04
    7    7   -7     -0.21      0.04
   -6   -7    7      0.57      0.01
    6    7   -7      0.57     -0.01
    5    7   -7     -0.27      0.00
    5    7   -7     -0.27      0.00
    4    7   -7      0.45      0.08
    4    7   -7      0.45      0.08
    3    7   -7     -1.93      0.00
    3    7   -7     -1.93      0.00
    3    7   -7     -1.93      0.00
    3    7   -7     -1.93      0.00
    2    7   -7     -0.96     -0.05
    2    7   -7     -0.96     -0.05
    2    7   -7     -0.96     -0.05
    2    7   -7     -0.96     -0.05
    2    7   -7     -0.96     -0.05
    1    7   -7      0.20     -0.08
    1    7   -7      0.20     -0.08
    1    7   -7      0.20     -0.08
    1    7   -7      0.20     -0.08
    0    7   -7     -1.86     -0.09
    0    7   -7     -1.86     -0.09
    0    7   -7     -1.86     -0.09
    0    7   -7     -1.86     -0.09
   -1    7   -7      0.82     -0.01
   -1    7   -7      0.82     -0.01
   -1    7   -7      0.82     -0.01
   -1    7   -7      0.82     -0.01
   -2    7   -7     -1.51      0.04
   -2    7   -7     -1.51      0.04
   -2    7   -7     -1.51      0.04
   -3    7   -7      0.33      0.08
   -3    7   -7      0.33      0.08
   -3    7   -7      0.33      0.08
   -4    7   -7      0.50     -0.04
   -4    7   -7      0.50     -0.04
   -5    7   -7      0.46     -0.01
   -5    7   -7      0.46     -0.01
   -6    7   -7      1.55      0.09
   -6    7   -7      1.55      0.09
   -7    7   -7      1.31      0.02
   -7    7   -7      1.31      0.02
   -8    7   -7      0.18      0.05
   -7   -8    8     -1.33     -0.06
    7    8   -8     -1.33      0.06
   -6   -8    8     -0.59     -0.08
    6    8   -8     -0.59      0.08
    5    8   -8     -0.42      0.05
    5    8   -8     -0.42      0.05
   -5   -8    8     -0.42     -0.05
    4    8   -8     -1.72     -0.04
    4    8   -8     -1.72     -0.04
    3    8   -8     -0.30      0.03
    3    8   -8     -0.30      0.03
    2    8   -8     -1.67      0.00
    2    8   -8     -1.67      0.00
    2    8   -8     -1.67      0.00
    1    8   -8     -1.13      0.03
    1    8   -8     -1.13      0.03
    1    8   -8     -1.13      0.03
    1    8   -8     -1.13      0.03
    1    8   -8     -1.13      0.03
    0    8   -8      0.46      0.06
    0    8   -8      0.46      0.06
    0    8   -8      0.46      0.06
    0    8   -8      0.46      0.06
    0    8   -8      0.46      0.06
   -1    8   -8      0.04      0.05
   -1    8   -8      0.04      0.05
   -1    8   -8      0.04      0.05
   -2    8   -8      3.17      0.11
   -2    8   -8      3.17      0.11
   -3    8   -8      0.54      0.11
   -3    8   -8      0.54      0.11
   -4    8   -8      0.54      0.06
   -4    8   -8      0.54      0.06
   -5    8   -8      1.17     -0.04
   -5    8   -8      1.17     -0.04
   -6    8   -8     -0.57     -0.08
   -6    8   -8     -0.57     -0.08
   -7    8   -8     -0.41     -0.11
   -7    8   -8     -0.41     -0.11
   -6   -9    9     -0.92      0.02
    6    9   -9     -0.92     -0.02
    5    9   -9     -1.50      0.02
    5    9   -9     -1.50      0.02
   -5   -9    9     -1.50     -0.02
    4    9   -9     -0.77     -0.01
    4    9   -9     -0.77     -0.01
    3    9   -9     -0.71     -0.01
    3    9   -9     -0.71     -0.01
    2    9   -9     -0.74      0.07
    2    9   -9     -0.74      0.07
    2    9   -9     -0.74      0.07
    1    9   -9      0.10      0.05
    1    9   -9      0.10      0.05
    1    9   -9      0.10      0.05
    0    9   -9      0.48     -0.02
    0    9   -9      0.48     -0.02
    0    9   -9      0.48     -0.02
    0    9   -9      0.48     -0.02
   -1    9   -9      1.83     -0.11
   -1    9   -9      1.83     -0.11
   -1    9   -9      1.83     -0.11
   -1    9   -9      1.83     -0.11
   -2    9   -9      0.45      0.04
   -2    9   -9      0.45      0.04
   -2    9   -9      0.45      0.04
   -3    9   -9      1.74     -0.08
   -3    9   -9      1.74     -0.08
   -4    9   -9      1.50      0.03
   -4    9   -9      1.50      0.03
   -4    9   -9      1.50      0.03
   -5    9   -9     -1.14      0.11
   -5    9   -9     -1.14      0.11
   -6    9   -9     -0.91     -0.22
   -6    9   -9     -0.91     -0.22
    5   10  -10      0.39      0.02
   -5  -10   10      0.39     -0.02
    5   10  -10      0.39      0.02
    4   10  -10     -1.38      0.03
    4   10  -10     -1.38      0.03
   -4  -10   10     -1.38     -0.03
    3   10  -10     -0.49     -0.03
    3   10  -10     -0.49     -0.03
    2   10  -10      0.41      0.06
    2   10  -10      0.41      0.06
    1   10  -10      1.15      0.09
    1   10  -10      1.15      0.09
    1   10  -10      1.15      0.09
    0   10  -10      0.34     -0.01
    0   10  -10      0.34     -0.01
    0   10  -10      0.34     -0.01
    0   10  -10      0.34     -0.01
   -1   10  -10     -0.64     -0.03
   -1   10  -10     -0.64     -0.03
   -1   10  -10     -0.64     -0.03
   -1   10  -10     -0.64     -0.03
   -2   10  -10      1.16     -0.44
   -2   10  -10      1.16     -0.44
   -2   10  -10      1.16     -0.44
   -3   10  -10      0.25     -0.01
   -3   10  -10      0.25     -0.01
   -3   10  -10      0.25     -0.01
   -4   10  -10     -1.62      0.02
   -4   10  -10     -1.62      0.02
   -5   10  -10     -1.47     -0.02
    3   11  -11      0.10     -0.02
    3   11  -11      0.10     -0.02
    2   11  -11      0.53     -0.07
    2   11  -11      0.53     -0.07
    1   11  -11     -0.46      0.03
    1   11  -11     -0.46      0.03
    0   11  -11      0.11      0.03
    0   11  -11      0.11      0.03
   -1   11  -11      0.07     -0.04
   -2   11  -11     -0.82      0.03
   -3   11  -11     -0.04     -0.08
    0   12  -11      0.30     -0.08
    1   12  -11     -0.59     -0.06
   -4   11  -10     -0.69     -0.01
   -3   11  -10     -0.36      0.07
   -3   11  -10     -0.36      0.07
   -2   11  -10     -0.21     -0.07
   -2   11  -10     -0.21     -0.07
   -1   11  -10     -1.77     -0.03
   -1   11  -10     -1.77     -0.03
    0   11  -10     -0.74     -0.06
    0   11  -10     -0.74     -0.06
    1   11  -10      0.70     -0.06
    1   11  -10      0.70     -0.06
    2   11  -10      1.15      0.04
    2   11  -10      1.15      0.04
    3   11  -10      0.54      0.06
    3   11  -10      0.54      0.06
    4   11  -10     -0.57      0.05
   -4  -11   10     -0.57     -0.05
    4   11  -10     -0.57      0.05
   -6   10   -9     -0.02     -0.16
   -5   10   -9     -0.20     -0.01
   -5   10   -9     -0.20     -0.01
   -4   10   -9      0.70     -0.03
   -4   10   -9      0.70     -0.03
   -4   10   -9      0.70     -0.03
   -3   10   -9      0.11     -0.02
   -3   10   -9      0.11     -0.02
   -3   10   -9      0.11     -0.02
   -2   10   -9     -1.78      0.05
   -2   10   -9     -1.78      0.05
   -2   10   -9     -1.78      0.05
   -1   10   -9     -0.50     -0.06
   -1   10   -9     -0.50     -0.06
   -1   10   -9     -0.50     -0.06
   -1   10   -9     -0.50     -0.06
    0   10   -9      0.00     -0.06
    0   10   -9      0.00     -0.06
    0   10   -9      0.00     -0.06
    0   10   -9      0.00     -0.06
    1   10   -9      0.05     -0.07
    1   10   -9      0.05     -0.07
    1   10   -9      0.05     -0.07
    2   10   -9     -0.03     -0.01
    2   10   -9     -0.03     -0.01
    3   10   -9      0.66      0.02
    3   10   -9      0.66      0.02
    4   10   -9      0.71      0.02
   -4  -10    9      0.71     -0.02
    4   10   -9      0.71      0.02
    5   10   -9     -0.28     -0.02
    5   10   -9     -0.28     -0.02
   -5  -10    9     -0.28      0.02
   -7    9   -8     -0.07      0.00
   -7    9   -8     -0.07      0.00
   -6    9   -8     -0.42      0.02
   -6    9   -8     -0.42      0.02
   -5    9   -8      0.37     -0.06
   -5    9   -8      0.37     -0.06
   -4    9   -8     -0.39     -0.01
   -4    9   -8     -0.39     -0.01
   -3    9   -8     -1.16     -0.01
   -3    9   -8     -1.16     -0.01
   -2    9   -8      0.70     -0.04
   -2    9   -8      0.70     -0.04
   -2    9   -8      0.70     -0.04
   -1    9   -8     -0.70     -0.04
   -1    9   -8     -0.70     -0.04
   -1    9   -8     -0.70     -0.04
    0    9   -8      0.07     -0.01
    0    9   -8      0.07     -0.01
    0    9   -8      0.07     -0.01
    0    9   -8      0.07     -0.01
    1    9   -8     -0.16     -0.03
    1    9   -8     -0.16     -0.03
    1    9   -8     -0.16     -0.03
    1    9   -8     -0.16     -0.03
    2    9   -8      0.37     -0.13
    2    9   -8      0.37     -0.13
    2    9   -8      0.37     -0.13
    3    9   -8      0.63     -0.05
    3    9   -8      0.63     -0.05
    4    9   -8     -0.79      0.01
    4    9   -8     -0.79      0.01
   -5   -9    8     -0.02     -0.07
    5    9   -8     -0.02      0.07
    5    9   -8     -0.02      0.07
   -6   -9    8     -0.31      0.00
    6    9   -8     -0.31      0.00
   -7   -9    8     -0.77     -0.04
   -8    8   -7      0.72      0.10
   -7    8   -7      0.80     -0.03
   -7    8   -7      0.80     -0.03
   -6    8   -7      0.22      0.10
   -6    8   -7      0.22      0.10
   -5    8   -7     -1.40      0.04
   -5    8   -7     -1.40      0.04
   -4    8   -7     -0.36     -0.02
   -4    8   -7     -0.36     -0.02
   -3    8   -7      0.66     -0.03
   -3    8   -7      0.66     -0.03
   -2    8   -7     -0.80     -0.03
   -2    8   -7     -0.80     -0.03
   -2    8   -7     -0.80     -0.03
   -2    8   -7     -0.80     -0.03
   -1    8   -7      1.62     -0.06
   -1    8   -7      1.62     -0.06
   -1    8   -7      1.62     -0.06
   -1    8   -7      1.62     -0.06
    0    8   -7     -0.52     -0.05
    0    8   -7     -0.52     -0.05
    0    8   -7     -0.52     -0.05
    0    8   -7     -0.52     -0.05
    1    8   -7      1.47     -0.05
    1    8   -7      1.47     -0.05
    1    8   -7      1.47     -0.05
    1    8   -7      1.47     -0.05
    2    8   -7      0.87      0.00
    2    8   -7      0.87      0.00
    2    8   -7      0.87      0.00
    3    8   -7     -1.40     -0.05
    3    8   -7     -1.40     -0.05
    4    8   -7      0.67      0.13
    4    8   -7      0.67      0.13
    5    8   -7     -1.04      0.02
   -5   -8    7     -1.04     -0.02
    5    8   -7     -1.04      0.02
   -6   -8    7     -0.28      0.08
    6    8   -7     -0.28     -0.08
   -7   -8    7     -0.86      0.05
   -8   -8    7     -1.76     -0.06
   -9    7   -6     -0.01      0.02
   -8    7   -6      0.45     -0.06
   -8    7   -6      0.45     -0.06
   -7    7   -6     -0.79      0.04
   -7    7   -6     -0.79      0.04
   -7    7   -6     -0.79      0.04
   -6    7   -6     -0.84     -0.10
   -6    7   -6     -0.84     -0.10
   -6    7   -6     -0.84     -0.10
   -5    7   -6     -0.30      0.00
   -5    7   -6     -0.30      0.00
   -5    7   -6     -0.30      0.00
   -4    7   -6      0.47      0.05
   -4    7   -6      0.47      0.05
   -4    7   -6      0.47      0.05
   -4    7   -6      0.47      0.05
   -3    7   -6      1.83     -0.01
   -3    7   -6      1.83     -0.01
   -3    7   -6      1.83     -0.01
   -3    7   -6      1.83     -0.01
   -2    7   -6      1.73      0.00
   -2    7   -6      1.73      0.00
   -2    7   -6      1.73      0.00
   -1    7   -6      1.06      0.02
   -1    7   -6      1.06      0.02
    0    7   -6      2.56      0.11
    1    7   -6      0.37      0.10
    1    7   -6      0.37      0.10
    2    7   -6      0.79      0.09
    2    7   -6      0.79      0.09
    2    7   -6      0.79      0.09
    2    7   -6      0.79      0.09
    3    7   -6      1.17     -0.04
    3    7   -6      1.17     -0.04
    3    7   -6      1.17     -0.04
    4    7   -6      0.71     -0.05
    4    7   -6      0.71     -0.05
    4    7   -6      0.71     -0.05
    5    7   -6      1.29     -0.04
    5    7   -6      1.29     -0.04
   -6   -7    6     -0.87      0.04
    6    7   -6     -0.87     -0.04
   -7   -7    6     -0.38      0.09
   -8   -7    6     -0.77     -0.02
   -9    6   -5      0.28      0.04
   -9    6   -5      0.28      0.04
   -8    6   -5     -0.09      0.02
   -8    6   -5     -0.09      0.02
   -8    6   -5     -0.09      0.02
   -7    6   -5      0.36     -0.07
   -7    6   -5      0.36     -0.07
   -7    6   -5      0.36     -0.07
   -7    6   -5      0.36     -0.07
   -6    6   -5     -1.45     -0.08
   -6    6   -5     -1.45     -0.08
   -6    6   -5     -1.45     -0.08
   -6    6   -5     -1.45     -0.08
   -6    6   -5     -1.45     -0.08
   -5    6   -5     -1.05     -0.03
   -5    6   -5     -1.05     -0.03
   -5    6   -5     -1.05     -0.03
   -5    6   -5     -1.05     -0.03
   -5    6   -5     -1.05     -0.03
   -4    6   -5     -1.33      0.02
   -4    6   -5     -1.33      0.02
   -4    6   -5     -1.33      0.02
   -4    6   -5     -1.33      0.02
   -4    6   -5     -1.33      0.02
   -4    6   -5     -1.33      0.02
   -4    6   -5     -1.33      0.02
   -3    6   -5     -1.05     -0.09
   -3    6   -5     -1.05     -0.09
   -2    6   -5      1.16      0.01
   -1    6   -5     -2.99      0.03
    0    6   -5     -4.80      0.06
    1    6   -5     -5.53     -0.01
    1    6   -5     -5.53     -0.01
    2    6   -5     -0.94     -0.04
    2    6   -5     -0.94     -0.04
    3    6   -5     -0.32      0.00
    4    6   -5      0.31     -0.15
    4    6   -5      0.31     -0.15
    4    6   -5      0.31     -0.15
    5    6   -5      0.34     -0.12
    5    6   -5      0.34     -0.12
    6    6   -5     -0.10     -0.14
   -6   -6    5     -0.10      0.14
   -7   -6    5     -0.43     -0.01
   -8   -6    5      1.06      0.03
   -9   -6    5     -0.03      0.05
  -10    5   -4     -0.16      0.00
  -10    5   -4     -0.16      0.00
   -9    5   -4      0.74      0.04
   -9    5   -4      0.74      0.04
   -9    5   -4      0.74      0.04
   -8    5   -4      0.82      0.00
   -8    5   -4      0.82      0.00
   -8    5   -4      0.82      0.00
   -7    5   -4     -0.58     -0.08
   -7    5   -4     -0.58     -0.08
   -6    5   -4      1.90      0.05
   -6    5   -4      1.90      0.05
   -6    5   -4      1.90      0.05
   -6    5   -4      1.90      0.05
   -5    5   -4      0.86      0.03
   -5    5   -4      0.86      0.03
   -5    5   -4      0.86      0.03
   -5    5   -4      0.86      0.03
   -4    5   -4      2.95     -0.02
   -4    5   -4      2.95     -0.02
   -4    5   -4      2.95     -0.02
   -3    5   -4      3.39      0.05
   -3    5   -4      3.39      0.05
   -3    5   -4      3.39      0.05
   -2    5   -4     -4.15      0.00
   -1    5   -4     -3.68      0.03
    0    5   -4    -11.23     -0.02
    0    5   -4    -11.23     -0.02
    0    5   -4    -11.23     -0.02
    1    5   -4     -4.40      0.01
    1    5   -4     -4.40      0.01
    1    5   -4     -4.40      0.01
    2    5   -4    -10.04     -0.07
    2    5   -4    -10.04     -0.07
    2    5   -4    -10.04     -0.07
    3    5   -4     -1.24      0.01
    3    5   -4     -1.24      0.01
    4    5   -4     -0.62     -0.02
    4    5   -4     -0.62     -0.02
    5    5   -4     -1.13      0.08
    5    5   -4     -1.13      0.08
   -6   -5    4      0.68      0.04
    6    5   -4      0.68     -0.04
   -7   -5    4     -0.81     -0.18
   -8   -5    4     -1.59     -0.04
   -9   -5    4     -0.34      0.01
  -10    4   -3      0.77     -0.01
  -10    4   -3      0.77     -0.01
  -10    4   -3      0.77     -0.01
   -9    4   -3      0.74     -0.01
   -8    4   -3      2.08     -0.07
   -8    4   -3      2.08     -0.07
   -7    4   -3      4.12      0.02
   -7    4   -3      4.12      0.02
   -6    4   -3     -0.68      0.08
   -6    4   -3     -0.68      0.08
   -6    4   -3     -0.68      0.08
   -5    4   -3      3.05      0.12
   -4    4   -3      1.71     -0.05
   -4    4   -3      1.71     -0.05
   -4    4   -3      1.71     -0.05
   -3    4   -3     -0.30      0.03
   -2    4   -3      6.23     -0.04
   -1    4   -3     -7.09     -0.06
    0    4   -3     -4.84     -0.04
    0    4   -3     -4.84     -0.04
    1    4   -3    -16.98     -0.08
    1    4   -3    -16.98     -0.08
    1    4   -3    -16.98     -0.08
    2    4   -3     -0.15      0.03
    2    4   -3     -0.15      0.03
    2    4   -3     -0.15      0.03
    3    4   -3     -5.19     -0.07
    4    4   -3      0.07     -0.04
    5    4   -3      1.55     -0.09
   -5   -4    3      1.55      0.09
    6    4   -3     -2.10      0.84
   -6   -4    3     -2.10     -0.84
   -7   -4    3      1.91      0.07
   -8   -4    3      0.46     -0.06
   -9   -4    3     -0.65     -0.04
  -10   -4    3      0.17      0.09
   10    4   -3      0.17     -0.09
  -10    3   -2      0.78      0.08
   -9    3   -2      0.39     -0.04
   -9    3   -2      0.39     -0.04
   -8    3   -2      0.41      0.02
   -8    3   -2      0.41      0.02
   -7    3   -2     -2.97      0.05
   -7    3   -2     -2.97      0.05
   -6    3   -2      2.10      0.07
   -6    3   -2      2.10      0.07
   -5    3   -2     -0.56      0.00
   -4    3   -2     -1.55      0.20
   -4    3   -2     -1.55      0.20
   -3    3   -2     -1.58      0.04
   -2    3   -2    -13.79     -0.08
   -1    3   -2     -5.24     -0.08
    0    3   -2     -1.94     -0.02
    0    3   -2     -1.94     -0.02
    1    3   -2     -3.70     -0.05
    1    3   -2     -3.70     -0.05
    2    3   -2    -15.64     -0.04
    2    3   -2    -15.64     -0.04
   -2   -3    2    -15.64      0.04
    3    3   -2     -3.73     -0.11
   -3   -3    2     -3.73      0.11
    4    3   -2     -3.22     -0.07
   -4   -3    2     -3.22      0.07
    5    3   -2     -1.62      0.13
   -5   -3    2     -1.62     -0.13
   -6   -3    2      1.76      0.69
   -6   -3    2      1.76      0.69
    6    3   -2      1.76     -0.69
   -7   -3    2     -2.11     -0.14
   -7   -3    2     -2.11     -0.14
   -8   -3    2     -0.33      0.00
   -8   -3    2     -0.33      0.00
   -9   -3    2      0.03      0.05
  -10   -3    2      0.49      0.02
   10    3   -2      0.49     -0.02
  -11    2   -1     -0.89      0.10
  -11    2   -1     -0.89      0.10
  -10    2   -1     -1.89     -0.03
   -9    2   -1     -1.25      0.02
   -9    2   -1     -1.25      0.02
   -8    2   -1     -0.72     -0.05
   -8    2   -1     -0.72     -0.05
   -7    2   -1      2.04     -0.01
   -7    2   -1      2.04     -0.01
   -7    2   -1      2.04     -0.01
   -6    2   -1      0.22      0.02
   -5    2   -1     -4.06      0.03
   -4    2   -1     -1.48     -0.03
   -4    2   -1     -1.48     -0.03
   -3    2   -1     -3.78     -0.08
   -2    2   -1      8.64     -0.02
   -1    2   -1     21.85      0.05
    0    2   -1    -12.36      0.11
    0    2   -1    -12.36      0.11
    1    2   -1     16.08      0.04
   -1   -2    1     16.08     -0.04
    2    2   -1      6.94     -0.03
   -2   -2    1      6.94      0.03
    2    2   -1      6.94     -0.03
    3    2   -1     -1.92     -0.09
   -3   -2    1     -1.92      0.09
   -4   -2    1     -1.24      0.09
    4    2   -1     -1.24     -0.09
    5    2   -1     -2.27      0.12
   -5   -2    1     -2.27     -0.12
    6    2   -1     -1.15      0.19
   -6   -2    1     -1.15     -0.19
   -6   -2    1     -1.15     -0.19
   -6   -2    1     -1.15     -0.19
   -7   -2    1      0.59      0.09
    7    2   -1      0.59     -0.09
   -7   -2    1      0.59      0.09
   -7   -2    1      0.59      0.09
   -8   -2    1     -0.06      0.11
   -8   -2    1     -0.06      0.11
    9    2   -1     -0.54      0.04
   -9   -2    1     -0.54     -0.04
  -10   -2    1      0.16     -0.08
  -11    1    0     -0.47     -0.03
  -10    1    0     -0.37     -0.01
   -9    1    0      0.25     -0.09
   -8    1    0     -0.62      0.02
    8   -1    0     -0.62     -0.02
   -7    1    0      0.49     -0.05
   -7    1    0      0.49     -0.05
   -7    1    0      0.49     -0.05
    7   -1    0      0.49      0.05
   -7    1    0      0.49     -0.05
   -6    1    0     -0.73     -0.05
   -5    1    0      7.72     -0.07
   -4    1    0     -2.45      0.03
   -3    1    0      7.27     -0.02
   -3    1    0      7.27     -0.02
   -2    1    0      8.63      0.03
   -1    1    0    -13.20      0.08
    0    1    0     62.14     -0.04
    0    1    0     62.14     -0.04
    1    1    0     -9.42     -0.03
   -1   -1    0     -9.42      0.03
    2    1    0     12.06     -0.09
   -2   -1    0     12.06      0.09
    3    1    0      5.35     -0.09
   -3   -1    0      5.35      0.09
    4    1    0      0.89      0.07
   -4   -1    0      0.89     -0.07
    5    1    0      3.85      0.11
   -5   -1    0      3.85     -0.11
    6    1    0     -0.03      0.08
   -6   -1    0     -0.03     -0.08
   -6   -1    0     -0.03     -0.08
   -6   -1    0     -0.03     -0.08
   -7   -1    0      0.45     -0.04
   -7   -1    0      0.45     -0.04
   -7   -1    0      0.45     -0.04
    7    1    0      0.45      0.04
   -7   -1    0      0.45     -0.04
   -8   -1    0     -0.52     -0.13
   -8   -1    0     -0.52     -0.13
   -9   -1    0      1.04      0.00
  -10   -1    0     -0.10     -0.04
  -11    0    1     -0.15     -0.05
   10    0   -1      0.21      0.05
  -10    0    1      0.21     -0.05
    9    0   -1     -0.81     -0.04
   -9    0    1     -0.81      0.04
   -8    0    1      1.44      0.09
   -7    0    1     -0.34     -0.06
    7    0   -1     -0.34      0.06
    7    0   -1     -0.34      0.06
   -7    0    1     -0.34     -0.06
   -7    0    1     -0.34     -0.06
   -6    0    1      0.20     -0.08
    6    0   -1      0.20      0.08
   -5    0    1     -8.83      0.03
   -4    0    1      3.28     -0.04
   -3    0    1     -9.77      0.10
   -2    0    1    -11.00      0.09
   -1    0    1      7.94      0.08
    0    0    1    -63.87     -0.10
    0    0   -1    -63.87      0.10
   -1    0   -1     11.88      0.01
   -1    0   -1     11.88      0.01
   -1    0   -1     11.88      0.01
   -2    0   -1     -7.73      0.21
   -2    0   -1     -7.73      0.21
   -3    0   -1     -0.45      0.09
   -3    0   -1     -0.45      0.09
   -4    0   -1      0.06      0.00
   -5    0   -1     -3.83     -0.05
   -6    0   -1     -0.13      0.05
   -6    0   -1     -0.13      0.05
   -6    0   -1     -0.13      0.05
    6    0    1     -0.13     -0.05
    7    0    1     -0.02     -0.07
   -7    0   -1     -0.02      0.07
   -7    0   -1     -0.02      0.07
   -7    0   -1     -0.02      0.07
   -7    0   -1     -0.02      0.07
   -8    0   -1      0.97      0.03
   -8    0   -1      0.97      0.03
   -8    0   -1      0.97      0.03
   -9    0   -1     -0.81      0.05
   -9    0   -1     -0.81      0.05
  -10    0   -1      0.05      0.03
  -11   -1    2     -0.17      0.04
   10    1   -2      0.55     -0.05
  -10   -1    2      0.55      0.05
    9    1   -2      1.80      0.00
   -9   -1    2      1.80      0.00
   -8   -1    2     -0.06     -0.08
    7    1   -2     -0.78      0.01
    7    1   -2     -0.78      0.01
   -7   -1    2     -0.78     -0.01
   -7   -1    2     -0.78     -0.01
   -7   -1    2     -0.78     -0.01
   -6   -1    2     -0.11      0.04
    6    1   -2     -0.11     -0.04
    5    1   -2      3.51     -0.20
   -5   -1    2      3.51      0.20
   -4   -1    2     -3.05      0.04
    4    1   -2     -3.05     -0.04
   -3   -1    2      2.15      0.04
    3    1   -2      2.15     -0.04
   -2   -1    2    -11.41      0.04
    2    1   -2    -11.41     -0.04
    2    1   -2    -11.41     -0.04
    2    1   -2    -11.41     -0.04
    1    1   -2    -20.71     -0.02
    1    1   -2    -20.71     -0.02
    1    1   -2    -20.71     -0.02
    0    1   -2      7.14     -0.05
    0    1   -2      7.14     -0.05
   -1    1   -2    -20.69     -0.01
   -1    1   -2    -20.69     -0.01
   -2    1   -2     -8.30     -0.10
   -2    1   -2     -8.30     -0.10
   -3    1   -2      3.27      0.08
   -3    1   -2      3.27      0.08
   -4    1   -2      3.01      0.01
   -5    1   -2      3.69      0.03
   -6    1   -2      1.06     -0.04
   -6    1   -2      1.06     -0.04
   -6    1   -2      1.06     -0.04
   -6    1   -2      1.06     -0.04
    7   -1    2     -1.38     -0.01
   -7    1   -2     -1.38      0.01
   -7    1   -2     -1.38      0.01
   -7    1   -2     -1.38      0.01
   -7    1   -2     -1.38      0.01
   -8    1   -2     -0.50      0.12
   -8    1   -2     -0.50      0.12
   -9    1   -2      1.04      0.06
   -9    1   -2      1.04      0.06
  -10    1   -2      0.89     -0.01
  -10   -2    3     -0.81      0.06
   10    2   -3     -0.81     -0.06
   -9   -2    3      0.27      0.07
   -8   -2    3      0.75     -0.03
    8    2   -3      0.75      0.03
    7    2   -3      2.67      0.18
    7    2   -3      2.67      0.18
   -7   -2    3      2.67     -0.18
    6    2   -3     -2.72      0.14
   -6   -2    3     -2.72     -0.14
    5    2   -3     -0.07      0.01
   -5   -2    3     -0.07     -0.01
   -4   -2    3      1.51      0.08
    4    2   -3      1.51     -0.08
    4    2   -3      1.51     -0.08
    3    2   -3      0.89      0.02
   -3   -2    3      0.89     -0.02
    3    2   -3      0.89      0.02
    3    2   -3      0.89      0.02
    2    2   -3     13.50      0.00
    2    2   -3     13.50      0.00
   -2   -2    3     13.50      0.00
    2    2   -3     13.50      0.00
    1    2   -3     -1.41      0.16
    1    2   -3     -1.41      0.16
    1    2   -3     -1.41      0.16
    1    2   -3     -1.41      0.16
    0    2   -3      3.44     -0.06
    0    2   -3      3.44     -0.06
   -1    2   -3      4.80      0.01
   -1    2   -3      4.80      0.01
   -2    2   -3     15.31      0.02
   -2    2   -3     15.31      0.02
   -3    2   -3      0.70     -0.04
   -3    2   -3      0.70     -0.04
   -4    2   -3      4.28     -0.04
   -5    2   -3      1.82     -0.01
   -6    2   -3     -0.49      0.04
   -6    2   -3     -0.49      0.04
   -6    2   -3     -0.49      0.04
   -6    2   -3     -0.49      0.04
   -7    2   -3      2.12      0.06
   -7    2   -3      2.12      0.06
   -7    2   -3      2.12      0.06
   -8    2   -3      2.19      0.09
   -8    2   -3      2.19      0.09
   -9    2   -3      1.27      0.04
   -9    2   -3      1.27      0.04
  -10    2   -3      0.55      0.01
  -10    2   -3      0.55      0.01
   10    3   -4     -0.30     -0.03
  -10   -3    4     -0.30      0.03
   -9   -3    4     -0.59     -0.01
   -8   -3    4     -0.44     -0.05
    8    3   -4     -0.44      0.05
    7    3   -4     -4.76     -0.02
   -7   -3    4     -4.76      0.02
    6    3   -4      0.98     -0.01
   -6   -3    4      0.98      0.01
    6    3   -4      0.98     -0.01
    5    3   -4     -3.05      0.02
    4    3   -4     -1.14      0.05
    3    3   -4      0.97     -0.02
    3    3   -4      0.97     -0.02
    3    3   -4      0.97     -0.02
    2    3   -4     -4.82      0.06
    2    3   -4     -4.82      0.06
    2    3   -4     -4.82      0.06
    2    3   -4     -4.82      0.06
    1    3   -4     18.05     -0.03
    1    3   -4     18.05     -0.03
    1    3   -4     18.05     -0.03
    1    3   -4     18.05     -0.03
    0    3   -4      7.14      0.09
    0    3   -4      7.14      0.09
    0    3   -4      7.14      0.09
    0    3   -4      7.14      0.09
   -1    3   -4     12.61      0.00
   -1    3   -4     12.61      0.00
   -2    3   -4     -1.62      0.00
   -2    3   -4     -1.62      0.00
   -3    3   -4      6.82     -0.06
   -3    3   -4      6.82     -0.06
   -4    3   -4     -0.69      0.02
   -4    3   -4     -0.69      0.02
   -5    3   -4     -1.46      0.02
   -5    3   -4     -1.46      0.02
   -5    3   -4     -1.46      0.02
   -6    3   -4      0.93     -0.02
   -6    3   -4      0.93     -0.02
   -6    3   -4      0.93     -0.02
   -6    3   -4      0.93     -0.02
   -7    3   -4     -1.53      0.07
   -7    3   -4     -1.53      0.07
   -8    3   -4     -1.09      0.15
   -8    3   -4     -1.09      0.15
   -9    3   -4      0.66      0.06
   -9    3   -4      0.66      0.06
   -9    3   -4      0.66      0.06
  -10    3   -4     -0.23      0.03
  -10    3   -4     -0.23      0.03
   10    4   -5      0.51     -0.06
  -10   -4    5      0.51      0.06
   -9   -4    5     -0.58     -0.01
    8    4   -5     -0.93     -0.03
   -8   -4    5     -0.93      0.03
    7    4   -5      1.47      0.03
   -7   -4    5      1.47     -0.03
   -6   -4    5     -2.97     -0.02
    6    4   -5     -2.97      0.02
    6    4   -5     -2.97      0.02
    5    4   -5      0.26      0.08
    5    4   -5      0.26      0.08
    4    4   -5     -1.11     -0.01
    3    4   -5     -0.34     -0.01
    3    4   -5     -0.34     -0.01
    2    4   -5      8.74     -0.01
    2    4   -5      8.74     -0.01
    2    4   -5      8.74     -0.01
    1    4   -5      4.49     -0.09
    1    4   -5      4.49     -0.09
    1    4   -5      4.49     -0.09
    0    4   -5     13.64     -0.02
    0    4   -5     13.64     -0.02
   -1    4   -5      8.59     -0.03
   -1    4   -5      8.59     -0.03
   -2    4   -5      8.83     -0.01
   -2    4   -5      8.83     -0.01
   -3    4   -5      0.14     -0.03
   -3    4   -5      0.14     -0.03
   -4    4   -5      0.33      0.07
   -4    4   -5      0.33      0.07
   -5    4   -5     -0.80      0.02
   -5    4   -5     -0.80      0.02
   -5    4   -5     -0.80      0.02
   -5    4   -5     -0.80      0.02
   -5    4   -5     -0.80      0.02
   -6    4   -5     -2.04     -0.04
   -6    4   -5     -2.04     -0.04
   -6    4   -5     -2.04     -0.04
   -6    4   -5     -2.04     -0.04
   -7    4   -5     -0.04      0.06
   -7    4   -5     -0.04      0.06
   -7    4   -5     -0.04      0.06
   -7    4   -5     -0.04      0.06
   -8    4   -5      0.33     -0.01
   -8    4   -5      0.33     -0.01
   -8    4   -5      0.33     -0.01
   -9    4   -5     -0.68      0.04
   -9    4   -5     -0.68      0.04
   -9    4   -5     -0.68      0.04
   -9   -5    6      0.25     -0.02
    9    5   -6      0.25      0.02
    8    5   -6     -0.90      0.05
   -8   -5    6     -0.90     -0.05
    7    5   -6     -2.04      0.00
   -7   -5    6     -2.04      0.00
   -6   -5    6      0.22      0.02
    6    5   -6      0.22     -0.02
    5    5   -6     -0.73     -0.05
    5    5   -6     -0.73     -0.05
    5    5   -6     -0.73     -0.05
    4    5   -6      0.92      0.06
    4    5   -6      0.92      0.06
    4    5   -6      0.92      0.06
    3    5   -6      0.69     -0.06
    3    5   -6      0.69     -0.06
    2    5   -6      0.92     -0.09
    2    5   -6      0.92     -0.09
    1    5   -6      4.51      0.00
    1    5   -6      4.51      0.00
    0    5   -6      6.55      0.01
   -1    5   -6      4.42      0.12
   -2    5   -6      1.84      0.03
   -3    5   -6      1.40      0.04
   -3    5   -6      1.40      0.04
   -4    5   -6      0.25     -0.07
   -4    5   -6      0.25     -0.07
   -4    5   -6      0.25     -0.07
   -4    5   -6      0.25     -0.07
   -4    5   -6      0.25     -0.07
   -4    5   -6      0.25     -0.07
   -5    5   -6      0.75     -0.05
   -5    5   -6      0.75     -0.05
   -5    5   -6      0.75     -0.05
   -5    5   -6      0.75     -0.05
   -5    5   -6      0.75     -0.05
   -6    5   -6     -0.24      0.00
   -6    5   -6     -0.24      0.00
   -6    5   -6     -0.24      0.00
   -6    5   -6     -0.24      0.00
   -7    5   -6     -1.09     -0.07
   -7    5   -6     -1.09     -0.07
   -7    5   -6     -1.09     -0.07
   -7    5   -6     -1.09     -0.07
   -7    5   -6     -1.09     -0.07
   -8    5   -6     -0.90     -0.04
   -8    5   -6     -0.90     -0.04
   -9    5   -6     -1.02     -0.09
   -9   -6    7      0.54      0.05
    9    6   -7      0.54     -0.05
   -8   -6    7     -0.05      0.09
    8    6   -7     -0.05     -0.09
   -7   -6    7     -0.83      0.00
    7    6   -7     -0.83      0.00
   -6   -6    7     -0.88      0.00
    6    6   -7     -0.88      0.00
    5    6   -7     -1.25     -0.04
    5    6   -7     -1.25     -0.04
    4    6   -7     -1.09     -0.03
    4    6   -7     -1.09     -0.03
    4    6   -7     -1.09     -0.03
    3    6   -7     -0.78     -0.04
    3    6   -7     -0.78     -0.04
    3    6   -7     -0.78     -0.04
    3    6   -7     -0.78     -0.04
    2    6   -7      0.16     -0.11
    2    6   -7      0.16     -0.11
    2    6   -7      0.16     -0.11
    2    6   -7      0.16     -0.11
    1    6   -7      0.10     -0.01
    1    6   -7      0.10     -0.01
    1    6   -7      0.10     -0.01
    1    6   -7      0.10     -0.01
    0    6   -7     -3.13     -0.01
   -1    6   -7     -0.12      0.01
   -1    6   -7     -0.12      0.01
   -1    6   -7     -0.12      0.01
   -1    6   -7     -0.12      0.01
   -2    6   -7     -1.54      0.03
   -2    6   -7     -1.54      0.03
   -2    6   -7     -1.54      0.03
   -2    6   -7     -1.54      0.03
   -3    6   -7     -1.36      0.01
   -3    6   -7     -1.36      0.01
   -3    6   -7     -1.36      0.01
   -3    6   -7     -1.36      0.01
   -3    6   -7     -1.36      0.01
   -4    6   -7     -0.85     -0.11
   -4    6   -7     -0.85     -0.11
   -4    6   -7     -0.85     -0.11
   -4    6   -7     -0.85     -0.11
   -4    6   -7     -0.85     -0.11
   -5    6   -7     -1.30     -0.04
   -5    6   -7     -1.30     -0.04
   -5    6   -7     -1.30     -0.04
   -6    6   -7      0.55      0.00
   -6    6   -7      0.55      0.00
   -6    6   -7      0.55      0.00
   -7    6   -7      0.37     -0.07
   -7    6   -7      0.37     -0.07
   -8    6   -7     -1.46     -0.26
   -8   -7    8      0.57      0.03
    8    7   -8      0.57     -0.03
    8    7   -8      0.57     -0.03
    7    7   -8     -0.16      0.02
   -7   -7    8     -0.16     -0.02
   -6   -7    8     -0.21     -0.06
    6    7   -8     -0.21      0.06
    6    7   -8     -0.21      0.06
   -5   -7    8     -0.84      0.00
    5    7   -8     -0.84      0.00
    5    7   -8     -0.84      0.00
    4    7   -8     -1.85     -0.05
    4    7   -8     -1.85     -0.05
    3    7   -8      0.30      0.01
    3    7   -8      0.30      0.01
    3    7   -8      0.30      0.01
    3    7   -8      0.30      0.01
    2    7   -8     -0.94      0.09
    2    7   -8     -0.94      0.09
    2    7   -8     -0.94      0.09
    2    7   -8     -0.94      0.09
    1    7   -8     -0.30     -0.02
    1    7   -8     -0.30     -0.02
    1    7   -8     -0.30     -0.02
    1    7   -8     -0.30     -0.02
    0    7   -8     -0.38      0.01
    0    7   -8     -0.38      0.01
    0    7   -8     -0.38      0.01
    0    7   -8     -0.38      0.01
    0    7   -8     -0.38      0.01
   -1    7   -8     -1.64      0.06
   -1    7   -8     -1.64      0.06
   -1    7   -8     -1.64      0.06
   -1    7   -8     -1.64      0.06
   -2    7   -8      1.36      0.11
   -2    7   -8      1.36      0.11
   -2    7   -8      1.36      0.11
   -3    7   -8     -0.27     -0.01
   -3    7   -8     -0.27     -0.01
   -4    7   -8      0.18      0.03
   -4    7   -8      0.18      0.03
   -5    7   -8      1.02      0.02
   -5    7   -8      1.02      0.02
   -6    7   -8     -0.60     -0.03
   -6    7   -8     -0.60     -0.03
   -7    7   -8     -0.46     -0.10
   -7    7   -8     -0.46     -0.10
   -8    7   -8     -0.89     -0.02
    7    8   -9      2.01     -0.02
   -7   -8    9      2.01      0.02
    6    8   -9      0.34      0.01
    6    8   -9      0.34      0.01
   -6   -8    9      0.34     -0.01
    5    8   -9      0.01      0.02
   -5   -8    9      0.01     -0.02
    5    8   -9      0.01      0.02
    4    8   -9      0.29     -0.04
    4    8   -9      0.29     -0.04
    3    8   -9      0.28      0.01
    3    8   -9      0.28      0.01
    3    8   -9      0.28      0.01
    2    8   -9     -0.04      0.05
    2    8   -9     -0.04      0.05
    2    8   -9     -0.04      0.05
    1    8   -9     -0.05     -0.03
    1    8   -9     -0.05     -0.03
    1    8   -9     -0.05     -0.03
    0    8   -9      0.30     -0.16
    0    8   -9      0.30     -0.16
    0    8   -9      0.30     -0.16
    0    8   -9      0.30     -0.16
   -1    8   -9      0.95     -0.09
   -1    8   -9      0.95     -0.09
   -1    8   -9      0.95     -0.09
   -1    8   -9      0.95     -0.09
   -2    8   -9     -1.69     -0.03
   -2    8   -9     -1.69     -0.03
   -2    8   -9     -1.69     -0.03
   -3    8   -9      0.02     -0.12
   -3    8   -9      0.02     -0.12
   -3    8   -9      0.02     -0.12
   -4    8   -9      1.44      0.05
   -4    8   -9      1.44      0.05
   -5    8   -9      0.81      0.22
   -5    8   -9      0.81      0.22
   -6    8   -9      1.25      0.12
   -6    8   -9      1.25      0.12
   -7    8   -9     -0.27      0.27
    6    9  -10      0.66      0.02
    5    9  -10      1.24     -0.02
    5    9  -10      1.24     -0.02
   -5   -9   10      1.24      0.02
    4    9  -10      0.78      0.02
    4    9  -10      0.78      0.02
   -4   -9   10      0.78     -0.02
    3    9  -10      0.39      0.03
    3    9  -10      0.39      0.03
    2    9  -10      0.64      0.07
    2    9  -10      0.64      0.07
    2    9  -10      0.64      0.07
    1    9  -10     -0.25      0.01
    1    9  -10     -0.25      0.01
    1    9  -10     -0.25      0.01
    0    9  -10      0.20     -0.05
    0    9  -10      0.20     -0.05
    0    9  -10      0.20     -0.05
    0    9  -10      0.20     -0.05
   -1    9  -10     -0.60      0.06
   -1    9  -10     -0.60      0.06
   -1    9  -10     -0.60      0.06
   -1    9  -10     -0.60      0.06
   -2    9  -10      1.09     -0.43
   -2    9  -10      1.09     -0.43
   -2    9  -10      1.09     -0.43
   -3    9  -10     -0.22      0.14
   -3    9  -10     -0.22      0.14
   -4    9  -10     -1.66      0.12
   -4    9  -10     -1.66      0.12
   -5    9  -10      0.24      0.15
   -5    9  -10      0.24      0.15
   -6    9  -10      0.90      0.54
    4   10  -11      1.21     -0.02
    4   10  -11      1.21     -0.02
    3   10  -11      0.06      0.03
    3   10  -11      0.06      0.03
    2   10  -11      0.26     -0.12
    2   10  -11      0.26     -0.12
    1   10  -11     -0.35     -0.03
    1   10  -11     -0.35     -0.03
    1   10  -11     -0.35     -0.03
    0   10  -11      0.05      0.07
    0   10  -11      0.05      0.07
    0   10  -11      0.05      0.07
   -1   10  -11      0.37     -0.08
   -1   10  -11      0.37     -0.08
   -1   10  -11      0.37     -0.08
   -2   10  -11     -0.58      0.38
   -2   10  -11     -0.58      0.38
   -2   10  -11     -0.58      0.38
   -3   10  -11      0.11      0.00
   -3   10  -11      0.11      0.00
   -4   10  -11      0.33      0.09
   -3   12  -10      0.16      0.02
   -2   12  -10     -0.24     -0.02
   -1   12  -10     -1.43     -0.01
   -1   12  -10     -1.43     -0.01
    0   12  -10     -1.08      0.03
    0   12  -10     -1.08      0.03
    1   12  -10     -0.15     -0.02
    1   12  -10     -0.15     -0.02
    2   12  -10      0.88      0.02
    2   12  -10      0.88      0.02
   -5   11   -9      0.37     -0.04
   -4   11   -9      0.70     -0.01
   -4   11   -9      0.70     -0.01
   -3   11   -9      0.04     -0.05
   -3   11   -9      0.04     -0.05
   -2   11   -9     -0.36      0.00
   -2   11   -9     -0.36      0.00
   -2   11   -9     -0.36      0.00
   -1   11   -9      0.51      0.03
   -1   11   -9      0.51      0.03
   -1   11   -9      0.51      0.03
    0   11   -9      0.33     -0.07
    0   11   -9      0.33     -0.07
    1   11   -9     -0.54      0.00
    1   11   -9     -0.54      0.00
    2   11   -9     -2.17      0.03
    2   11   -9     -2.17      0.03
    3   11   -9     -0.77      0.05
    3   11   -9     -0.77      0.05
    4   11   -9     -0.20      0.09
   -4  -11    9     -0.20     -0.09
    4   11   -9     -0.20      0.09
   -6   10   -8     -0.55      0.02
   -5   10   -8      0.77     -0.01
   -4   10   -8      0.82     -0.04
   -3   10   -8     -1.12     -0.04
   -2   10   -8      0.14      0.12
   -2   10   -8      0.14      0.12
   -1   10   -8     -0.20      0.03
   -1   10   -8     -0.20      0.03
   -1   10   -8     -0.20      0.03
    0   10   -8     -0.51     -0.01
    0   10   -8     -0.51     -0.01
    0   10   -8     -0.51     -0.01
    1   10   -8     -0.90     -0.01
    1   10   -8     -0.90     -0.01
    2   10   -8     -0.18      0.01
    2   10   -8     -0.18      0.01
    3   10   -8     -0.74      0.05
    3   10   -8     -0.74      0.05
    4   10   -8     -0.87      0.06
    4   10   -8     -0.87      0.06
    5   10   -8     -1.01      0.03
   -5  -10    8     -1.01     -0.03
    5   10   -8     -1.01      0.03
   -6  -10    8      0.06      0.05
   -7    9   -7      0.65     -0.08
   -7    9   -7      0.65     -0.08
   -6    9   -7      0.67      0.02
   -6    9   -7      0.67      0.02
   -6    9   -7      0.67      0.02
   -5    9   -7     -0.49     -0.01
   -5    9   -7     -0.49     -0.01
   -5    9   -7     -0.49     -0.01
   -4    9   -7     -0.63      0.00
   -4    9   -7     -0.63      0.00
   -4    9   -7     -0.63      0.00
   -3    9   -7      0.15      0.05
   -3    9   -7      0.15      0.05
   -2    9   -7     -1.53      0.10
   -2    9   -7     -1.53      0.10
   -1    9   -7     -0.34      0.00
    0    9   -7     -1.17      0.00
    1    9   -7      0.14     -0.06
    1    9   -7      0.14     -0.06
    1    9   -7      0.14     -0.06
    2    9   -7      0.13      0.05
    2    9   -7      0.13      0.05
    2    9   -7      0.13      0.05
    3    9   -7     -1.71      0.07
    3    9   -7     -1.71      0.07
    4    9   -7     -1.15      0.06
    4    9   -7     -1.15      0.06
    5    9   -7     -1.71     -0.09
    5    9   -7     -1.71     -0.09
   -5   -9    7     -1.71      0.09
   -6   -9    7     -1.15      0.05
   -7   -9    7     -0.37      0.05
   -8    8   -6     -0.22     -0.24
   -8    8   -6     -0.22     -0.24
   -7    8   -6      0.12     -0.03
   -7    8   -6      0.12     -0.03
   -7    8   -6      0.12     -0.03
   -6    8   -6      0.13     -0.04
   -6    8   -6      0.13     -0.04
   -6    8   -6      0.13     -0.04
   -5    8   -6      0.40     -0.02
   -5    8   -6      0.40     -0.02
   -5    8   -6      0.40     -0.02
   -4    8   -6     -0.19      0.02
   -4    8   -6     -0.19      0.02
   -4    8   -6     -0.19      0.02
   -3    8   -6      0.86      0.05
   -3    8   -6      0.86      0.05
   -3    8   -6      0.86      0.05
   -3    8   -6      0.86      0.05
   -2    8   -6      0.87      0.04
   -2    8   -6      0.87      0.04
   -2    8   -6      0.87      0.04
   -1    8   -6     -0.24      0.01
   -1    8   -6     -0.24      0.01
   -1    8   -6     -0.24      0.01
    0    8   -6      0.55     -0.04
    0    8   -6      0.55     -0.04
    0    8   -6      0.55     -0.04
    1    8   -6     -0.74      0.01
    1    8   -6     -0.74      0.01
    1    8   -6     -0.74      0.01
    1    8   -6     -0.74      0.01
    2    8   -6     -0.32     -0.02
    2    8   -6     -0.32     -0.02
    2    8   -6     -0.32     -0.02
    3    8   -6      1.15      0.00
    3    8   -6      1.15      0.00
    4    8   -6     -1.23     -0.06
    4    8   -6     -1.23     -0.06
   -5   -8    6     -0.46     -0.03
    5    8   -6     -0.46      0.03
   -6   -8    6     -1.79     -0.06
   -7   -8    6     -0.91     -0.01
   -8   -8    6      0.12      0.05
   -9    7   -5      0.36     -0.07
   -9    7   -5      0.36     -0.07
   -8    7   -5      0.02      0.01
   -8    7   -5      0.02      0.01
   -7    7   -5     -0.58     -0.04
   -7    7   -5     -0.58     -0.04
   -7    7   -5     -0.58     -0.04
   -7    7   -5     -0.58     -0.04
   -6    7   -5     -1.26      0.02
   -6    7   -5     -1.26      0.02
   -6    7   -5     -1.26      0.02
   -6    7   -5     -1.26      0.02
   -5    7   -5     -1.27      0.05
   -5    7   -5     -1.27      0.05
   -5    7   -5     -1.27      0.05
   -4    7   -5     -1.65      0.03
   -4    7   -5     -1.65      0.03
   -4    7   -5     -1.65      0.03
   -4    7   -5     -1.65      0.03
   -3    7   -5     -2.35      0.01
   -3    7   -5     -2.35      0.01
   -3    7   -5     -2.35      0.01
   -2    7   -5     -0.70     -0.04
   -1    7   -5     -1.67     -0.01
    0    7   -5     -1.02     -0.08
    1    7   -5     -1.41     -0.04
    1    7   -5     -1.41     -0.04
    2    7   -5     -0.38     -0.03
    2    7   -5     -0.38     -0.03
    2    7   -5     -0.38     -0.03
    2    7   -5     -0.38     -0.03
    3    7   -5     -0.65      0.06
    3    7   -5     -0.65      0.06
    3    7   -5     -0.65      0.06
    4    7   -5      0.53     -0.02
    4    7   -5      0.53     -0.02
    4    7   -5      0.53     -0.02
    5    7   -5     -0.53      0.08
   -6   -7    5     -0.18     -0.02
   -7   -7    5     -1.11     -0.06
   -8   -7    5      0.26     -0.02
  -10    6   -4      0.73     -0.03
   -9    6   -4      1.02     -0.01
   -9    6   -4      1.02     -0.01
   -9    6   -4      1.02     -0.01
   -8    6   -4     -0.11      0.00
   -8    6   -4     -0.11      0.00
   -8    6   -4     -0.11      0.00
   -7    6   -4     -1.52      0.00
   -7    6   -4     -1.52      0.00
   -7    6   -4     -1.52      0.00
   -6    6   -4     -0.91      0.04
   -6    6   -4     -0.91      0.04
   -6    6   -4     -0.91      0.04
   -6    6   -4     -0.91      0.04
   -6    6   -4     -0.91      0.04
   -5    6   -4     -1.93      0.01
   -5    6   -4     -1.93      0.01
   -5    6   -4     -1.93      0.01
   -5    6   -4     -1.93      0.01
   -5    6   -4     -1.93      0.01
   -5    6   -4     -1.93      0.01
   -5    6   -4     -1.93      0.01
   -4    6   -4      0.23      0.00
   -4    6   -4      0.23      0.00
   -4    6   -4      0.23      0.00
   -3    6   -4      0.47      0.02
   -2    6   -4     -2.63     -0.03
   -1    6   -4      0.09      0.01
    0    6   -4     -0.15      0.09
    0    6   -4     -0.15      0.09
    1    6   -4      3.85      0.03
    1    6   -4      3.85      0.03
    1    6   -4      3.85      0.03
    2    6   -4     -0.67      0.10
    2    6   -4     -0.67      0.10
    2    6   -4     -0.67      0.10
    3    6   -4      1.23      0.07
    3    6   -4      1.23      0.07
    4    6   -4      1.10      0.03
    4    6   -4      1.10      0.03
   -5   -6    4      0.62     -0.01
    5    6   -4      0.62      0.01
   -6   -6    4      0.45      0.05
   -7   -6    4      0.27     -0.02
   -8   -6    4     -2.38     -0.02
   -9   -6    4     -1.34     -0.03
  -10    5   -3      0.66     -0.05
  -10    5   -3      0.66     -0.05
  -10    5   -3      0.66     -0.05
   -9    5   -3     -0.34     -0.04
   -9    5   -3     -0.34     -0.04
   -8    5   -3      0.36      0.00
   -7    5   -3      0.62     -0.03
   -7    5   -3      0.62     -0.03
   -6    5   -3     -2.91     -0.06
   -6    5   -3     -2.91     -0.06
   -6    5   -3     -2.91     -0.06
   -5    5   -3     -0.29     -0.09
   -5    5   -3     -0.29     -0.09
   -5    5   -3     -0.29     -0.09
   -4    5   -3     -2.66     -0.11
   -3    5   -3     -1.23     -0.01
   -2    5   -3      3.86     -0.03
   -1    5   -3      0.78      0.00
    0    5   -3      5.12      0.02
    0    5   -3      5.12      0.02
    1    5   -3     -1.05      0.05
    1    5   -3     -1.05      0.05
    2    5   -3      7.15      0.10
    2    5   -3      7.15      0.10
    2    5   -3      7.15      0.10
    3    5   -3      0.35     -0.07
    3    5   -3      0.35     -0.07
    4    5   -3      1.11     -0.17
    4    5   -3      1.11     -0.17
    5    5   -3      2.67     -0.62
   -5   -5    3      2.67      0.62
    5    5   -3      2.67     -0.62
    6    5   -3      0.55     -0.12
   -6   -5    3      0.55      0.12
   -7   -5    3      0.74      0.68
   -8   -5    3      0.93      0.14
   -9   -5    3     -0.68     -0.01
  -10    4   -2     -0.38     -0.03
   -9    4   -2     -0.13     -0.08
   -8    4   -2     -0.64      0.04
   -8    4   -2     -0.64      0.04
   -7    4   -2     -3.80      0.00
   -7    4   -2     -3.80      0.00
   -7    4   -2     -3.80      0.00
   -6    4   -2      1.50     -0.07
   -6    4   -2      1.50     -0.07
   -6    4   -2      1.50     -0.07
   -5    4   -2     -1.90     -0.18
   -5    4   -2     -1.90     -0.18
   -4    4   -2      1.19      0.13
   -3    4   -2     -2.02      0.05
   -2    4   -2     -8.10      0.02
   -1    4   -2      1.22     -0.01
    0    4   -2      1.69     -0.08
    0    4   -2      1.69     -0.08
    1    4   -2      4.48      0.04
    1    4   -2      4.48      0.04
    2    4   -2     -6.12     -0.02
    2    4   -2     -6.12     -0.02
    3    4   -2      0.40     -0.03
   -3   -4    2      0.40      0.03
    4    4   -2     -1.14     -0.32
   -4   -4    2     -1.14      0.32
   -5   -4    2     -1.20      0.56
   -5   -4    2     -1.20      0.56
    5    4   -2     -1.20     -0.56
   -6   -4    2      1.76      2.08
    6    4   -2      1.76     -2.08
   -6   -4    2      1.76      2.08
   -7   -4    2     -1.06      0.54
   -7   -4    2     -1.06      0.54
   -8   -4    2     -0.29      0.35
   -9   -4    2      1.54      0.07
  -10   -4    2      0.52     -0.04
  -11    3   -1      0.18     -0.14
  -11    3   -1      0.18     -0.14
  -11    3   -1      0.18     -0.14
  -10    3   -1     -0.27     -0.33
   -9    3   -1     -0.37     -0.08
   -8    3   -1     -1.49     -0.04
   -8    3   -1     -1.49     -0.04
   -7    3   -1      3.35      0.00
   -7    3   -1      3.35      0.00
   -7    3   -1      3.35      0.00
   -6    3   -1      0.42      0.02
   -5    3   -1      1.39      0.01
   -5    3   -1      1.39      0.01
   -4    3   -1      2.83     -0.14
   -3    3   -1      2.45      0.02
   -2    3   -1      8.49      0.04
   -1    3   -1      4.39      0.01
    0    3   -1    -13.15      0.04
    0    3   -1    -13.15      0.04
    1    3   -1     -1.50     -0.01
    1    3   -1     -1.50     -0.01
   -2   -3    1      1.07     -0.03
    2    3   -1      1.07      0.03
   -3   -3    1     -4.15     -0.05
    3    3   -1     -4.15      0.05
    4    3   -1     -2.46     -0.11
   -4   -3    1     -2.46      0.11
    5    3   -1     -0.83     -0.54
   -5   -3    1     -0.83      0.54
   -6   -3    1     -1.81      0.16
   -6   -3    1     -1.81      0.16
   -7   -3    1      1.05      0.64
   -7   -3    1      1.05      0.64
   -8   -3    1      0.35      0.21
   -8   -3    1      0.35      0.21
   -9   -3    1      0.68     -0.02
  -10   -3    1      0.63     -0.10
  -11    2    0      0.74     -0.30
  -10    2    0      1.41     -0.19
   -9    2    0      1.47     -0.18
    8   -2    0      0.69     -0.01
   -8    2    0      0.69      0.01
   -7    2    0     -0.51      0.03
   -7    2    0     -0.51      0.03
    7   -2    0     -0.51     -0.03
    7   -2    0     -0.51     -0.03
   -7    2    0     -0.51      0.03
   -6    2    0      0.48     -0.01
   -5    2    0     10.08     -0.02
   -5    2    0     10.08     -0.02
   -4    2    0      3.12      0.00
   -3    2    0      8.42      0.11
   -2    2    0     -5.91      0.06
   -1    2    0    -32.55      0.04
    0    2    0      2.53     -0.06
    0    2    0      2.53     -0.06
   -1   -2    0    -35.40      0.04
    1    2    0    -35.40     -0.04
   -2   -2    0    -18.68     -0.05
    2    2    0    -18.68      0.05
    3    2    0    -11.58      0.09
   -3   -2    0    -11.58     -0.09
    4    2    0     -5.45      0.12
   -4   -2    0     -5.45     -0.12
   -5   -2    0     -2.00      0.03
    5    2    0     -2.00     -0.03
    6    2    0     -0.63     -0.02
   -6   -2    0     -0.63      0.02
   -6   -2    0     -0.63      0.02
   -6   -2    0     -0.63      0.02
   -6   -2    0     -0.63      0.02
   -7   -2    0     -0.76     -0.05
    7    2    0     -0.76      0.05
   -7   -2    0     -0.76     -0.05
   -7   -2    0     -0.76     -0.05
   -8   -2    0      0.30     -0.14
   -8   -2    0      0.30     -0.14
   -9   -2    0      0.83     -0.01
  -10   -2    0     -0.18     -0.03
  -11    1    1      0.94     -0.01
   10   -1   -1      0.55      0.01
  -10    1    1      0.55     -0.01
   -9    1    1     -0.52      0.02
    9   -1   -1     -0.52     -0.02
   -8    1    1      0.57     -0.03
    8   -1   -1      0.57      0.03
    8   -1   -1      0.57      0.03
    7   -1   -1     -0.42      0.01
    7   -1   -1     -0.42      0.01
   -7    1    1     -0.42     -0.01
   -7    1    1     -0.42     -0.01
   -6    1    1      1.93     -0.08
   -5    1    1     -6.84     -0.11
   -4    1    1      9.84     -0.07
   -4    1    1      9.84     -0.07
   -3    1    1     -7.89      0.01
   -2    1    1    -16.25     -0.01
   -1    1    1    -16.03     -0.02
    0    1    1    -87.93     -0.04
    0    1    1    -87.93     -0.04
    0   -1   -1    -87.93      0.04
    0   -1   -1    -87.93      0.04
   -1   -1   -1    -31.05     -0.13
   -1   -1   -1    -31.05     -0.13
    1    1    1    -31.05      0.13
    2    1    1    -37.63      0.12
   -2   -1   -1    -37.63     -0.12
    3    1    1    -19.21      0.09
   -3   -1   -1    -19.21     -0.09
    4    1    1    -12.20     -0.03
   -4   -1   -1    -12.20      0.03
   -5   -1   -1     -7.79     -0.14
    5    1    1     -7.79      0.14
   -6   -1   -1     -2.20      0.00
   -6   -1   -1     -2.20      0.00
   -6   -1   -1     -2.20      0.00
    6    1    1     -2.20      0.00
   -6   -1   -1     -2.20      0.00
   -7   -1   -1     -0.35     -0.01
   -7   -1   -1     -0.35     -0.01
    7    1    1     -0.35      0.01
   -7   -1   -1     -0.35     -0.01
   -7   -1   -1     -0.35     -0.01
   -8   -1   -1      0.57      0.03
   -8   -1   -1      0.57      0.03
   -8   -1   -1      0.57      0.03
   -9   -1   -1     -1.37     -0.02
  -10   -1   -1     -0.55      0.04
  -11    0    2      0.21      0.18
   10    0   -2      1.11     -0.10
  -10    0    2      1.11      0.10
   -9    0    2      2.07     -0.02
    9    0   -2      2.07      0.02
    9    0   -2      2.07      0.02
    8    0   -2     -0.56      0.10
   -8    0    2     -0.56     -0.10
    7    0   -2     -0.49     -0.03
   -7    0    2     -0.49      0.03
    7    0   -2     -0.49     -0.03
   -7    0    2     -0.49      0.03
   -6    0    2      0.21      0.03
    6    0   -2      0.21     -0.03
   -5    0    2     10.49      0.05
   -4    0    2      0.19      0.00
   -3    0    2      9.63     -0.11
    2    0   -2     -5.32      0.10
   -2    0    2     -5.32     -0.10
    1    0   -2    -27.57      0.10
   -1    0    2    -27.57     -0.10
    0    0    2     -2.18      0.05
    0    0   -2     -2.18     -0.05
   -1    0   -2    -42.50     -0.15
   -1    0   -2    -42.50     -0.15
   -2    0   -2    -25.11     -0.41
   -2    0   -2    -25.11     -0.41
   -3    0   -2    -13.64     -0.07
   -3    0   -2    -13.64     -0.07
   -4    0   -2     -5.86     -0.03
   -5    0   -2     -2.48      0.05
    5    0    2     -2.48     -0.05
   -6    0   -2     -1.15     -0.11
   -6    0   -2     -1.15     -0.11
   -6    0   -2     -1.15     -0.11
   -6    0   -2     -1.15     -0.11
    6    0    2     -1.15      0.11
   -7    0   -2     -0.74     -0.03
   -7    0   -2     -0.74     -0.03
   -7    0   -2     -0.74     -0.03
   -8    0   -2     -0.60      0.07
   -8    0   -2     -0.60      0.07
   -8    0   -2     -0.60      0.07
   -9    0   -2      0.52     -0.02
   -9    0   -2      0.52     -0.02
  -10    0   -2      0.31     -0.05
   10    1   -3      0.40     -0.05
  -10   -1    3      0.40      0.05
    9    1   -3     -0.05     -0.01
   -9   -1    3     -0.05      0.01
    9    1   -3     -0.05     -0.01
   -8   -1    3      0.91      0.00
    8    1   -3      0.91      0.00
    7    1   -3      2.91      0.04
    7    1   -3      2.91      0.04
   -7   -1    3      2.91     -0.04
    6    1   -3      0.00     -0.07
    5    1   -3     -0.65      0.06
   -5   -1    3     -0.65     -0.06
    5    1   -3     -0.65      0.06
    4    1   -3      4.91      0.04
    4    1   -3      4.91      0.04
   -4   -1    3      4.91     -0.04
   -3   -1    3      1.54      0.00
    3    1   -3      1.54      0.00
    3    1   -3      1.54      0.00
    3    1   -3      1.54      0.00
    2    1   -3     10.66      0.02
    2    1   -3     10.66      0.02
    2    1   -3     10.66      0.02
   -2   -1    3     10.66     -0.02
    1    1   -3     -0.60      0.07
    1    1   -3     -0.60      0.07
    0    1   -3    -10.91     -0.05
    0    1   -3    -10.91     -0.05
   -1    1   -3     -4.33     -0.12
   -1    1   -3     -4.33     -0.12
   -1    1   -3     -4.33     -0.12
   -2    1   -3      1.08      0.00
   -2    1   -3      1.08      0.00
   -3    1   -3     -8.27     -0.05
   -3    1   -3     -8.27     -0.05
   -4    1   -3     -3.46      0.02
   -5    1   -3     -2.09      0.00
   -6    1   -3     -1.18      0.03
   -6    1   -3     -1.18      0.03
   -6    1   -3     -1.18      0.03
   -6    1   -3     -1.18      0.03
   -7    1   -3      1.45      0.01
   -7    1   -3      1.45      0.01
   -7    1   -3      1.45      0.01
   -8    1   -3      1.43     -0.06
   -8    1   -3      1.43     -0.06
   -9    1   -3      1.00     -0.05
   -9    1   -3      1.00     -0.05
  -10    1   -3      0.23     -0.03
  -10    1   -3      0.23     -0.03
   10    2   -4      0.30      0.02
  -10   -2    4      0.30     -0.02
   -9   -2    4     -0.07     -0.13
    9    2   -4     -0.07      0.13
    9    2   -4     -0.07      0.13
    8    2   -4      0.03      0.05
   -8   -2    4      0.03     -0.05
   -7   -2    4     -3.90      0.08
    7    2   -4     -3.90     -0.08
    7    2   -4     -3.90     -0.08
   -6   -2    4      1.42     -0.07
    6    2   -4      1.42      0.07
    6    2   -4      1.42      0.07
    5    2   -4     -2.41      0.04
    4    2   -4     -1.65      0.03
    4    2   -4     -1.65      0.03
    3    2   -4     -1.20     -0.02
    3    2   -4     -1.20     -0.02
    3    2   -4     -1.20     -0.02
    2    2   -4     -8.90     -0.03
    2    2   -4     -8.90     -0.03
    2    2   -4     -8.90     -0.03
    1    2   -4      9.09     -0.08
    1    2   -4      9.09     -0.08
    1    2   -4      9.09     -0.08
    0    2   -4      1.09      0.07
    0    2   -4      1.09      0.07
    0    2   -4      1.09      0.07
    0    2   -4      1.09      0.07
   -1    2   -4      4.99      0.01
   -1    2   -4      4.99      0.01
   -1    2   -4      4.99      0.01
   -2    2   -4     -7.78      0.01
   -2    2   -4     -7.78      0.01
   -3    2   -4      3.03      0.03
   -3    2   -4      3.03      0.03
   -4    2   -4     -2.05      0.04
   -5    2   -4     -1.75      0.02
   -5    2   -4     -1.75      0.02
   -5    2   -4     -1.75      0.02
   -5    2   -4     -1.75      0.02
   -6    2   -4      0.74      0.01
   -6    2   -4      0.74      0.01
   -6    2   -4      0.74      0.01
   -6    2   -4      0.74      0.01
   -6    2   -4      0.74      0.01
   -7    2   -4     -0.64     -0.02
   -7    2   -4     -0.64     -0.02
   -8    2   -4     -0.68     -0.03
   -8    2   -4     -0.68     -0.03
   -9    2   -4      0.64     -0.04
   -9    2   -4      0.64     -0.04
   -9    2   -4      0.64     -0.04
  -10    2   -4     -0.18     -0.02
   10    3   -5     -0.02      0.02
  -10   -3    5     -0.02     -0.02
    9    3   -5     -0.23      0.00
    9    3   -5     -0.23      0.00
   -9   -3    5     -0.23      0.00
    8    3   -5     -0.73      0.03
   -8   -3    5     -0.73     -0.03
   -7   -3    5      2.82     -0.11
    7    3   -5      2.82      0.11
    6    3   -5     -3.03      0.06
   -6   -3    5     -3.03     -0.06
    6    3   -5     -3.03      0.06
    5    3   -5      0.46      0.09
    4    3   -5     -2.65      0.04
    3    3   -5     -1.84      0.00
    3    3   -5     -1.84      0.00
    3    3   -5     -1.84      0.00
    2    3   -5      6.23     -0.03
    2    3   -5      6.23     -0.03
    2    3   -5      6.23     -0.03
    1    3   -5     -2.44     -0.03
    1    3   -5     -2.44     -0.03
    1    3   -5     -2.44     -0.03
    0    3   -5      6.99     -0.07
    0    3   -5      6.99     -0.07
   -1    3   -5      4.09     -0.02
   -1    3   -5      4.09     -0.02
   -2    3   -5      7.88     -0.08
   -2    3   -5      7.88     -0.08
   -3    3   -5     -0.16     -0.01
   -3    3   -5     -0.16     -0.01
   -4    3   -5      2.11      0.01
   -5    3   -5      1.38      0.06
   -5    3   -5      1.38      0.06
   -5    3   -5      1.38      0.06
   -5    3   -5      1.38      0.06
   -5    3   -5      1.38      0.06
   -5    3   -5      1.38      0.06
   -6    3   -5     -0.92      0.00
   -6    3   -5     -0.92      0.00
   -6    3   -5     -0.92      0.00
   -7    3   -5      0.32     -0.01
   -7    3   -5      0.32     -0.01
   -7    3   -5      0.32     -0.01
   -8    3   -5      1.63     -0.04
   -8    3   -5      1.63     -0.04
   -8    3   -5      1.63     -0.04
   -9    3   -5      0.08      0.02
   -9    3   -5      0.08      0.02
   -9    3   -5      0.08      0.02
   -9    3   -5      0.08      0.02
   10    4   -6     -0.49      0.00
   -9   -4    6      0.02      0.05
    9    4   -6      0.02     -0.05
    9    4   -6      0.02     -0.05
    8    4   -6     -0.38      0.03
   -8   -4    6     -0.38     -0.03
   -7   -4    6     -2.15     -0.09
    7    4   -6     -2.15      0.09
   -6   -4    6      1.54      0.04
    6    4   -6      1.54     -0.04
    6    4   -6      1.54     -0.04
    5    4   -6     -2.05     -0.07
    5    4   -6     -2.05     -0.07
    5    4   -6     -2.05     -0.07
    4    4   -6      1.01      0.07
    3    4   -6     -0.06      0.05
    3    4   -6     -0.06      0.05
    2    4   -6     -2.00      0.01
    2    4   -6     -2.00      0.01
    2    4   -6     -2.00      0.01
    1    4   -6      1.95      0.03
    1    4   -6      1.95      0.03
    1    4   -6      1.95      0.03
    0    4   -6      2.23      0.00
   -1    4   -6      0.55      0.02
   -2    4   -6      0.15     -0.04
   -3    4   -6      2.08     -0.15
   -3    4   -6      2.08     -0.15
   -4    4   -6      1.30     -0.04
   -4    4   -6      1.30     -0.04
   -4    4   -6      1.30     -0.04
   -4    4   -6      1.30     -0.04
   -4    4   -6      1.30     -0.04
   -4    4   -6      1.30     -0.04
   -5    4   -6      1.10      0.03
   -5    4   -6      1.10      0.03
   -5    4   -6      1.10      0.03
   -5    4   -6      1.10      0.03
   -5    4   -6      1.10      0.03
   -5    4   -6      1.10      0.03
   -6    4   -6      0.16      0.02
   -6    4   -6      0.16      0.02
   -6    4   -6      0.16      0.02
   -6    4   -6      0.16      0.02
   -7    4   -6     -0.45     -0.02
   -7    4   -6     -0.45     -0.02
   -7    4   -6     -0.45     -0.02
   -7    4   -6     -0.45     -0.02
   -8    4   -6     -1.14      0.06
   -8    4   -6     -1.14      0.06
   -8    4   -6     -1.14      0.06
   -9    4   -6      0.55      0.01
   -9   -5    7     -0.09      0.04
    9    5   -7     -0.09     -0.04
    9    5   -7     -0.09     -0.04
   -8   -5    7     -0.05      0.05
    8    5   -7     -0.05     -0.05
    7    5   -7      0.23     -0.13
   -7   -5    7      0.23      0.13
   -6   -5    7     -1.14      0.05
    6    5   -7     -1.14     -0.05
    5    5   -7      0.25      0.02
    5    5   -7      0.25      0.02
    5    5   -7      0.25      0.02
    4    5   -7     -0.93      0.02
    4    5   -7     -0.93      0.02
    4    5   -7     -0.93      0.02
    4    5   -7     -0.93      0.02
    3    5   -7      0.46      0.03
    3    5   -7      0.46      0.03
    3    5   -7      0.46      0.03
    3    5   -7      0.46      0.03
    3    5   -7      0.46      0.03
    2    5   -7      0.90      0.02
    2    5   -7      0.90      0.02
    1    5   -7      1.19      0.10
    1    5   -7      1.19      0.10
    0    5   -7     -2.40      0.00
   -1    5   -7      0.34     -0.04
   -2    5   -7     -0.95     -0.08
   -2    5   -7     -0.95     -0.08
   -2    5   -7     -0.95     -0.08
   -2    5   -7     -0.95     -0.08
   -2    5   -7     -0.95     -0.08
   -3    5   -7     -1.17      0.04
   -3    5   -7     -1.17      0.04
   -3    5   -7     -1.17      0.04
   -3    5   -7     -1.17      0.04
   -3    5   -7     -1.17      0.04
   -4    5   -7     -0.22      0.02
   -4    5   -7     -0.22      0.02
   -4    5   -7     -0.22      0.02
   -4    5   -7     -0.22      0.02
   -5    5   -7     -1.94      0.04
   -5    5   -7     -1.94      0.04
   -5    5   -7     -1.94      0.04
   -5    5   -7     -1.94      0.04
   -5    5   -7     -1.94      0.04
   -6    5   -7      0.09     -0.01
   -6    5   -7      0.09     -0.01
   -6    5   -7      0.09     -0.01
   -6    5   -7      0.09     -0.01
   -7    5   -7     -0.44      0.05
   -7    5   -7     -0.44      0.05
   -7    5   -7     -0.44      0.05
   -8    5   -7      0.27     -0.07
    8    6   -8      1.26      0.05
    8    6   -8      1.26      0.05
   -7   -6    8      1.04     -0.02
    7    6   -8      1.04      0.02
    6    6   -8      0.30      0.00
   -6   -6    8      0.30      0.00
    6    6   -8      0.30      0.00
    5    6   -8     -0.64      0.08
   -5   -6    8     -0.64     -0.08
    5    6   -8     -0.64      0.08
    4    6   -8     -1.47      0.06
    4    6   -8     -1.47      0.06
    3    6   -8      1.07      0.00
    3    6   -8      1.07      0.00
    3    6   -8      1.07      0.00
    3    6   -8      1.07      0.00
    3    6   -8      1.07      0.00
    2    6   -8      1.03      0.04
    2    6   -8      1.03      0.04
    2    6   -8      1.03      0.04
    2    6   -8      1.03      0.04
    2    6   -8      1.03      0.04
    1    6   -8      1.52     -0.05
    1    6   -8      1.52     -0.05
    1    6   -8      1.52     -0.05
    1    6   -8      1.52     -0.05
    0    6   -8      1.38      0.07
    0    6   -8      1.38      0.07
    0    6   -8      1.38      0.07
    0    6   -8      1.38      0.07
    0    6   -8      1.38      0.07
    0    6   -8      1.38      0.07
    0    6   -8      1.38      0.07
   -1    6   -8     -0.66      0.05
   -1    6   -8     -0.66      0.05
   -1    6   -8     -0.66      0.05
   -1    6   -8     -0.66      0.05
   -1    6   -8     -0.66      0.05
   -1    6   -8     -0.66      0.05
   -2    6   -8      1.48      0.08
   -2    6   -8      1.48      0.08
   -2    6   -8      1.48      0.08
   -2    6   -8      1.48      0.08
   -3    6   -8      1.10     -0.02
   -3    6   -8      1.10     -0.02
   -3    6   -8      1.10     -0.02
   -3    6   -8      1.10     -0.02
   -4    6   -8     -0.82      0.04
   -4    6   -8     -0.82      0.04
   -4    6   -8     -0.82      0.04
   -4    6   -8     -0.82      0.04
   -5    6   -8      0.24     -0.01
   -5    6   -8      0.24     -0.01
   -6    6   -8     -1.58     -0.02
   -6    6   -8     -1.58     -0.02
   -7    6   -8     -0.19     -0.07
   -7    6   -8     -0.19     -0.07
   -8    6   -8      0.34      0.10
    8    7   -9      2.33     -0.01
    7    7   -9      2.70      0.02
   -7   -7    9      2.70     -0.02
    6    7   -9      0.29      0.07
    6    7   -9      0.29      0.07
   -6   -7    9      0.29     -0.07
    5    7   -9      0.04      0.05
    5    7   -9      0.04      0.05
   -5   -7    9      0.04     -0.05
    4    7   -9      0.40     -0.05
    4    7   -9      0.40     -0.05
    3    7   -9     -0.54      0.00
    3    7   -9     -0.54      0.00
    3    7   -9     -0.54      0.00
    2    7   -9      0.05     -0.12
    2    7   -9      0.05     -0.12
    2    7   -9      0.05     -0.12
    1    7   -9     -1.27     -0.04
    1    7   -9     -1.27     -0.04
    1    7   -9     -1.27     -0.04
    0    7   -9      0.02     -0.04
    0    7   -9      0.02     -0.04
    0    7   -9      0.02     -0.04
    0    7   -9      0.02     -0.04
   -1    7   -9     -0.39      0.00
   -1    7   -9     -0.39      0.00
   -1    7   -9     -0.39      0.00
   -1    7   -9     -0.39      0.00
   -2    7   -9     -2.35     -0.04
   -2    7   -9     -2.35     -0.04
   -3    7   -9     -0.92      0.00
   -3    7   -9     -0.92      0.00
   -4    7   -9      0.66     -0.02
   -4    7   -9      0.66     -0.02
   -5    7   -9      0.65     -0.03
   -5    7   -9      0.65     -0.03
   -6    7   -9      1.22     -0.01
   -6    7   -9      1.22     -0.01
   -7    7   -9      0.06      0.07
   -7    7   -9      0.06      0.07
    7    8  -10     -0.19      0.00
    6    8  -10      0.70      0.02
    6    8  -10      0.70      0.02
    5    8  -10      0.73     -0.04
    5    8  -10      0.73     -0.04
    4    8  -10      1.71      0.02
    4    8  -10      1.71      0.02
    3    8  -10      0.71      0.03
    3    8  -10      0.71      0.03
    3    8  -10      0.71      0.03
    2    8  -10      0.11     -0.01
    2    8  -10      0.11     -0.01
    2    8  -10      0.11     -0.01
    1    8  -10     -1.35      0.00
    1    8  -10     -1.35      0.00
    1    8  -10     -1.35      0.00
    0    8  -10     -1.55      0.16
    0    8  -10     -1.55      0.16
    0    8  -10     -1.55      0.16
    0    8  -10     -1.55      0.16
   -1    8  -10     -2.69      0.33
   -1    8  -10     -2.69      0.33
   -1    8  -10     -2.69      0.33
   -1    8  -10     -2.69      0.33
   -2    8  -10     -0.83      0.13
   -2    8  -10     -0.83      0.13
   -3    8  -10     -0.84      0.40
   -3    8  -10     -0.84      0.40
   -4    8  -10     -0.65      0.10
   -4    8  -10     -0.65      0.10
   -5    8  -10      0.45     -0.02
   -5    8  -10      0.45     -0.02
   -6    8  -10      0.78      0.16
   -6    8  -10      0.78      0.16
    5    9  -11     -0.22     -0.03
    5    9  -11     -0.22     -0.03
    4    9  -11      1.17      0.00
    4    9  -11      1.17      0.00
    3    9  -11      0.76      0.01
    3    9  -11      0.76      0.01
    2    9  -11     -0.38     -0.08
    2    9  -11     -0.38     -0.08
    2    9  -11     -0.38     -0.08
    1    9  -11     -0.38      0.06
    1    9  -11     -0.38      0.06
    1    9  -11     -0.38      0.06
    0    9  -11     -0.94      0.27
    0    9  -11     -0.94      0.27
    0    9  -11     -0.94      0.27
   -1    9  -11     -0.84      0.33
   -1    9  -11     -0.84      0.33
   -1    9  -11     -0.84      0.33
   -2    9  -11     -1.60      1.08
   -2    9  -11     -1.60      1.08
   -3    9  -11     -0.61      0.29
   -3    9  -11     -0.61      0.29
   -4    9  -11      0.37      0.18
   -4    9  -11      0.37      0.18
   -5    9  -11      0.53      0.05
    3   10  -12      0.28     -0.01
    3   10  -12      0.28     -0.01
    2   10  -12     -0.61      0.08
    2   10  -12     -0.61      0.08
    1   10  -12     -1.02      0.03
    1   10  -12     -1.02      0.03
    0   10  -12     -1.15      0.07
    0   10  -12     -1.15      0.07
    0   10  -12     -1.15      0.07
   -1   10  -12      0.42      0.31
   -2   10  -12      0.77      0.05
   -4   12   -9     -0.03     -0.01
   -3   12   -9     -0.36     -0.02
   -2   12   -9      0.91     -0.04
   -2   12   -9      0.91     -0.04
   -1   12   -9      1.03     -0.03
   -1   12   -9      1.03     -0.03
    0   12   -9      0.82     -0.07
    0   12   -9      0.82     -0.07
    1   12   -9      0.23      0.00
    1   12   -9      0.23      0.00
    2   12   -9     -1.35     -0.04
    2   12   -9     -1.35     -0.04
    3   12   -9     -0.58     -0.03
   -3  -12    9     -0.58      0.03
   -5   11   -8     -0.44      0.03
   -4   11   -8     -0.02     -0.02
   -3   11   -8     -0.02     -0.04
   -2   11   -8      1.22      0.07
   -2   11   -8      1.22      0.07
   -2   11   -8      1.22      0.07
   -1   11   -8      1.21     -0.06
   -1   11   -8      1.21     -0.06
    0   11   -8     -0.17      0.01
    0   11   -8     -0.17      0.01
    1   11   -8     -0.38     -0.05
    1   11   -8     -0.38     -0.05
    2   11   -8      1.03     -0.02
    2   11   -8      1.03     -0.02
    3   11   -8      0.32     -0.03
    3   11   -8      0.32     -0.03
    4   11   -8      0.84     -0.04
    4   11   -8      0.84     -0.04
   -4  -11    8      0.84      0.04
   -5  -11    8     -0.43     -0.03
   -7   10   -7      0.16     -0.01
   -6   10   -7      0.21      0.01
   -6   10   -7      0.21      0.01
   -5   10   -7     -0.28     -0.01
   -5   10   -7     -0.28     -0.01
   -4   10   -7     -0.95      0.02
   -4   10   -7     -0.95      0.02
   -3   10   -7      0.60      0.02
   -3   10   -7      0.60      0.02
   -2   10   -7     -0.12     -0.05
   -2   10   -7     -0.12     -0.05
   -2   10   -7     -0.12     -0.05
   -1   10   -7      0.70      0.02
   -1   10   -7      0.70      0.02
    0   10   -7      0.51      0.01
    0   10   -7      0.51      0.01
    0   10   -7      0.51      0.01
    0   10   -7      0.51      0.01
    1   10   -7      0.68      0.01
    1   10   -7      0.68      0.01
    1   10   -7      0.68      0.01
    2   10   -7      0.19     -0.01
    2   10   -7      0.19     -0.01
    3   10   -7      0.44      0.02
    3   10   -7      0.44      0.02
    4   10   -7      0.21     -0.05
    4   10   -7      0.21     -0.05
   -5  -10    7      1.06      0.01
   -6  -10    7     -0.59     -0.07
   -8    9   -6      0.75     -0.07
   -7    9   -6      0.29      0.03
   -7    9   -6      0.29      0.03
   -6    9   -6      0.10      0.04
   -6    9   -6      0.10      0.04
   -5    9   -6      0.14      0.00
   -5    9   -6      0.14      0.00
   -4    9   -6     -0.11     -0.03
   -4    9   -6     -0.11     -0.03
   -3    9   -6      0.30     -0.04
   -3    9   -6      0.30     -0.04
   -2    9   -6      0.54     -0.07
   -2    9   -6      0.54     -0.07
   -2    9   -6      0.54     -0.07
   -1    9   -6     -0.31      0.06
   -1    9   -6     -0.31      0.06
   -1    9   -6     -0.31      0.06
    0    9   -6      0.17      0.04
    0    9   -6      0.17      0.04
    0    9   -6      0.17      0.04
    1    9   -6     -0.32      0.08
    1    9   -6     -0.32      0.08
    2    9   -6     -0.67      0.00
    2    9   -6     -0.67      0.00
    3    9   -6      1.31     -0.12
    3    9   -6      1.31     -0.12
    4    9   -6      0.47     -0.10
    4    9   -6      0.47     -0.10
   -5   -9    6      0.21     -0.06
   -6   -9    6      0.72     -0.04
   -7   -9    6     -0.04     -0.03
   -9    8   -5      0.82     -0.03
   -8    8   -5      0.30      0.07
   -8    8   -5      0.30      0.07
   -7    8   -5     -0.73      0.04
   -7    8   -5     -0.73      0.04
   -7    8   -5     -0.73      0.04
   -6    8   -5     -0.89      0.00
   -6    8   -5     -0.89      0.00
   -6    8   -5     -0.89      0.00
   -5    8   -5     -1.04      0.07
   -5    8   -5     -1.04      0.07
   -4    8   -5     -1.07      0.00
   -4    8   -5     -1.07      0.00
   -4    8   -5     -1.07      0.00
   -3    8   -5     -2.57     -0.03
   -3    8   -5     -2.57     -0.03
   -2    8   -5     -1.47     -0.10
   -2    8   -5     -1.47     -0.10
   -2    8   -5     -1.47     -0.10
   -1    8   -5     -1.47     -0.03
   -1    8   -5     -1.47     -0.03
   -1    8   -5     -1.47     -0.03
    0    8   -5     -0.36      0.05
    0    8   -5     -0.36      0.05
    0    8   -5     -0.36      0.05
    1    8   -5     -1.36      0.00
    1    8   -5     -1.36      0.00
    1    8   -5     -1.36      0.00
    1    8   -5     -1.36      0.00
    2    8   -5     -0.34     -0.05
    2    8   -5     -0.34     -0.05
    2    8   -5     -0.34     -0.05
    3    8   -5     -1.58     -0.04
    3    8   -5     -1.58     -0.04
    4    8   -5     -0.40     -0.02
    4    8   -5     -0.40     -0.02
   -5   -8    5     -1.33      0.05
   -6   -8    5     -0.17      0.05
   -7   -8    5      0.48     -0.01
   -8   -8    5      0.66     -0.03
   -9    7   -4      0.56      0.03
   -9    7   -4      0.56      0.03
   -8    7   -4     -0.47      0.00
   -8    7   -4     -0.47      0.00
   -8    7   -4     -0.47      0.00
   -7    7   -4     -0.31     -0.04
   -7    7   -4     -0.31     -0.04
   -7    7   -4     -0.31     -0.04
   -6    7   -4      0.27      0.03
   -6    7   -4      0.27      0.03
   -6    7   -4      0.27      0.03
   -6    7   -4      0.27      0.03
   -5    7   -4     -0.26     -0.01
   -5    7   -4     -0.26     -0.01
   -5    7   -4     -0.26     -0.01
   -5    7   -4     -0.26     -0.01
   -5    7   -4     -0.26     -0.01
   -5    7   -4     -0.26     -0.01
   -4    7   -4      0.15     -0.01
   -4    7   -4      0.15     -0.01
   -4    7   -4      0.15     -0.01
   -4    7   -4      0.15     -0.01
   -3    7   -4      0.30     -0.03
   -2    7   -4     -0.79      0.03
   -1    7   -4      1.42      0.00
    0    7   -4      0.57      0.04
    1    7   -4      2.56     -0.01
    1    7   -4      2.56     -0.01
    1    7   -4      2.56     -0.01
    2    7   -4      0.71     -0.02
    2    7   -4      0.71     -0.02
    2    7   -4      0.71     -0.02
    3    7   -4      1.10      0.03
    3    7   -4      1.10      0.03
    3    7   -4      1.10      0.03
    4    7   -4     -0.60      0.08
   -5   -7    4     -0.32     -0.01
   -6   -7    4     -0.42     -0.11
   -7   -7    4      0.55     -0.16
   -8   -7    4     -0.65     -0.08
  -10    6   -3      1.19      0.01
  -10    6   -3      1.19      0.01
   -9    6   -3     -0.39     -0.02
   -9    6   -3     -0.39     -0.02
   -9    6   -3     -0.39     -0.02
   -8    6   -3      0.49      0.01
   -8    6   -3      0.49      0.01
   -8    6   -3      0.49      0.01
   -7    6   -3      0.74     -0.03
   -6    6   -3     -0.20      0.03
   -6    6   -3     -0.20      0.03
   -5    6   -3      1.25     -0.03
   -5    6   -3      1.25     -0.03
   -5    6   -3      1.25     -0.03
   -5    6   -3      1.25     -0.03
   -4    6   -3     -1.45     -0.05
   -3    6   -3     -1.26      0.01
   -2    6   -3      0.38      0.05
   -1    6   -3     -1.01      0.03
    0    6   -3      2.41     -0.11
    0    6   -3      2.41     -0.11
    1    6   -3      0.82      0.04
    1    6   -3      0.82      0.04
    2    6   -3      4.76     -0.03
    2    6   -3      4.76     -0.03
    2    6   -3      4.76     -0.03
    3    6   -3      0.91      0.01
    3    6   -3      0.91      0.01
    4    6   -3     -0.02      0.01
    4    6   -3     -0.02      0.01
   -5   -6    3      1.51      0.07
    5    6   -3      1.51     -0.07
    5    6   -3      1.51     -0.07
   -6   -6    3      1.31     -0.27
   -7   -6    3      0.11      0.01
   -8   -6    3      0.98     -0.08
   -9   -6    3     -0.17     -0.06
  -10    5   -2     -0.75      0.10
  -10    5   -2     -0.75      0.10
  -10    5   -2     -0.75      0.10
   -9    5   -2      0.32      0.01
   -8    5   -2     -0.55     -0.02
   -7    5   -2     -1.28      0.04
   -7    5   -2     -1.28      0.04
   -7    5   -2     -1.28      0.04
   -6    5   -2      2.03     -0.07
   -6    5   -2      2.03     -0.07
   -6    5   -2      2.03     -0.07
   -6    5   -2      2.03     -0.07
   -5    5   -2     -1.06     -0.10
   -5    5   -2     -1.06     -0.10
   -4    5   -2      0.83      0.01
   -3    5   -2     -3.55     -0.03
   -2    5   -2     -5.53      0.01
   -1    5   -2     -1.66      0.03
    0    5   -2     -0.61      0.02
    0    5   -2     -0.61      0.02
    1    5   -2      4.12     -0.03
    1    5   -2      4.12     -0.03
    2    5   -2     -1.63     -0.04
    2    5   -2     -1.63     -0.04
    3    5   -2      1.92     -0.04
    3    5   -2      1.92     -0.04
    4    5   -2      0.64     -0.10
    4    5   -2      0.64     -0.10
    5    5   -2     -0.21      0.05
   -5   -5    2     -0.21     -0.05
    5    5   -2     -0.21      0.05
   -5   -5    2     -0.21     -0.05
   -6   -5    2      0.52      0.83
   -6   -5    2      0.52      0.83
   -7   -5    2     -0.54     -0.18
   -7   -5    2     -0.54     -0.18
   -8   -5    2     -1.67      0.03
   -9   -5    2      0.13      0.00
  -11    4   -1      0.23      0.04
  -11    4   -1      0.23      0.04
  -10    4   -1      0.27     -0.05
   -9    4   -1     -0.86      0.03
   -8    4   -1     -0.91     -0.05
   -7    4   -1      3.15     -0.01
   -7    4   -1      3.15     -0.01
   -7    4   -1      3.15     -0.01
   -6    4   -1     -0.60     -0.02
   -6    4   -1     -0.60     -0.02
   -6    4   -1     -0.60     -0.02
   -5    4   -1      1.20     -0.05
   -4    4   -1     -1.22     -0.37
   -3    4   -1      3.80     -0.19
   -2    4   -1      7.94     -0.13
   -1    4   -1      4.37     -0.05
    0    4   -1     -1.50      0.09
    0    4   -1     -1.50      0.09
    1    4   -1      3.48     -0.03
    1    4   -1      3.48     -0.03
    2    4   -1      7.71     -0.09
    2    4   -1      7.71     -0.09
   -2   -4    1      7.71      0.09
   -3   -4    1      3.40      0.06
    3    4   -1      3.40     -0.06
   -4   -4    1      0.77      0.02
    4    4   -1      0.77     -0.02
   -5   -4    1      0.57      0.18
   -5   -4    1      0.57      0.18
   -5   -4    1      0.57      0.18
    5    4   -1      0.57     -0.18
    6    4   -1     -0.53      0.69
   -6   -4    1     -0.53     -0.69
   -6   -4    1     -0.53     -0.69
   -7   -4    1      0.38      0.19
   -7   -4    1      0.38      0.19
   -8   -4    1      0.19      0.02
   -8   -4    1      0.19      0.02
   -9   -4    1     -0.96      0.04
  -11    3    0      0.75     -0.06
  -11    3    0      0.75     -0.06
  -10    3    0      0.46      0.05
    9   -3    0      1.26      0.06
   -9    3    0      1.26     -0.06
   -8    3    0      1.10      0.02
   -8    3    0      1.10      0.02
    8   -3    0      1.10     -0.02
    7   -3    0     -1.62     -0.06
   -7    3    0     -1.62      0.06
   -7    3    0     -1.62      0.06
   -7    3    0     -1.62      0.06
   -6    3    0     -0.31     -0.01
   -5    3    0      3.09      0.00
   -4    3    0     -1.06     -0.03
   -3    3    0      2.88     -0.10
   -2    3    0     -2.79     -0.02
   -1    3    0     -8.25      0.00
    0    3    0     12.32     -0.04
    0    3    0     12.32     -0.04
    1    3    0     -5.62     -0.02
   -1   -3    0     -5.62      0.02
    1    3    0     -5.62     -0.02
   -1   -3    0     -5.62      0.02
    2    3    0     -2.52      0.00
   -2   -3    0     -2.52      0.00
   -3   -3    0      0.98      0.02
    3    3    0      0.98     -0.02
    4    3    0      2.18     -0.03
   -4   -3    0      2.18      0.03
    5    3    0     -0.28      0.08
   -5   -3    0     -0.28     -0.08
   -6   -3    0      0.88      0.02
   -6   -3    0      0.88      0.02
   -6   -3    0      0.88      0.02
   -6   -3    0      0.88      0.02
    6    3    0      0.88     -0.02
   -7   -3    0     -0.55     -0.14
   -7   -3    0     -0.55     -0.14
   -7   -3    0     -0.55     -0.14
   -8   -3    0      0.42     -0.05
   -8   -3    0      0.42     -0.05
   -9   -3    0      0.36      0.03
   11   -2   -1      0.37     -0.09
  -11    2    1      0.37      0.09
  -10    2    1      0.39      0.01
   10   -2   -1      0.39     -0.01
   -9    2    1     -0.81      0.00
    9   -2   -1     -0.81      0.00
   -8    2    1     -0.05     -0.03
    8   -2   -1     -0.05      0.03
    8   -2   -1     -0.05      0.03
   -7    2    1      0.01      0.00
    7   -2   -1      0.01      0.00
    7   -2   -1      0.01      0.00
   -7    2    1      0.01      0.00
   -6    2    1      0.84     -0.03
   -5    2    1    -10.34     -0.03
   -5    2    1    -10.34     -0.03
   -4    2    1      3.39      0.05
   -3    2    1     -7.67     -0.02
   -2    2    1     -3.28      0.06
   -1    2    1      7.77      0.00
    0    2    1    -27.29     -0.02
    0    2    1    -27.29     -0.02
    0   -2   -1    -27.29      0.02
    1    2    1      3.89      0.09
   -1   -2   -1      3.89     -0.09
   -1   -2   -1      3.89     -0.09
   -2   -2   -1     -3.76     -0.03
    2    2    1     -3.76      0.03
   -3   -2   -1     -1.26      0.04
    3    2    1     -1.26     -0.04
    4    2    1     -2.22     -0.06
   -4   -2   -1     -2.22      0.06
    5    2    1     -0.48      0.06
   -5   -2   -1     -0.48     -0.06
   -6   -2   -1     -0.62      0.07
   -6   -2   -1     -0.62      0.07
    6    2    1     -0.62     -0.07
   -6   -2   -1     -0.62      0.07
   -7   -2   -1      0.51      0.05
   -7   -2   -1      0.51      0.05
   -7   -2   -1      0.51      0.05
   -8   -2   -1      0.59      0.07
   -8   -2   -1      0.59      0.07
   -8   -2   -1      0.59      0.07
   -9   -2   -1     -0.65      0.00
  -11    1    2     -0.24      0.06
   10   -1   -2      0.57      0.02
  -10    1    2      0.57     -0.02
    9   -1   -2      1.66      0.04
    9   -1   -2      1.66      0.04
   -9    1    2      1.66     -0.04
   -8    1    2     -0.34     -0.06
    8   -1   -2     -0.34      0.06
    8   -1   -2     -0.34      0.06
    7   -1   -2     -0.98      0.09
   -7    1    2     -0.98     -0.09
   -7    1    2     -0.98     -0.09
    7   -1   -2     -0.98      0.09
    7   -1   -2     -0.98      0.09
   -6    1    2     -1.95      0.04
   -5    1    2      9.25      0.08
   -4    1    2     -5.87      0.02
   -3    1    2      6.40      0.06
   -2    1    2      2.87      0.06
   -1    1    2     -3.86      0.02
    0    1    2     26.67      0.00
    0   -1   -2     26.67      0.00
    0   -1   -2     26.67      0.00
    1    1    2     -4.00     -0.04
   -1   -1   -2     -4.00      0.04
   -1   -1   -2     -4.00      0.04
   -2   -1   -2      1.71     -0.05
    2    1    2      1.71      0.05
    3    1    2     -0.47     -0.02
   -3   -1   -2     -0.47      0.02
    4    1    2      1.55      0.02
   -4   -1   -2      1.55     -0.02
   -5   -1   -2      0.25      0.09
    5    1    2      0.25     -0.09
   -6   -1   -2     -0.31     -0.06
   -6   -1   -2     -0.31     -0.06
   -6   -1   -2     -0.31     -0.06
   -6   -1   -2     -0.31     -0.06
   -7   -1   -2     -0.36      0.03
   -7   -1   -2     -0.36      0.03
   -7   -1   -2     -0.36      0.03
   -8   -1   -2     -0.38      0.03
   -8   -1   -2     -0.38      0.03
   -8   -1   -2     -0.38      0.03
   -9   -1   -2      0.77     -0.03
   -9   -1   -2      0.77     -0.03
   11    0   -3      0.61      0.05
  -11    0    3      0.61     -0.05
   10    0   -3      0.08     -0.06
  -10    0    3      0.08      0.06
    9    0   -3     -1.77     -0.05
    9    0   -3     -1.77     -0.05
   -9    0    3     -1.77      0.05
    8    0   -3     -0.40     -0.04
   -8    0    3     -0.40      0.04
    8    0   -3     -0.40     -0.04
    7    0   -3      1.71      0.01
    7    0   -3      1.71      0.01
   -7    0    3      1.71     -0.01
    6    0   -3      0.55      0.00
   -6    0    3      0.55      0.00
   -5    0    3     -4.49     -0.09
    5    0   -3     -4.49      0.09
   -4    0    3      2.69     -0.04
    4    0   -3      2.69      0.04
   -3    0    3     -5.43      0.07
    3    0   -3     -5.43     -0.07
   -2    0    3      3.08      0.04
    2    0   -3      3.08     -0.04
    2    0   -3      3.08     -0.04
    2    0   -3      3.08     -0.04
    1    0   -3      3.11     -0.07
   -1    0    3      3.11      0.07
    0    0    3     -8.35      0.11
    0    0   -3     -8.35     -0.11
    0    0   -3     -8.35     -0.11
    0    0   -3     -8.35     -0.11
   -1    0   -3      4.34      0.03
   -1    0   -3      4.34      0.03
   -1    0   -3      4.34      0.03
   -2    0   -3      5.25      0.17
   -2    0   -3      5.25      0.17
   -3    0   -3     -2.86     -0.02
   -3    0   -3     -2.86     -0.02
   -4    0   -3     -2.72      0.01
   -5    0   -3     -1.45      0.02
   -5    0   -3     -1.45      0.02
   -5    0   -3     -1.45      0.02
   -6    0   -3     -1.47      0.06
   -6    0   -3     -1.47      0.06
   -6    0   -3     -1.47      0.06
   -6    0   -3     -1.47      0.06
   -7    0   -3      0.05      0.03
   -7    0   -3      0.05      0.03
   -7    0   -3      0.05      0.03
   -8    0   -3      0.10     -0.08
   -8    0   -3      0.10     -0.08
   -8    0   -3      0.10     -0.08
   -9    0   -3      0.11      0.02
   -9    0   -3      0.11      0.02
   11    1   -4     -0.40     -0.02
   10    1   -4     -0.12     -0.02
  -10   -1    4     -0.12      0.02
   10    1   -4     -0.12     -0.02
    9    1   -4     -0.57     -0.01
    9    1   -4     -0.57     -0.01
   -9   -1    4     -0.57      0.01
    8    1   -4     -1.47     -0.01
   -8   -1    4     -1.47      0.01
    7    1   -4     -3.94     -0.07
   -7   -1    4     -3.94      0.07
    7    1   -4     -3.94     -0.07
    6    1   -4      1.61      0.09
    6    1   -4      1.61      0.09
    5    1   -4      1.34      0.07
    5    1   -4      1.34      0.07
    4    1   -4     -0.59     -0.08
    4    1   -4     -0.59     -0.08
   -3   -1    4     -1.00      0.00
    3    1   -4     -1.00      0.00
    3    1   -4     -1.00      0.00
    3    1   -4     -1.00      0.00
    2    1   -4    -10.11      0.01
    2    1   -4    -10.11      0.01
    2    1   -4    -10.11      0.01
    1    1   -4      0.43     -0.04
    1    1   -4      0.43     -0.04
    1    1   -4      0.43     -0.04
    0   -1    4     -2.27      0.00
    0    1   -4     -2.27      0.00
    0    1   -4     -2.27      0.00
    0    1   -4     -2.27      0.00
   -1    1   -4     -2.12      0.04
   -1    1   -4     -2.12      0.04
   -1    1   -4     -2.12      0.04
   -2    1   -4    -11.90     -0.04
   -2    1   -4    -11.90     -0.04
   -3    1   -4      0.44      0.01
   -3    1   -4      0.44      0.01
   -4    1   -4     -0.90     -0.01
   -5    1   -4     -1.29     -0.04
   -5    1   -4     -1.29     -0.04
   -5    1   -4     -1.29     -0.04
   -5    1   -4     -1.29     -0.04
   -5    1   -4     -1.29     -0.04
   -6    1   -4      0.02      0.04
   -6    1   -4      0.02      0.04
   -6    1   -4      0.02      0.04
   -6    1   -4      0.02      0.04
   -6    1   -4      0.02      0.04
   -7    1   -4     -1.18     -0.03
   -7    1   -4     -1.18     -0.03
   -7    1   -4     -1.18     -0.03
   -8    1   -4     -1.09     -0.01
   -8    1   -4     -1.09     -0.01
   -9    1   -4     -0.63     -0.01
   -9    1   -4     -0.63     -0.01
   -9    1   -4     -0.63     -0.01
   10    2   -5     -0.02      0.03
   10    2   -5     -0.02      0.03
  -10   -2    5     -0.02     -0.03
   -9   -2    5     -0.05      0.08
    9    2   -5     -0.05     -0.08
    9    2   -5     -0.05     -0.08
    8    2   -5     -1.18      0.01
   -8   -2    5     -1.18     -0.01
    7    2   -5      2.54      0.04
   -7   -2    5      2.54     -0.04
    7    2   -5      2.54      0.04
   -6   -2    5     -1.47     -0.04
    6    2   -5     -1.47      0.04
    6    2   -5     -1.47      0.04
    5    2   -5      3.20      0.02
    4    2   -5      1.64      0.01
    4    2   -5      1.64      0.01
    4    2   -5      1.64      0.01
    3    2   -5      3.18      0.00
    3    2   -5      3.18      0.00
    3    2   -5      3.18      0.00
    2    2   -5      8.77      0.03
    2    2   -5      8.77      0.03
    2    2   -5      8.77      0.03
    1    2   -5     -4.47     -0.01
    1    2   -5     -4.47     -0.01
    1    2   -5     -4.47     -0.01
    0    2   -5     -0.61     -0.07
    0    2   -5     -0.61     -0.07
    0    2   -5     -0.61     -0.07
   -1    2   -5     -3.58     -0.03
   -1    2   -5     -3.58     -0.03
   -1    2   -5     -3.58     -0.03
   -2    2   -5      3.18     -0.02
   -2    2   -5      3.18     -0.02
   -3    2   -5     -3.90      0.02
   -3    2   -5     -3.90      0.02
   -4    2   -5     -0.09     -0.02
   -5    2   -5      0.96      0.04
   -5    2   -5      0.96      0.04
   -5    2   -5      0.96      0.04
   -5    2   -5      0.96      0.04
   -5    2   -5      0.96      0.04
   -5    2   -5      0.96      0.04
   -6    2   -5      0.05      0.01
   -6    2   -5      0.05      0.01
   -6    2   -5      0.05      0.01
   -6    2   -5      0.05      0.01
   -7    2   -5      0.85      0.00
   -7    2   -5      0.85      0.00
   -7    2   -5      0.85      0.00
   -8    2   -5      0.57     -0.06
   -8    2   -5      0.57     -0.06
   -8    2   -5      0.57     -0.06
   -9    2   -5     -0.62     -0.03
   -9    2   -5     -0.62     -0.03
   -9    2   -5     -0.62     -0.03
   10    3   -6     -0.11      0.00
   10    3   -6     -0.11      0.00
    9    3   -6      0.23     -0.04
    9    3   -6      0.23     -0.04
   -9   -3    6      0.23      0.04
    8    3   -6      0.38     -0.01
   -8   -3    6      0.38      0.01
    7    3   -6     -1.83      0.10
   -7   -3    6     -1.83     -0.10
   -6   -3    6      1.95      0.06
    6    3   -6      1.95     -0.06
    5    3   -6     -2.00     -0.05
    5    3   -6     -2.00     -0.05
    4    3   -6      2.98      0.00
    4    3   -6      2.98      0.00
    3    3   -6      3.03      0.03
    3    3   -6      3.03      0.03
    3    3   -6      3.03      0.03
    2    3   -6     -0.23     -0.04
    2    3   -6     -0.23     -0.04
    2    3   -6     -0.23     -0.04
    1    3   -6      1.89     -0.02
    1    3   -6      1.89     -0.02
    1    3   -6      1.89     -0.02
    0    3   -6     -2.13      0.05
    0    3   -6     -2.13      0.05
   -1    3   -6     -4.57      0.01
   -2    3   -6     -3.79      0.02
   -2    3   -6     -3.79      0.02
   -3    3   -6     -0.04     -0.08
   -3    3   -6     -0.04     -0.08
   -4    3   -6     -0.78      0.01
   -4    3   -6     -0.78      0.01
   -4    3   -6     -0.78      0.01
   -4    3   -6     -0.78      0.01
   -4    3   -6     -0.78      0.01
   -4    3   -6     -0.78      0.01
   -5    3   -6     -0.45      0.00
   -5    3   -6     -0.45      0.00
   -5    3   -6     -0.45      0.00
   -5    3   -6     -0.45      0.00
   -5    3   -6     -0.45      0.00
   -5    3   -6     -0.45      0.00
   -6    3   -6      1.27      0.08
   -6    3   -6      1.27      0.08
   -6    3   -6      1.27      0.08
   -6    3   -6      1.27      0.08
   -7    3   -6      0.37      0.06
   -7    3   -6      0.37      0.06
   -7    3   -6      0.37      0.06
   -7    3   -6      0.37      0.06
   -8    3   -6     -1.32      0.00
   -8    3   -6     -1.32      0.00
   -8    3   -6     -1.32      0.00
   -9    3   -6     -0.13     -0.07
   10    4   -7      0.55     -0.01
    9    4   -7     -0.48      0.02
    9    4   -7     -0.48      0.02
   -8   -4    7      0.53      0.01
    8    4   -7      0.53     -0.01
   -7   -4    7      1.42      0.22
    7    4   -7      1.42     -0.22
    6    4   -7     -1.62     -0.02
   -6   -4    7     -1.62      0.02
    6    4   -7     -1.62     -0.02
    5    4   -7      1.89      0.03
    5    4   -7      1.89      0.03
    5    4   -7      1.89      0.03
    4    4   -7     -0.17     -0.03
    4    4   -7     -0.17     -0.03
    4    4   -7     -0.17     -0.03
    4    4   -7     -0.17     -0.03
    3    4   -7      2.15     -0.06
    3    4   -7      2.15     -0.06
    3    4   -7      2.15     -0.06
    2    4   -7      1.30     -0.04
    2    4   -7      1.30     -0.04
    2    4   -7      1.30     -0.04
    1    4   -7      1.04      0.06
    1    4   -7      1.04      0.06
    0    4   -7     -2.84      0.06
   -1    4   -7     -0.04     -0.05
   -2    4   -7     -0.86     -0.12
   -2    4   -7     -0.86     -0.12
   -2    4   -7     -0.86     -0.12
   -2    4   -7     -0.86     -0.12
   -2    4   -7     -0.86     -0.12
   -3    4   -7     -0.80      0.13
   -3    4   -7     -0.80      0.13
   -3    4   -7     -0.80      0.13
   -3    4   -7     -0.80      0.13
   -3    4   -7     -0.80      0.13
   -3    4   -7     -0.80      0.13
   -4    4   -7     -0.01      0.01
   -4    4   -7     -0.01      0.01
   -4    4   -7     -0.01      0.01
   -4    4   -7     -0.01      0.01
   -4    4   -7     -0.01      0.01
   -5    4   -7     -0.60     -0.01
   -5    4   -7     -0.60     -0.01
   -5    4   -7     -0.60     -0.01
   -5    4   -7     -0.60     -0.01
   -5    4   -7     -0.60     -0.01
   -6    4   -7      0.63      0.01
   -6    4   -7      0.63      0.01
   -6    4   -7      0.63      0.01
   -6    4   -7      0.63      0.01
   -6    4   -7      0.63      0.01
   -7    4   -7     -0.16      0.04
   -7    4   -7     -0.16      0.04
   -7    4   -7     -0.16      0.04
   -8    4   -7      1.57     -0.01
   -8    4   -7      1.57     -0.01
    9    5   -8      0.06     -0.03
    9    5   -8      0.06     -0.03
    8    5   -8     -0.19     -0.02
    8    5   -8     -0.19     -0.02
   -7   -5    8      0.39     -0.05
    7    5   -8      0.39      0.05
    6    5   -8      1.71      0.01
    6    5   -8      1.71      0.01
   -6   -5    8      1.71     -0.01
    5    5   -8      0.50      0.08
    5    5   -8      0.50      0.08
    4    5   -8      0.62      0.01
    4    5   -8      0.62      0.01
    4    5   -8      0.62      0.01
    4    5   -8      0.62      0.01
    3    5   -8      1.09      0.02
    3    5   -8      1.09      0.02
    3    5   -8      1.09      0.02
    3    5   -8      1.09      0.02
    2    5   -8      1.42     -0.01
    2    5   -8      1.42     -0.01
    2    5   -8      1.42     -0.01
    2    5   -8      1.42     -0.01
    1    5   -8      0.58      0.01
    1    5   -8      0.58      0.01
    1    5   -8      0.58      0.01
    1    5   -8      0.58      0.01
    1    5   -8      0.58      0.01
    1    5   -8      0.58      0.01
    0    5   -8      2.87      0.10
    0    5   -8      2.87      0.10
    0    5   -8      2.87      0.10
    0    5   -8      2.87      0.10
    0    5   -8      2.87      0.10
    0    5   -8      2.87      0.10
   -1    5   -8      0.25      0.00
   -1    5   -8      0.25      0.00
   -1    5   -8      0.25      0.00
   -1    5   -8      0.25      0.00
   -1    5   -8      0.25      0.00
   -2    5   -8      2.06      0.07
   -2    5   -8      2.06      0.07
   -2    5   -8      2.06      0.07
   -2    5   -8      2.06      0.07
   -2    5   -8      2.06      0.07
   -3    5   -8      2.67     -0.07
   -3    5   -8      2.67     -0.07
   -3    5   -8      2.67     -0.07
   -3    5   -8      2.67     -0.07
   -4    5   -8      0.22     -0.03
   -4    5   -8      0.22     -0.03
   -4    5   -8      0.22     -0.03
   -4    5   -8      0.22     -0.03
   -5    5   -8      1.80      0.01
   -5    5   -8      1.80      0.01
   -5    5   -8      1.80      0.01
   -5    5   -8      1.80      0.01
   -6    5   -8     -1.30      0.02
   -6    5   -8     -1.30      0.02
   -6    5   -8     -1.30      0.02
   -7    5   -8      0.32     -0.06
   -7    5   -8      0.32     -0.06
   -8    5   -8     -0.03      0.07
    8    6   -9     -0.07     -0.02
    7    6   -9     -0.09      0.01
    6    6   -9     -0.38      0.03
    6    6   -9     -0.38      0.03
    5    6   -9      0.39     -0.01
    5    6   -9      0.39     -0.01
    4    6   -9      1.75     -0.02
    4    6   -9      1.75     -0.02
    4    6   -9      1.75     -0.02
    3    6   -9     -1.47      0.01
    3    6   -9     -1.47      0.01
    2    6   -9     -0.99      0.00
    2    6   -9     -0.99      0.00
    2    6   -9     -0.99      0.00
    2    6   -9     -0.99      0.00
    1    6   -9     -1.34      0.06
    1    6   -9     -1.34      0.06
    1    6   -9     -1.34      0.06
    1    6   -9     -1.34      0.06
    1    6   -9     -1.34      0.06
    0    6   -9      0.55     -0.02
    0    6   -9      0.55     -0.02
    0    6   -9      0.55     -0.02
    0    6   -9      0.55     -0.02
    0    6   -9      0.55     -0.02
    0    6   -9      0.55     -0.02
    0    6   -9      0.55     -0.02
   -1    6   -9      1.60     -0.06
   -1    6   -9      1.60     -0.06
   -1    6   -9      1.60     -0.06
   -1    6   -9      1.60     -0.06
   -1    6   -9      1.60     -0.06
   -2    6   -9      0.05     -0.10
   -2    6   -9      0.05     -0.10
   -2    6   -9      0.05     -0.10
   -3    6   -9     -0.49     -0.04
   -3    6   -9     -0.49     -0.04
   -3    6   -9     -0.49     -0.04
   -4    6   -9      1.27     -0.03
   -4    6   -9      1.27     -0.03
   -4    6   -9      1.27     -0.03
   -5    6   -9     -0.33      0.00
   -5    6   -9     -0.33      0.00
   -6    6   -9      0.39     -0.03
   -6    6   -9      0.39     -0.03
   -7    6   -9     -0.46      0.00
   -7    6   -9     -0.46      0.00
    7    7  -10     -1.42     -0.01
    6    7  -10      0.05     -0.04
    6    7  -10      0.05     -0.04
    5    7  -10      0.12     -0.07
    5    7  -10      0.12     -0.07
    4    7  -10      0.30      0.03
    4    7  -10      0.30      0.03
    3    7  -10      0.21     -0.03
    3    7  -10      0.21     -0.03
    3    7  -10      0.21     -0.03
    2    7  -10     -0.71     -0.05
    2    7  -10     -0.71     -0.05
    2    7  -10     -0.71     -0.05
    1    7  -10      0.09     -0.01
    1    7  -10      0.09     -0.01
    1    7  -10      0.09     -0.01
    0    7  -10     -1.06      0.05
    0    7  -10     -1.06      0.05
    0    7  -10     -1.06      0.05
    0    7  -10     -1.06      0.05
   -1    7  -10     -1.30      0.00
   -1    7  -10     -1.30      0.00
   -2    7  -10      0.31     -0.07
   -2    7  -10      0.31     -0.07
   -3    7  -10      0.50      0.04
   -3    7  -10      0.50      0.04
   -4    7  -10     -0.44      0.04
   -4    7  -10     -0.44      0.04
   -5    7  -10     -1.60      0.01
   -5    7  -10     -1.60      0.01
   -6    7  -10     -0.74     -0.01
   -6    7  -10     -0.74     -0.01
    6    8  -11     -0.26      0.01
    6    8  -11     -0.26      0.01
    5    8  -11      0.32      0.00
    5    8  -11      0.32      0.00
    4    8  -11     -0.76     -0.01
    4    8  -11     -0.76     -0.01
    3    8  -11     -0.74     -0.10
    3    8  -11     -0.74     -0.10
    2    8  -11     -0.93     -0.08
    2    8  -11     -0.93     -0.08
    2    8  -11     -0.93     -0.08
    1    8  -11      0.06     -0.01
    1    8  -11      0.06     -0.01
    1    8  -11      0.06     -0.01
    0    8  -11     -0.10      0.00
    0    8  -11     -0.10      0.00
    0    8  -11     -0.10      0.00
   -1    8  -11     -0.32     -0.05
   -1    8  -11     -0.32     -0.05
   -2    8  -11     -1.35      0.31
   -2    8  -11     -1.35      0.31
   -3    8  -11     -0.58     -0.08
   -3    8  -11     -0.58     -0.08
   -4    8  -11     -0.80      0.06
   -4    8  -11     -0.80      0.06
   -5    8  -11     -0.28      0.00
   -5    8  -11     -0.28      0.00
    4    9  -12     -1.27     -0.01
    4    9  -12     -1.27     -0.01
    3    9  -12     -0.90     -0.01
    3    9  -12     -0.90     -0.01
    2    9  -12     -0.27      0.07
    2    9  -12     -0.27      0.07
    1    9  -12     -0.73      0.00
    1    9  -12     -0.73      0.00
    1    9  -12     -0.73      0.00
    0    9  -12     -1.02     -0.05
    0    9  -12     -1.02     -0.05
   -1    9  -12      0.69      0.00
   -2    9  -12      0.18     -0.42
   -2    9  -12      0.18     -0.42
   -3    9  -12     -0.88      0.03
   -3    9  -12     -0.88      0.03
   -2   13   -9      0.16      0.02
   -1   13   -9     -0.15     -0.02
    0   13   -9      0.49     -0.07
    0   13   -9      0.49     -0.07
    1   13   -9      0.00     -0.08
   -5   12   -8      0.49     -0.05
   -4   12   -8      0.63     -0.01
   -3   12   -8      1.22      0.00
   -2   12   -8      0.45      0.06
   -2   12   -8      0.45      0.06
   -1   12   -8      0.67      0.01
   -1   12   -8      0.67      0.01
    0   12   -8     -0.62      0.07
    0   12   -8     -0.62      0.07
    1   12   -8     -0.04      0.12
    1   12   -8     -0.04      0.12
    2   12   -8     -0.40      0.07
    2   12   -8     -0.40      0.07
    3   12   -8      0.59      0.04
   -3  -12    8      0.59     -0.04
   -4  -12    8      1.06      0.04
   -6   11   -7      1.12      0.01
   -5   11   -7      1.43      0.00
   -5   11   -7      1.43      0.00
   -4   11   -7      0.91     -0.01
   -4   11   -7      0.91     -0.01
   -3   11   -7      0.94      0.05
   -3   11   -7      0.94      0.05
   -3   11   -7      0.94      0.05
   -2   11   -7      0.84     -0.04
   -2   11   -7      0.84     -0.04
   -2   11   -7      0.84     -0.04
   -1   11   -7      0.99      0.05
   -1   11   -7      0.99      0.05
   -1   11   -7      0.99      0.05
    0   11   -7      0.50     -0.02
    0   11   -7      0.50     -0.02
    0   11   -7      0.50     -0.02
    1   11   -7     -0.32      0.06
    1   11   -7     -0.32      0.06
    1   11   -7     -0.32      0.06
    2   11   -7     -0.06      0.03
    2   11   -7     -0.06      0.03
    3   11   -7      0.27      0.06
    3   11   -7      0.27      0.06
    4   11   -7     -0.29      0.01
   -4  -11    7     -0.29     -0.01
   -5  -11    7      1.32     -0.03
   -7   10   -6     -0.01      0.01
   -7   10   -6     -0.01      0.01
   -6   10   -6      0.70      0.01
   -6   10   -6      0.70      0.01
   -5   10   -6      0.54     -0.02
   -5   10   -6      0.54     -0.02
   -4   10   -6      0.56     -0.03
   -4   10   -6      0.56     -0.03
   -3   10   -6      1.24     -0.02
   -3   10   -6      1.24     -0.02
   -2   10   -6      1.84      0.00
   -2   10   -6      1.84      0.00
   -1   10   -6      0.32      0.02
   -1   10   -6      0.32      0.02
    0   10   -6      0.00      0.07
    1   10   -6      0.25     -0.02
    1   10   -6      0.25     -0.02
    2   10   -6     -0.12      0.16
    2   10   -6     -0.12      0.16
    2   10   -6     -0.12      0.16
    3   10   -6      0.21      0.01
    3   10   -6      0.21      0.01
    4   10   -6      1.08      0.11
   -5  -10    6      0.55     -0.09
   -6  -10    6      3.00      0.00
   -8    9   -5     -0.83      0.05
   -7    9   -5     -1.30      0.03
   -6    9   -5     -1.60     -0.10
   -6    9   -5     -1.60     -0.10
   -5    9   -5     -1.09      0.01
   -5    9   -5     -1.09      0.01
   -4    9   -5     -0.28      0.09
   -4    9   -5     -0.28      0.09
   -3    9   -5     -0.89      0.06
   -3    9   -5     -0.89      0.06
   -3    9   -5     -0.89      0.06
   -2    9   -5     -0.55     -0.05
   -2    9   -5     -0.55     -0.05
   -1    9   -5     -1.16     -0.04
   -1    9   -5     -1.16     -0.04
    0    9   -5     -0.28      0.04
    0    9   -5     -0.28      0.04
    1    9   -5     -0.24      0.07
    1    9   -5     -0.24      0.07
    2    9   -5      0.80     -0.02
    2    9   -5      0.80     -0.02
    3    9   -5     -0.96      0.22
    4    9   -5     -0.02      0.16
   -5   -9    5      0.98      0.06
   -6   -9    5     -0.07      0.03
   -7   -9    5      1.41      0.01
   -9    8   -4     -1.25      0.04
   -8    8   -4     -0.84      0.00
   -7    8   -4     -0.38     -0.10
   -6    8   -4     -0.01     -0.04
   -6    8   -4     -0.01     -0.04
   -5    8   -4      0.26     -0.05
   -5    8   -4      0.26     -0.05
   -5    8   -4      0.26     -0.05
   -5    8   -4      0.26     -0.05
   -4    8   -4      0.16      0.03
   -4    8   -4      0.16      0.03
   -3    8   -4      1.31      0.02
   -3    8   -4      1.31      0.02
   -2    8   -4      1.42      0.04
   -2    8   -4      1.42      0.04
   -2    8   -4      1.42      0.04
   -1    8   -4      1.70      0.01
   -1    8   -4      1.70      0.01
    0    8   -4     -0.30      0.00
    0    8   -4     -0.30      0.00
    1    8   -4      1.18      0.07
    1    8   -4      1.18      0.07
    1    8   -4      1.18      0.07
    2    8   -4      0.95      0.02
    2    8   -4      0.95      0.02
    2    8   -4      0.95      0.02
    3    8   -4      1.96      0.09
   -5   -8    4      0.50     -0.02
   -6   -8    4     -0.39     -0.05
   -7   -8    4     -1.12     -0.07
   -8   -8    4     -0.51      0.01
  -10    7   -3     -0.84     -0.01
   -9    7   -3     -1.51     -0.02
   -8    7   -3      0.15      0.01
   -8    7   -3      0.15      0.01
   -7    7   -3      1.20      0.03
   -7    7   -3      1.20      0.03
   -6    7   -3      0.20      0.05
   -6    7   -3      0.20      0.05
   -6    7   -3      0.20      0.05
   -5    7   -3      0.59      0.03
   -5    7   -3      0.59      0.03
   -5    7   -3      0.59      0.03
   -5    7   -3      0.59      0.03
   -4    7   -3     -0.12     -0.02
   -4    7   -3     -0.12     -0.02
   -4    7   -3     -0.12     -0.02
   -3    7   -3      0.48     -0.03
   -2    7   -3      1.23      0.00
   -1    7   -3      0.04     -0.02
    0    7   -3      1.24     -0.04
    1    7   -3     -0.74      0.01
    1    7   -3     -0.74      0.01
    2    7   -3      1.15      0.02
    2    7   -3      1.15      0.02
    2    7   -3      1.15      0.02
    3    7   -3      1.74     -0.08
    3    7   -3      1.74     -0.08
    3    7   -3      1.74     -0.08
    4    7   -3     -0.01     -0.07
    4    7   -3     -0.01     -0.07
   -5   -7    3     -1.04     -0.05
   -6   -7    3     -0.86     -0.15
   -7   -7    3     -0.99      0.09
   -8   -7    3     -0.02      0.10
  -10    6   -2     -2.19      0.04
   -9    6   -2     -0.12      0.00
   -9    6   -2     -0.12      0.00
   -9    6   -2     -0.12      0.00
   -8    6   -2     -0.16     -0.02
   -7    6   -2      0.46      0.14
   -6    6   -2      1.58      0.01
   -6    6   -2      1.58      0.01
   -6    6   -2      1.58      0.01
   -5    6   -2     -0.81      0.04
   -5    6   -2     -0.81      0.04
   -5    6   -2     -0.81      0.04
   -4    6   -2     -0.02      0.00
   -3    6   -2     -0.96     -0.01
   -2    6   -2     -0.62      0.01
   -1    6   -2      1.37      0.04
    0    6   -2      0.10      0.05
    0    6   -2      0.10      0.05
    1    6   -2      0.06     -0.07
    1    6   -2      0.06     -0.07
    2    6   -2     -3.18      0.03
    2    6   -2     -3.18      0.03
    3    6   -2      0.03     -0.08
    3    6   -2      0.03     -0.08
    4    6   -2      0.57      0.00
   -4   -6    2      0.57      0.00
    4    6   -2      0.57      0.00
    5    6   -2     -1.35      0.16
    5    6   -2     -1.35      0.16
   -5   -6    2     -1.35     -0.16
   -5   -6    2     -1.35     -0.16
   -6   -6    2     -2.43      0.26
   -6   -6    2     -2.43      0.26
   -7   -6    2     -0.86     -0.06
   -8   -6    2     -0.65      0.04
  -11    5   -1     -0.52      0.02
  -10    5   -1      0.10     -0.03
  -10    5   -1      0.10     -0.03
  -10    5   -1      0.10     -0.03
   -9    5   -1     -1.03     -0.05
   -8    5   -1     -0.02     -0.04
    8   -5    1     -0.02      0.04
   -7    5   -1      1.86     -0.02
   -7    5   -1      1.86     -0.02
   -6    5   -1     -0.67      0.00
   -6    5   -1     -0.67      0.00
   -6    5   -1     -0.67      0.00
   -5    5   -1     -0.29      0.03
   -4    5   -1     -2.20     -0.14
   -3    5   -1      3.15     -0.07
   -2    5   -1      4.68      0.00
   -1    5   -1      3.03     -0.01
    0    5   -1     -0.63      0.07
    0    5   -1     -0.63      0.07
    1    5   -1      0.11      0.06
    1    5   -1      0.11      0.06
    2    5   -1      3.46     -0.07
    2    5   -1      3.46     -0.07
    3    5   -1      0.43     -0.04
    3    5   -1      0.43     -0.04
    4    5   -1     -0.99      0.05
   -4   -5    1     -0.99     -0.05
    4    5   -1     -0.99      0.05
    5    5   -1     -0.38      0.07
    5    5   -1     -0.38      0.07
   -5   -5    1     -0.38     -0.07
   -5   -5    1     -0.38     -0.07
   -5   -5    1     -0.38     -0.07
   -6   -5    1      0.58     -0.72
   -6   -5    1      0.58     -0.72
   -7   -5    1      0.39     -0.09
   -7   -5    1      0.39     -0.09
   -8   -5    1      1.99     -0.07
   -8   -5    1      1.99     -0.07
   -9   -5    1     -0.45     -0.01
  -11    4    0      0.37      0.01
  -11    4    0      0.37      0.01
  -10    4    0     -0.58      0.03
   10   -4    0     -0.58     -0.03
    9   -4    0      0.70      0.00
   -9    4    0      0.70      0.00
    8   -4    0      0.32      0.02
   -8    4    0      0.32     -0.02
   -7    4    0     -1.83     -0.09
    7   -4    0     -1.83      0.09
   -7    4    0     -1.83     -0.09
   -6    4    0     -0.66     -0.09
   -6    4    0     -0.66     -0.09
   -5    4    0     -1.45      0.01
   -4    4    0     -5.18      0.11
   -3    4    0     -7.37     -0.07
   -2    4    0     -8.18      0.06
   -1    4    0     -7.26      0.04
    0    4    0      4.38      0.03
    0    4    0      4.38      0.03
    1    4    0     -2.59      0.05
    1    4    0     -2.59      0.05
    2    4    0     -2.20      0.01
    2    4    0     -2.20      0.01
   -2   -4    0     -2.20     -0.01
    3    4    0     -0.64     -0.04
   -3   -4    0     -0.64      0.04
    3    4    0     -0.64     -0.04
    4    4    0      1.22     -0.09
    4    4    0      1.22     -0.09
   -4   -4    0      1.22      0.09
    5    4    0     -0.31      0.04
   -5   -4    0     -0.31     -0.04
    5    4    0     -0.31      0.04
   -5   -4    0     -0.31     -0.04
   -5   -4    0     -0.31     -0.04
   -5   -4    0     -0.31     -0.04
   -6   -4    0      0.82      0.03
   -6   -4    0      0.82      0.03
   -6   -4    0      0.82      0.03
   -7   -4    0      0.60     -0.21
   -7   -4    0      0.60     -0.21
   -7   -4    0      0.60     -0.21
   -8   -4    0     -0.19     -0.11
   -8   -4    0     -0.19     -0.11
   -9   -4    0     -0.44     -0.02
  -11    3    1      0.34      0.10
  -11    3    1      0.34      0.10
   11   -3   -1      0.34     -0.10
  -10    3    1      0.82      0.06
   10   -3   -1      0.82     -0.06
    9   -3   -1     -1.64     -0.03
   -9    3    1     -1.64      0.03
    8   -3   -1      0.10      0.05
   -8    3    1      0.10     -0.05
    7   -3   -1      1.13      0.17
    7   -3   -1      1.13      0.17
   -7    3    1      1.13     -0.17
   -7    3    1      1.13     -0.17
   -6    3    1      0.64     -0.18
   -6    3    1      0.64     -0.18
   -5    3    1     -9.20     -0.06
   -4    3    1     -4.41      0.00
   -3    3    1    -13.97      0.02
   -2    3    1    -10.15     -0.02
   -1    3    1     -0.35     -0.01
    0    3    1    -13.34      0.00
    0   -3   -1    -13.34      0.00
    0    3    1    -13.34      0.00
    1    3    1      6.18      0.05
    1    3    1      6.18      0.05
   -1   -3   -1      6.18     -0.05
   -1   -3   -1      6.18     -0.05
    2    3    1      4.60      0.00
   -2   -3   -1      4.60      0.00
    2    3    1      4.60      0.00
    3    3    1      2.74     -0.03
   -3   -3   -1      2.74      0.03
   -4   -3   -1      0.60      0.01
    4    3    1      0.60     -0.01
   -5   -3   -1      1.91      0.11
   -5   -3   -1      1.91      0.11
    5    3    1      1.91     -0.11
   -5   -3   -1      1.91      0.11
   -5   -3   -1      1.91      0.11
   -5   -3   -1      1.91      0.11
   -6   -3   -1     -0.08      0.11
   -6   -3   -1     -0.08      0.11
   -6   -3   -1     -0.08      0.11
   -6   -3   -1     -0.08      0.11
   -7   -3   -1      0.86      0.04
   -7   -3   -1      0.86      0.04
   -7   -3   -1      0.86      0.04
   -8   -3   -1     -0.23      0.03
   -8   -3   -1     -0.23      0.03
   -8   -3   -1     -0.23      0.03
   -9   -3   -1     -1.11      0.03
   11   -2   -2     -0.02      0.00
   11   -2   -2     -0.02      0.00
  -11    2    2     -0.02      0.00
   10   -2   -2      0.13      0.02
  -10    2    2      0.13     -0.02
    9   -2   -2      1.65      0.02
   -9    2    2      1.65     -0.02
    8   -2   -2      0.33      0.12
   -8    2    2      0.33     -0.12
    8   -2   -2      0.33      0.12
   -7    2    2      0.22     -0.24
    7   -2   -2      0.22      0.24
    7   -2   -2      0.22      0.24
   -7    2    2      0.22     -0.24
   -6    2    2     -0.86      0.00
   -5    2    2      7.43      0.00
   -4    2    2    -11.23     -0.04
   -3    2    2     -6.48      0.07
   -2    2    2     -9.60     -0.03
   -1    2    2    -10.34     -0.08
    0    2    2     16.99     -0.01
    0   -2   -2     16.99      0.01
   -1   -2   -2      3.56      0.08
    1    2    2      3.56     -0.08
    1    2    2      3.56     -0.08
   -1   -2   -2      3.56      0.08
    2    2    2      6.16     -0.03
   -2   -2   -2      6.16      0.03
   -3   -2   -2      5.11     -0.09
    3    2    2      5.11      0.09
    4    2    2      5.34      0.04
   -4   -2   -2      5.34     -0.04
   -5   -2   -2      1.91      0.05
   -5   -2   -2      1.91      0.05
   -5   -2   -2      1.91      0.05
   -5   -2   -2      1.91      0.05
   -5   -2   -2      1.91      0.05
   -6   -2   -2      1.26      0.03
   -6   -2   -2      1.26      0.03
   -6   -2   -2      1.26      0.03
   -6   -2   -2      1.26      0.03
   -7   -2   -2      0.34      0.01
   -7   -2   -2      0.34      0.01
   -7   -2   -2      0.34      0.01
   -8   -2   -2     -0.10     -0.01
   -8   -2   -2     -0.10     -0.01
   -8   -2   -2     -0.10     -0.01
   -9   -2   -2      0.68     -0.01
   -9   -2   -2      0.68     -0.01
   11   -1   -3      0.21      0.06
   10   -1   -3     -0.41     -0.05
  -10    1    3     -0.41      0.05
    9   -1   -3     -1.39      0.01
    9   -1   -3     -1.39      0.01
   -9    1    3     -1.39     -0.01
    8   -1   -3      0.29      0.10
    8   -1   -3      0.29      0.10
   -8    1    3      0.29     -0.10
    7   -1   -3      2.59      0.01
    7   -1   -3      2.59      0.01
    7   -1   -3      2.59      0.01
   -7    1    3      2.59     -0.01
    6   -1   -3      2.07      0.03
   -6    1    3      2.07     -0.03
   -5    1    3     -8.26      0.02
   -5    1    3     -8.26      0.02
   -4    1    3     -3.53     -0.01
   -3    1    3    -14.17     -0.09
   -2    1    3    -10.87     -0.08
    2   -1   -3    -10.87      0.08
   -1    1    3     -6.40      0.00
    1   -1   -3     -6.40      0.00
    0    1    3    -12.41      0.14
    0   -1   -3    -12.41     -0.14
    0   -1   -3    -12.41     -0.14
    0   -1   -3    -12.41     -0.14
   -1   -1   -3      4.13      0.01
    1    1    3      4.13     -0.01
    1    1    3      4.13     -0.01
   -1   -1   -3      4.13      0.01
   -2   -1   -3      7.14      0.07
   -2   -1   -3      7.14      0.07
    2    1    3      7.14     -0.07
   -3   -1   -3      2.55     -0.02
   -4   -1   -3      0.20     -0.01
   -5   -1   -3      1.47      0.03
   -5   -1   -3      1.47      0.03
   -5   -1   -3      1.47      0.03
   -5   -1   -3      1.47      0.03
   -5   -1   -3      1.47      0.03
   -5   -1   -3      1.47      0.03
   -6   -1   -3      0.33      0.05
   -6   -1   -3      0.33      0.05
   -6   -1   -3      0.33      0.05
   -6   -1   -3      0.33      0.05
   -7   -1   -3      0.12     -0.02
   -7   -1   -3      0.12     -0.02
   -7   -1   -3      0.12     -0.02
   -8   -1   -3      0.08     -0.08
   -8   -1   -3      0.08     -0.08
   -8   -1   -3      0.08     -0.08
   -9   -1   -3      0.24      0.01
   -9   -1   -3      0.24      0.01
   -9   -1   -3      0.24      0.01
   11    0   -4     -0.06     -0.02
   10    0   -4     -0.41      0.01
   10    0   -4     -0.41      0.01
    9    0   -4      1.21      0.03
    9    0   -4      1.21      0.03
   -9    0    4      1.21     -0.03
    8    0   -4      1.32      0.07
    8    0   -4      1.32      0.07
   -8    0    4      1.32     -0.07
    7    0   -4     -1.02      0.02
    7    0   -4     -1.02      0.02
   -7    0    4     -1.02     -0.02
    6    0   -4      1.49      0.02
    6    0   -4      1.49      0.02
    6    0   -4      1.49      0.02
    5    0   -4      1.41     -0.05
    5    0   -4      1.41     -0.05
    4    0   -4     -3.77     -0.07
   -4    0    4     -3.77      0.07
    4    0   -4     -3.77     -0.07
   -3    0    4     -3.11     -0.06
    3    0   -4     -3.11      0.06
    3    0   -4     -3.11      0.06
   -2    0    4     -9.82     -0.05
    2    0   -4     -9.82      0.05
    2    0   -4     -9.82      0.05
    2    0   -4     -9.82      0.05
    1    0   -4     -3.13     -0.09
   -1    0    4     -3.13      0.09
    1    0   -4     -3.13     -0.09
    1    0   -4     -3.13     -0.09
    0    0   -4      1.24     -0.02
    0    0   -4      1.24     -0.02
    0    0    4      1.24      0.02
    0    0   -4      1.24     -0.02
    1    0    4      0.87      0.03
   -1    0   -4      0.87     -0.03
   -1    0   -4      0.87     -0.03
   -1    0   -4      0.87     -0.03
   -2    0   -4     -5.00     -0.05
   -2    0   -4     -5.00     -0.05
   -2    0   -4     -5.00     -0.05
   -3    0   -4      3.53      0.00
   -4    0   -4      2.71      0.03
   -5    0   -4      1.25     -0.02
   -5    0   -4      1.25     -0.02
   -5    0   -4      1.25     -0.02
   -5    0   -4      1.25     -0.02
   -5    0   -4      1.25     -0.02
   -6    0   -4      1.24      0.01
   -6    0   -4      1.24      0.01
   -6    0   -4      1.24      0.01
   -6    0   -4      1.24      0.01
   -7    0   -4     -1.00      0.01
   -7    0   -4     -1.00      0.01
   -7    0   -4     -1.00      0.01
   -8    0   -4     -0.40      0.04
   -8    0   -4     -0.40      0.04
   -9    0   -4     -0.10     -0.01
   -9    0   -4     -0.10     -0.01
   -9    0   -4     -0.10     -0.01
   11    1   -5      0.54     -0.02
   10    1   -5      0.77      0.03
   10    1   -5      0.77      0.03
    9    1   -5      0.76     -0.02
    9    1   -5      0.76     -0.02
   -9   -1    5      0.76      0.02
    8    1   -5      0.70      0.02
    8    1   -5      0.70      0.02
   -8   -1    5      0.70     -0.02
    7    1   -5      3.53      0.01
    7    1   -5      3.53      0.01
    6    1   -5     -1.25      0.01
    6    1   -5     -1.25      0.01
    5    1   -5      1.35      0.01
    5    1   -5      1.35      0.01
    4    1   -5      1.79      0.06
    4    1   -5      1.79      0.06
    3    1   -5      2.84      0.04
    3    1   -5      2.84      0.04
    3    1   -5      2.84      0.04
    2    1   -5      8.09     -0.03
    2    1   -5      8.09     -0.03
    2    1   -5      8.09     -0.03
    1    1   -5     -0.52     -0.10
    1    1   -5     -0.52     -0.10
    1    1   -5     -0.52     -0.10
    0    1   -5      1.93     -0.22
    0    1   -5      1.93     -0.22
    0    1   -5      1.93     -0.22
   -1    1   -5     -0.63     -0.10
   -1    1   -5     -0.63     -0.10
   -1    1   -5     -0.63     -0.10
   -2    1   -5      7.16      0.02
   -2    1   -5      7.16      0.02
   -3    1   -5     -1.14      0.01
   -3    1   -5     -1.14      0.01
   -4    1   -5      1.10      0.05
   -4    1   -5      1.10      0.05
   -4    1   -5      1.10      0.05
   -5    1   -5      1.73      0.07
   -5    1   -5      1.73      0.07
   -5    1   -5      1.73      0.07
   -5    1   -5      1.73      0.07
   -6    1   -5      0.19     -0.04
   -6    1   -5      0.19     -0.04
   -6    1   -5      0.19     -0.04
   -6    1   -5      0.19     -0.04
   -7    1   -5      0.93     -0.05
   -7    1   -5      0.93     -0.05
   -7    1   -5      0.93     -0.05
   -7    1   -5      0.93     -0.05
   -7    1   -5      0.93     -0.05
   -8    1   -5      0.18     -0.01
   -8    1   -5      0.18     -0.01
   -8    1   -5      0.18     -0.01
   -9    1   -5     -0.66      0.02
   -9    1   -5     -0.66      0.02
   10    2   -6     -0.10     -0.02
   10    2   -6     -0.10     -0.02
    9    2   -6     -0.32     -0.03
    9    2   -6     -0.32     -0.03
    8    2   -6     -1.25     -0.07
    8    2   -6     -1.25     -0.07
    7    2   -6     -4.31     -0.01
    6    2   -6     -0.27     -0.15
    6    2   -6     -0.27     -0.15
    5    2   -6     -2.81      0.00
    5    2   -6     -2.81      0.00
    4    2   -6      1.16      0.08
    4    2   -6      1.16      0.08
    4    2   -6      1.16      0.08
    3    2   -6      1.82      0.04
    3    2   -6      1.82      0.04
    3    2   -6      1.82      0.04
    2    2   -6     -1.75     -0.03
    2    2   -6     -1.75     -0.03
    2    2   -6     -1.75     -0.03
    1    2   -6      3.31     -0.06
    1    2   -6      3.31     -0.06
    0    2   -6     -0.03     -0.05
    0    2   -6     -0.03     -0.05
   -1    2   -6     -1.35     -0.12
   -1    2   -6     -1.35     -0.12
   -1    2   -6     -1.35     -0.12
   -2    2   -6     -3.34     -0.01
   -2    2   -6     -3.34     -0.01
   -3    2   -6      0.77      0.05
   -3    2   -6      0.77      0.05
   -4    2   -6      0.02      0.08
   -4    2   -6      0.02      0.08
   -4    2   -6      0.02      0.08
   -4    2   -6      0.02      0.08
   -4    2   -6      0.02      0.08
   -5    2   -6     -0.49      0.01
   -5    2   -6     -0.49      0.01
   -5    2   -6     -0.49      0.01
   -5    2   -6     -0.49      0.01
   -5    2   -6     -0.49      0.01
   -5    2   -6     -0.49      0.01
   -6    2   -6      0.25      0.02
   -6    2   -6      0.25      0.02
   -6    2   -6      0.25      0.02
   -6    2   -6      0.25      0.02
   -6    2   -6      0.25      0.02
   -7    2   -6     -0.58     -0.01
   -7    2   -6     -0.58     -0.01
   -7    2   -6     -0.58     -0.01
   -7    2   -6     -0.58     -0.01
   -8    2   -6     -1.21     -0.03
   -8    2   -6     -1.21     -0.03
   -9    2   -6     -0.98     -0.01
   10    3   -7      0.18     -0.04
   10    3   -7      0.18     -0.04
    9    3   -7     -1.07     -0.02
    9    3   -7     -1.07     -0.02
    8    3   -7     -1.23     -0.09
    8    3   -7     -1.23     -0.09
    7    3   -7     -1.77     -0.34
    6    3   -7     -3.85     -0.14
    6    3   -7     -3.85     -0.14
    6    3   -7     -3.85     -0.14
    5    3   -7      1.51     -0.07
    5    3   -7      1.51     -0.07
    5    3   -7      1.51     -0.07
    4    3   -7     -0.31     -0.03
    4    3   -7     -0.31     -0.03
    4    3   -7     -0.31     -0.03
    4    3   -7     -0.31     -0.03
    4    3   -7     -0.31     -0.03
    4    3   -7     -0.31     -0.03
    3    3   -7      0.89      0.00
    3    3   -7      0.89      0.00
    3    3   -7      0.89      0.00
    2    3   -7      1.11      0.00
    2    3   -7      1.11      0.00
    1    3   -7      0.08      0.04
    1    3   -7      0.08      0.04
    0    3   -7     -1.90      0.04
    0    3   -7     -1.90      0.04
   -1    3   -7      1.34     -0.04
   -2    3   -7      0.54     -0.02
   -2    3   -7      0.54     -0.02
   -3    3   -7     -0.96      0.25
   -3    3   -7     -0.96      0.25
   -3    3   -7     -0.96      0.25
   -3    3   -7     -0.96      0.25
   -3    3   -7     -0.96      0.25
   -3    3   -7     -0.96      0.25
   -4    3   -7     -1.11      0.09
   -4    3   -7     -1.11      0.09
   -4    3   -7     -1.11      0.09
   -4    3   -7     -1.11      0.09
   -5    3   -7     -0.86     -0.02
   -5    3   -7     -0.86     -0.02
   -5    3   -7     -0.86     -0.02
   -5    3   -7     -0.86     -0.02
   -6    3   -7     -1.05      0.00
   -6    3   -7     -1.05      0.00
   -6    3   -7     -1.05      0.00
   -6    3   -7     -1.05      0.00
   -7    3   -7     -0.07     -0.03
   -7    3   -7     -0.07     -0.03
   -7    3   -7     -0.07     -0.03
   -8    3   -7      0.58     -0.01
   -8    3   -7      0.58     -0.01
    9    4   -8      0.94     -0.06
    9    4   -8      0.94     -0.06
    8    4   -8     -0.84     -0.14
    8    4   -8     -0.84     -0.14
    7    4   -8     -0.91      0.02
    7    4   -8     -0.91      0.02
    6    4   -8      1.95     -0.03
    6    4   -8      1.95     -0.03
    5    4   -8      0.34      0.01
    5    4   -8      0.34      0.01
    4    4   -8      1.60     -0.07
    4    4   -8      1.60     -0.07
    4    4   -8      1.60     -0.07
    3    4   -8      0.55      0.05
    3    4   -8      0.55      0.05
    3    4   -8      0.55      0.05
    3    4   -8      0.55      0.05
    3    4   -8      0.55      0.05
    2    4   -8      2.18     -0.01
    2    4   -8      2.18     -0.01
    2    4   -8      2.18     -0.01
    2    4   -8      2.18     -0.01
    2    4   -8      2.18     -0.01
    2    4   -8      2.18     -0.01
    1    4   -8     -0.67      0.01
    1    4   -8     -0.67      0.01
    1    4   -8     -0.67      0.01
    1    4   -8     -0.67      0.01
    1    4   -8     -0.67      0.01
    0    4   -8      1.50      0.02
    0    4   -8      1.50      0.02
    0    4   -8      1.50      0.02
    0    4   -8      1.50      0.02
   -1    4   -8     -1.16      0.09
   -1    4   -8     -1.16      0.09
   -1    4   -8     -1.16      0.09
   -1    4   -8     -1.16      0.09
   -1    4   -8     -1.16      0.09
   -2    4   -8      0.42      0.19
   -2    4   -8      0.42      0.19
   -2    4   -8      0.42      0.19
   -2    4   -8      0.42      0.19
   -2    4   -8      0.42      0.19
   -3    4   -8      0.60      0.00
   -3    4   -8      0.60      0.00
   -4    4   -8     -1.14      0.01
   -4    4   -8     -1.14      0.01
   -4    4   -8     -1.14      0.01
   -4    4   -8     -1.14      0.01
   -5    4   -8     -0.38      0.03
   -5    4   -8     -0.38      0.03
   -5    4   -8     -0.38      0.03
   -5    4   -8     -0.38      0.03
   -6    4   -8     -1.10      0.02
   -6    4   -8     -1.10      0.02
   -6    4   -8     -1.10      0.02
   -6    4   -8     -1.10      0.02
   -7    4   -8      0.71     -0.01
   -7    4   -8      0.71     -0.01
   -7    4   -8      0.71     -0.01
   -8    4   -8     -1.11      0.00
    9    5   -9      0.07      0.05
    8    5   -9     -0.30      0.02
    8    5   -9     -0.30      0.02
    7    5   -9     -0.48     -0.01
    6    5   -9     -0.79      0.05
    6    5   -9     -0.79      0.05
    5    5   -9      0.14      0.02
    5    5   -9      0.14      0.02
    4    5   -9      2.15      0.04
    4    5   -9      2.15      0.04
    4    5   -9      2.15      0.04
    3    5   -9      0.02     -0.06
    3    5   -9      0.02     -0.06
    3    5   -9      0.02     -0.06
    3    5   -9      0.02     -0.06
    2    5   -9     -1.16      0.11
    2    5   -9     -1.16      0.11
    2    5   -9     -1.16      0.11
    2    5   -9     -1.16      0.11
    2    5   -9     -1.16      0.11
    1    5   -9     -0.47     -0.04
    1    5   -9     -0.47     -0.04
    1    5   -9     -0.47     -0.04
    1    5   -9     -0.47     -0.04
    1    5   -9     -0.47     -0.04
    1    5   -9     -0.47     -0.04
    0    5   -9     -1.65     -0.04
    0    5   -9     -1.65     -0.04
    0    5   -9     -1.65     -0.04
    0    5   -9     -1.65     -0.04
    0    5   -9     -1.65     -0.04
    0    5   -9     -1.65     -0.04
   -1    5   -9      0.83      0.04
   -1    5   -9      0.83      0.04
   -1    5   -9      0.83      0.04
   -1    5   -9      0.83      0.04
   -1    5   -9      0.83      0.04
   -2    5   -9     -1.39      0.06
   -2    5   -9     -1.39      0.06
   -2    5   -9     -1.39      0.06
   -2    5   -9     -1.39      0.06
   -3    5   -9     -2.21     -0.01
   -3    5   -9     -2.21     -0.01
   -3    5   -9     -2.21     -0.01
   -4    5   -9     -0.26      0.00
   -4    5   -9     -0.26      0.00
   -4    5   -9     -0.26      0.00
   -4    5   -9     -0.26      0.00
   -5    5   -9     -1.63     -0.01
   -5    5   -9     -1.63     -0.01
   -5    5   -9     -1.63     -0.01
   -5    5   -9     -1.63     -0.01
   -6    5   -9      0.52     -0.04
   -6    5   -9      0.52     -0.04
   -7    5   -9     -0.87     -0.01
   -7    5   -9     -0.87     -0.01
    8    6  -10     -1.46      0.04
    7    6  -10     -1.71     -0.03
    6    6  -10     -0.26     -0.04
    6    6  -10     -0.26     -0.04
    5    6  -10      0.30      0.01
    5    6  -10      0.30      0.01
    4    6  -10     -0.90      0.09
    4    6  -10     -0.90      0.09
    3    6  -10      1.85      0.08
    3    6  -10      1.85      0.08
    3    6  -10      1.85      0.08
    2    6  -10      0.62     -0.03
    2    6  -10      0.62     -0.03
    2    6  -10      0.62     -0.03
    1    6  -10      0.93      0.04
    1    6  -10      0.93      0.04
    1    6  -10      0.93      0.04
    1    6  -10      0.93      0.04
    0    6  -10      0.13      0.03
    0    6  -10      0.13      0.03
    0    6  -10      0.13      0.03
    0    6  -10      0.13      0.03
    0    6  -10      0.13      0.03
   -1    6  -10     -0.76      0.02
   -1    6  -10     -0.76      0.02
   -1    6  -10     -0.76      0.02
   -1    6  -10     -0.76      0.02
   -2    6  -10      0.64     -0.05
   -2    6  -10      0.64     -0.05
   -2    6  -10      0.64     -0.05
   -3    6  -10      0.59     -0.01
   -3    6  -10      0.59     -0.01
   -3    6  -10      0.59     -0.01
   -4    6  -10     -0.75      0.00
   -4    6  -10     -0.75      0.00
   -4    6  -10     -0.75      0.00
   -5    6  -10     -0.41      0.01
   -5    6  -10     -0.41      0.01
   -6    6  -10      0.06      0.02
   -6    6  -10      0.06      0.02
    7    7  -11     -0.96     -0.02
    6    7  -11     -0.94     -0.06
    6    7  -11     -0.94     -0.06
    5    7  -11      0.61      0.01
    5    7  -11      0.61      0.01
    4    7  -11     -0.38      0.00
    4    7  -11     -0.38      0.00
    3    7  -11     -0.87     -0.03
    3    7  -11     -0.87     -0.03
    3    7  -11     -0.87     -0.03
    2    7  -11     -0.01      0.05
    2    7  -11     -0.01      0.05
    2    7  -11     -0.01      0.05
    1    7  -11     -0.19      0.03
    1    7  -11     -0.19      0.03
    1    7  -11     -0.19      0.03
    0    7  -11      0.53      0.02
    0    7  -11      0.53      0.02
   -1    7  -11      1.26     -0.01
   -1    7  -11      1.26     -0.01
   -2    7  -11      0.69      0.00
   -2    7  -11      0.69      0.00
   -3    7  -11      0.72     -0.05
   -3    7  -11      0.72     -0.05
   -4    7  -11      0.16      0.01
   -4    7  -11      0.16      0.01
   -5    7  -11      1.38      0.03
   -5    7  -11      1.38      0.03
    5    8  -12     -0.98      0.03
    5    8  -12     -0.98      0.03
    4    8  -12     -0.26     -0.02
    4    8  -12     -0.26     -0.02
    3    8  -12     -1.03      0.02
    3    8  -12     -1.03      0.02
    2    8  -12      0.26      0.02
    2    8  -12      0.26      0.02
    2    8  -12      0.26      0.02
    1    8  -12      0.13      0.01
    1    8  -12      0.13      0.01
    0    8  -12     -0.54      0.00
    0    8  -12     -0.54      0.00
   -1    8  -12      0.81     -0.13
   -1    8  -12      0.81     -0.13
   -2    8  -12      0.59     -0.34
   -2    8  -12      0.59     -0.34
   -3    8  -12      0.18     -0.04
   -3    8  -12      0.18     -0.04
   -4    8  -12      1.06     -0.02
   -4    8  -12      1.06     -0.02
    3    9  -13      0.68      0.02
    2    9  -13     -0.14      0.00
    0    9  -13      1.64      0.00
   -1    9  -13     -0.71     -0.05
   -4   13   -8      0.01      0.05
   -3   13   -8      1.20      0.00
   -2   13   -8      0.87     -0.02
   -2   13   -8      0.87     -0.02
   -1   13   -8      0.89      0.01
   -1   13   -8      0.89      0.01
    0   13   -8     -0.16     -0.02
    0   13   -8     -0.16     -0.02
    1   13   -8      0.82      0.16
   -5   12   -7      0.08      0.05
   -4   12   -7      0.91     -0.01
   -3   12   -7      0.51      0.06
   -3   12   -7      0.51      0.06
   -2   12   -7      0.53     -0.01
   -2   12   -7      0.53     -0.01
   -2   12   -7      0.53     -0.01
   -1   12   -7      0.14     -0.05
   -1   12   -7      0.14     -0.05
   -1   12   -7      0.14     -0.05
    0   12   -7      0.29     -0.10
    0   12   -7      0.29     -0.10
    0   12   -7      0.29     -0.10
    1   12   -7     -2.10     -0.35
    1   12   -7     -2.10     -0.35
    2   12   -7     -0.09     -0.04
    2   12   -7     -0.09     -0.04
    3   12   -7     -2.75      0.01
   -3  -12    7     -2.75     -0.01
   -4  -12    7     -2.71     -0.03
   -7   11   -6     -0.68     -0.03
   -6   11   -6      0.08      0.02
   -5   11   -6     -0.51     -0.03
   -5   11   -6     -0.51     -0.03
   -4   11   -6     -0.80     -0.02
   -4   11   -6     -0.80     -0.02
   -3   11   -6      1.45     -0.02
   -3   11   -6      1.45     -0.02
   -2   11   -6      1.45      0.00
   -1   11   -6     -0.33     -0.01
    0   11   -6     -0.81      0.03
    0   11   -6     -0.81      0.03
    1   11   -6      0.00     -0.06
    1   11   -6      0.00     -0.06
    2   11   -6     -1.65     -0.05
    2   11   -6     -1.65     -0.05
    3   11   -6     -1.84     -0.11
   -4  -11    6     -1.34     -0.01
   -5  -11    6     -1.72      0.04
   -8   10   -5     -1.20     -0.03
   -7   10   -5     -1.09      0.02
   -6   10   -5     -1.83      0.03
   -6   10   -5     -1.83      0.03
   -5   10   -5     -1.18      0.06
   -5   10   -5     -1.18      0.06
   -4   10   -5      0.23      0.06
   -4   10   -5      0.23      0.06
   -3   10   -5     -0.84      0.02
   -3   10   -5     -0.84      0.02
   -2   10   -5     -0.82     -0.04
   -2   10   -5     -0.82     -0.04
   -1   10   -5      0.20     -0.01
    0   10   -5      0.50     -0.14
    1   10   -5     -0.78      0.02
    1   10   -5     -0.78      0.02
    2   10   -5     -0.14     -0.23
    2   10   -5     -0.14     -0.23
    3   10   -5     -0.20      0.10
   -4  -10    5     -0.34      0.02
   -5  -10    5     -0.01      0.02
   -6  -10    5     -2.81     -0.04
   -9    9   -4     -1.07      0.03
   -8    9   -4     -0.24      0.01
   -7    9   -4      0.40     -0.01
   -6    9   -4      0.65      0.01
   -6    9   -4      0.65      0.01
   -5    9   -4      1.17      0.03
   -5    9   -4      1.17      0.03
   -4    9   -4      0.86     -0.01
   -4    9   -4      0.86     -0.01
   -3    9   -4      1.30     -0.02
   -3    9   -4      1.30     -0.02
   -2    9   -4      1.47      0.09
   -2    9   -4      1.47      0.09
   -1    9   -4      1.99      0.07
   -1    9   -4      1.99      0.07
    0    9   -4      1.11      0.00
    0    9   -4      1.11      0.00
    1    9   -4      1.00     -0.10
    1    9   -4      1.00     -0.10
    2    9   -4      0.19      0.12
    2    9   -4      0.19      0.12
   -4   -9    4      1.75      0.00
   -5   -9    4      1.30     -0.19
   -6   -9    4      1.01     -0.16
   -7   -9    4     -1.09     -0.09
  -10    8   -3     -0.25     -0.01
   -9    8   -3     -0.16      0.00
   -8    8   -3     -0.08      0.04
   -7    8   -3      0.87      0.05
   -6    8   -3      0.09      0.01
   -6    8   -3      0.09      0.01
   -5    8   -3     -0.02     -0.03
   -5    8   -3     -0.02     -0.03
   -5    8   -3     -0.02     -0.03
   -4    8   -3      0.93     -0.02
   -4    8   -3      0.93     -0.02
   -4    8   -3      0.93     -0.02
   -3    8   -3      1.24      0.00
   -3    8   -3      1.24      0.00
   -3    8   -3      1.24      0.00
   -2    8   -3      0.65      0.03
   -2    8   -3      0.65      0.03
   -2    8   -3      0.65      0.03
   -1    8   -3      0.45      0.03
   -1    8   -3      0.45      0.03
   -1    8   -3      0.45      0.03
    0    8   -3      0.70      0.07
    0    8   -3      0.70      0.07
    1    8   -3      0.42      0.03
    1    8   -3      0.42      0.03
    2    8   -3      0.17      0.12
    2    8   -3      0.17      0.12
    2    8   -3      0.17      0.12
    3    8   -3      0.55     -0.09
    3    8   -3      0.55     -0.09
   -4   -8    3     -0.04      0.02
   -5   -8    3      0.53      0.01
   -6   -8    3      1.34      0.00
   -7   -8    3      1.15      0.08
  -10    7   -2     -0.98      0.00
   -9    7   -2      0.15      0.05
   -8    7   -2     -0.59      0.02
   -8    7   -2     -0.59      0.02
   -7    7   -2     -1.48      0.02
   -7    7   -2     -1.48      0.02
   -6    7   -2     -0.34     -0.08
   -6    7   -2     -0.34     -0.08
   -6    7   -2     -0.34     -0.08
   -5    7   -2     -1.24     -0.06
   -5    7   -2     -1.24     -0.06
   -5    7   -2     -1.24     -0.06
   -5    7   -2     -1.24     -0.06
   -4    7   -2     -0.42      0.01
   -4    7   -2     -0.42      0.01
   -3    7   -2      0.00      0.05
   -2    7   -2      1.35      0.03
   -1    7   -2      2.86      0.01
    0    7   -2      1.44     -0.05
    1    7   -2     -0.24      0.02
    1    7   -2     -0.24      0.02
    2    7   -2     -2.03     -0.04
    2    7   -2     -2.03     -0.04
    2    7   -2     -2.03     -0.04
    3    7   -2     -2.25     -0.10
    3    7   -2     -2.25     -0.10
    3    7   -2     -2.25     -0.10
   -4   -7    2      0.54      0.09
   -4   -7    2      0.54      0.09
    4    7   -2      0.54     -0.09
   -5   -7    2     -0.06      0.20
   -5   -7    2     -0.06      0.20
   -6   -7    2     -0.51      0.48
   -7   -7    2      0.02      0.15
   -8   -7    2     -0.19      0.01
  -10    6   -1      0.90     -0.02
   -9    6   -1     -0.91     -0.02
   -9    6   -1     -0.91     -0.02
   -8    6   -1     -0.75      0.01
   -8    6   -1     -0.75      0.01
    7   -6    1     -0.41      0.07
   -7    6   -1     -0.41     -0.07
    7   -6    1     -0.41      0.07
    6   -6    1     -2.13      0.06
    6   -6    1     -2.13      0.06
   -6    6   -1     -2.13     -0.06
   -5    6   -1     -1.47      0.02
   -5    6   -1     -1.47      0.02
   -4    6   -1     -0.29      0.04
   -3    6   -1      2.07      0.05
   -2    6   -1      3.60     -0.01
   -1    6   -1      3.01     -0.12
    0    6   -1      0.76     -0.02
    1    6   -1      0.70      0.02
    1    6   -1      0.70      0.02
    2    6   -1      0.56     -0.10
    2    6   -1      0.56     -0.10
    3    6   -1     -1.24     -0.06
    3    6   -1     -1.24     -0.06
    4    6   -1     -0.69     -0.08
   -4   -6    1     -0.69      0.08
   -4   -6    1     -0.69      0.08
   -5   -6    1     -0.26      0.18
   -5   -6    1     -0.26      0.18
   -6   -6    1      0.86     -0.09
   -6   -6    1      0.86     -0.09
   -7   -6    1     -0.42      0.03
   -7   -6    1     -0.42      0.03
   -8   -6    1      1.46      0.04
  -11    5    0     -0.34      0.01
  -10    5    0     -0.99     -0.02
  -10    5    0     -0.99     -0.02
    9   -5    0      0.48     -0.05
    9   -5    0      0.48     -0.05
   -9    5    0      0.48      0.05
    8   -5    0     -0.57      0.01
    8   -5    0     -0.57      0.01
   -8    5    0     -0.57     -0.01
   -7    5    0     -2.42     -0.06
   -7    5    0     -2.42     -0.06
   -7    5    0     -2.42     -0.06
    7   -5    0     -2.42      0.06
    6   -5    0     -1.45     -0.02
   -6    5    0     -1.45      0.02
   -6    5    0     -1.45      0.02
   -5    5    0     -0.74      0.05
   -4    5    0     -2.51      0.10
   -3    5    0     -4.63     -0.03
   -2    5    0     -4.15     -0.09
   -1    5    0     -3.50     -0.02
    0    5    0      2.81     -0.01
    0    5    0      2.81     -0.01
    1    5    0     -1.11     -0.05
    1    5    0     -1.11     -0.05
    2    5    0     -3.94      0.00
    2    5    0     -3.94      0.00
    3    5    0     -2.31      0.04
    3    5    0     -2.31      0.04
   -4   -5    0      0.64      0.01
   -4   -5    0      0.64      0.01
    4    5    0      0.64     -0.01
   -4   -5    0      0.64      0.01
    4    5    0      0.64     -0.01
   -5   -5    0     -0.06      0.06
    5    5    0     -0.06     -0.06
   -5   -5    0     -0.06      0.06
   -5   -5    0     -0.06      0.06
   -6   -5    0     -1.14      0.05
   -6   -5    0     -1.14      0.05
   -7   -5    0     -0.27     -0.04
   -7   -5    0     -0.27     -0.04
   -7   -5    0     -0.27     -0.04
   -8   -5    0     -1.06     -0.06
   -8   -5    0     -1.06     -0.06
  -11    4    1     -0.41      0.02
   10   -4   -1      0.47     -0.08
  -10    4    1      0.47      0.08
   10   -4   -1      0.47     -0.08
    9   -4   -1     -0.99      0.00
   -9    4    1     -0.99      0.00
    8   -4   -1      0.89      0.03
   -8    4    1      0.89     -0.03
    7   -4   -1      0.97      0.07
   -7    4    1      0.97     -0.07
   -7    4    1      0.97     -0.07
   -6    4    1      0.17      0.00
    6   -4   -1      0.17      0.00
    6   -4   -1      0.17      0.00
   -5    4    1     -3.42      0.03
   -4    4    1      1.34      0.02
   -3    4    1     -1.36     -0.01
   -2    4    1     -0.36     -0.15
   -1    4    1      2.61      0.02
    0   -4   -1     -6.94      0.00
    0    4    1     -6.94      0.00
    1    4    1      2.09     -0.06
    1    4    1      2.09     -0.06
    2    4    1      2.36      0.05
    2    4    1      2.36      0.05
   -2   -4   -1      2.36     -0.05
    3    4    1      0.59      0.02
   -3   -4   -1      0.59     -0.02
    3    4    1      0.59      0.02
   -4   -4   -1     -1.01      0.02
   -4   -4   -1     -1.01      0.02
   -4   -4   -1     -1.01      0.02
    5    4    1      0.89      0.02
   -5   -4   -1      0.89     -0.02
   -5   -4   -1      0.89     -0.02
   -5   -4   -1      0.89     -0.02
   -5   -4   -1      0.89     -0.02
   -6   -4   -1     -0.31      0.02
   -6   -4   -1     -0.31      0.02
   -6   -4   -1     -0.31      0.02
   -7   -4   -1      0.36     -0.04
   -7   -4   -1      0.36     -0.04
   -7   -4   -1      0.36     -0.04
   -8   -4   -1      0.23      0.01
   -8   -4   -1      0.23      0.01
   -8   -4   -1      0.23      0.01
  -11    3    2     -0.26      0.00
   11   -3   -2     -0.26      0.00
  -10    3    2     -0.26     -0.01
   10   -3   -2     -0.26      0.01
    9   -3   -2      2.20      0.01
   -9    3    2      2.20     -0.01
    8   -3   -2      0.60      0.07
   -8    3    2      0.60     -0.07
    8   -3   -2      0.60      0.07
    7   -3   -2      0.35      0.03
   -7    3    2      0.35     -0.03
    7   -3   -2      0.35      0.03
   -6    3    2     -0.26      0.08
   -5    3    2      7.20     -0.04
   -4    3    2     -1.69      0.03
   -3    3    2      2.88      0.07
   -2    3    2      1.00      0.04
   -1    3    2     -2.50     -0.03
    1   -3   -2     -2.50      0.03
    0    3    2      9.88      0.03
    0   -3   -2      9.88     -0.03
    1    3    2     -1.06     -0.03
   -1   -3   -2     -1.06      0.03
    1    3    2     -1.06     -0.03
   -1   -3   -2     -1.06      0.03
    2    3    2     -0.70     -0.02
    2    3    2     -0.70     -0.02
   -2   -3   -2     -0.70      0.02
   -3   -3   -2      1.31     -0.02
    3    3    2      1.31      0.02
    4    3    2      1.47     -0.06
   -4   -3   -2      1.47      0.06
   -4   -3   -2      1.47      0.06
   -4   -3   -2      1.47      0.06
    5    3    2     -0.60      0.04
   -5   -3   -2     -0.60     -0.04
   -5   -3   -2     -0.60     -0.04
   -5   -3   -2     -0.60     -0.04
   -5   -3   -2     -0.60     -0.04
   -5   -3   -2     -0.60     -0.04
   -5   -3   -2     -0.60     -0.04
   -6   -3   -2      1.26     -0.01
   -6   -3   -2      1.26     -0.01
   -6   -3   -2      1.26     -0.01
   -7   -3   -2      0.76     -0.01
   -7   -3   -2      0.76     -0.01
   -7   -3   -2      0.76     -0.01
   -8   -3   -2      0.81      0.00
   -8   -3   -2      0.81      0.00
   -8   -3   -2      0.81      0.00
   11   -2   -3     -0.27     -0.01
   11   -2   -3     -0.27     -0.01
   10   -2   -3     -0.51     -0.06
  -10    2    3     -0.51      0.06
   -9    2    3     -1.22      0.00
    9   -2   -3     -1.22      0.00
    9   -2   -3     -1.22      0.00
    8   -2   -3     -0.10      0.02
   -8    2    3     -0.10     -0.02
    8   -2   -3     -0.10      0.02
    7   -2   -3      1.45     -0.10
    7   -2   -3      1.45     -0.10
    7   -2   -3      1.45     -0.10
   -7    2    3      1.45      0.10
   -6    2    3      1.03     -0.13
   -6    2    3      1.03     -0.13
   -5    2    3     -7.18     -0.03
   -4    2    3      1.19      0.01
   -3    2    3     -1.70     -0.01
    2   -2   -3     -0.15     -0.05
   -2    2    3     -0.15      0.05
   -1    2    3      1.78      0.05
    1   -2   -3      1.78     -0.05
    0    2    3     -8.56      0.07
    0   -2   -3     -8.56     -0.07
   -1   -2   -3      0.36     -0.07
    1    2    3      0.36      0.07
   -1   -2   -3      0.36     -0.07
    2    2    3      2.08      0.01
   -2   -2   -3      2.08     -0.01
   -2   -2   -3      2.08     -0.01
   -3   -2   -3     -0.55      0.06
   -4   -2   -3     -1.89      0.06
   -4   -2   -3     -1.89      0.06
   -4   -2   -3     -1.89      0.06
   -5   -2   -3      0.14      0.09
   -5   -2   -3      0.14      0.09
   -5   -2   -3      0.14      0.09
   -5   -2   -3      0.14      0.09
   -5   -2   -3      0.14      0.09
   -6   -2   -3     -0.04     -0.01
   -6   -2   -3     -0.04     -0.01
   -6   -2   -3     -0.04     -0.01
   -6   -2   -3     -0.04     -0.01
   -7   -2   -3      0.46      0.00
   -7   -2   -3      0.46      0.00
   -7   -2   -3      0.46      0.00
   -8   -2   -3      0.20      0.00
   -8   -2   -3      0.20      0.00
   -8   -2   -3      0.20      0.00
   -9   -2   -3      0.38      0.01
   11   -1   -4      0.32      0.01
   11   -1   -4      0.32      0.01
   10   -1   -4     -0.34      0.04
    9   -1   -4      0.99      0.01
    9   -1   -4      0.99      0.01
    8   -1   -4      0.82     -0.06
    8   -1   -4      0.82     -0.06
    7   -1   -4     -1.29      0.05
    7   -1   -4     -1.29      0.05
    7   -1   -4     -1.29      0.05
    7   -1   -4     -1.29      0.05
    6   -1   -4      0.77      0.06
    6   -1   -4      0.77      0.06
    6   -1   -4      0.77      0.06
    6   -1   -4      0.77      0.06
    5   -1   -4      3.06      0.03
    5   -1   -4      3.06      0.03
   -5    1    4      3.06     -0.03
    4   -1   -4     -0.35      0.00
    4   -1   -4     -0.35      0.00
   -4    1    4     -0.35      0.00
   -3    1    4      3.07      0.05
    3   -1   -4      3.07     -0.05
    3   -1   -4      3.07     -0.05
   -2    1    4      1.59      0.05
    2   -1   -4      1.59     -0.05
    2   -1   -4      1.59     -0.05
   -1    1    4      3.70      0.02
    1   -1   -4      3.70     -0.02
    0    1    4      8.25     -0.09
    0   -1   -4      8.25      0.09
   -1   -1   -4      4.04     -0.05
   -1   -1   -4      4.04     -0.05
    1    1    4      4.04      0.05
    2    1    4     -1.43      0.00
   -2   -1   -4     -1.43      0.00
   -2   -1   -4     -1.43      0.00
   -3   -1   -4      1.71      0.03
   -4   -1   -4      2.02      0.02
   -4   -1   -4      2.02      0.02
   -4   -1   -4      2.02      0.02
   -4   -1   -4      2.02      0.02
   -4   -1   -4      2.02      0.02
   -5   -1   -4      0.62     -0.02
   -5   -1   -4      0.62     -0.02
   -5   -1   -4      0.62     -0.02
   -5   -1   -4      0.62     -0.02
   -5   -1   -4      0.62     -0.02
   -6   -1   -4      1.22      0.00
   -6   -1   -4      1.22      0.00
   -6   -1   -4      1.22      0.00
   -7   -1   -4     -0.15      0.04
   -7   -1   -4     -0.15      0.04
   -7   -1   -4     -0.15      0.04
   -8   -1   -4      0.71      0.02
   -8   -1   -4      0.71      0.02
   -8   -1   -4      0.71      0.02
   -9   -1   -4      0.41     -0.03
   11    0   -5      0.89      0.02
   11    0   -5      0.89      0.02
   10    0   -5      1.49      0.07
   10    0   -5      1.49      0.07
    9    0   -5      0.32     -0.02
    9    0   -5      0.32     -0.02
    8    0   -5      0.95     -0.06
    8    0   -5      0.95     -0.06
    7    0   -5      3.91      0.02
    7    0   -5      3.91      0.02
    7    0   -5      3.91      0.02
    6    0   -5      0.01      0.02
    6    0   -5      0.01      0.02
    6    0   -5      0.01      0.02
    6    0   -5      0.01      0.02
    5    0   -5      0.81      0.02
    5    0   -5      0.81      0.02
    4    0   -5      1.35     -0.02
    4    0   -5      1.35     -0.02
    3    0   -5      1.77     -0.01
    3    0   -5      1.77     -0.01
    2    0   -5      5.69     -0.06
    2    0   -5      5.69     -0.06
    1    0   -5      2.32      0.03
    1    0   -5      2.32      0.03
    0    0   -5      3.44     -0.12
    0    0   -5      3.44     -0.12
    0    0    5      3.44      0.12
    1    0    5      2.06      0.00
   -1    0   -5      2.06      0.00
   -1    0   -5      2.06      0.00
   -1    0   -5      2.06      0.00
   -2    0   -5      8.37      0.09
   -2    0   -5      8.37      0.09
   -2    0   -5      8.37      0.09
   -3    0   -5      0.88      0.04
   -4    0   -5      0.39      0.01
   -4    0   -5      0.39      0.01
   -4    0   -5      0.39      0.01
   -4    0   -5      0.39      0.01
   -4    0   -5      0.39      0.01
   -4    0   -5      0.39      0.01
   -5    0   -5      0.38      0.01
   -5    0   -5      0.38      0.01
   -5    0   -5      0.38      0.01
   -5    0   -5      0.38      0.01
   -6    0   -5     -0.41     -0.03
   -6    0   -5     -0.41     -0.03
   -6    0   -5     -0.41     -0.03
   -7    0   -5      1.68     -0.11
   -7    0   -5      1.68     -0.11
   -7    0   -5      1.68     -0.11
   -8    0   -5      0.44      0.01
   -8    0   -5      0.44      0.01
   -9    0   -5     -0.54      0.00
   10    1   -6      0.36      0.02
   10    1   -6      0.36      0.02
    9    1   -6      0.80      0.01
    9    1   -6      0.80      0.01
    8    1   -6     -0.10     -0.03
    8    1   -6     -0.10     -0.03
    7    1   -6     -2.05      0.07
    7    1   -6     -2.05      0.07
    7    1   -6     -2.05      0.07
    6    1   -6      2.29     -0.03
    6    1   -6      2.29     -0.03
    6    1   -6      2.29     -0.03
    5    1   -6     -1.23      0.00
    5    1   -6     -1.23      0.00
    5    1   -6     -1.23      0.00
    4    1   -6     -1.07     -0.01
    4    1   -6     -1.07     -0.01
    3    1   -6     -1.51     -0.10
    3    1   -6     -1.51     -0.10
    2    1   -6     -5.62     -0.02
    2    1   -6     -5.62     -0.02
    1    1   -6      0.06     -0.04
    1    1   -6      0.06     -0.04
    0    1   -6     -0.92      0.05
    0    1   -6     -0.92      0.05
   -1    1   -6      0.58     -0.04
   -1    1   -6      0.58     -0.04
   -1    1   -6      0.58     -0.04
   -2    1   -6     -2.84     -0.02
   -2    1   -6     -2.84     -0.02
   -3    1   -6      1.70     -0.02
   -3    1   -6      1.70     -0.02
   -3    1   -6      1.70     -0.02
   -3    1   -6      1.70     -0.02
   -4    1   -6      0.23     -0.04
   -4    1   -6      0.23     -0.04
   -4    1   -6      0.23     -0.04
   -4    1   -6      0.23     -0.04
   -4    1   -6      0.23     -0.04
   -5    1   -6     -0.61     -0.01
   -5    1   -6     -0.61     -0.01
   -5    1   -6     -0.61     -0.01
   -5    1   -6     -0.61     -0.01
   -5    1   -6     -0.61     -0.01
   -6    1   -6     -0.11     -0.02
   -6    1   -6     -0.11     -0.02
   -6    1   -6     -0.11     -0.02
   -6    1   -6     -0.11     -0.02
   -7    1   -6     -0.78      0.02
   -7    1   -6     -0.78      0.02
   -7    1   -6     -0.78      0.02
   -8    1   -6     -0.87     -0.01
   -8    1   -6     -0.87     -0.01
   10    2   -7      0.41     -0.05
   10    2   -7      0.41     -0.05
    9    2   -7     -0.03      0.03
    9    2   -7     -0.03      0.03
    8    2   -7      0.60      0.05
    8    2   -7      0.60      0.05
    7    2   -7      0.91     -0.10
    7    2   -7      0.91     -0.10
    6    2   -7     -1.50      0.00
    6    2   -7     -1.50      0.00
    6    2   -7     -1.50      0.00
    5    2   -7      1.69     -0.02
    5    2   -7      1.69     -0.02
    5    2   -7      1.69     -0.02
    4    2   -7      0.30     -0.05
    4    2   -7      0.30     -0.05
    3    2   -7     -1.87      0.01
    3    2   -7     -1.87      0.01
    2    2   -7     -0.70      0.02
    2    2   -7     -0.70      0.02
    1    2   -7     -3.86      0.01
    1    2   -7     -3.86      0.01
    0    2   -7     -2.74     -0.02
    0    2   -7     -2.74     -0.02
   -1    2   -7      0.51      0.00
   -1    2   -7      0.51      0.00
   -2    2   -7      1.01     -0.09
   -2    2   -7      1.01     -0.09
   -2    2   -7      1.01     -0.09
   -2    2   -7      1.01     -0.09
   -3    2   -7     -0.75     -0.06
   -3    2   -7     -0.75     -0.06
   -3    2   -7     -0.75     -0.06
   -3    2   -7     -0.75     -0.06
   -3    2   -7     -0.75     -0.06
   -4    2   -7     -0.53     -0.03
   -4    2   -7     -0.53     -0.03
   -4    2   -7     -0.53     -0.03
   -4    2   -7     -0.53     -0.03
   -5    2   -7      0.65     -0.03
   -5    2   -7      0.65     -0.03
   -5    2   -7      0.65     -0.03
   -5    2   -7      0.65     -0.03
   -6    2   -7     -0.99      0.02
   -6    2   -7     -0.99      0.02
   -6    2   -7     -0.99      0.02
   -7    2   -7     -0.58      0.00
   -7    2   -7     -0.58      0.00
   -7    2   -7     -0.58      0.00
   -8    2   -7     -0.05      0.00
   -8    2   -7     -0.05      0.00
   10    3   -8     -0.32     -0.04
    9    3   -8      1.17     -0.07
    9    3   -8      1.17     -0.07
    8    3   -8     -0.54     -0.07
    8    3   -8     -0.54     -0.07
    7    3   -8     -0.57      0.09
    7    3   -8     -0.57      0.09
    6    3   -8      1.61      0.02
    6    3   -8      1.61      0.02
    6    3   -8      1.61      0.02
    5    3   -8     -0.27     -0.01
    5    3   -8     -0.27     -0.01
    4    3   -8     -0.38     -0.02
    4    3   -8     -0.38     -0.02
    4    3   -8     -0.38     -0.02
    4    3   -8     -0.38     -0.02
    4    3   -8     -0.38     -0.02
    3    3   -8     -1.35      0.09
    3    3   -8     -1.35      0.09
    3    3   -8     -1.35      0.09
    3    3   -8     -1.35      0.09
    3    3   -8     -1.35      0.09
    3    3   -8     -1.35      0.09
    2    3   -8     -1.09      0.10
    2    3   -8     -1.09      0.10
    2    3   -8     -1.09      0.10
    2    3   -8     -1.09      0.10
    2    3   -8     -1.09      0.10
    1    3   -8     -2.81      0.06
    1    3   -8     -2.81      0.06
    1    3   -8     -2.81      0.06
    0    3   -8     -0.88     -0.03
    0    3   -8     -0.88     -0.03
    0    3   -8     -0.88     -0.03
    0    3   -8     -0.88     -0.03
    0    3   -8     -0.88     -0.03
   -1    3   -8     -2.03      0.02
   -1    3   -8     -2.03      0.02
   -1    3   -8     -2.03      0.02
   -1    3   -8     -2.03      0.02
   -1    3   -8     -2.03      0.02
   -2    3   -8     -0.29     -0.02
   -2    3   -8     -0.29     -0.02
   -2    3   -8     -0.29     -0.02
   -2    3   -8     -0.29     -0.02
   -2    3   -8     -0.29     -0.02
   -3    3   -8      0.46     -0.14
   -3    3   -8      0.46     -0.14
   -3    3   -8      0.46     -0.14
   -3    3   -8      0.46     -0.14
   -4    3   -8      0.85     -0.06
   -4    3   -8      0.85     -0.06
   -4    3   -8      0.85     -0.06
   -4    3   -8      0.85     -0.06
   -5    3   -8      0.59      0.03
   -5    3   -8      0.59      0.03
   -5    3   -8      0.59      0.03
   -5    3   -8      0.59      0.03
   -6    3   -8      0.46      0.03
   -6    3   -8      0.46      0.03
   -6    3   -8      0.46      0.03
   -6    3   -8      0.46      0.03
   -7    3   -8     -0.15      0.03
   -7    3   -8     -0.15      0.03
   -7    3   -8     -0.15      0.03
    9    4   -9     -0.61      0.00
    9    4   -9     -0.61      0.00
    8    4   -9      0.14      0.03
    8    4   -9      0.14      0.03
    7    4   -9     -0.56      0.00
    7    4   -9     -0.56      0.00
    6    4   -9     -2.42      0.02
    6    4   -9     -2.42      0.02
    5    4   -9     -1.80     -0.06
    5    4   -9     -1.80     -0.06
    4    4   -9     -1.15      0.01
    4    4   -9     -1.15      0.01
    4    4   -9     -1.15      0.01
    3    4   -9     -1.75     -0.04
    3    4   -9     -1.75     -0.04
    3    4   -9     -1.75     -0.04
    3    4   -9     -1.75     -0.04
    3    4   -9     -1.75     -0.04
    3    4   -9     -1.75     -0.04
    2    4   -9     -4.34      0.12
    2    4   -9     -4.34      0.12
    2    4   -9     -4.34      0.12
    2    4   -9     -4.34      0.12
    2    4   -9     -4.34      0.12
    2    4   -9     -4.34      0.12
    1    4   -9     -1.14      0.00
    1    4   -9     -1.14      0.00
    1    4   -9     -1.14      0.00
    1    4   -9     -1.14      0.00
    1    4   -9     -1.14      0.00
    1    4   -9     -1.14      0.00
    0    4   -9     -3.02      0.06
    0    4   -9     -3.02      0.06
    0    4   -9     -3.02      0.06
    0    4   -9     -3.02      0.06
    0    4   -9     -3.02      0.06
    0    4   -9     -3.02      0.06
   -1    4   -9     -0.01      0.01
   -1    4   -9     -0.01      0.01
   -1    4   -9     -0.01      0.01
   -1    4   -9     -0.01      0.01
   -2    4   -9     -1.42      0.01
   -2    4   -9     -1.42      0.01
   -2    4   -9     -1.42      0.01
   -2    4   -9     -1.42      0.01
   -2    4   -9     -1.42      0.01
   -3    4   -9     -0.67     -0.03
   -3    4   -9     -0.67     -0.03
   -3    4   -9     -0.67     -0.03
   -4    4   -9      0.20      0.00
   -4    4   -9      0.20      0.00
   -4    4   -9      0.20      0.00
   -4    4   -9      0.20      0.00
   -5    4   -9     -0.49      0.00
   -5    4   -9     -0.49      0.00
   -5    4   -9     -0.49      0.00
   -5    4   -9     -0.49      0.00
   -6    4   -9      0.16     -0.03
   -6    4   -9      0.16     -0.03
   -6    4   -9      0.16     -0.03
   -7    4   -9     -0.92     -0.03
   -7    4   -9     -0.92     -0.03
    8    5  -10     -0.19      0.01
    7    5  -10     -0.23      0.02
    7    5  -10     -0.23      0.02
    6    5  -10      0.13      0.02
    6    5  -10      0.13      0.02
    5    5  -10      0.11     -0.02
    5    5  -10      0.11     -0.02
    4    5  -10     -2.69     -0.04
    4    5  -10     -2.69     -0.04
    4    5  -10     -2.69     -0.04
    3    5  -10      0.12      0.04
    3    5  -10      0.12      0.04
    3    5  -10      0.12      0.04
    2    5  -10      0.94     -0.05
    2    5  -10      0.94     -0.05
    2    5  -10      0.94     -0.05
    2    5  -10      0.94     -0.05
    1    5  -10     -0.07      0.10
    1    5  -10     -0.07      0.10
    1    5  -10     -0.07      0.10
    1    5  -10     -0.07      0.10
    0    5  -10      1.64      0.04
    0    5  -10      1.64      0.04
    0    5  -10      1.64      0.04
    0    5  -10      1.64      0.04
    0    5  -10      1.64      0.04
   -1    5  -10     -1.57      0.04
   -1    5  -10     -1.57      0.04
   -1    5  -10     -1.57      0.04
   -1    5  -10     -1.57      0.04
   -2    5  -10      0.19     -0.09
   -2    5  -10      0.19     -0.09
   -2    5  -10      0.19     -0.09
   -2    5  -10      0.19     -0.09
   -3    5  -10     -0.37      0.02
   -3    5  -10     -0.37      0.02
   -3    5  -10     -0.37      0.02
   -4    5  -10     -0.89      0.00
   -4    5  -10     -0.89      0.00
   -4    5  -10     -0.89      0.00
   -5    5  -10     -0.38      0.00
   -5    5  -10     -0.38      0.00
   -6    5  -10     -0.75      0.00
   -6    5  -10     -0.75      0.00
    7    6  -11      0.53      0.04
    6    6  -11      0.40     -0.04
    6    6  -11      0.40     -0.04
    5    6  -11      0.30      0.03
    5    6  -11      0.30      0.03
    4    6  -11      0.79     -0.02
    4    6  -11      0.79     -0.02
    3    6  -11     -0.60     -0.10
    3    6  -11     -0.60     -0.10
    3    6  -11     -0.60     -0.10
    2    6  -11      0.56     -0.02
    2    6  -11      0.56     -0.02
    2    6  -11      0.56     -0.02
    2    6  -11      0.56     -0.02
    1    6  -11      0.05     -0.07
    1    6  -11      0.05     -0.07
    1    6  -11      0.05     -0.07
    0    6  -11     -0.23      0.01
    0    6  -11     -0.23      0.01
    0    6  -11     -0.23      0.01
   -1    6  -11      1.01      0.03
   -1    6  -11      1.01      0.03
   -1    6  -11      1.01      0.03
   -2    6  -11     -0.22      0.04
   -2    6  -11     -0.22      0.04
   -2    6  -11     -0.22      0.04
   -3    6  -11     -0.31      0.03
   -3    6  -11     -0.31      0.03
   -4    6  -11     -0.11     -0.03
   -4    6  -11     -0.11     -0.03
   -5    6  -11      0.30     -0.02
   -5    6  -11      0.30     -0.02
    6    7  -12      0.01      0.00
    6    7  -12      0.01      0.00
    5    7  -12     -1.67      0.01
    5    7  -12     -1.67      0.01
    4    7  -12      0.52      0.03
    4    7  -12      0.52      0.03
    3    7  -12      0.40      0.03
    3    7  -12      0.40      0.03
    2    7  -12      0.93     -0.03
    2    7  -12      0.93     -0.03
    1    7  -12      0.23     -0.04
    1    7  -12      0.23     -0.04
    0    7  -12     -1.01     -0.07
   -1    7  -12     -0.79     -0.09
   -1    7  -12     -0.79     -0.09
   -2    7  -12     -0.28      0.05
   -2    7  -12     -0.28      0.05
   -3    7  -12     -0.10     -0.02
   -3    7  -12     -0.10     -0.02
   -4    7  -12      0.44     -0.03
   -4    7  -12      0.44     -0.03
    4    8  -13     -0.53      0.03
    3    8  -13      1.82      0.06
    2    8  -13      0.00      0.06
    1    8  -13     -0.19      0.01
    1    8  -13     -0.19      0.01
    0    8  -13     -0.01     -0.05
   -1    8  -13     -1.77      0.09
   -2    8  -13     -0.37      0.05
   -4   13   -7      1.10     -0.03
   -3   13   -7      0.09     -0.01
   -3   13   -7      0.09     -0.01
   -2   13   -7     -0.79      0.01
   -2   13   -7     -0.79      0.01
   -2   13   -7     -0.79      0.01
   -1   13   -7     -0.18     -0.01
   -1   13   -7     -0.18     -0.01
   -1   13   -7     -0.18     -0.01
    0   13   -7      0.85      0.02
    0   13   -7      0.85      0.02
    1   13   -7     -1.03     -0.54
   -2  -13    7      3.67      0.08
   -6   12   -6      0.68      0.00
   -5   12   -6      0.68     -0.06
   -4   12   -6     -0.85     -0.03
   -3   12   -6      0.95     -0.08
   -3   12   -6      0.95     -0.08
   -2   12   -6      0.85     -0.06
   -1   12   -6     -0.42      0.17
   -1   12   -6     -0.42      0.17
    0   12   -6      0.10      0.16
    0   12   -6      0.10      0.16
    1   12   -6      3.30      0.63
    1   12   -6      3.30      0.63
    2   12   -6     -0.05     -0.10
    3   12   -6      1.25     -0.09
   -3  -12    6      1.25      0.09
   -7   11   -5     -1.28     -0.02
   -6   11   -5     -2.16      0.02
   -5   11   -5     -1.40      0.05
   -4   11   -5      0.56      0.02
   -3   11   -5     -1.82     -0.04
   -2   11   -5     -1.90     -0.06
   -1   11   -5      0.22     -0.11
    0   11   -5      0.82     -0.03
    0   11   -5      0.82     -0.03
    1   11   -5     -1.04      0.03
    1   11   -5     -1.04      0.03
    3   11   -5     -0.53      0.06
   -4  -11    5     -1.59      0.04
   -5  -11    5     -1.37     -0.02
   -8   10   -4      0.10     -0.04
   -7   10   -4      0.13     -0.01
   -6   10   -4     -0.75     -0.02
   -5   10   -4     -0.72      0.07
   -5   10   -4     -0.72      0.07
   -4   10   -4     -1.13     -0.02
   -4   10   -4     -1.13     -0.02
   -3   10   -4     -0.52     -0.02
   -3   10   -4     -0.52     -0.02
   -2   10   -4     -0.20      0.01
   -1   10   -4      0.00     -0.13
    0   10   -4      0.10     -0.02
    1   10   -4      0.01     -0.08
    1   10   -4      0.01     -0.08
    2   10   -4     -1.19      0.14
   -4  -10    4     -0.23      0.02
   -5  -10    4     -0.14     -0.01
   -6  -10    4      1.29     -0.05
   -9    9   -3      0.54     -0.02
   -8    9   -3      0.45      0.01
   -7    9   -3      0.60      0.01
   -6    9   -3      0.03      0.09
   -6    9   -3      0.03      0.09
   -5    9   -3     -1.81     -0.03
   -5    9   -3     -1.81     -0.03
   -4    9   -3     -1.38     -0.01
   -4    9   -3     -1.38     -0.01
   -4    9   -3     -1.38     -0.01
   -3    9   -3     -1.39      0.00
   -3    9   -3     -1.39      0.00
   -3    9   -3     -1.39      0.00
   -2    9   -3     -1.90      0.01
   -2    9   -3     -1.90      0.01
   -2    9   -3     -1.90      0.01
   -1    9   -3     -1.29     -0.03
   -1    9   -3     -1.29     -0.03
    0    9   -3     -1.26     -0.02
    0    9   -3     -1.26     -0.02
    1    9   -3     -0.18      0.07
    1    9   -3     -0.18      0.07
    2    9   -3     -0.80     -0.01
   -4   -9    3      0.06      0.04
   -5   -9    3      0.78      0.10
   -6   -9    3      1.12      0.02
  -10    8   -2     -0.17     -0.01
   -9    8   -2      0.73     -0.01
   -8    8   -2      0.74     -0.05
   -7    8   -2     -0.53     -0.04
   -6    8   -2      0.57     -0.01
   -5    8   -2     -0.11     -0.04
   -5    8   -2     -0.11     -0.04
   -5    8   -2     -0.11     -0.04
   -4    8   -2     -1.20     -0.03
   -4    8   -2     -1.20     -0.03
   -4    8   -2     -1.20     -0.03
   -3    8   -2     -1.55      0.00
   -3    8   -2     -1.55      0.00
   -3    8   -2     -1.55      0.00
   -2    8   -2     -0.06      0.01
   -2    8   -2     -0.06      0.01
    1   -8    2     -0.50     -0.06
   -1    8   -2     -0.50      0.06
   -1    8   -2     -0.50      0.06
    0    8   -2     -0.18     -0.04
    0    8   -2     -0.18     -0.04
    1    8   -2     -1.23     -0.03
    1    8   -2     -1.23     -0.03
    2    8   -2     -1.27     -0.14
    2    8   -2     -1.27     -0.14
    2    8   -2     -1.27     -0.14
   -3   -8    2     -2.56     -0.02
   -4   -8    2      0.72     -0.04
   -4   -8    2      0.72     -0.04
   -5   -8    2      0.39     -0.01
   -5   -8    2      0.39     -0.01
   -6   -8    2      0.61      0.08
   -7   -8    2      0.26     -0.04
  -10    7   -1      1.69     -0.05
   -9    7   -1      0.85     -0.07
   -8    7   -1      1.10     -0.05
   -8    7   -1      1.10     -0.05
    7   -7    1      1.61      0.02
    7   -7    1      1.61      0.02
   -7    7   -1      1.61     -0.02
   -7    7   -1      1.61     -0.02
   -6    7   -1     -0.35     -0.05
    6   -7    1     -0.35      0.05
    6   -7    1     -0.35      0.05
   -6    7   -1     -0.35     -0.05
   -6    7   -1     -0.35     -0.05
   -5    7   -1      0.56      0.03
    5   -7    1      0.56     -0.03
    5   -7    1      0.56     -0.03
   -5    7   -1      0.56      0.03
    4   -7    1      1.19     -0.04
   -4    7   -1      1.19      0.04
   -3    7   -1      1.05      0.04
   -2    7   -1      1.44     -0.06
   -1    7   -1     -0.38      0.00
    0    7   -1     -2.47      0.14
    1    7   -1      0.40      0.01
    1    7   -1      0.40      0.01
    2    7   -1     -0.48      0.03
    2    7   -1     -0.48      0.03
    2    7   -1     -0.48      0.03
    3    7   -1     -0.28      0.05
   -4   -7    1     -1.57     -0.06
   -4   -7    1     -1.57     -0.06
   -5   -7    1      0.31     -0.12
   -5   -7    1      0.31     -0.12
   -6   -7    1      1.23     -0.29
   -6   -7    1      1.23     -0.29
   -7   -7    1     -0.08     -0.10
   -7   -7    1     -0.08     -0.10
  -10    6    0     -0.76     -0.06
    9   -6    0      0.86      0.00
    9   -6    0      0.86      0.00
   -9    6    0      0.86      0.00
   -9    6    0      0.86      0.00
    8   -6    0      0.33      0.00
    8   -6    0      0.33      0.00
   -8    6    0      0.33      0.00
   -8    6    0      0.33      0.00
    7   -6    0     -1.25      0.02
    7   -6    0     -1.25      0.02
   -7    6    0     -1.25     -0.02
   -7    6    0     -1.25     -0.02
   -6    6    0     -0.17      0.05
    6   -6    0     -0.17     -0.05
    6   -6    0     -0.17     -0.05
   -6    6    0     -0.17      0.05
   -5    6    0      0.56     -0.01
    5   -6    0      0.56      0.01
    5   -6    0      0.56      0.01
   -5    6    0      0.56     -0.01
   -4    6    0     -0.61     -0.01
   -3    6    0     -0.29     -0.01
   -2    6    0     -2.50     -0.09
   -1    6    0     -2.18      0.05
    0    6    0      1.77      0.04
    1    6    0     -1.21      0.04
    1    6    0     -1.21      0.04
    2    6    0     -1.48      0.03
    2    6    0     -1.48      0.03
    3    6    0     -1.09     -0.01
   -3   -6    0     -1.09      0.01
   -4   -6    0     -0.34     -0.04
   -4   -6    0     -0.34     -0.04
    4    6    0     -0.34      0.04
   -4   -6    0     -0.34     -0.04
   -5   -6    0     -0.53     -0.04
   -5   -6    0     -0.53     -0.04
   -5   -6    0     -0.53     -0.04
   -6   -6    0     -0.74     -0.05
   -6   -6    0     -0.74     -0.05
   -6   -6    0     -0.74     -0.05
   -7   -6    0      0.21     -0.01
   -7   -6    0      0.21     -0.01
   -8   -6    0     -1.95     -0.06
  -11    5    1     -0.62      0.00
   10   -5   -1     -0.29     -0.05
   10   -5   -1     -0.29     -0.05
  -10    5    1     -0.29      0.05
    9   -5   -1     -1.53      0.00
    9   -5   -1     -1.53      0.00
   -9    5    1     -1.53      0.00
   -9    5    1     -1.53      0.00
    8   -5   -1     -0.66     -0.01
    8   -5   -1     -0.66     -0.01
   -8    5    1     -0.66      0.01
    7   -5   -1     -0.16      0.04
   -7    5    1     -0.16     -0.04
    7   -5   -1     -0.16      0.04
   -7    5    1     -0.16     -0.04
   -6    5    1     -1.31     -0.08
    6   -5   -1     -1.31      0.08
    6   -5   -1     -1.31      0.08
   -5    5    1     -2.59     -0.10
   -4    5    1      2.79      0.02
   -3    5    1      3.39     -0.06
   -2    5    1      3.36     -0.02
   -1    5    1      3.92      0.00
    0    5    1     -1.88     -0.03
    1    5    1      2.01      0.02
    1    5    1      2.01      0.02
    2    5    1      2.25      0.11
    3    5    1     -0.24     -0.08
   -3   -5   -1     -0.24      0.08
   -4   -5   -1     -1.34      0.32
    4    5    1     -1.34     -0.32
   -4   -5   -1     -1.34      0.32
   -5   -5   -1      0.41     -0.07
   -5   -5   -1      0.41     -0.07
   -5   -5   -1      0.41     -0.07
   -6   -5   -1      0.10      0.05
   -6   -5   -1      0.10      0.05
   -6   -5   -1      0.10      0.05
   -7   -5   -1      0.04     -0.05
   -7   -5   -1      0.04     -0.05
   -8   -5   -1     -0.54      0.01
   11   -4   -2     -0.32     -0.01
  -11    4    2     -0.32      0.01
   10   -4   -2     -0.61      0.01
   10   -4   -2     -0.61      0.01
  -10    4    2     -0.61     -0.01
    9   -4   -2      0.67     -0.02
    9   -4   -2      0.67     -0.02
    8   -4   -2     -1.89      0.04
    7   -4   -2     -3.03     -0.01
   -7    4    2     -3.03      0.01
   -7    4    2     -3.03      0.01
    7   -4   -2     -3.03     -0.01
    6   -4   -2     -3.38      0.06
   -6    4    2     -3.38     -0.06
    6   -4   -2     -3.38      0.06
   -5    4    2      1.34     -0.07
   -4    4    2     -0.98     -0.03
   -3    4    2      2.42      0.02
   -2    4    2      3.35      0.01
   -1    4    2      2.03     -0.11
    1   -4   -2      2.03      0.11
    0   -4   -2      8.64      0.04
    0    4    2      8.64     -0.04
    1    4    2      1.36      0.09
    2    4    2     -1.75     -0.01
    3    4    2     -0.80     -0.09
   -3   -4   -2     -0.80      0.09
   -4   -4   -2      0.05      0.02
    4    4    2      0.05     -0.02
   -4   -4   -2      0.05      0.02
   -4   -4   -2      0.05      0.02
   -5   -4   -2     -0.78      0.01
   -5   -4   -2     -0.78      0.01
   -5   -4   -2     -0.78      0.01
   -6   -4   -2      0.84     -0.06
   -6   -4   -2      0.84     -0.06
   -7   -4   -2     -0.74      0.01
   -7   -4   -2     -0.74      0.01
   -8   -4   -2     -0.07      0.00
   -8   -4   -2     -0.07      0.00
   11   -3   -3      0.02     -0.02
   11   -3   -3      0.02     -0.02
   10   -3   -3     -0.66     -0.05
   10   -3   -3     -0.66     -0.05
    9   -3   -3     -1.89     -0.01
    8   -3   -3     -1.35      0.02
    8   -3   -3     -1.35      0.02
    7   -3   -3     -1.77      0.01
    7   -3   -3     -1.77      0.01
   -7    3    3     -1.77     -0.01
   -6    3    3     -3.75     -0.05
    6   -3   -3     -3.75      0.05
    6   -3   -3     -3.75      0.05
   -5    3    3     -8.14      0.03
   -4    3    3     -0.68      0.05
   -3    3    3      1.08     -0.05
    2   -3   -3      3.59      0.05
   -2    3    3      3.59     -0.05
    1   -3   -3      6.59     -0.02
   -1    3    3      6.59      0.02
    0   -3   -3     -2.47      0.01
    0    3    3     -2.47     -0.01
   -1   -3   -3      1.02     -0.02
    1    3    3      1.02      0.02
    2    3    3      1.05     -0.03
   -2   -3   -3      1.05      0.03
    3    3    3     -1.72     -0.06
   -3   -3   -3     -1.72      0.06
   -4   -3   -3     -1.87      0.04
   -4   -3   -3     -1.87      0.04
    4    3    3     -1.87     -0.04
   -4   -3   -3     -1.87      0.04
   -5   -3   -3      0.08      0.07
    5    3    3      0.08     -0.07
   -5   -3   -3      0.08      0.07
   -5   -3   -3      0.08      0.07
   -5   -3   -3      0.08      0.07
   -6   -3   -3     -0.37     -0.05
   -6   -3   -3     -0.37     -0.05
   -6   -3   -3     -0.37     -0.05
   -7   -3   -3      0.31      0.01
   -7   -3   -3      0.31      0.01
   -8   -3   -3     -0.70      0.04
   -8   -3   -3     -0.70      0.04
   11   -2   -4     -0.17      0.01
   11   -2   -4     -0.17      0.01
   10   -2   -4     -0.33      0.01
    9   -2   -4     -0.35      0.04
    9   -2   -4     -0.35      0.04
    8   -2   -4     -0.99     -0.01
    8   -2   -4     -0.99     -0.01
    7   -2   -4     -2.79      0.04
    7   -2   -4     -2.79      0.04
    7   -2   -4     -2.79      0.04
    7   -2   -4     -2.79      0.04
    6   -2   -4     -0.69     -0.04
    6   -2   -4     -0.69     -0.04
   -6    2    4     -0.69      0.04
   -6    2    4     -0.69      0.04
    6   -2   -4     -0.69     -0.04
    6   -2   -4     -0.69     -0.04
   -5    2    4      2.20     -0.01
    5   -2   -4      2.20      0.01
   -4    2    4     -0.08      0.03
    4   -2   -4     -0.08     -0.03
    3   -2   -4      2.88     -0.02
   -3    2    4      2.88      0.02
    2   -2   -4      5.41      0.00
   -2    2    4      5.41      0.00
   -1    2    4      5.67      0.05
    1   -2   -4      5.67     -0.05
    0   -2   -4      9.89     -0.05
    0    2    4      9.89      0.05
   -1   -2   -4      3.46     -0.01
    1    2    4      3.46      0.01
   -1   -2   -4      3.46     -0.01
    2    2    4     -1.56     -0.04
   -2   -2   -4     -1.56      0.04
   -2   -2   -4     -1.56      0.04
    3    2    4     -0.50      0.01
   -3   -2   -4     -0.50     -0.01
    4    2    4      0.77      0.05
   -4   -2   -4      0.77     -0.05
   -4   -2   -4      0.77     -0.05
   -4   -2   -4      0.77     -0.05
   -4   -2   -4      0.77     -0.05
   -4   -2   -4      0.77     -0.05
   -4   -2   -4      0.77     -0.05
   -5   -2   -4      0.10      0.01
    5    2    4      0.10     -0.01
   -5   -2   -4      0.10      0.01
   -5   -2   -4      0.10      0.01
   -5   -2   -4      0.10      0.01
   -6   -2   -4      1.26      0.10
   -6   -2   -4      1.26      0.10
   -6   -2   -4      1.26      0.10
   -7   -2   -4      0.80      0.03
   -7   -2   -4      0.80      0.03
   -8   -2   -4      1.43      0.02
   -8   -2   -4      1.43      0.02
   11   -1   -5     -0.05     -0.01
   11   -1   -5     -0.05     -0.01
   10   -1   -5      0.68      0.04
   10   -1   -5      0.68      0.04
    9   -1   -5     -0.93     -0.02
    9   -1   -5     -0.93     -0.02
    8   -1   -5     -0.88     -0.03
    8   -1   -5     -0.88     -0.03
    7   -1   -5      1.64      0.00
    7   -1   -5      1.64      0.00
    7   -1   -5      1.64      0.00
    7   -1   -5      1.64      0.00
    7   -1   -5      1.64      0.00
    6   -1   -5     -1.03      0.02
    6   -1   -5     -1.03      0.02
    6   -1   -5     -1.03      0.02
    6   -1   -5     -1.03      0.02
    5   -1   -5     -0.25      0.09
   -5    1    5     -0.25     -0.09
    5   -1   -5     -0.25      0.09
   -4    1    5      0.27     -0.05
    4   -1   -5      0.27      0.05
    3   -1   -5      0.90      0.05
   -3    1    5      0.90     -0.05
    2   -1   -5      2.41     -0.01
   -2    1    5      2.41      0.01
   -1    1    5      2.06      0.03
    1   -1   -5      2.06     -0.03
    0    1    5      1.19      0.06
    0   -1   -5      1.19     -0.06
   -1   -1   -5      0.93     -0.03
    1    1    5      0.93      0.03
   -1   -1   -5      0.93     -0.03
   -2   -1   -5      3.95     -0.01
   -2   -1   -5      3.95     -0.01
    3    1    5     -0.05      0.00
   -3   -1   -5     -0.05      0.00
   -3   -1   -5     -0.05      0.00
   -3   -1   -5     -0.05      0.00
   -3   -1   -5     -0.05      0.00
   -3   -1   -5     -0.05      0.00
    4    1    5     -1.26      0.01
   -4   -1   -5     -1.26     -0.01
   -4   -1   -5     -1.26     -0.01
   -4   -1   -5     -1.26     -0.01
   -4   -1   -5     -1.26     -0.01
   -4   -1   -5     -1.26     -0.01
   -4   -1   -5     -1.26     -0.01
   -5   -1   -5     -0.39      0.02
   -5   -1   -5     -0.39      0.02
   -5   -1   -5     -0.39      0.02
   -5   -1   -5     -0.39      0.02
   -6   -1   -5     -0.01      0.05
   -6   -1   -5     -0.01      0.05
   -6   -1   -5     -0.01      0.05
   -7   -1   -5      2.06     -0.04
   -7   -1   -5      2.06     -0.04
   -8   -1   -5      0.34      0.05
   11    0   -6      0.42      0.01
   10    0   -6     -0.37      0.02
   10    0   -6     -0.37      0.02
    9    0   -6      0.51      0.00
    9    0   -6      0.51      0.00
    8    0   -6     -0.82     -0.04
    8    0   -6     -0.82     -0.04
    7    0   -6     -2.63      0.02
    7    0   -6     -2.63      0.02
    6    0   -6      1.99      0.04
    6    0   -6      1.99      0.04
    6    0   -6      1.99      0.04
    6    0   -6      1.99      0.04
    6    0   -6      1.99      0.04
    5    0   -6     -0.18      0.01
    5    0   -6     -0.18      0.01
    4    0   -6     -0.33      0.05
    3    0   -6     -1.48     -0.01
    2    0   -6     -3.55     -0.01
    2    0   -6     -3.55     -0.01
    1    0   -6     -0.64     -0.01
    1    0   -6     -0.64     -0.01
    0    0   -6     -0.41      0.15
    0    0   -6     -0.41      0.15
   -1    0   -6      1.28      0.02
   -1    0   -6      1.28      0.02
   -1    0   -6      1.28      0.02
   -2    0   -6     -1.86     -0.06
   -3    0   -6      1.19     -0.01
   -3    0   -6      1.19     -0.01
   -3    0   -6      1.19     -0.01
   -3    0   -6      1.19     -0.01
   -3    0   -6      1.19     -0.01
   -4    0   -6     -0.41     -0.01
   -4    0   -6     -0.41     -0.01
   -4    0   -6     -0.41     -0.01
   -4    0   -6     -0.41     -0.01
   -4    0   -6     -0.41     -0.01
   -4    0   -6     -0.41     -0.01
   -4    0   -6     -0.41     -0.01
   -5    0   -6     -0.33      0.01
   -5    0   -6     -0.33      0.01
   -5    0   -6     -0.33      0.01
   -5    0   -6     -0.33      0.01
   -5    0   -6     -0.33      0.01
   -6    0   -6      0.92      0.03
   -6    0   -6      0.92      0.03
   -6    0   -6      0.92      0.03
   -6    0   -6      0.92      0.03
   -7    0   -6      0.21      0.13
   -7    0   -6      0.21      0.13
   -7    0   -6      0.21      0.13
   -7    0   -6      0.21      0.13
   -8    0   -6      0.19      0.00
   10    1   -7      0.15     -0.02
   10    1   -7      0.15     -0.02
   10    1   -7      0.15     -0.02
    9    1   -7     -1.50      0.02
    9    1   -7     -1.50      0.02
    8    1   -7      0.53      0.00
    8    1   -7      0.53      0.00
    7    1   -7      2.00     -0.06
    7    1   -7      2.00     -0.06
    6    1   -7     -1.30      0.01
    6    1   -7     -1.30      0.01
    6    1   -7     -1.30      0.01
    5    1   -7      1.61     -0.03
    5    1   -7      1.61     -0.03
    5    1   -7      1.61     -0.03
    5    1   -7      1.61     -0.03
    5    1   -7      1.61     -0.03
    4    1   -7      1.77     -0.03
    4    1   -7      1.77     -0.03
    3    1   -7     -0.37      0.03
    3    1   -7     -0.37      0.03
    2    1   -7      1.62      0.03
    2    1   -7      1.62      0.03
    1    1   -7     -2.11     -0.02
    1    1   -7     -2.11     -0.02
    0    1   -7     -0.95      0.02
    0    1   -7     -0.95      0.02
   -1    1   -7      0.28      0.05
   -1    1   -7      0.28      0.05
   -2    1   -7      1.15      0.00
   -2    1   -7      1.15      0.00
   -2    1   -7      1.15      0.00
   -2    1   -7      1.15      0.00
   -2    1   -7      1.15      0.00
   -3    1   -7     -0.36     -0.02
   -3    1   -7     -0.36     -0.02
   -3    1   -7     -0.36     -0.02
   -3    1   -7     -0.36     -0.02
   -3    1   -7     -0.36     -0.02
   -4    1   -7     -0.71      0.02
   -4    1   -7     -0.71      0.02
   -4    1   -7     -0.71      0.02
   -4    1   -7     -0.71      0.02
   -5    1   -7      0.41      0.03
   -5    1   -7      0.41      0.03
   -5    1   -7      0.41      0.03
   -5    1   -7      0.41      0.03
   -5    1   -7      0.41      0.03
   -6    1   -7     -0.52      0.04
   -6    1   -7     -0.52      0.04
   -6    1   -7     -0.52      0.04
   -7    1   -7     -0.13      0.01
   -7    1   -7     -0.13      0.01
   -8    1   -7      1.33     -0.01
   10    2   -8     -0.73      0.01
   10    2   -8     -0.73      0.01
    9    2   -8     -0.36     -0.06
    9    2   -8     -0.36     -0.06
    8    2   -8     -1.78     -0.07
    8    2   -8     -1.78     -0.07
    7    2   -8     -0.99      0.02
    7    2   -8     -0.99      0.02
    7    2   -8     -0.99      0.02
    6    2   -8      1.23      0.03
    6    2   -8      1.23      0.03
    6    2   -8      1.23      0.03
    5    2   -8     -0.57      0.00
    5    2   -8     -0.57      0.00
    5    2   -8     -0.57      0.00
    4    2   -8     -1.99      0.03
    4    2   -8     -1.99      0.03
    4    2   -8     -1.99      0.03
    4    2   -8     -1.99      0.03
    4    2   -8     -1.99      0.03
    3    2   -8      0.33      0.01
    3    2   -8      0.33      0.01
    3    2   -8      0.33      0.01
    3    2   -8      0.33      0.01
    3    2   -8      0.33      0.01
    2    2   -8     -1.51     -0.04
    2    2   -8     -1.51     -0.04
    2    2   -8     -1.51     -0.04
    2    2   -8     -1.51     -0.04
    1    2   -8     -0.62      0.00
    1    2   -8     -0.62      0.00
    1    2   -8     -0.62      0.00
    1    2   -8     -0.62      0.00
    0    2   -8     -0.25     -0.09
    0    2   -8     -0.25     -0.09
    0    2   -8     -0.25     -0.09
    0    2   -8     -0.25     -0.09
    0    2   -8     -0.25     -0.09
    0    2   -8     -0.25     -0.09
   -1    2   -8     -1.91     -0.05
   -1    2   -8     -1.91     -0.05
   -1    2   -8     -1.91     -0.05
   -1    2   -8     -1.91     -0.05
   -1    2   -8     -1.91     -0.05
   -2    2   -8     -1.14      0.01
   -2    2   -8     -1.14      0.01
   -2    2   -8     -1.14      0.01
   -2    2   -8     -1.14      0.01
   -2    2   -8     -1.14      0.01
   -3    2   -8     -0.61     -0.03
   -3    2   -8     -0.61     -0.03
   -3    2   -8     -0.61     -0.03
   -3    2   -8     -0.61     -0.03
   -4    2   -8      0.27     -0.03
   -4    2   -8      0.27     -0.03
   -4    2   -8      0.27     -0.03
   -4    2   -8      0.27     -0.03
   -5    2   -8     -0.63      0.06
   -5    2   -8     -0.63      0.06
   -5    2   -8     -0.63      0.06
   -5    2   -8     -0.63      0.06
   -6    2   -8      0.17      0.00
   -6    2   -8      0.17      0.00
   -6    2   -8      0.17      0.00
   -7    2   -8     -0.09     -0.04
   -7    2   -8     -0.09     -0.04
    9    3   -9     -2.03     -0.02
    9    3   -9     -2.03     -0.02
    8    3   -9     -0.61      0.05
    8    3   -9     -0.61      0.05
    7    3   -9     -1.14      0.07
    7    3   -9     -1.14      0.07
    6    3   -9     -3.14     -0.01
    6    3   -9     -3.14     -0.01
    5    3   -9     -3.15     -0.02
    5    3   -9     -3.15     -0.02
    4    3   -9     -2.09      0.08
    4    3   -9     -2.09      0.08
    4    3   -9     -2.09      0.08
    4    3   -9     -2.09      0.08
    4    3   -9     -2.09      0.08
    3    3   -9     -1.91      0.10
    3    3   -9     -1.91      0.10
    3    3   -9     -1.91      0.10
    3    3   -9     -1.91      0.10
    3    3   -9     -1.91      0.10
    3    3   -9     -1.91      0.10
    2    3   -9     -3.12     -0.01
    2    3   -9     -3.12     -0.01
    2    3   -9     -3.12     -0.01
    2    3   -9     -3.12     -0.01
    2    3   -9     -3.12     -0.01
    1    3   -9      0.08     -0.02
    1    3   -9      0.08     -0.02
    1    3   -9      0.08     -0.02
    1    3   -9      0.08     -0.02
    1    3   -9      0.08     -0.02
    1    3   -9      0.08     -0.02
    0    3   -9     -1.06     -0.08
    0    3   -9     -1.06     -0.08
    0    3   -9     -1.06     -0.08
    0    3   -9     -1.06     -0.08
    0    3   -9     -1.06     -0.08
    0    3   -9     -1.06     -0.08
    0    3   -9     -1.06     -0.08
   -1    3   -9      0.32     -0.08
   -1    3   -9      0.32     -0.08
   -1    3   -9      0.32     -0.08
   -1    3   -9      0.32     -0.08
   -2    3   -9     -1.09      0.02
   -2    3   -9     -1.09      0.02
   -2    3   -9     -1.09      0.02
   -2    3   -9     -1.09      0.02
   -3    3   -9     -0.50     -0.03
   -3    3   -9     -0.50     -0.03
   -3    3   -9     -0.50     -0.03
   -4    3   -9     -0.42     -0.02
   -4    3   -9     -0.42     -0.02
   -4    3   -9     -0.42     -0.02
   -4    3   -9     -0.42     -0.02
   -5    3   -9      0.01      0.03
   -5    3   -9      0.01      0.03
   -5    3   -9      0.01      0.03
   -5    3   -9      0.01      0.03
   -6    3   -9     -0.27     -0.03
   -6    3   -9     -0.27     -0.03
   -6    3   -9     -0.27     -0.03
   -6    3   -9     -0.27     -0.03
    9    4  -10     -1.23     -0.03
    8    4  -10     -0.65      0.02
    7    4  -10     -0.63      0.07
    7    4  -10     -0.63      0.07
    6    4  -10     -0.97     -0.01
    6    4  -10     -0.97     -0.01
    5    4  -10     -0.84     -0.05
    5    4  -10     -0.84     -0.05
    4    4  -10     -2.07      0.03
    4    4  -10     -2.07      0.03
    4    4  -10     -2.07      0.03
    3    4  -10     -0.96      0.15
    3    4  -10     -0.96      0.15
    3    4  -10     -0.96      0.15
    3    4  -10     -0.96      0.15
    2    4  -10      2.18      0.43
    2    4  -10      2.18      0.43
    2    4  -10      2.18      0.43
    1    4  -10     -0.60      0.09
    1    4  -10     -0.60      0.09
    1    4  -10     -0.60      0.09
    1    4  -10     -0.60      0.09
    0    4  -10      2.75     -0.06
    0    4  -10      2.75     -0.06
    0    4  -10      2.75     -0.06
    0    4  -10      2.75     -0.06
    0    4  -10      2.75     -0.06
   -1    4  -10     -0.42     -0.05
   -1    4  -10     -0.42     -0.05
   -1    4  -10     -0.42     -0.05
   -1    4  -10     -0.42     -0.05
   -2    4  -10      0.95     -0.12
   -2    4  -10      0.95     -0.12
   -2    4  -10      0.95     -0.12
   -2    4  -10      0.95     -0.12
   -3    4  -10     -0.46      0.02
   -3    4  -10     -0.46      0.02
   -4    4  -10      0.17      0.06
   -4    4  -10      0.17      0.06
   -4    4  -10      0.17      0.06
   -5    4  -10      0.09     -0.02
   -5    4  -10      0.09     -0.02
   -5    4  -10      0.09     -0.02
   -6    4  -10      0.09     -0.01
   -6    4  -10      0.09     -0.01
    8    5  -11      0.11      0.02
    7    5  -11     -0.12     -0.01
    7    5  -11     -0.12     -0.01
    6    5  -11     -0.12     -0.06
    6    5  -11     -0.12     -0.06
    5    5  -11     -1.06     -0.01
    5    5  -11     -1.06     -0.01
    4    5  -11      0.96     -0.05
    4    5  -11      0.96     -0.05
    3    5  -11     -0.73      0.01
    3    5  -11     -0.73      0.01
    3    5  -11     -0.73      0.01
    2    5  -11     -1.43     -0.03
    2    5  -11     -1.43     -0.03
    2    5  -11     -1.43     -0.03
    1    5  -11      0.15      0.04
    1    5  -11      0.15      0.04
    1    5  -11      0.15      0.04
    1    5  -11      0.15      0.04
    0    5  -11     -0.99      0.02
    0    5  -11     -0.99      0.02
    0    5  -11     -0.99      0.02
    0    5  -11     -0.99      0.02
   -1    5  -11      1.80     -0.02
   -1    5  -11      1.80     -0.02
   -1    5  -11      1.80     -0.02
   -1    5  -11      1.80     -0.02
   -2    5  -11      0.09      0.03
   -2    5  -11      0.09      0.03
   -2    5  -11      0.09      0.03
   -3    5  -11      0.62      0.07
   -3    5  -11      0.62      0.07
   -3    5  -11      0.62      0.07
   -4    5  -11      0.50      0.03
   -4    5  -11      0.50      0.03
   -4    5  -11      0.50      0.03
   -5    5  -11     -0.01     -0.04
   -5    5  -11     -0.01     -0.04
    6    6  -12     -0.16      0.02
    6    6  -12     -0.16      0.02
    5    6  -12     -0.42     -0.03
    5    6  -12     -0.42     -0.03
    4    6  -12     -0.15     -0.03
    4    6  -12     -0.15     -0.03
    3    6  -12     -0.50      0.00
    3    6  -12     -0.50      0.00
    2    6  -12     -0.36      0.00
    2    6  -12     -0.36      0.00
    2    6  -12     -0.36      0.00
    1    6  -12     -0.46     -0.02
    1    6  -12     -0.46     -0.02
    1    6  -12     -0.46     -0.02
    0    6  -12      0.40     -0.09
   -1    6  -12     -0.01     -0.07
   -1    6  -12     -0.01     -0.07
   -2    6  -12      0.23      0.09
   -2    6  -12      0.23      0.09
   -3    6  -12      0.49     -0.01
   -3    6  -12      0.49     -0.01
   -4    6  -12      0.04     -0.01
   -4    6  -12      0.04     -0.01
    5    7  -13      1.79     -0.06
    4    7  -13     -0.61     -0.02
    3    7  -13      1.05      0.05
    2    7  -13     -0.65      0.01
    2    7  -13     -0.65      0.01
    1    7  -13     -0.40     -0.04
    1    7  -13     -0.40     -0.04
    0    7  -13     -0.31     -0.01
   -1    7  -13     -0.53      0.14
   -2    7  -13      0.16     -0.04
   -5   13   -6      1.38      0.00
   -4   13   -6     -0.21     -0.04
   -4   13   -6     -0.21     -0.04
   -3   13   -6      0.64     -0.12
   -3   13   -6      0.64     -0.12
   -3   13   -6      0.64     -0.12
   -2   13   -6      1.62     -0.08
   -2   13   -6      1.62     -0.08
   -2   13   -6      1.62     -0.08
   -1   13   -6     -0.13      0.19
   -1   13   -6     -0.13      0.19
   -1   13   -6     -0.13      0.19
    0   13   -6     -0.04      0.23
    1   13   -6      3.23      1.12
   -6   12   -5     -0.67     -0.02
   -5   12   -5     -0.67      0.04
   -4   12   -5      1.28      0.05
   -3   12   -5     -0.55      0.00
   -2   12   -5     -1.16      0.04
   -1   12   -5      0.23     -0.10
   -1   12   -5      0.23     -0.10
    0   12   -5      0.45      0.26
    0   12   -5      0.45      0.26
    2   12   -5      1.36      0.38
    3   12   -5      0.72      0.03
   -3  -12    5      0.72     -0.03
   -8   11   -4      1.30      0.00
   -7   11   -4      1.54      0.02
   -6   11   -4      0.45     -0.04
   -5   11   -4      0.52      0.02
   -4   11   -4      0.13      0.04
   -3   11   -4      1.71      0.08
   -2   11   -4      1.97      0.06
   -1   11   -4     -0.44      0.12
    0   11   -4     -0.67      0.13
    0   11   -4     -0.67      0.13
    1   11   -4      1.02      0.30
    3   11   -4      0.86      0.05
   -3  -11    4      0.86     -0.05
   -4  -11    4      1.51     -0.06
   -9   10   -3      1.18      0.06
   -8   10   -3      1.90      0.10
   -7   10   -3      0.98      0.02
   -6   10   -3      1.17      0.05
   -5   10   -3     -0.18     -0.04
   -4   10   -3      0.09      0.00
   -3   10   -3      0.52      0.02
   -2   10   -3     -0.10      0.08
   -1   10   -3      0.35      0.14
    0   10   -3      0.08      0.13
    1   10   -3      0.53      0.19
    2   10   -3      1.47      0.23
   -3  -10    3      2.62     -0.07
   -4  -10    3      0.99      0.03
   -5  -10    3      0.07      0.03
   -9    9   -2      0.83      0.02
   -8    9   -2      1.00      0.02
   -7    9   -2      0.21      0.01
   -6    9   -2      0.23     -0.03
   -5    9   -2      0.59     -0.01
   -4    9   -2     -0.21     -0.04
    3   -9    2      0.08      0.04
   -3    9   -2      0.08     -0.04
   -3    9   -2      0.08     -0.04
    2   -9    2      0.84      0.01
   -2    9   -2      0.84     -0.01
   -2    9   -2      0.84     -0.01
   -1    9   -2      0.34      0.07
   -1    9   -2      0.34      0.07
    0    9   -2      1.43      0.02
    0    9   -2      1.43      0.02
    1    9   -2      0.54     -0.10
    2    9   -2      0.89     -0.13
   -3   -9    2     -0.04      0.03
   -3   -9    2     -0.04      0.03
   -4   -9    2      0.08      0.03
   -4   -9    2      0.08      0.03
   -5   -9    2     -0.82      0.02
  -10    8   -1      1.32     -0.01
   -9    8   -1      1.45      0.01
   -8    8   -1      0.82      0.02
   -7    8   -1      1.12      0.08
    6   -8    1     -0.34      0.00
   -6    8   -1     -0.34      0.00
    5   -8    1      0.61     -0.06
   -5    8   -1      0.61      0.06
   -4    8   -1      1.21      0.01
    4   -8    1      1.21     -0.01
   -4    8   -1      1.21      0.01
    3   -8    1      0.77     -0.03
   -3    8   -1      0.77      0.03
   -3    8   -1      0.77      0.03
    2   -8    1      0.08     -0.01
   -2    8   -1      0.08      0.01
   -2    8   -1      0.08      0.01
   -1    8   -1     -0.34      0.04
    1   -8    1     -0.34     -0.04
   -1    8   -1     -0.34      0.04
    0    8   -1     -1.34      0.06
    0    8   -1     -1.34      0.06
    1    8   -1      1.39     -0.03
    1    8   -1      1.39     -0.03
    2    8   -1      0.27     -0.01
    2    8   -1      0.27     -0.01
   -3   -8    1      0.60      0.04
   -3   -8    1      0.60      0.04
   -4   -8    1     -1.45      0.09
   -4   -8    1     -1.45      0.09
   -5   -8    1      1.05     -0.04
   -5   -8    1      1.05     -0.04
   -5   -8    1      1.05     -0.04
   -6   -8    1      0.19     -0.18
  -10    7    0     -0.33      0.02
    9   -7    0      0.93     -0.01
   -9    7    0      0.93      0.01
    8   -7    0      0.39     -0.03
    8   -7    0      0.39     -0.03
   -8    7    0      0.39      0.03
    7   -7    0     -1.31      0.00
    7   -7    0     -1.31      0.00
   -7    7    0     -1.31      0.00
   -6    7    0      0.50      0.12
    6   -7    0      0.50     -0.12
    6   -7    0      0.50     -0.12
   -6    7    0      0.50      0.12
    5   -7    0      0.91     -0.08
    5   -7    0      0.91     -0.08
   -5    7    0      0.91      0.08
   -5    7    0      0.91      0.08
   -4    7    0      0.00      0.01
   -4    7    0      0.00      0.01
    4   -7    0      0.00     -0.01
    4   -7    0      0.00     -0.01
   -3    7    0      0.80      0.00
   -2    7    0     -2.45      0.00
   -1    7    0     -0.93     -0.03
    0   -7    0      1.43      0.03
    0    7    0      1.43     -0.03
    1    7    0     -2.37      0.02
    1    7    0     -2.37      0.02
   -1   -7    0     -2.37     -0.02
    2    7    0      0.74     -0.05
   -2   -7    0      0.74      0.05
    2    7    0      0.74     -0.05
    3    7    0     -0.95     -0.09
   -3   -7    0     -0.95      0.09
   -3   -7    0     -0.95      0.09
   -4   -7    0      0.26      0.00
   -4   -7    0      0.26      0.00
   -5   -7    0     -0.86      0.01
   -6   -7    0      0.35     -0.01
   -6   -7    0      0.35     -0.01
   -7   -7    0      1.82     -0.02
   10   -6   -1      0.29     -0.01
   10   -6   -1      0.29     -0.01
  -10    6    1      0.29      0.01
    9   -6   -1     -1.49      0.03
    9   -6   -1     -1.49      0.03
   -9    6    1     -1.49     -0.03
    8   -6   -1     -0.81      0.04
    8   -6   -1     -0.81      0.04
   -8    6    1     -0.81     -0.04
    7   -6   -1      0.73     -0.01
    7   -6   -1      0.73     -0.01
   -7    6    1      0.73      0.01
   -6    6    1     -0.48      0.02
    6   -6   -1     -0.48     -0.02
    6   -6   -1     -0.48     -0.02
   -6    6    1     -0.48      0.02
    5   -6   -1     -0.87      0.00
    5   -6   -1     -0.87      0.00
   -5    6    1     -0.87      0.00
   -5    6    1     -0.87      0.00
   -4    6    1      2.04      0.12
   -3    6    1      1.08     -0.03
   -2    6    1      2.82      0.08
   -1    6    1      1.29     -0.03
    0    6    1     -2.93     -0.02
    1    6    1     -0.19      0.04
    2    6    1     -0.29      0.07
   -2   -6   -1     -0.29     -0.07
    2    6    1     -0.29      0.07
   -3   -6   -1      0.07     -0.02
    3    6    1      0.07      0.02
   -3   -6   -1      0.07     -0.02
   -4   -6   -1     -0.72      0.40
   -4   -6   -1     -0.72      0.40
   -5   -6   -1      0.52     -0.06
   -5   -6   -1      0.52     -0.06
   -6   -6   -1      0.83      0.02
   -6   -6   -1      0.83      0.02
   -7   -6   -1      1.83     -0.03
   -7   -6   -1      1.83     -0.03
   10   -5   -2     -0.07      0.05
   10   -5   -2     -0.07      0.05
  -10    5    2     -0.07     -0.05
    9   -5   -2     -0.08      0.06
    9   -5   -2     -0.08      0.06
   -9    5    2     -0.08     -0.06
    8   -5   -2     -1.61     -0.02
    8   -5   -2     -1.61     -0.02
   -8    5    2     -1.61      0.02
   -7    5    2     -2.10      0.11
   -7    5    2     -2.10      0.11
    7   -5   -2     -2.10     -0.11
    7   -5   -2     -2.10     -0.11
   -7    5    2     -2.10      0.11
   -6    5    2     -0.92      0.00
    6   -5   -2     -0.92      0.00
   -6    5    2     -0.92      0.00
    6   -5   -2     -0.92      0.00
    5   -5   -2      0.36      0.07
    5   -5   -2      0.36      0.07
   -5    5    2      0.36     -0.07
   -4    5    2     -2.24     -0.05
   -3    5    2     -1.30      0.08
   -2    5    2     -0.08      0.01
   -1    5    2     -0.82     -0.06
    1   -5   -2     -0.82      0.06
    0    5    2      2.17     -0.06
    1    5    2     -0.43      0.09
    2    5    2     -1.56      0.01
   -2   -5   -2     -1.56     -0.01
   -3   -5   -2      0.17      0.07
    3    5    2      0.17     -0.07
   -3   -5   -2      0.17      0.07
   -4   -5   -2      0.42     -0.34
   -4   -5   -2      0.42     -0.34
   -5   -5   -2     -0.69      0.08
   -5   -5   -2     -0.69      0.08
   -5   -5   -2     -0.69      0.08
   -6   -5   -2      0.65     -0.03
   -6   -5   -2      0.65     -0.03
   -7   -5   -2     -0.61      0.05
   -7   -5   -2     -0.61      0.05
   -8   -5   -2      0.70      0.01
   11   -4   -3      0.60     -0.01
   11   -4   -3      0.60     -0.01
   10   -4   -3     -0.45      0.01
   10   -4   -3     -0.45      0.01
   10   -4   -3     -0.45      0.01
  -10    4    3     -0.45     -0.01
    9   -4   -3     -1.53      0.01
    9   -4   -3     -1.53      0.01
   -9    4    3     -1.53     -0.01
    8   -4   -3     -0.09     -0.05
    8   -4   -3     -0.09     -0.05
   -7    4    3      0.37      0.02
   -7    4    3      0.37      0.02
    7   -4   -3      0.37     -0.02
    7   -4   -3      0.37     -0.02
    6   -4   -3     -0.88     -0.04
   -6    4    3     -0.88      0.04
    6   -4   -3     -0.88     -0.04
   -5    4    3     -3.47     -0.07
   -4    4    3     -1.82     -0.10
   -3    4    3     -0.42     -0.06
    2   -4   -3     -0.58     -0.08
   -2    4    3     -0.58      0.08
   -1    4    3      0.84      0.06
    1   -4   -3      0.84     -0.06
    0   -4   -3     -3.65      0.02
    0    4    3     -3.65     -0.02
    1    4    3     -1.54     -0.05
    2    4    3      1.60     -0.04
   -3   -4   -3      0.15     -0.01
    3    4    3      0.15      0.01
   -3   -4   -3      0.15     -0.01
   -3   -4   -3      0.15     -0.01
   -4   -4   -3     -0.70      0.03
   -4   -4   -3     -0.70      0.03
    4    4    3     -0.70     -0.03
   -4   -4   -3     -0.70      0.03
   -5   -4   -3      0.53     -0.02
   -5   -4   -3      0.53     -0.02
   -5   -4   -3      0.53     -0.02
   -5   -4   -3      0.53     -0.02
   -6   -4   -3     -0.64     -0.01
   -6   -4   -3     -0.64     -0.01
   -6   -4   -3     -0.64     -0.01
   -7   -4   -3      0.49      0.01
   -7   -4   -3      0.49      0.01
   -8   -4   -3     -1.22      0.04
   -8   -4   -3     -1.22      0.04
   11   -3   -4     -0.18      0.05
   11   -3   -4     -0.18      0.05
   10   -3   -4      0.12      0.01
   10   -3   -4      0.12      0.01
    9   -3   -4     -0.19      0.02
    9   -3   -4     -0.19      0.02
    8   -3   -4     -0.09     -0.01
    8   -3   -4     -0.09     -0.01
    7   -3   -4      0.08      0.01
    7   -3   -4      0.08      0.01
    7   -3   -4      0.08      0.01
    6   -3   -4      3.24      0.01
    6   -3   -4      3.24      0.01
   -6    3    4      3.24     -0.01
    6   -3   -4      3.24      0.01
   -5    3    4      4.57      0.08
    5   -3   -4      4.57     -0.08
   -4    3    4      1.48      0.06
    4   -3   -4      1.48     -0.06
    3   -3   -4      0.26     -0.03
   -3    3    4      0.26      0.03
    2   -3   -4      0.61      0.01
   -2    3    4      0.61     -0.01
   -1    3    4     -1.24      0.10
    1   -3   -4     -1.24     -0.10
    0   -3   -4      2.94     -0.10
    0    3    4      2.94      0.10
   -1   -3   -4      0.85      0.00
    1    3    4      0.85      0.00
    2    3    4     -1.30     -0.01
   -3   -3   -4      0.07     -0.01
    3    3    4      0.07      0.01
   -3   -3   -4      0.07     -0.01
   -3   -3   -4      0.07     -0.01
   -3   -3   -4      0.07     -0.01
   -4   -3   -4      0.84     -0.02
    4    3    4      0.84      0.02
   -4   -3   -4      0.84     -0.02
   -4   -3   -4      0.84     -0.02
   -4   -3   -4      0.84     -0.02
   -4   -3   -4      0.84     -0.02
   -4   -3   -4      0.84     -0.02
   -5   -3   -4      0.15      0.02
   -5   -3   -4      0.15      0.02
   -5   -3   -4      0.15      0.02
   -5   -3   -4      0.15      0.02
   -6   -3   -4      0.45      0.05
   -6   -3   -4      0.45      0.05
   -6   -3   -4      0.45      0.05
   -7   -3   -4     -0.27     -0.04
   -7   -3   -4     -0.27     -0.04
   -8   -3   -4      0.86     -0.02
   11   -2   -5     -0.17     -0.02
   11   -2   -5     -0.17     -0.02
   10   -2   -5     -0.21      0.01
   10   -2   -5     -0.21      0.01
    9   -2   -5     -0.67     -0.04
    9   -2   -5     -0.67     -0.04
    8   -2   -5     -0.32      0.02
    8   -2   -5     -0.32      0.02
    8   -2   -5     -0.32      0.02
    7   -2   -5      1.93      0.06
    7   -2   -5      1.93      0.06
    7   -2   -5      1.93      0.06
    7   -2   -5      1.93      0.06
    6   -2   -5     -0.81      0.02
    6   -2   -5     -0.81      0.02
    6   -2   -5     -0.81      0.02
    6   -2   -5     -0.81      0.02
    5   -2   -5      0.37      0.02
   -5    2    5      0.37     -0.02
   -4    2    5      1.95     -0.03
    4   -2   -5      1.95      0.03
    3   -2   -5      1.06     -0.01
   -3    2    5      1.06      0.01
    2   -2   -5     -2.17     -0.03
   -2    2    5     -2.17      0.03
   -1    2    5     -2.28      0.07
    1   -2   -5     -2.28     -0.07
    0   -2   -5     -3.64      0.04
    0    2    5     -3.64     -0.04
   -1   -2   -5     -2.37      0.00
    1    2    5     -2.37      0.00
    2    2    5     -0.33      0.04
   -2   -2   -5     -0.33     -0.04
   -3   -2   -5     -1.49      0.02
   -3   -2   -5     -1.49      0.02
    3    2    5     -1.49     -0.02
   -3   -2   -5     -1.49      0.02
   -3   -2   -5     -1.49      0.02
   -3   -2   -5     -1.49      0.02
   -4   -2   -5     -1.62      0.07
    4    2    5     -1.62     -0.07
   -4   -2   -5     -1.62      0.07
   -4   -2   -5     -1.62      0.07
   -4   -2   -5     -1.62      0.07
   -4   -2   -5     -1.62      0.07
   -4   -2   -5     -1.62      0.07
   -5   -2   -5     -0.49      0.01
   -5   -2   -5     -0.49      0.01
   -5   -2   -5     -0.49      0.01
   -5   -2   -5     -0.49      0.01
   -6   -2   -5     -0.85     -0.05
   -6   -2   -5     -0.85     -0.05
   -6   -2   -5     -0.85     -0.05
   -7   -2   -5     -0.07     -0.05
   -7   -2   -5     -0.07     -0.05
   -8   -2   -5     -0.44     -0.02
   11   -1   -6     -0.39     -0.01
   11   -1   -6     -0.39     -0.01
   10   -1   -6     -0.94     -0.08
   10   -1   -6     -0.94     -0.08
   10   -1   -6     -0.94     -0.08
    9   -1   -6      0.60     -0.05
    9   -1   -6      0.60     -0.05
    8   -1   -6     -0.27      0.04
    8   -1   -6     -0.27      0.04
    8   -1   -6     -0.27      0.04
    7   -1   -6     -3.23      0.04
    7   -1   -6     -3.23      0.04
    7   -1   -6     -3.23      0.04
    6   -1   -6     -0.05      0.03
    6   -1   -6     -0.05      0.03
    6   -1   -6     -0.05      0.03
    6   -1   -6     -0.05      0.03
    6   -1   -6     -0.05      0.03
    5   -1   -6     -0.28     -0.01
    5   -1   -6     -0.28     -0.01
    5   -1   -6     -0.28     -0.01
    5   -1   -6     -0.28     -0.01
    5   -1   -6     -0.28     -0.01
    4   -1   -6      1.26      0.05
    3   -1   -6     -0.46      0.02
    2   -1   -6     -0.44     -0.08
    1   -1   -6     -0.88     -0.01
    0   -1   -6     -1.27      0.05
   -1   -1   -6     -1.81      0.05
   -2   -1   -6     -3.49     -0.04
   -2   -1   -6     -3.49     -0.04
   -2   -1   -6     -3.49     -0.04
   -2   -1   -6     -3.49     -0.04
   -2   -1   -6     -3.49     -0.04
   -3   -1   -6     -1.46      0.02
   -3   -1   -6     -1.46      0.02
   -3   -1   -6     -1.46      0.02
   -3   -1   -6     -1.46      0.02
   -3   -1   -6     -1.46      0.02
   -3   -1   -6     -1.46      0.02
   -4   -1   -6     -0.93      0.03
   -4   -1   -6     -0.93      0.03
   -4   -1   -6     -0.93      0.03
   -4   -1   -6     -0.93      0.03
   -4   -1   -6     -0.93      0.03
   -5   -1   -6     -0.27     -0.01
   -5   -1   -6     -0.27     -0.01
   -5   -1   -6     -0.27     -0.01
   -5   -1   -6     -0.27     -0.01
   -6   -1   -6      0.03      0.00
   -6   -1   -6      0.03      0.00
   -6   -1   -6      0.03      0.00
   -7   -1   -6      0.14      0.07
   -7   -1   -6      0.14      0.07
   -7   -1   -6      0.14      0.07
   -8   -1   -6      0.87     -0.01
   10    0   -7     -0.16     -0.07
   10    0   -7     -0.16     -0.07
   10    0   -7     -0.16     -0.07
    9    0   -7     -1.48     -0.01
    9    0   -7     -1.48     -0.01
    8    0   -7      0.53      0.05
    8    0   -7      0.53      0.05
    7    0   -7      0.58      0.02
    7    0   -7      0.58      0.02
    7    0   -7      0.58      0.02
    6    0   -7     -3.55      0.00
    6    0   -7     -3.55      0.00
    6    0   -7     -3.55      0.00
    6    0   -7     -3.55      0.00
    5    0   -7     -0.09     -0.04
    5    0   -7     -0.09     -0.04
    5    0   -7     -0.09     -0.04
    5    0   -7     -0.09     -0.04
    4    0   -7      0.20      0.00
    4    0   -7      0.20      0.00
    4    0   -7      0.20      0.00
    3    0   -7      0.44      0.01
    2    0   -7      1.85      0.03
    1    0   -7     -0.22     -0.07
    0    0   -7     -1.45      0.00
   -1    0   -7     -1.33     -0.03
   -1    0   -7     -1.33     -0.03
   -1    0   -7     -1.33     -0.03
   -2    0   -7     -1.58     -0.01
   -2    0   -7     -1.58     -0.01
   -2    0   -7     -1.58     -0.01
   -2    0   -7     -1.58     -0.01
   -3    0   -7     -1.55     -0.02
   -3    0   -7     -1.55     -0.02
   -3    0   -7     -1.55     -0.02
   -3    0   -7     -1.55     -0.02
   -3    0   -7     -1.55     -0.02
   -4    0   -7     -0.83     -0.04
   -4    0   -7     -0.83     -0.04
   -4    0   -7     -0.83     -0.04
   -5    0   -7     -0.39     -0.01
   -5    0   -7     -0.39     -0.01
   -5    0   -7     -0.39     -0.01
   -5    0   -7     -0.39     -0.01
   -6    0   -7      0.00     -0.01
   -6    0   -7      0.00     -0.01
   -6    0   -7      0.00     -0.01
   -7    0   -7      0.44      0.01
   -7    0   -7      0.44      0.01
   10    1   -8     -0.37      0.00
   10    1   -8     -0.37      0.00
    9    1   -8      0.24     -0.01
    9    1   -8      0.24     -0.01
    9    1   -8      0.24     -0.01
    8    1   -8     -1.85     -0.02
    8    1   -8     -1.85     -0.02
    7    1   -8     -1.60     -0.02
    7    1   -8     -1.60     -0.02
    7    1   -8     -1.60     -0.02
    6    1   -8      0.98      0.01
    6    1   -8      0.98      0.01
    6    1   -8      0.98      0.01
    6    1   -8      0.98      0.01
    5    1   -8     -1.23     -0.01
    5    1   -8     -1.23     -0.01
    5    1   -8     -1.23     -0.01
    5    1   -8     -1.23     -0.01
    4    1   -8     -2.69     -0.07
    4    1   -8     -2.69     -0.07
    4    1   -8     -2.69     -0.07
    4    1   -8     -2.69     -0.07
    4    1   -8     -2.69     -0.07
    3    1   -8      0.46     -0.09
    3    1   -8      0.46     -0.09
    3    1   -8      0.46     -0.09
    3    1   -8      0.46     -0.09
    2    1   -8     -1.03     -0.10
    2    1   -8     -1.03     -0.10
    2    1   -8     -1.03     -0.10
    1    1   -8      0.81      0.10
    1    1   -8      0.81      0.10
    1    1   -8      0.81      0.10
    1    1   -8      0.81      0.10
    1    1   -8      0.81      0.10
    0    1   -8      0.70     -0.03
    0    1   -8      0.70     -0.03
    0    1   -8      0.70     -0.03
    0    1   -8      0.70     -0.03
    0    1   -8      0.70     -0.03
   -1    1   -8     -1.04      0.02
   -1    1   -8     -1.04      0.02
   -1    1   -8     -1.04      0.02
   -1    1   -8     -1.04      0.02
   -1    1   -8     -1.04      0.02
   -2    1   -8     -0.58      0.00
   -2    1   -8     -0.58      0.00
   -2    1   -8     -0.58      0.00
   -2    1   -8     -0.58      0.00
   -3    1   -8     -0.38      0.00
   -3    1   -8     -0.38      0.00
   -3    1   -8     -0.38      0.00
   -3    1   -8     -0.38      0.00
   -3    1   -8     -0.38      0.00
   -4    1   -8      0.17     -0.02
   -4    1   -8      0.17     -0.02
   -4    1   -8      0.17     -0.02
   -4    1   -8      0.17     -0.02
   -5    1   -8     -1.51     -0.02
   -5    1   -8     -1.51     -0.02
   -5    1   -8     -1.51     -0.02
   -5    1   -8     -1.51     -0.02
   -6    1   -8      0.16     -0.05
   -6    1   -8      0.16     -0.05
   -7    1   -8      1.30     -0.05
   -7    1   -8      1.30     -0.05
    9    2   -9     -1.14      0.03
    9    2   -9     -1.14      0.03
    8    2   -9      0.09      0.01
    8    2   -9      0.09      0.01
    7    2   -9      0.16     -0.02
    7    2   -9      0.16     -0.02
    6    2   -9     -0.87     -0.08
    6    2   -9     -0.87     -0.08
    5    2   -9     -1.14      0.00
    5    2   -9     -1.14      0.00
    5    2   -9     -1.14      0.00
    4    2   -9      0.30     -0.03
    4    2   -9      0.30     -0.03
    4    2   -9      0.30     -0.03
    4    2   -9      0.30     -0.03
    4    2   -9      0.30     -0.03
    3    2   -9     -0.68     -0.02
    3    2   -9     -0.68     -0.02
    3    2   -9     -0.68     -0.02
    3    2   -9     -0.68     -0.02
    2    2   -9      1.16     -0.05
    2    2   -9      1.16     -0.05
    2    2   -9      1.16     -0.05
    2    2   -9      1.16     -0.05
    2    2   -9      1.16     -0.05
    1    2   -9      2.55      0.05
    1    2   -9      2.55      0.05
    1    2   -9      2.55      0.05
    1    2   -9      2.55      0.05
    1    2   -9      2.55      0.05
    1    2   -9      2.55      0.05
    0    2   -9      1.94      0.04
    0    2   -9      1.94      0.04
    0    2   -9      1.94      0.04
    0    2   -9      1.94      0.04
    0    2   -9      1.94      0.04
    0    2   -9      1.94      0.04
    0    2   -9      1.94      0.04
   -1    2   -9      1.88      0.03
   -1    2   -9      1.88      0.03
   -1    2   -9      1.88      0.03
   -1    2   -9      1.88      0.03
   -1    2   -9      1.88      0.03
   -2    2   -9      0.61      0.07
   -2    2   -9      0.61      0.07
   -2    2   -9      0.61      0.07
   -2    2   -9      0.61      0.07
   -3    2   -9      1.06      0.01
   -3    2   -9      1.06      0.01
   -3    2   -9      1.06      0.01
   -4    2   -9      0.41      0.00
   -4    2   -9      0.41      0.00
   -4    2   -9      0.41      0.00
   -4    2   -9      0.41      0.00
   -5    2   -9      0.32      0.01
   -5    2   -9      0.32      0.01
   -5    2   -9      0.32      0.01
   -5    2   -9      0.32      0.01
   -6    2   -9      0.13     -0.03
   -6    2   -9      0.13     -0.03
    9    3  -10     -0.46      0.01
    8    3  -10     -0.81      0.00
    7    3  -10      0.11     -0.03
    7    3  -10      0.11     -0.03
    6    3  -10      1.04     -0.02
    6    3  -10      1.04     -0.02
    5    3  -10      1.39     -0.05
    5    3  -10      1.39     -0.05
    5    3  -10      1.39     -0.05
    4    3  -10      0.55     -0.03
    4    3  -10      0.55     -0.03
    4    3  -10      0.55     -0.03
    4    3  -10      0.55     -0.03
    3    3  -10      0.60     -0.15
    3    3  -10      0.60     -0.15
    3    3  -10      0.60     -0.15
    2    3  -10      3.89      0.55
    2    3  -10      3.89      0.55
    2    3  -10      3.89      0.55
    1    3  -10      0.60     -0.12
    1    3  -10      0.60     -0.12
    1    3  -10      0.60     -0.12
    1    3  -10      0.60     -0.12
    0    3  -10      2.56      0.00
    0    3  -10      2.56      0.00
    0    3  -10      2.56      0.00
    0    3  -10      2.56      0.00
    0    3  -10      2.56      0.00
   -1    3  -10      0.49     -0.02
   -1    3  -10      0.49     -0.02
   -1    3  -10      0.49     -0.02
   -1    3  -10      0.49     -0.02
   -2    3  -10      1.22     -0.06
   -2    3  -10      1.22     -0.06
   -2    3  -10      1.22     -0.06
   -2    3  -10      1.22     -0.06
   -3    3  -10      0.69      0.03
   -3    3  -10      0.69      0.03
   -3    3  -10      0.69      0.03
   -4    3  -10      0.87      0.04
   -4    3  -10      0.87      0.04
   -4    3  -10      0.87      0.04
   -5    3  -10      1.07     -0.07
   -5    3  -10      1.07     -0.07
   -5    3  -10      1.07     -0.07
   -6    3  -10      1.19      0.01
    8    4  -11     -0.82      0.02
    7    4  -11     -0.81      0.02
    7    4  -11     -0.81      0.02
    6    4  -11      0.12      0.05
    6    4  -11      0.12      0.05
    5    4  -11     -0.52      0.02
    5    4  -11     -0.52      0.02
    4    4  -11      0.93     -0.09
    4    4  -11      0.93     -0.09
    4    4  -11      0.93     -0.09
    3    4  -11      0.62      0.05
    3    4  -11      0.62      0.05
    3    4  -11      0.62      0.05
    2    4  -11     -2.56     -0.70
    2    4  -11     -2.56     -0.70
    2    4  -11     -2.56     -0.70
    1    4  -11      0.48      0.00
    1    4  -11      0.48      0.00
    1    4  -11      0.48      0.00
    1    4  -11      0.48      0.00
    0    4  -11     -2.09     -0.09
    0    4  -11     -2.09     -0.09
    0    4  -11     -2.09     -0.09
   -1    4  -11      0.52     -0.02
   -1    4  -11      0.52     -0.02
   -1    4  -11      0.52     -0.02
   -1    4  -11      0.52     -0.02
   -2    4  -11     -0.18      0.02
   -2    4  -11     -0.18      0.02
   -2    4  -11     -0.18      0.02
   -3    4  -11      0.65      0.04
   -3    4  -11      0.65      0.04
   -3    4  -11      0.65      0.04
   -4    4  -11      0.28     -0.06
   -4    4  -11      0.28     -0.06
   -4    4  -11      0.28     -0.06
   -5    4  -11      0.88     -0.03
    6    5  -12     -1.47      0.11
    6    5  -12     -1.47      0.11
    5    5  -12      0.03      0.05
    5    5  -12      0.03      0.05
    4    5  -12     -0.67      0.02
    3    5  -12     -0.35     -0.02
    3    5  -12     -0.35     -0.02
    3    5  -12     -0.35     -0.02
    2    5  -12      0.78      0.14
    2    5  -12      0.78      0.14
    2    5  -12      0.78      0.14
    1    5  -12     -0.43     -0.09
    1    5  -12     -0.43     -0.09
    1    5  -12     -0.43     -0.09
    0    5  -12      0.93     -0.08
    0    5  -12      0.93     -0.08
   -1    5  -12     -0.07     -0.02
   -1    5  -12     -0.07     -0.02
   -1    5  -12     -0.07     -0.02
   -2    5  -12      0.16      0.08
   -2    5  -12      0.16      0.08
   -2    5  -12      0.16      0.08
   -3    5  -12      0.12     -0.03
   -3    5  -12      0.12     -0.03
   -3    5  -12      0.12     -0.03
   -4    5  -12     -0.42      0.00
    5    6  -13      0.32     -0.04
    4    6  -13     -0.53      0.00
    3    6  -13      0.61      0.04
    2    6  -13     -0.16      0.04
    2    6  -13     -0.16      0.04
    1    6  -13      0.71      0.04
    1    6  -13      0.71      0.04
    0    6  -13      0.30      0.13
   -1    6  -13      0.50      0.15
   -2    6  -13      0.47     -0.03
   -5   13   -5     -1.52     -0.04
   -4   13   -5      0.09      0.01
   -3   13   -5     -0.46      0.00
   -3   13   -5     -0.46      0.00
   -2   13   -5     -1.68     -0.10
   -2   13   -5     -1.68     -0.10
   -1   13   -5     -0.24     -0.58
    0   13   -5     -0.77     -0.71
    1   13   -5     -3.12     -1.85
   -7   12   -4      0.76      0.00
   -6   12   -4     -0.25      0.02
   -5   12   -4     -0.38      0.01
   -4   12   -4     -1.12      0.02
   -3   12   -4     -0.12      0.04
   -2   12   -4      0.78     -0.09
   -1   12   -4     -1.35     -0.19
    0   12   -4     -1.58     -0.81
    2   12   -4     -0.27     -0.89
   -2  -12    4     -0.27      0.89
   -8   11   -3     -0.02      0.01
   -7   11   -3     -0.57      0.02
   -6   11   -3      1.10      0.03
   -5   11   -3      0.68      0.04
   -4   11   -3     -0.45     -0.01
   -3   11   -3     -0.92      0.01
   -2   11   -3     -1.84      0.05
   -1   11   -3      0.54     -0.01
    0   11   -3      0.63     -0.09
    1   11   -3      0.44     -0.34
   -2  -11    3      0.99     -0.48
   -9   10   -2     -0.27     -0.04
   -8   10   -2     -0.25     -0.04
   -7   10   -2      0.45     -0.04
   -6   10   -2      0.53     -0.05
   -5   10   -2      1.42     -0.04
   -4   10   -2      0.94      0.02
    3  -10    2      0.47      0.02
   -3   10   -2      0.47     -0.02
   -2   10   -2      1.35     -0.04
   -1   10   -2      0.32     -0.07
    0   10   -2     -0.05      0.04
    1   10   -2      0.65      0.02
   -2  -10    2      0.73      0.36
   -3  -10    2     -0.18      0.07
   -9    9   -1     -0.42     -0.01
   -8    9   -1     -0.58     -0.02
   -7    9   -1      0.52     -0.02
    6   -9    1      0.46      0.06
   -6    9   -1      0.46     -0.06
    5   -9    1      0.24      0.00
   -5    9   -1      0.24      0.00
    4   -9    1      0.79      0.00
   -4    9   -1      0.79      0.00
    3   -9    1      0.64     -0.04
   -3    9   -1      0.64      0.04
   -3    9   -1      0.64      0.04
    2   -9    1     -0.11     -0.02
   -2    9   -1     -0.11      0.02
   -2    9   -1     -0.11      0.02
   -1    9   -1     -0.90      0.00
   -1    9   -1     -0.90      0.00
    0    9   -1     -1.50      0.01
    1    9   -1     -1.30      0.13
   -3   -9    1      0.08      0.02
   -4   -9    1      0.32      0.02
   -5   -9    1      1.20     -0.11
  -10    8    0     -1.20     -0.01
   -9    8    0     -1.45     -0.06
    8   -8    0     -0.93      0.02
   -8    8    0     -0.93     -0.02
    7   -8    0     -1.22      0.05
    7   -8    0     -1.22      0.05
   -7    8    0     -1.22     -0.05
    6   -8    0      0.14     -0.03
    6   -8    0      0.14     -0.03
   -6    8    0      0.14      0.03
    5   -8    0     -0.36     -0.05
   -5    8    0     -0.36      0.05
    4   -8    0     -1.71     -0.01
   -4    8    0     -1.71      0.01
   -4    8    0     -1.71      0.01
    3   -8    0     -0.26     -0.01
   -3    8    0     -0.26      0.01
   -3    8    0     -0.26      0.01
    2   -8    0     -2.01      0.05
   -2    8    0     -2.01     -0.05
   -2    8    0     -2.01     -0.05
    1   -8    0     -0.32      0.10
   -1    8    0     -0.32     -0.10
   -1    8    0     -0.32     -0.10
    1   -8    0     -0.32      0.10
    0    8    0      0.20     -0.02
    0   -8    0      0.20      0.02
    0    8    0      0.20     -0.02
    1    8    0     -2.81     -0.04
   -1   -8    0     -2.81      0.04
   -2   -8    0      0.28     -0.02
   -3   -8    0     -0.32     -0.11
   -3   -8    0     -0.32     -0.11
   -4   -8    0      1.20     -0.22
   -4   -8    0      1.20     -0.22
   -5   -8    0     -1.60     -0.08
   -5   -8    0     -1.60     -0.08
   -6   -8    0     -0.61      0.01
   10   -7   -1     -0.10      0.02
  -10    7    1     -0.10     -0.02
    9   -7   -1     -1.17      0.00
    9   -7   -1     -1.17      0.00
   -9    7    1     -1.17      0.00
    8   -7   -1      0.17      0.04
    8   -7   -1      0.17      0.04
   -8    7    1      0.17     -0.04
    7   -7   -1      1.27     -0.02
    7   -7   -1      1.27     -0.02
   -7    7    1      1.27      0.02
    6   -7   -1     -0.23     -0.04
    6   -7   -1     -0.23     -0.04
   -6    7    1     -0.23      0.04
    5   -7   -1     -0.74      0.00
    5   -7   -1     -0.74      0.00
   -5    7    1     -0.74      0.00
   -5    7    1     -0.74      0.00
    4   -7   -1      0.29     -0.07
    4   -7   -1      0.29     -0.07
   -4    7    1      0.29      0.07
   -4    7    1      0.29      0.07
    3   -7   -1     -1.77      0.06
   -3    7    1     -1.77     -0.06
   -3    7    1     -1.77     -0.06
    2   -7   -1      1.30     -0.07
   -2    7    1      1.30      0.07
   -2    7    1      1.30      0.07
    1   -7   -1     -0.62     -0.11
   -1    7    1     -0.62      0.11
   -1    7    1     -0.62      0.11
    1   -7   -1     -0.62     -0.11
    0    7    1     -1.43      0.02
    0   -7   -1     -1.43     -0.02
    0   -7   -1     -1.43     -0.02
    0    7    1     -1.43      0.02
    1    7    1      1.35     -0.04
    1    7    1      1.35     -0.04
   -1   -7   -1      1.35      0.04
    2    7    1     -1.08      0.10
   -2   -7   -1     -1.08     -0.10
   -3   -7   -1      1.03     -0.42
   -3   -7   -1      1.03     -0.42
   -4   -7   -1     -0.64     -0.14
   -4   -7   -1     -0.64     -0.14
   -5   -7   -1      1.27     -0.26
   -5   -7   -1      1.27     -0.26
   -6   -7   -1     -0.56     -0.08
   -6   -7   -1     -0.56     -0.08
   -7   -7   -1     -0.93     -0.02
   10   -6   -2      0.38     -0.01
   10   -6   -2      0.38     -0.01
   10   -6   -2      0.38     -0.01
  -10    6    2      0.38      0.01
    9   -6   -2      1.36      0.00
    9   -6   -2      1.36      0.00
   -9    6    2      1.36      0.00
    8   -6   -2      1.00     -0.10
    8   -6   -2      1.00     -0.10
   -8    6    2      1.00      0.10
    7   -6   -2      0.68     -0.04
    7   -6   -2      0.68     -0.04
   -7    6    2      0.68      0.04
   -6    6    2      1.89     -0.03
    6   -6   -2      1.89      0.03
    6   -6   -2      1.89      0.03
   -6    6    2      1.89     -0.03
    5   -6   -2      1.90      0.16
    5   -6   -2      1.90      0.16
   -5    6    2      1.90     -0.16
    4   -6   -2      0.28      0.07
   -4    6    2      0.28     -0.07
    4   -6   -2      0.28      0.07
   -3    6    2     -0.11     -0.06
    2   -6   -2     -1.17     -0.01
   -2    6    2     -1.17      0.01
   -1    6    2     -0.24      0.06
    0    6    2      1.33     -0.05
    0   -6   -2      1.33      0.05
    0   -6   -2      1.33      0.05
    1    6    2      0.12      0.01
   -1   -6   -2      0.12     -0.01
    2    6    2      0.70      0.16
   -2   -6   -2      0.70     -0.16
   -3   -6   -2      0.13     -0.31
   -3   -6   -2      0.13     -0.31
   -3   -6   -2      0.13     -0.31
   -4   -6   -2      0.06     -1.05
   -4   -6   -2      0.06     -1.05
   -5   -6   -2     -0.41     -0.25
   -5   -6   -2     -0.41     -0.25
   -5   -6   -2     -0.41     -0.25
   -5   -6   -2     -0.41     -0.25
   -6   -6   -2     -0.06     -0.13
   -6   -6   -2     -0.06     -0.13
   -7   -6   -2     -1.38      0.01
   10   -5   -3     -0.06      0.01
   10   -5   -3     -0.06      0.01
   10   -5   -3     -0.06      0.01
    9   -5   -3     -0.06      0.02
    9   -5   -3     -0.06      0.02
    8   -5   -3      1.82      0.01
    8   -5   -3      1.82      0.01
    7   -5   -3      2.92     -0.01
    7   -5   -3      2.92     -0.01
   -6    5    3      2.88      0.01
    6   -5   -3      2.88     -0.01
    6   -5   -3      2.88     -0.01
    5   -5   -3      2.86      0.11
    5   -5   -3      2.86      0.11
   -5    5    3      2.86     -0.11
    4   -5   -3      2.73      0.59
    4   -5   -3      2.73      0.59
   -4    5    3      2.73     -0.59
   -3    5    3      3.38     -0.13
    3   -5   -3      3.38      0.13
    2   -5   -3      0.80     -0.07
   -2    5    3      0.80      0.07
    1   -5   -3      0.68      0.02
   -1    5    3      0.68     -0.02
    0    5    3     -1.44     -0.04
    1    5    3     -1.99     -0.10
   -1   -5   -3     -1.99      0.10
    2    5    3      0.33     -0.03
   -2   -5   -3      0.33      0.03
   -3   -5   -3     -0.37     -0.28
   -3   -5   -3     -0.37     -0.28
    3    5    3     -0.37      0.28
   -3   -5   -3     -0.37     -0.28
   -4   -5   -3     -1.35     -0.08
   -4   -5   -3     -1.35     -0.08
   -4   -5   -3     -1.35     -0.08
   -5   -5   -3     -0.33     -0.27
   -5   -5   -3     -0.33     -0.27
   -5   -5   -3     -0.33     -0.27
   -5   -5   -3     -0.33     -0.27
   -6   -5   -3     -0.84     -0.05
   -6   -5   -3     -0.84     -0.05
   -6   -5   -3     -0.84     -0.05
   -7   -5   -3      1.39     -0.01
   -7   -5   -3      1.39     -0.01
   11   -4   -4     -0.77     -0.02
   11   -4   -4     -0.77     -0.02
   10   -4   -4     -0.04     -0.03
   10   -4   -4     -0.04     -0.03
   10   -4   -4     -0.04     -0.03
    9   -4   -4      0.39      0.04
    9   -4   -4      0.39      0.04
    9   -4   -4      0.39      0.04
    8   -4   -4      0.13      0.02
    8   -4   -4      0.13      0.02
    7   -4   -4      1.48     -0.06
    7   -4   -4      1.48     -0.06
    7   -4   -4      1.48     -0.06
    6   -4   -4      5.71     -0.04
    6   -4   -4      5.71     -0.04
   -6    4    4      5.71      0.04
    6   -4   -4      5.71     -0.04
    6   -4   -4      5.71     -0.04
   -5    4    4      7.15      0.08
    5   -4   -4      7.15     -0.08
    5   -4   -4      7.15     -0.08
    5   -4   -4      7.15     -0.08
    5   -4   -4      7.15     -0.08
   -4    4    4      5.52      0.01
    4   -4   -4      5.52     -0.01
   -3    4    4      2.26     -0.06
    3   -4   -4      2.26      0.06
    2   -4   -4      2.05      0.10
   -2    4    4      2.05     -0.10
    1   -4   -4     -0.41     -0.06
   -1    4    4     -0.41      0.06
    0   -4   -4      0.51     -0.04
    0    4    4      0.51      0.04
    1    4    4      0.71     -0.01
   -1   -4   -4      0.71      0.01
   -2   -4   -4     -1.50      0.01
   -2   -4   -4     -1.50      0.01
    2    4    4     -1.50     -0.01
   -2   -4   -4     -1.50      0.01
   -3   -4   -4     -0.19      0.03
   -3   -4   -4     -0.19      0.03
    3    4    4     -0.19     -0.03
   -3   -4   -4     -0.19      0.03
   -4   -4   -4      0.50      0.05
   -4   -4   -4      0.50      0.05
   -4   -4   -4      0.50      0.05
   -4   -4   -4      0.50      0.05
   -5   -4   -4     -1.12      0.05
   -5   -4   -4     -1.12      0.05
   -5   -4   -4     -1.12      0.05
   -5   -4   -4     -1.12      0.05
   -6   -4   -4     -0.24      0.06
   -6   -4   -4     -0.24      0.06
   -6   -4   -4     -0.24      0.06
   -7   -4   -4     -0.57      0.03
   -7   -4   -4     -0.57      0.03
   11   -3   -5     -0.18     -0.15
   11   -3   -5     -0.18     -0.15
   10   -3   -5     -0.94     -0.03
   10   -3   -5     -0.94     -0.03
    9   -3   -5     -0.49     -0.02
    9   -3   -5     -0.49     -0.02
    9   -3   -5     -0.49     -0.02
    8   -3   -5      0.14      0.00
    8   -3   -5      0.14      0.00
    8   -3   -5      0.14      0.00
    8   -3   -5      0.14      0.00
    7   -3   -5      2.41      0.00
    7   -3   -5      2.41      0.00
    7   -3   -5      2.41      0.00
    7   -3   -5      2.41      0.00
    6   -3   -5      0.57     -0.07
    6   -3   -5      0.57     -0.07
    6   -3   -5      0.57     -0.07
    6   -3   -5      0.57     -0.07
   -5    3    5      1.69     -0.05
    5   -3   -5      1.69      0.05
    5   -3   -5      1.69      0.05
    5   -3   -5      1.69      0.05
    5   -3   -5      1.69      0.05
    5   -3   -5      1.69      0.05
   -4    3    5      3.27     -0.12
    4   -3   -5      3.27      0.12
   -3    3    5      2.82      0.02
    3   -3   -5      2.82     -0.02
    2   -3   -5     -1.06     -0.15
   -2    3    5     -1.06      0.15
    1   -3   -5     -1.58     -0.02
   -1    3    5     -1.58      0.02
    0    3    5     -2.76     -0.05
    0   -3   -5     -2.76      0.05
   -1   -3   -5     -2.16      0.00
   -1   -3   -5     -2.16      0.00
   -2   -3   -5      0.23     -0.07
   -2   -3   -5      0.23     -0.07
    2    3    5      0.23      0.07
   -2   -3   -5      0.23     -0.07
   -3   -3   -5     -0.81      0.12
   -3   -3   -5     -0.81      0.12
    3    3    5     -0.81     -0.12
   -3   -3   -5     -0.81      0.12
   -4   -3   -5     -0.95      0.16
   -4   -3   -5     -0.95      0.16
   -4   -3   -5     -0.95      0.16
   -4   -3   -5     -0.95      0.16
   -4   -3   -5     -0.95      0.16
   -5   -3   -5     -0.14      0.03
   -5   -3   -5     -0.14      0.03
   -5   -3   -5     -0.14      0.03
   -5   -3   -5     -0.14      0.03
   -6   -3   -5     -0.70     -0.05
   -6   -3   -5     -0.70     -0.05
   -6   -3   -5     -0.70     -0.05
   -7   -3   -5     -0.66      0.02
   -7   -3   -5     -0.66      0.02
   10   -2   -6     -0.52     -0.07
   10   -2   -6     -0.52     -0.07
    9   -2   -6     -0.14     -0.03
    9   -2   -6     -0.14     -0.03
    9   -2   -6     -0.14     -0.03
    9   -2   -6     -0.14     -0.03
    8   -2   -6      0.66      0.02
    8   -2   -6      0.66      0.02
    8   -2   -6      0.66      0.02
    8   -2   -6      0.66      0.02
    7   -2   -6     -0.95     -0.02
    7   -2   -6     -0.95     -0.02
    7   -2   -6     -0.95     -0.02
    7   -2   -6     -0.95     -0.02
    6   -2   -6      1.52      0.05
    6   -2   -6      1.52      0.05
    6   -2   -6      1.52      0.05
    6   -2   -6      1.52      0.05
    6   -2   -6      1.52      0.05
    6   -2   -6      1.52      0.05
    5   -2   -6      0.39      0.04
    5   -2   -6      0.39      0.04
    5   -2   -6      0.39      0.04
    5   -2   -6      0.39      0.04
    5   -2   -6      0.39      0.04
    5   -2   -6      0.39      0.04
    4   -2   -6      1.11      0.00
    4   -2   -6      1.11      0.00
    4   -2   -6      1.11      0.00
    3   -2   -6      0.81     -0.03
    2   -2   -6      3.19     -0.04
    1   -2   -6      0.87      0.02
    0   -2   -6     -0.80     -0.07
   -1   -2   -6     -1.41     -0.02
   -1   -2   -6     -1.41     -0.02
   -1   -2   -6     -1.41     -0.02
   -2   -2   -6     -1.51     -0.02
   -2   -2   -6     -1.51     -0.02
   -2   -2   -6     -1.51     -0.02
   -2   -2   -6     -1.51     -0.02
   -3   -2   -6      0.23      0.02
   -3   -2   -6      0.23      0.02
   -3   -2   -6      0.23      0.02
   -3   -2   -6      0.23      0.02
   -3   -2   -6      0.23      0.02
   -4   -2   -6      0.19      0.06
   -4   -2   -6      0.19      0.06
   -4   -2   -6      0.19      0.06
   -4   -2   -6      0.19      0.06
   -4   -2   -6      0.19      0.06
   -5   -2   -6     -0.13      0.01
   -5   -2   -6     -0.13      0.01
   -5   -2   -6     -0.13      0.01
   -5   -2   -6     -0.13      0.01
   -6   -2   -6     -0.31     -0.02
   -6   -2   -6     -0.31     -0.02
   -6   -2   -6     -0.31     -0.02
   -7   -2   -6      0.04     -0.02
   10   -1   -7     -0.31      0.04
   10   -1   -7     -0.31      0.04
    9   -1   -7     -1.07      0.08
    9   -1   -7     -1.07      0.08
    9   -1   -7     -1.07      0.08
    8   -1   -7      0.26      0.01
    8   -1   -7      0.26      0.01
    8   -1   -7      0.26      0.01
    8   -1   -7      0.26      0.01
    7   -1   -7      1.29     -0.03
    7   -1   -7      1.29     -0.03
    7   -1   -7      1.29     -0.03
    7   -1   -7      1.29     -0.03
    7   -1   -7      1.29     -0.03
    6   -1   -7     -2.09      0.00
    6   -1   -7     -2.09      0.00
    6   -1   -7     -2.09      0.00
    6   -1   -7     -2.09      0.00
    6   -1   -7     -2.09      0.00
    6   -1   -7     -2.09      0.00
    5   -1   -7     -0.65      0.03
    5   -1   -7     -0.65      0.03
    5   -1   -7     -0.65      0.03
    5   -1   -7     -0.65      0.03
    5   -1   -7     -0.65      0.03
    5   -1   -7     -0.65      0.03
    4   -1   -7     -1.24      0.01
    4   -1   -7     -1.24      0.01
    4   -1   -7     -1.24      0.01
    3   -1   -7      1.55      0.01
    3   -1   -7      1.55      0.01
    3   -1   -7      1.55      0.01
    2   -1   -7      1.75      0.11
    2   -1   -7      1.75      0.11
    2   -1   -7      1.75      0.11
    1   -1   -7      1.04      0.02
    1   -1   -7      1.04      0.02
    1   -1   -7      1.04      0.02
    0   -1   -7     -1.20      0.01
    0   -1   -7     -1.20      0.01
    0   -1   -7     -1.20      0.01
    0   -1   -7     -1.20      0.01
   -1   -1   -7     -0.59      0.01
   -1   -1   -7     -0.59      0.01
   -1   -1   -7     -0.59      0.01
   -1   -1   -7     -0.59      0.01
   -1   -1   -7     -0.59      0.01
   -2   -1   -7     -1.65      0.05
   -2   -1   -7     -1.65      0.05
   -2   -1   -7     -1.65      0.05
   -2   -1   -7     -1.65      0.05
   -3   -1   -7     -1.15     -0.02
   -3   -1   -7     -1.15     -0.02
   -3   -1   -7     -1.15     -0.02
   -3   -1   -7     -1.15     -0.02
   -4   -1   -7     -0.39     -0.03
   -4   -1   -7     -0.39     -0.03
   -4   -1   -7     -0.39     -0.03
   -4   -1   -7     -0.39     -0.03
   -4   -1   -7     -0.39     -0.03
   -5   -1   -7     -0.53      0.04
   -5   -1   -7     -0.53      0.04
   -5   -1   -7     -0.53      0.04
   -5   -1   -7     -0.53      0.04
   -6   -1   -7      0.19      0.04
   -6   -1   -7      0.19      0.04
   -6   -1   -7      0.19      0.04
   -7   -1   -7     -1.22      0.03
   10    0   -8     -0.44      0.02
    9    0   -8      0.72      0.00
    9    0   -8      0.72      0.00
    9    0   -8      0.72      0.00
    8    0   -8     -0.85      0.00
    8    0   -8     -0.85      0.00
    8    0   -8     -0.85      0.00
    7    0   -8     -0.55     -0.04
    7    0   -8     -0.55     -0.04
    7    0   -8     -0.55     -0.04
    7    0   -8     -0.55     -0.04
    7    0   -8     -0.55     -0.04
    6    0   -8      1.33     -0.02
    6    0   -8      1.33     -0.02
    6    0   -8      1.33     -0.02
    6    0   -8      1.33     -0.02
    5    0   -8     -1.23      0.05
    5    0   -8     -1.23      0.05
    5    0   -8     -1.23      0.05
    5    0   -8     -1.23      0.05
    4    0   -8     -0.96     -0.02
    4    0   -8     -0.96     -0.02
    4    0   -8     -0.96     -0.02
    3    0   -8      0.21      0.02
    3    0   -8      0.21      0.02
    3    0   -8      0.21      0.02
    2    0   -8     -0.47      0.01
    2    0   -8     -0.47      0.01
    2    0   -8     -0.47      0.01
    2    0   -8     -0.47      0.01
    1    0   -8      0.08      0.13
    1    0   -8      0.08      0.13
    1    0   -8      0.08      0.13
    1    0   -8      0.08      0.13
    0    0   -8      0.97     -0.02
    0    0   -8      0.97     -0.02
    0    0   -8      0.97     -0.02
    0    0   -8      0.97     -0.02
   -1    0   -8     -0.78      0.11
   -1    0   -8     -0.78      0.11
   -1    0   -8     -0.78      0.11
   -1    0   -8     -0.78      0.11
   -2    0   -8     -0.12      0.04
   -2    0   -8     -0.12      0.04
   -2    0   -8     -0.12      0.04
   -3    0   -8     -0.58      0.04
   -3    0   -8     -0.58      0.04
   -3    0   -8     -0.58      0.04
   -4    0   -8      0.23      0.02
   -4    0   -8      0.23      0.02
   -5    0   -8     -0.30     -0.04
   -5    0   -8     -0.30     -0.04
   -5    0   -8     -0.30     -0.04
   -6    0   -8     -0.36      0.03
   -6    0   -8     -0.36      0.03
    9    1   -9      0.17     -0.01
    9    1   -9      0.17     -0.01
    8    1   -9      1.72      0.02
    8    1   -9      1.72      0.02
    7    1   -9      0.94      0.04
    7    1   -9      0.94      0.04
    6    1   -9     -0.06      0.03
    6    1   -9     -0.06      0.03
    6    1   -9     -0.06      0.03
    5    1   -9      0.98      0.07
    5    1   -9      0.98      0.07
    5    1   -9      0.98      0.07
    4    1   -9      2.39      0.07
    4    1   -9      2.39      0.07
    4    1   -9      2.39      0.07
    3    1   -9      0.10      0.01
    3    1   -9      0.10      0.01
    3    1   -9      0.10      0.01
    2    1   -9      0.90     -0.04
    2    1   -9      0.90     -0.04
    2    1   -9      0.90     -0.04
    1    1   -9      0.96     -0.14
    1    1   -9      0.96     -0.14
    1    1   -9      0.96     -0.14
    0    1   -9      0.63      0.03
    0    1   -9      0.63      0.03
    0    1   -9      0.63      0.03
    0    1   -9      0.63      0.03
   -1    1   -9      1.10     -0.02
   -1    1   -9      1.10     -0.02
   -1    1   -9      1.10     -0.02
   -2    1   -9      0.66      0.02
   -2    1   -9      0.66      0.02
   -2    1   -9      0.66      0.02
   -3    1   -9      1.18      0.00
   -3    1   -9      1.18      0.00
   -3    1   -9      1.18      0.00
   -4    1   -9      1.05     -0.04
   -4    1   -9      1.05     -0.04
   -4    1   -9      1.05     -0.04
   -5    1   -9      1.47     -0.07
   -5    1   -9      1.47     -0.07
   -5    1   -9      1.47     -0.07
   -6    1   -9      0.46     -0.03
   -6    1   -9      0.46     -0.03
    9    2  -10      1.11      0.03
    8    2  -10     -0.11      0.03
    7    2  -10      0.55      0.02
    7    2  -10      0.55      0.02
    6    2  -10      1.87      0.13
    6    2  -10      1.87      0.13
    6    2  -10      1.87      0.13
    5    2  -10      3.09      0.02
    5    2  -10      3.09      0.02
    5    2  -10      3.09      0.02
    4    2  -10      1.58     -0.17
    4    2  -10      1.58     -0.17
    3    2  -10      0.40     -0.53
    3    2  -10      0.40     -0.53
    3    2  -10      0.40     -0.53
    2    2  -10      0.55     -0.07
    2    2  -10      0.55     -0.07
    2    2  -10      0.55     -0.07
    1    2  -10     -1.42     -0.49
    1    2  -10     -1.42     -0.49
    1    2  -10     -1.42     -0.49
    1    2  -10     -1.42     -0.49
    0    2  -10      0.06     -0.09
    0    2  -10      0.06     -0.09
    0    2  -10      0.06     -0.09
    0    2  -10      0.06     -0.09
   -1    2  -10      0.44      0.01
   -1    2  -10      0.44      0.01
   -1    2  -10      0.44      0.01
   -1    2  -10      0.44      0.01
   -2    2  -10      1.03     -0.04
   -2    2  -10      1.03     -0.04
   -2    2  -10      1.03     -0.04
   -2    2  -10      1.03     -0.04
   -3    2  -10      1.17      0.01
   -3    2  -10      1.17      0.01
   -3    2  -10      1.17      0.01
   -4    2  -10      0.52     -0.02
   -4    2  -10      0.52     -0.02
   -5    2  -10      1.08     -0.11
   -5    2  -10      1.08     -0.11
    8    3  -11      0.01      0.00
    7    3  -11     -0.26     -0.01
    7    3  -11     -0.26     -0.01
    6    3  -11      0.55      0.05
    6    3  -11      0.55      0.05
    5    3  -11      0.81      0.00
    5    3  -11      0.81      0.00
    5    3  -11      0.81      0.00
    4    3  -11      0.83     -0.27
    4    3  -11      0.83     -0.27
    3    3  -11      0.40     -0.47
    3    3  -11      0.40     -0.47
    3    3  -11      0.40     -0.47
    2    3  -11     -3.44     -1.96
    2    3  -11     -3.44     -1.96
    2    3  -11     -3.44     -1.96
    1    3  -11      0.54     -0.46
    1    3  -11      0.54     -0.46
    1    3  -11      0.54     -0.46
    1    3  -11      0.54     -0.46
    0    3  -11     -1.24     -0.27
    0    3  -11     -1.24     -0.27
    0    3  -11     -1.24     -0.27
   -1    3  -11     -0.21      0.04
   -1    3  -11     -0.21      0.04
   -1    3  -11     -0.21      0.04
   -1    3  -11     -0.21      0.04
   -2    3  -11     -0.17      0.05
   -2    3  -11     -0.17      0.05
   -2    3  -11     -0.17      0.05
   -3    3  -11     -0.31      0.01
   -3    3  -11     -0.31      0.01
   -3    3  -11     -0.31      0.01
   -4    3  -11     -0.12     -0.06
   -4    3  -11     -0.12     -0.06
   -5    3  -11     -0.30      0.00
    7    4  -12      0.45      0.00
    6    4  -12     -0.91      0.02
    6    4  -12     -0.91      0.02
    5    4  -12      0.19      0.06
    4    4  -12     -0.29     -0.08
    4    4  -12     -0.29     -0.08
    3    4  -12      0.19     -0.54
    3    4  -12      0.19     -0.54
    3    4  -12      0.19     -0.54
    2    4  -12      3.45     -0.07
    2    4  -12      3.45     -0.07
    1    4  -12      1.32     -0.62
    1    4  -12      1.32     -0.62
    1    4  -12      1.32     -0.62
    1    4  -12      1.32     -0.62
    0    4  -12      1.11     -0.19
    0    4  -12      1.11     -0.19
    0    4  -12      1.11     -0.19
   -1    4  -12     -1.46     -0.04
   -1    4  -12     -1.46     -0.04
   -1    4  -12     -1.46     -0.04
   -2    4  -12     -1.42      0.09
   -2    4  -12     -1.42      0.09
   -2    4  -12     -1.42      0.09
   -3    4  -12     -0.74     -0.03
   -3    4  -12     -0.74     -0.03
   -3    4  -12     -0.74     -0.03
   -4    4  -12     -0.90      0.01
    5    5  -13     -1.40      0.00
    4    5  -13     -0.33      0.03
    3    5  -13      1.17     -0.04
    3    5  -13      1.17     -0.04
    2    5  -13      1.38     -0.09
    2    5  -13      1.38     -0.09
    2    5  -13      1.38     -0.09
    1    5  -13      1.67      0.02
    1    5  -13      1.67      0.02
    0    5  -13     -0.77      0.07
   -1    5  -13     -1.62      0.05
   -5   13   -4     -0.62      0.06
   -4   13   -4     -0.40     -0.01
   -3   13   -4      0.32     -0.04
   -3   13   -4      0.32     -0.04
   -2   13   -4      1.45     -0.02
   -1   13   -4      0.37      0.23
    1   13   -4      0.51      1.27
   -7   12   -3     -1.52      0.02
   -6   12   -3     -0.47      0.03
   -5   12   -3     -0.48      0.04
   -4   12   -3     -0.38     -0.05
   -3   12   -3     -0.09     -0.06
   -2   12   -3     -1.05     -0.01
   -1   12   -3      1.45      0.10
    0   12   -3      1.32      0.36
    2   12   -3     -1.31      0.81
   -8   11   -2     -0.06     -0.01
   -7   11   -2     -0.48      0.01
   -6   11   -2     -1.14      0.08
   -5   11   -2     -0.47     -0.05
   -4   11   -2      0.03      0.03
   -3   11   -2     -0.40     -0.03
   -2   11   -2      2.13     -0.01
   -1   11   -2     -0.29     -0.08
    0   11   -2     -0.77     -0.02
   -2  -11    2      0.57      0.95
   -8   10   -1      0.27      0.06
   -7   10   -1     -0.42      0.06
   -6   10   -1     -0.23      0.03
    5  -10    1     -0.47     -0.08
   -5   10   -1     -0.47      0.08
    4  -10    1     -0.65      0.01
   -4   10   -1     -0.65     -0.01
    3  -10    1     -0.80     -0.04
   -3   10   -1     -0.80      0.04
   -2   10   -1     -2.21      0.05
   -1   10   -1     -1.46      0.28
    0   10   -1     -0.31     -0.09
    1   10   -1     -1.25     -0.24
   -2  -10    1      0.12      0.04
   -3  -10    1      0.14      0.25
   -4  -10    1      1.18      0.10
   -4  -10    1      1.18      0.10
   -9    9    0     -0.38     -0.03
    8   -9    0      0.04      0.00
   -8    9    0      0.04      0.00
    7   -9    0     -0.25     -0.01
   -7    9    0     -0.25      0.01
    6   -9    0     -0.23      0.01
   -6    9    0     -0.23     -0.01
    5   -9    0      0.26      0.02
   -5    9    0      0.26     -0.02
    4   -9    0     -0.77      0.00
   -4    9    0     -0.77      0.00
    3   -9    0     -0.43     -0.01
   -3    9    0     -0.43      0.01
    2   -9    0     -1.44      0.07
   -2    9    0     -1.44     -0.07
    2   -9    0     -1.44      0.07
   -1    9    0      0.05     -0.08
    1   -9    0      0.05      0.08
    0   -9    0     -1.24     -0.03
    0    9    0     -1.24      0.03
    1    9    0     -1.78     -0.14
   -1   -9    0     -1.78      0.14
   -3   -9    0     -0.45      0.05
   -4   -9    0     -0.44      0.02
   -5   -9    0     -1.25      0.12
   -5   -9    0     -1.25      0.12
   10   -8   -1     -0.02      0.04
    9   -8   -1     -0.50      0.04
   -9    8    1     -0.50     -0.04
    8   -8   -1     -0.01      0.08
   -8    8    1     -0.01     -0.08
    7   -8   -1      0.24      0.03
    7   -8   -1      0.24      0.03
   -7    8    1      0.24     -0.03
    6   -8   -1     -0.09     -0.05
    6   -8   -1     -0.09     -0.05
   -6    8    1     -0.09      0.05
    5   -8   -1     -0.82      0.03
   -5    8    1     -0.82     -0.03
    4   -8   -1      0.71     -0.03
   -4    8    1      0.71      0.03
   -4    8    1      0.71      0.03
    3   -8   -1     -1.13      0.07
   -3    8    1     -1.13     -0.07
   -3    8    1     -1.13     -0.07
    2   -8   -1      1.20     -0.07
   -2    8    1      1.20      0.07
   -2    8    1      1.20      0.07
    1   -8   -1     -1.50     -0.04
   -1    8    1     -1.50      0.04
    1   -8   -1     -1.50     -0.04
    0    8    1     -0.74     -0.06
    0   -8   -1     -0.74      0.06
    0    8    1     -0.74     -0.06
    1    8    1     -0.43      0.01
   -1   -8   -1     -0.43     -0.01
   -2   -8   -1     -3.14     -0.01
   -3   -8   -1     -0.35     -0.03
   -3   -8   -1     -0.35     -0.03
   -3   -8   -1     -0.35     -0.03
   -4   -8   -1     -0.78      0.12
   -4   -8   -1     -0.78      0.12
   -5   -8   -1      1.52      0.10
   -5   -8   -1      1.52      0.10
   -5   -8   -1      1.52      0.10
   -6   -8   -1     -0.05      0.05
   10   -7   -2     -0.03      0.03
   10   -7   -2     -0.03      0.03
    9   -7   -2      0.26      0.00
    9   -7   -2      0.26      0.00
   -9    7    2      0.26      0.00
    8   -7   -2     -0.83     -0.10
    8   -7   -2     -0.83     -0.10
   -8    7    2     -0.83      0.10
    7   -7   -2      0.00     -0.02
    7   -7   -2      0.00     -0.02
   -7    7    2      0.00      0.02
    6   -7   -2      0.84     -0.03
    6   -7   -2      0.84     -0.03
   -6    7    2      0.84      0.03
    5   -7   -2      1.00      0.06
    5   -7   -2      1.00      0.06
   -5    7    2      1.00     -0.06
   -5    7    2      1.00     -0.06
    4   -7   -2      0.34     -0.09
    4   -7   -2      0.34     -0.09
   -4    7    2      0.34      0.09
   -4    7    2      0.34      0.09
    3   -7   -2      0.43      0.05
   -3    7    2      0.43     -0.05
    3   -7   -2      0.43      0.05
    2   -7   -2     -0.95     -0.04
   -2    7    2     -0.95      0.04
    1   -7   -2      0.94     -0.01
   -1    7    2      0.94      0.01
    1   -7   -2      0.94     -0.01
    0    7    2      0.26     -0.07
    0   -7   -2      0.26      0.07
    0    7    2      0.26     -0.07
    1    7    2     -0.75      0.04
    1    7    2     -0.75      0.04
   -1   -7   -2     -0.75     -0.04
   -2   -7   -2     -0.24     -0.06
   -3   -7   -2     -1.10      0.11
   -3   -7   -2     -1.10      0.11
   -3   -7   -2     -1.10      0.11
   -4   -7   -2      0.93     -0.32
   -4   -7   -2      0.93     -0.32
   -5   -7   -2      0.21      0.08
   -5   -7   -2      0.21      0.08
   -5   -7   -2      0.21      0.08
   -6   -7   -2      0.17      0.02
   -6   -7   -2      0.17      0.02
   10   -6   -3     -0.57      0.05
   10   -6   -3     -0.57      0.05
   10   -6   -3     -0.57      0.05
    9   -6   -3     -0.77      0.02
    9   -6   -3     -0.77      0.02
    8   -6   -3      0.48      0.02
    8   -6   -3      0.48      0.02
    7   -6   -3      0.83     -0.09
    7   -6   -3      0.83     -0.09
    6   -6   -3      0.96     -0.02
    6   -6   -3      0.96     -0.02
    5   -6   -3      1.78     -0.19
    5   -6   -3      1.78     -0.19
    5   -6   -3      1.78     -0.19
   -5    6    3      1.78      0.19
    4   -6   -3      1.13      0.66
    4   -6   -3      1.13      0.66
    4   -6   -3      1.13      0.66
   -4    6    3      1.13     -0.66
    3   -6   -3      2.11     -0.17
    3   -6   -3      2.11     -0.17
    3   -6   -3      2.11     -0.17
   -3    6    3      2.11      0.17
    2   -6   -3      0.83      0.01
    2   -6   -3      0.83      0.01
   -2    6    3      0.83     -0.01
    1   -6   -3      0.57      0.04
   -1    6    3      0.57     -0.04
    1   -6   -3      0.57      0.04
    0    6    3      0.48      0.11
    0   -6   -3      0.48     -0.11
    0   -6   -3      0.48     -0.11
    1    6    3     -0.35     -0.01
   -1   -6   -3     -0.35      0.01
   -2   -6   -3     -0.77      0.17
   -3   -6   -3     -0.56      0.00
   -3   -6   -3     -0.56      0.00
   -3   -6   -3     -0.56      0.00
   -4   -6   -3     -0.56      0.38
   -4   -6   -3     -0.56      0.38
   -4   -6   -3     -0.56      0.38
   -5   -6   -3     -0.02     -0.04
   -5   -6   -3     -0.02     -0.04
   -5   -6   -3     -0.02     -0.04
   -5   -6   -3     -0.02     -0.04
   -6   -6   -3     -0.18     -0.01
   -6   -6   -3     -0.18     -0.01
   10   -5   -4     -0.12      0.00
   10   -5   -4     -0.12      0.00
   10   -5   -4     -0.12      0.00
    9   -5   -4      0.24      0.00
    9   -5   -4      0.24      0.00
    9   -5   -4      0.24      0.00
    8   -5   -4     -0.72     -0.02
    8   -5   -4     -0.72     -0.02
    7   -5   -4     -0.32      0.00
    7   -5   -4     -0.32      0.00
   -6    5    4      1.18      0.00
    6   -5   -4      1.18      0.00
    6   -5   -4      1.18      0.00
    6   -5   -4      1.18      0.00
   -5    5    4      1.50      0.01
    5   -5   -4      1.50     -0.01
    5   -5   -4      1.50     -0.01
    5   -5   -4      1.50     -0.01
    4   -5   -4      2.15     -0.66
    4   -5   -4      2.15     -0.66
    4   -5   -4      2.15     -0.66
   -4    5    4      2.15      0.66
   -3    5    4     -0.07     -0.02
    3   -5   -4     -0.07      0.02
    3   -5   -4     -0.07      0.02
    3   -5   -4     -0.07      0.02
    3   -5   -4     -0.07      0.02
    2   -5   -4      1.26      0.14
    2   -5   -4      1.26      0.14
   -2    5    4      1.26     -0.14
    1   -5   -4      0.96     -0.02
   -1    5    4      0.96      0.02
    1   -5   -4      0.96     -0.02
    0   -5   -4      1.36     -0.08
    0    5    4      1.36      0.08
    0   -5   -4      1.36     -0.08
    1    5    4      2.44     -0.01
   -1   -5   -4      2.44      0.01
   -2   -5   -4     -0.26      0.01
   -2   -5   -4     -0.26      0.01
    2    5    4     -0.26     -0.01
   -2   -5   -4     -0.26      0.01
   -3   -5   -4     -0.25      0.07
   -3   -5   -4     -0.25      0.07
   -3   -5   -4     -0.25      0.07
   -4   -5   -4      0.53     -0.04
   -4   -5   -4      0.53     -0.04
   -4   -5   -4      0.53     -0.04
   -4   -5   -4      0.53     -0.04
   -4   -5   -4      0.53     -0.04
   -5   -5   -4     -0.92      0.02
   -5   -5   -4     -0.92      0.02
   -5   -5   -4     -0.92      0.02
   -5   -5   -4     -0.92      0.02
   -6   -5   -4     -0.44      0.04
   -6   -5   -4     -0.44      0.04
   -6   -5   -4     -0.44      0.04
   -7   -5   -4     -1.97      0.01
   10   -4   -5     -0.39      0.05
   10   -4   -5     -0.39      0.05
   10   -4   -5     -0.39      0.05
    9   -4   -5     -0.13     -0.01
    9   -4   -5     -0.13     -0.01
    9   -4   -5     -0.13     -0.01
    8   -4   -5     -0.09      0.00
    8   -4   -5     -0.09      0.00
    8   -4   -5     -0.09      0.00
    7   -4   -5     -0.15      0.02
    7   -4   -5     -0.15      0.02
    7   -4   -5     -0.15      0.02
    7   -4   -5     -0.15      0.02
    6   -4   -5     -2.84      0.04
    6   -4   -5     -2.84      0.04
    6   -4   -5     -2.84      0.04
    6   -4   -5     -2.84      0.04
    6   -4   -5     -2.84      0.04
    5   -4   -5     -2.81      0.12
    5   -4   -5     -2.81      0.12
    5   -4   -5     -2.81      0.12
    5   -4   -5     -2.81      0.12
    4   -4   -5     -2.12      0.15
    4   -4   -5     -2.12      0.15
    4   -4   -5     -2.12      0.15
    4   -4   -5     -2.12      0.15
   -4    4    5     -2.12     -0.15
    3   -4   -5     -0.24     -0.04
   -3    4    5     -0.24      0.04
    3   -4   -5     -0.24     -0.04
    3   -4   -5     -0.24     -0.04
    3   -4   -5     -0.24     -0.04
    2   -4   -5     -1.77     -0.16
    2   -4   -5     -1.77     -0.16
   -2    4    5     -1.77      0.16
    1   -4   -5     -1.00      0.08
    1   -4   -5     -1.00      0.08
   -1    4    5     -1.00     -0.08
    1   -4   -5     -1.00      0.08
    0   -4   -5      0.69      0.10
    0   -4   -5      0.69      0.10
    0    4    5      0.69     -0.10
    0   -4   -5      0.69      0.10
   -1   -4   -5     -0.06      0.05
    1    4    5     -0.06     -0.05
   -1   -4   -5     -0.06      0.05
   -2   -4   -5      1.42     -0.04
   -2   -4   -5      1.42     -0.04
    2    4    5      1.42      0.04
   -2   -4   -5      1.42     -0.04
   -3   -4   -5     -0.37      0.01
   -3   -4   -5     -0.37      0.01
   -3   -4   -5     -0.37      0.01
   -4   -4   -5     -0.77     -0.05
   -4   -4   -5     -0.77     -0.05
   -4   -4   -5     -0.77     -0.05
   -4   -4   -5     -0.77     -0.05
   -4   -4   -5     -0.77     -0.05
   -5   -4   -5      0.62     -0.05
   -5   -4   -5      0.62     -0.05
   -5   -4   -5      0.62     -0.05
   -6   -4   -5     -0.60     -0.01
   -6   -4   -5     -0.60     -0.01
   -6   -4   -5     -0.60     -0.01
   -7   -4   -5     -0.66      0.03
   -7   -4   -5     -0.66      0.03
   10   -3   -6      0.65     -0.05
   10   -3   -6      0.65     -0.05
    9   -3   -6      0.04     -0.06
    9   -3   -6      0.04     -0.06
    9   -3   -6      0.04     -0.06
    8   -3   -6      0.64     -0.03
    8   -3   -6      0.64     -0.03
    8   -3   -6      0.64     -0.03
    8   -3   -6      0.64     -0.03
    7   -3   -6     -1.52      0.04
    7   -3   -6     -1.52      0.04
    7   -3   -6     -1.52      0.04
    7   -3   -6     -1.52      0.04
    6   -3   -6     -0.23      0.14
    6   -3   -6     -0.23      0.14
    6   -3   -6     -0.23      0.14
    6   -3   -6     -0.23      0.14
    5   -3   -6     -1.35      0.05
    5   -3   -6     -1.35      0.05
    5   -3   -6     -1.35      0.05
    5   -3   -6     -1.35      0.05
    5   -3   -6     -1.35      0.05
    4   -3   -6     -1.62     -0.03
    4   -3   -6     -1.62     -0.03
    4   -3   -6     -1.62     -0.03
    4   -3   -6     -1.62     -0.03
    4   -3   -6     -1.62     -0.03
    3   -3   -6     -2.17      0.02
    3   -3   -6     -2.17      0.02
    3   -3   -6     -2.17      0.02
    3   -3   -6     -2.17      0.02
    2   -3   -6      1.63      0.06
    2   -3   -6      1.63      0.06
    2   -3   -6      1.63      0.06
    2   -3   -6      1.63      0.06
    1   -3   -6      1.20     -0.03
    1   -3   -6      1.20     -0.03
    1   -3   -6      1.20     -0.03
    1   -3   -6      1.20     -0.03
    0   -3   -6      0.19     -0.07
    0   -3   -6      0.19     -0.07
    0   -3   -6      0.19     -0.07
   -1   -3   -6      0.74     -0.05
   -1   -3   -6      0.74     -0.05
   -1   -3   -6      0.74     -0.05
   -2   -3   -6     -0.25     -0.01
   -2   -3   -6     -0.25     -0.01
   -2   -3   -6     -0.25     -0.01
   -2   -3   -6     -0.25     -0.01
   -3   -3   -6      1.99     -0.09
   -3   -3   -6      1.99     -0.09
   -3   -3   -6      1.99     -0.09
   -3   -3   -6      1.99     -0.09
   -3   -3   -6      1.99     -0.09
   -4   -3   -6      1.40     -0.02
   -4   -3   -6      1.40     -0.02
   -4   -3   -6      1.40     -0.02
   -4   -3   -6      1.40     -0.02
   -4   -3   -6      1.40     -0.02
   -5   -3   -6     -0.15      0.00
   -5   -3   -6     -0.15      0.00
   -5   -3   -6     -0.15      0.00
   -6   -3   -6      0.06     -0.04
   -6   -3   -6      0.06     -0.04
   -6   -3   -6      0.06     -0.04
   10   -2   -7      0.34     -0.01
   10   -2   -7      0.34     -0.01
    9   -2   -7      0.39      0.05
    9   -2   -7      0.39      0.05
    9   -2   -7      0.39      0.05
    9   -2   -7      0.39      0.05
    8   -2   -7     -0.75      0.00
    8   -2   -7     -0.75      0.00
    8   -2   -7     -0.75      0.00
    8   -2   -7     -0.75      0.00
    7   -2   -7      0.16      0.03
    7   -2   -7      0.16      0.03
    7   -2   -7      0.16      0.03
    7   -2   -7      0.16      0.03
    6   -2   -7     -0.90      0.05
    6   -2   -7     -0.90      0.05
    6   -2   -7     -0.90      0.05
    6   -2   -7     -0.90      0.05
    6   -2   -7     -0.90      0.05
    5   -2   -7      0.39      0.00
    5   -2   -7      0.39      0.00
    5   -2   -7      0.39      0.00
    5   -2   -7      0.39      0.00
    5   -2   -7      0.39      0.00
    4   -2   -7     -1.35     -0.09
    4   -2   -7     -1.35     -0.09
    4   -2   -7     -1.35     -0.09
    3   -2   -7      0.14     -0.05
    3   -2   -7      0.14     -0.05
    3   -2   -7      0.14     -0.05
    2   -2   -7     -0.88     -0.02
    2   -2   -7     -0.88     -0.02
    2   -2   -7     -0.88     -0.02
    2   -2   -7     -0.88     -0.02
    2   -2   -7     -0.88     -0.02
    1   -2   -7      0.20      0.01
    1   -2   -7      0.20      0.01
    1   -2   -7      0.20      0.01
    1   -2   -7      0.20      0.01
    1   -2   -7      0.20      0.01
    0   -2   -7     -0.50     -0.06
    0   -2   -7     -0.50     -0.06
    0   -2   -7     -0.50     -0.06
    0   -2   -7     -0.50     -0.06
    0   -2   -7     -0.50     -0.06
   -1   -2   -7     -0.04     -0.02
   -1   -2   -7     -0.04     -0.02
   -1   -2   -7     -0.04     -0.02
   -1   -2   -7     -0.04     -0.02
   -2   -2   -7     -0.01      0.01
   -2   -2   -7     -0.01      0.01
   -2   -2   -7     -0.01      0.01
   -2   -2   -7     -0.01      0.01
   -3   -2   -7     -0.05     -0.04
   -3   -2   -7     -0.05     -0.04
   -3   -2   -7     -0.05     -0.04
   -3   -2   -7     -0.05     -0.04
   -3   -2   -7     -0.05     -0.04
   -4   -2   -7      0.00     -0.04
   -4   -2   -7      0.00     -0.04
   -4   -2   -7      0.00     -0.04
   -4   -2   -7      0.00     -0.04
   -4   -2   -7      0.00     -0.04
   -5   -2   -7      0.21      0.01
   -5   -2   -7      0.21      0.01
   -5   -2   -7      0.21      0.01
   -5   -2   -7      0.21      0.01
   -6   -2   -7      0.75      0.04
   -6   -2   -7      0.75      0.04
   -6   -2   -7      0.75      0.04
   10   -1   -8      0.41     -0.05
    9   -1   -8      0.67     -0.04
    9   -1   -8      0.67     -0.04
    9   -1   -8      0.67     -0.04
    8   -1   -8     -0.47      0.05
    8   -1   -8     -0.47      0.05
    8   -1   -8     -0.47      0.05
    8   -1   -8     -0.47      0.05
    7   -1   -8      0.22      0.02
    7   -1   -8      0.22      0.02
    7   -1   -8      0.22      0.02
    7   -1   -8      0.22      0.02
    7   -1   -8      0.22      0.02
    6   -1   -8      2.36     -0.05
    6   -1   -8      2.36     -0.05
    6   -1   -8      2.36     -0.05
    6   -1   -8      2.36     -0.05
    5   -1   -8      0.81     -0.03
    5   -1   -8      0.81     -0.03
    4   -1   -8      1.03     -0.05
    4   -1   -8      1.03     -0.05
    3   -1   -8     -0.03     -0.12
    3   -1   -8     -0.03     -0.12
    3   -1   -8     -0.03     -0.12
    2   -1   -8     -0.74     -0.04
    2   -1   -8     -0.74     -0.04
    2   -1   -8     -0.74     -0.04
    2   -1   -8     -0.74     -0.04
    1   -1   -8     -0.71      0.06
    1   -1   -8     -0.71      0.06
    1   -1   -8     -0.71      0.06
    1   -1   -8     -0.71      0.06
    0   -1   -8      0.45      0.06
    0   -1   -8      0.45      0.06
    0   -1   -8      0.45      0.06
    0   -1   -8      0.45      0.06
   -1   -1   -8     -1.16      0.01
   -1   -1   -8     -1.16      0.01
   -2   -1   -8      0.59      0.01
   -2   -1   -8      0.59      0.01
   -2   -1   -8      0.59      0.01
   -2   -1   -8      0.59      0.01
   -3   -1   -8     -0.13      0.05
   -3   -1   -8     -0.13      0.05
   -3   -1   -8     -0.13      0.05
   -3   -1   -8     -0.13      0.05
   -4   -1   -8     -0.18      0.07
   -4   -1   -8     -0.18      0.07
   -4   -1   -8     -0.18      0.07
   -5   -1   -8      0.05      0.01
   -5   -1   -8      0.05      0.01
   -5   -1   -8      0.05      0.01
   -6   -1   -8     -0.56      0.01
   -6   -1   -8     -0.56      0.01
    9    0   -9      0.31     -0.02
    9    0   -9      0.31     -0.02
    8    0   -9      1.91     -0.03
    8    0   -9      1.91     -0.03
    7    0   -9      1.46     -0.01
    7    0   -9      1.46     -0.01
    7    0   -9      1.46     -0.01
    6    0   -9      1.46     -0.04
    6    0   -9      1.46     -0.04
    6    0   -9      1.46     -0.04
    5    0   -9      2.39     -0.05
    5    0   -9      2.39     -0.05
    4    0   -9      2.62      0.09
    4    0   -9      2.62      0.09
    3    0   -9      0.87      0.03
    3    0   -9      0.87      0.03
    2    0   -9      0.28      0.00
    2    0   -9      0.28      0.00
    2    0   -9      0.28      0.00
    2    0   -9      0.28      0.00
    1    0   -9      0.41      0.00
    1    0   -9      0.41      0.00
    1    0   -9      0.41      0.00
    1    0   -9      0.41      0.00
    0    0   -9     -0.52      0.13
    0    0   -9     -0.52      0.13
    0    0   -9     -0.52      0.13
   -1    0   -9      0.45     -0.03
   -1    0   -9      0.45     -0.03
   -1    0   -9      0.45     -0.03
   -2    0   -9      0.09     -0.03
   -2    0   -9      0.09     -0.03
   -3    0   -9     -0.05      0.00
   -3    0   -9     -0.05      0.00
   -4    0   -9     -0.44      0.02
   -4    0   -9     -0.44      0.02
   -4    0   -9     -0.44      0.02
   -5    0   -9      0.34      0.01
   -5    0   -9      0.34      0.01
   -5    0   -9      0.34      0.01
    9    1  -10      0.76      0.00
    8    1  -10      0.29     -0.02
    7    1  -10      2.09      0.02
    7    1  -10      2.09      0.02
    7    1  -10      2.09      0.02
    6    1  -10      1.92      0.09
    6    1  -10      1.92      0.09
    6    1  -10      1.92      0.09
    5    1  -10      2.28     -0.01
    5    1  -10      2.28     -0.01
    4    1  -10      0.73     -0.19
    4    1  -10      0.73     -0.19
    3    1  -10      0.28     -0.18
    3    1  -10      0.28     -0.18
    2    1  -10     -0.07      0.07
    2    1  -10     -0.07      0.07
    1    1  -10     -1.33     -0.02
    1    1  -10     -1.33     -0.02
    0    1  -10     -0.18     -0.02
    0    1  -10     -0.18     -0.02
    0    1  -10     -0.18     -0.02
   -1    1  -10      1.05      0.07
   -1    1  -10      1.05      0.07
   -1    1  -10      1.05      0.07
   -2    1  -10      0.55     -0.02
   -2    1  -10      0.55     -0.02
   -2    1  -10      0.55     -0.02
   -3    1  -10     -0.56     -0.01
   -3    1  -10     -0.56     -0.01
   -4    1  -10     -1.12      0.00
   -4    1  -10     -1.12      0.00
   -5    1  -10     -0.38     -0.03
   -5    1  -10     -0.38     -0.03
    8    2  -11      1.84      0.01
    7    2  -11      0.98      0.03
    7    2  -11      0.98      0.03
    6    2  -11     -0.08      0.01
    6    2  -11     -0.08      0.01
    5    2  -11     -0.68     -0.02
    5    2  -11     -0.68     -0.02
    4    2  -11     -0.06     -0.07
    4    2  -11     -0.06     -0.07
    3    2  -11      0.66     -0.03
    3    2  -11      0.66     -0.03
    2    2  -11     -1.08     -1.06
    2    2  -11     -1.08     -1.06
    1    2  -11      1.10      0.01
    1    2  -11      1.10      0.01
    1    2  -11      1.10      0.01
    0    2  -11      0.59     -0.06
    0    2  -11      0.59     -0.06
   -1    2  -11      0.99      0.02
   -1    2  -11      0.99      0.02
   -1    2  -11      0.99      0.02
   -2    2  -11      1.31      0.04
   -2    2  -11      1.31      0.04
   -3    2  -11     -0.41     -0.02
   -3    2  -11     -0.41     -0.02
   -4    2  -11      0.06     -0.01
   -4    2  -11      0.06     -0.01
    7    3  -12      1.13     -0.01
    6    3  -12     -0.18     -0.08
    5    3  -12     -0.30      0.04
    5    3  -12     -0.30      0.04
    4    3  -12      0.19      0.00
    4    3  -12      0.19      0.00
    3    3  -12      0.45     -0.20
    3    3  -12      0.45     -0.20
    2    3  -12      3.65      0.81
    2    3  -12      3.65      0.81
    2    3  -12      3.65      0.81
    1    3  -12      1.27     -0.23
    1    3  -12      1.27     -0.23
    1    3  -12      1.27     -0.23
    1    3  -12      1.27     -0.23
    0    3  -12      1.34      0.00
    0    3  -12      1.34      0.00
   -1    3  -12      0.94     -0.09
   -1    3  -12      0.94     -0.09
   -1    3  -12      0.94     -0.09
   -2    3  -12      0.87      0.03
   -2    3  -12      0.87      0.03
   -3    3  -12      1.37      0.03
   -3    3  -12      1.37      0.03
    6    4  -13      0.87     -0.07
    5    4  -13     -0.30     -0.12
    4    4  -13      0.58      0.02
    4    4  -13      0.58      0.02
    3    4  -13      0.58      0.14
    3    4  -13      0.58      0.14
    2    4  -13     -1.04     -0.07
    2    4  -13     -1.04     -0.07
    1    4  -13     -0.71      0.14
    1    4  -13     -0.71      0.14
    0    4  -13     -0.13      0.00
   -1    4  -13      1.16     -0.04
   -5   13   -3      1.10     -0.05
   -4   13   -3      1.03     -0.04
   -3   13   -3     -0.12      0.00
   -2   13   -3     -1.62     -0.06
   -1   13   -3     -0.72     -0.04
   -7   12   -2      1.35     -0.05
   -6   12   -2      1.10     -0.11
   -5   12   -2      0.60     -0.19
   -4   12   -2     -0.20     -0.06
   -3   12   -2     -0.59     -0.04
   -2   12   -2      1.35      0.03
   -1   12   -2     -1.18     -0.08
   -1  -12    2     -0.46     -0.17
   -7   11   -1      1.27     -0.04
   -6   11   -1      1.23     -0.13
   -5   11   -1     -0.59      0.01
   -4   11   -1     -1.94     -0.06
   -3   11   -1     -0.97      0.01
   -2   11   -1     -2.86      0.02
   -1   11   -1      0.67      0.41
    0   11   -1      1.21     -0.01
   -2  -11    1     -0.41     -0.44
   -3  -11    1     -0.25      0.02
   -8   10    0      1.47     -0.02
    7  -10    0      1.86     -0.01
   -7   10    0      1.86      0.01
    6  -10    0      0.06     -0.01
   -6   10    0      0.06      0.01
    5  -10    0      0.42      0.03
   -5   10    0      0.42     -0.03
    4  -10    0      0.20     -0.06
   -4   10    0      0.20      0.06
    3  -10    0     -0.34     -0.10
   -3   10    0     -0.34      0.10
    3  -10    0     -0.34     -0.10
    2  -10    0      0.99     -0.05
   -2   10    0      0.99      0.05
   -1   10    0      1.52     -0.24
    0   10    0     -0.22      0.11
   -2  -10    0     -0.78      0.08
   -3  -10    0     -0.55     -0.06
   -4  -10    0     -1.11      0.00
   -4  -10    0     -1.11      0.00
    9   -9   -1      0.32     -0.02
    8   -9   -1      0.87      0.00
   -8    9    1      0.87      0.00
    7   -9   -1      0.31     -0.01
   -7    9    1      0.31      0.01
    6   -9   -1      0.35     -0.01
   -6    9    1      0.35      0.01
    5   -9   -1     -0.56      0.02
   -5    9    1     -0.56     -0.02
    4   -9   -1      1.20     -0.06
   -4    9    1      1.20      0.06
    3   -9   -1      0.03      0.01
   -3    9    1      0.03     -0.01
    2   -9   -1      1.51     -0.10
   -2    9    1      1.51      0.10
    2   -9   -1      1.51     -0.10
   -1    9    1     -1.15      0.01
    1   -9   -1     -1.15     -0.01
    0   -9   -1      0.78      0.08
    0    9    1      0.78     -0.08
   -1   -9   -1     -0.11     -0.10
   -2   -9   -1     -1.83     -0.06
   -2   -9   -1     -1.83     -0.06
   -3   -9   -1     -0.61      0.01
   -3   -9   -1     -0.61      0.01
   -3   -9   -1     -0.61      0.01
   -4   -9   -1     -0.78      0.02
   -4   -9   -1     -0.78      0.02
   -5   -9   -1     -0.29      0.03
   -5   -9   -1     -0.29      0.03
    9   -8   -2      0.07     -0.07
    9   -8   -2      0.07     -0.07
    8   -8   -2     -1.33     -0.15
   -8    8    2     -1.33      0.15
    7   -8   -2     -0.01     -0.06
   -7    8    2     -0.01      0.06
    6   -8   -2     -0.47      0.05
   -6    8    2     -0.47     -0.05
    5   -8   -2      0.56      0.09
   -5    8    2      0.56     -0.09
    4   -8   -2     -0.23     -0.08
   -4    8    2     -0.23      0.08
    3   -8   -2      0.29     -0.01
   -3    8    2      0.29      0.01
    2   -8   -2     -0.58      0.03
    2   -8   -2     -0.58      0.03
    1   -8   -2      1.32      0.01
   -1    8    2      1.32     -0.01
    1   -8   -2      1.32      0.01
    0    8    2     -0.72     -0.07
    0   -8   -2     -0.72      0.07
   -1   -8   -2      0.12     -0.07
   -2   -8   -2     -0.30     -0.12
   -2   -8   -2     -0.30     -0.12
   -3   -8   -2     -1.55      0.00
   -3   -8   -2     -1.55      0.00
   -3   -8   -2     -1.55      0.00
   -4   -8   -2     -0.50     -0.05
   -4   -8   -2     -0.50     -0.05
   -5   -8   -2     -1.37     -0.07
   -5   -8   -2     -1.37     -0.07
   -5   -8   -2     -1.37     -0.07
   10   -7   -3     -0.63      0.00
   10   -7   -3     -0.63      0.00
    9   -7   -3     -0.24      0.01
    9   -7   -3     -0.24      0.01
    9   -7   -3     -0.24      0.01
    8   -7   -3      0.20      0.06
    8   -7   -3      0.20      0.06
    7   -7   -3     -1.29     -0.10
    7   -7   -3     -1.29     -0.10
    6   -7   -3     -0.53     -0.17
    6   -7   -3     -0.53     -0.17
    5   -7   -3     -0.45     -0.61
    5   -7   -3     -0.45     -0.61
    4   -7   -3     -1.86      0.23
    4   -7   -3     -1.86      0.23
   -4    7    3     -1.86     -0.23
    3   -7   -3     -0.19     -0.51
   -3    7    3     -0.19      0.51
    2   -7   -3      0.04      0.00
   -2    7    3      0.04      0.00
    2   -7   -3      0.04      0.00
    1   -7   -3     -0.66      0.07
    1   -7   -3     -0.66      0.07
    0   -7   -3      0.24     -0.07
   -1   -7   -3     -0.44      0.00
   -2   -7   -3     -0.71      0.07
   -2   -7   -3     -0.71      0.07
   -2   -7   -3     -0.71      0.07
   -3   -7   -3     -0.25      0.05
   -3   -7   -3     -0.25      0.05
   -3   -7   -3     -0.25      0.05
   -4   -7   -3     -0.26      0.28
   -4   -7   -3     -0.26      0.28
   -4   -7   -3     -0.26      0.28
   -4   -7   -3     -0.26      0.28
   -5   -7   -3      0.03      0.00
   -5   -7   -3      0.03      0.00
   -5   -7   -3      0.03      0.00
   -6   -7   -3      0.97     -0.01
   10   -6   -4      0.12     -0.02
   10   -6   -4      0.12     -0.02
   10   -6   -4      0.12     -0.02
    9   -6   -4      0.09     -0.04
    9   -6   -4      0.09     -0.04
    9   -6   -4      0.09     -0.04
    8   -6   -4     -0.71      0.04
    8   -6   -4     -0.71      0.04
    8   -6   -4     -0.71      0.04
    7   -6   -4     -1.00      0.02
    7   -6   -4     -1.00      0.02
    6   -6   -4     -1.20     -0.33
    6   -6   -4     -1.20     -0.33
    5   -6   -4     -1.86     -0.60
    5   -6   -4     -1.86     -0.60
    4   -6   -4     -0.90     -2.01
    4   -6   -4     -0.90     -2.01
    4   -6   -4     -0.90     -2.01
   -4    6    4     -0.90      2.01
    3   -6   -4     -1.74     -0.41
    3   -6   -4     -1.74     -0.41
    3   -6   -4     -1.74     -0.41
   -3    6    4     -1.74      0.41
    2   -6   -4     -0.09     -0.26
   -2    6    4     -0.09      0.26
    1   -6   -4      0.48     -0.12
   -1    6    4      0.48      0.12
    1   -6   -4      0.48     -0.12
    0    6    4     -0.05      0.09
    0   -6   -4     -0.05     -0.09
   -1   -6   -4      0.57     -0.02
   -2   -6   -4     -0.02     -0.05
   -2   -6   -4     -0.02     -0.05
   -2   -6   -4     -0.02     -0.05
   -3   -6   -4      0.16      0.08
   -3   -6   -4      0.16      0.08
   -3   -6   -4      0.16      0.08
   -4   -6   -4      0.72      0.02
   -4   -6   -4      0.72      0.02
   -4   -6   -4      0.72      0.02
   -4   -6   -4      0.72      0.02
   -4   -6   -4      0.72      0.02
   -5   -6   -4      0.58      0.07
   -5   -6   -4      0.58      0.07
   -5   -6   -4      0.58      0.07
   -6   -6   -4      0.51      0.04
   -6   -6   -4      0.51      0.04
   10   -5   -5      0.50      0.04
   10   -5   -5      0.50      0.04
   10   -5   -5      0.50      0.04
    9   -5   -5      0.26      0.00
    9   -5   -5      0.26      0.00
    9   -5   -5      0.26      0.00
    8   -5   -5     -0.02      0.06
    8   -5   -5     -0.02      0.06
    8   -5   -5     -0.02      0.06
    7   -5   -5     -0.45      0.04
    7   -5   -5     -0.45      0.04
    7   -5   -5     -0.45      0.04
    6   -5   -5     -2.77     -0.13
    6   -5   -5     -2.77     -0.13
    6   -5   -5     -2.77     -0.13
    5   -5   -5     -3.12     -0.43
    5   -5   -5     -3.12     -0.43
    5   -5   -5     -3.12     -0.43
    5   -5   -5     -3.12     -0.43
    4   -5   -5     -3.77     -0.18
    4   -5   -5     -3.77     -0.18
    4   -5   -5     -3.77     -0.18
    4   -5   -5     -3.77     -0.18
   -4    5    5     -3.77      0.18
    3   -5   -5     -1.50     -0.51
    3   -5   -5     -1.50     -0.51
    3   -5   -5     -1.50     -0.51
   -3    5    5     -1.50      0.51
    2   -5   -5     -1.32     -0.31
    2   -5   -5     -1.32     -0.31
    2   -5   -5     -1.32     -0.31
   -2    5    5     -1.32      0.31
    2   -5   -5     -1.32     -0.31
    1   -5   -5     -1.23     -0.03
   -1    5    5     -1.23      0.03
    1   -5   -5     -1.23     -0.03
    0   -5   -5      0.16      0.04
    0    5    5      0.16     -0.04
    0   -5   -5      0.16      0.04
   -1   -5   -5     -1.29     -0.05
   -1   -5   -5     -1.29     -0.05
   -2   -5   -5      0.47      0.00
   -2   -5   -5      0.47      0.00
   -2   -5   -5      0.47      0.00
   -3   -5   -5     -0.61      0.06
   -3   -5   -5     -0.61      0.06
   -3   -5   -5     -0.61      0.06
   -3   -5   -5     -0.61      0.06
   -4   -5   -5     -1.08      0.07
   -4   -5   -5     -1.08      0.07
   -4   -5   -5     -1.08      0.07
   -4   -5   -5     -1.08      0.07
   -4   -5   -5     -1.08      0.07
   -5   -5   -5      0.49      0.07
   -5   -5   -5      0.49      0.07
   -5   -5   -5      0.49      0.07
   -6   -5   -5     -0.23     -0.03
   -6   -5   -5     -0.23     -0.03
   10   -4   -6      1.47     -0.07
   10   -4   -6      1.47     -0.07
   10   -4   -6      1.47     -0.07
    9   -4   -6      0.64     -0.04
    9   -4   -6      0.64     -0.04
    9   -4   -6      0.64     -0.04
    8   -4   -6      1.06      0.00
    8   -4   -6      1.06      0.00
    8   -4   -6      1.06      0.00
    7   -4   -6     -0.50      0.07
    7   -4   -6     -0.50      0.07
    7   -4   -6     -0.50      0.07
    6   -4   -6     -0.56      0.07
    6   -4   -6     -0.56      0.07
    6   -4   -6     -0.56      0.07
    5   -4   -6     -1.57      0.01
    5   -4   -6     -1.57      0.01
    5   -4   -6     -1.57      0.01
    4   -4   -6     -0.50     -0.03
    4   -4   -6     -0.50     -0.03
    4   -4   -6     -0.50     -0.03
    4   -4   -6     -0.50     -0.03
    3   -4   -6     -2.12      0.05
    3   -4   -6     -2.12      0.05
    3   -4   -6     -2.12      0.05
    3   -4   -6     -2.12      0.05
    2   -4   -6      0.51      0.16
    2   -4   -6      0.51      0.16
    2   -4   -6      0.51      0.16
    2   -4   -6      0.51      0.16
    1   -4   -6      0.70      0.00
    1   -4   -6      0.70      0.00
    1   -4   -6      0.70      0.00
    0   -4   -6     -1.02     -0.04
    0   -4   -6     -1.02     -0.04
   -1   -4   -6      0.53     -0.02
   -1   -4   -6      0.53     -0.02
   -1   -4   -6      0.53     -0.02
   -2   -4   -6     -1.30      0.03
   -2   -4   -6     -1.30      0.03
   -2   -4   -6     -1.30      0.03
   -2   -4   -6     -1.30      0.03
   -3   -4   -6      0.83     -0.01
   -3   -4   -6      0.83     -0.01
   -3   -4   -6      0.83     -0.01
   -3   -4   -6      0.83     -0.01
   -3   -4   -6      0.83     -0.01
   -4   -4   -6      0.51      0.03
   -4   -4   -6      0.51      0.03
   -4   -4   -6      0.51      0.03
   -4   -4   -6      0.51      0.03
   -4   -4   -6      0.51      0.03
   -5   -4   -6     -1.26      0.02
   -5   -4   -6     -1.26      0.02
   -5   -4   -6     -1.26      0.02
   -6   -4   -6     -0.19     -0.05
   -6   -4   -6     -0.19     -0.05
   10   -3   -7      0.23      0.01
   10   -3   -7      0.23      0.01
    9   -3   -7      1.09      0.05
    9   -3   -7      1.09      0.05
    9   -3   -7      1.09      0.05
    8   -3   -7     -0.68      0.03
    8   -3   -7     -0.68      0.03
    8   -3   -7     -0.68      0.03
    7   -3   -7     -0.78     -0.02
    7   -3   -7     -0.78     -0.02
    7   -3   -7     -0.78     -0.02
    7   -3   -7     -0.78     -0.02
    6   -3   -7     -1.15     -0.03
    6   -3   -7     -1.15     -0.03
    6   -3   -7     -1.15     -0.03
    5   -3   -7      0.23      0.04
    5   -3   -7      0.23      0.04
    5   -3   -7      0.23      0.04
    4   -3   -7     -1.15      0.09
    4   -3   -7     -1.15      0.09
    3   -3   -7      0.22      0.11
    3   -3   -7      0.22      0.11
    3   -3   -7      0.22      0.11
    2   -3   -7     -2.19      0.01
    2   -3   -7     -2.19      0.01
    2   -3   -7     -2.19      0.01
    1   -3   -7     -1.14      0.05
    1   -3   -7     -1.14      0.05
    1   -3   -7     -1.14      0.05
    1   -3   -7     -1.14      0.05
    1   -3   -7     -1.14      0.05
    0   -3   -7     -0.51     -0.05
    0   -3   -7     -0.51     -0.05
    0   -3   -7     -0.51     -0.05
   -1   -3   -7     -0.58      0.01
   -1   -3   -7     -0.58      0.01
   -1   -3   -7     -0.58      0.01
   -2   -3   -7      0.29      0.08
   -2   -3   -7      0.29      0.08
   -2   -3   -7      0.29      0.08
   -2   -3   -7      0.29      0.08
   -2   -3   -7      0.29      0.08
   -3   -3   -7     -1.12      0.02
   -3   -3   -7     -1.12      0.02
   -3   -3   -7     -1.12      0.02
   -3   -3   -7     -1.12      0.02
   -3   -3   -7     -1.12      0.02
   -4   -3   -7     -0.93     -0.09
   -4   -3   -7     -0.93     -0.09
   -4   -3   -7     -0.93     -0.09
   -4   -3   -7     -0.93     -0.09
   -4   -3   -7     -0.93     -0.09
   -5   -3   -7      0.70     -0.07
   -5   -3   -7      0.70     -0.07
   -5   -3   -7      0.70     -0.07
   -6   -3   -7      0.28      0.05
    9   -2   -8     -0.13     -0.01
    9   -2   -8     -0.13     -0.01
    9   -2   -8     -0.13     -0.01
    8   -2   -8     -0.54      0.06
    8   -2   -8     -0.54      0.06
    8   -2   -8     -0.54      0.06
    8   -2   -8     -0.54      0.06
    7   -2   -8     -0.57      0.04
    7   -2   -8     -0.57      0.04
    7   -2   -8     -0.57      0.04
    7   -2   -8     -0.57      0.04
    6   -2   -8      0.02     -0.06
    6   -2   -8      0.02     -0.06
    6   -2   -8      0.02     -0.06
    5   -2   -8     -0.53     -0.02
    5   -2   -8     -0.53     -0.02
    4   -2   -8      0.13      0.06
    4   -2   -8      0.13      0.06
    3   -2   -8     -0.55     -0.03
    3   -2   -8     -0.55     -0.03
    3   -2   -8     -0.55     -0.03
    2   -2   -8     -1.29      0.00
    2   -2   -8     -1.29      0.00
    1   -2   -8     -1.33     -0.10
    1   -2   -8     -1.33     -0.10
    1   -2   -8     -1.33     -0.10
    0   -2   -8      0.34      0.02
    0   -2   -8      0.34      0.02
    0   -2   -8      0.34      0.02
    0   -2   -8      0.34      0.02
   -1   -2   -8      0.04     -0.06
   -1   -2   -8      0.04     -0.06
   -1   -2   -8      0.04     -0.06
   -2   -2   -8      0.72      0.02
   -2   -2   -8      0.72      0.02
   -2   -2   -8      0.72      0.02
   -2   -2   -8      0.72      0.02
   -3   -2   -8      0.04      0.04
   -3   -2   -8      0.04      0.04
   -3   -2   -8      0.04      0.04
   -3   -2   -8      0.04      0.04
   -4   -2   -8      0.28      0.01
   -4   -2   -8      0.28      0.01
   -4   -2   -8      0.28      0.01
   -5   -2   -8     -0.34     -0.02
   -5   -2   -8     -0.34     -0.02
   -5   -2   -8     -0.34     -0.02
    9   -1   -9      0.54      0.01
    8   -1   -9      1.28     -0.02
    8   -1   -9      1.28     -0.02
    8   -1   -9      1.28     -0.02
    7   -1   -9     -0.01      0.03
    7   -1   -9     -0.01      0.03
    6   -1   -9     -0.25      0.04
    6   -1   -9     -0.25      0.04
    5   -1   -9     -0.28      0.01
    5   -1   -9     -0.28      0.01
    4   -1   -9      0.07      0.05
    4   -1   -9      0.07      0.05
    3   -1   -9     -1.48      0.01
    3   -1   -9     -1.48      0.01
    2   -1   -9     -0.40     -0.09
    2   -1   -9     -0.40     -0.09
    2   -1   -9     -0.40     -0.09
    1   -1   -9      0.39      0.00
    1   -1   -9      0.39      0.00
    1   -1   -9      0.39      0.00
    0   -1   -9      0.18     -0.03
    0   -1   -9      0.18     -0.03
    0   -1   -9      0.18     -0.03
   -1   -1   -9      1.49      0.00
   -1   -1   -9      1.49      0.00
   -1   -1   -9      1.49      0.00
   -2   -1   -9      0.80     -0.03
   -2   -1   -9      0.80     -0.03
   -3   -1   -9      1.26     -0.03
   -3   -1   -9      1.26     -0.03
   -4   -1   -9      0.43     -0.02
   -4   -1   -9      0.43     -0.02
   -5   -1   -9     -0.19      0.01
   -5   -1   -9     -0.19      0.01
    8    0  -10      0.28     -0.02
    7    0  -10      1.84      0.03
    7    0  -10      1.84      0.03
    6    0  -10     -0.32      0.08
    6    0  -10     -0.32      0.08
    5    0  -10     -0.80      0.03
    5    0  -10     -0.80      0.03
    4    0  -10     -2.50     -0.22
    4    0  -10     -2.50     -0.22
    3    0  -10     -1.63     -0.03
    3    0  -10     -1.63     -0.03
    2    0  -10     -0.68      0.06
    2    0  -10     -0.68      0.06
    2    0  -10     -0.68      0.06
    1    0  -10     -1.08      0.09
    1    0  -10     -1.08      0.09
    0    0  -10      0.01     -0.03
    0    0  -10      0.01     -0.03
    0    0  -10      0.01     -0.03
   -1    0  -10      0.27      0.04
   -1    0  -10      0.27      0.04
   -1    0  -10      0.27      0.04
   -2    0  -10      0.76      0.02
   -2    0  -10      0.76      0.02
   -3    0  -10      0.43     -0.04
   -3    0  -10      0.43     -0.04
   -4    0  -10      0.28     -0.01
   -4    0  -10      0.28     -0.01
   -5    0  -10     -0.27      0.03
    6    1  -11     -0.66     -0.07
    6    1  -11     -0.66     -0.07
    5    1  -11     -2.87     -0.12
    5    1  -11     -2.87     -0.12
    4    1  -11     -1.86      0.05
    4    1  -11     -1.86      0.05
    3    1  -11     -0.20      0.13
    3    1  -11     -0.20      0.13
    2    1  -11     -0.48     -0.13
    2    1  -11     -0.48     -0.13
    1    1  -11     -0.33      0.08
    1    1  -11     -0.33      0.08
    1    1  -11     -0.33      0.08
    0    1  -11     -1.23      0.05
    0    1  -11     -1.23      0.05
   -1    1  -11     -1.43     -0.07
   -1    1  -11     -1.43     -0.07
   -1    1  -11     -1.43     -0.07
   -2    1  -11     -0.06      0.00
   -2    1  -11     -0.06      0.00
   -3    1  -11     -0.02     -0.03
   -3    1  -11     -0.02     -0.03
   -4    1  -11      0.26     -0.01
   -4    1  -11      0.26     -0.01
    6    2  -12      0.68     -0.05
    6    2  -12      0.68     -0.05
    5    2  -12      0.33     -0.01
    5    2  -12      0.33     -0.01
    4    2  -12      0.49     -0.04
    4    2  -12      0.49     -0.04
    3    2  -12      0.07      0.09
    3    2  -12      0.07      0.09
    2    2  -12      1.45      1.05
    2    2  -12      1.45      1.05
    1    2  -12     -0.65      0.20
    1    2  -12     -0.65      0.20
    0    2  -12     -2.03      0.04
    0    2  -12     -2.03      0.04
   -1    2  -12     -1.34     -0.11
   -1    2  -12     -1.34     -0.11
   -2    2  -12     -1.26     -0.03
   -2    2  -12     -1.26     -0.03
   -3    2  -12      0.16      0.06
    5    3  -13      1.96     -0.14
    4    3  -13      1.91     -0.03
    4    3  -13      1.91     -0.03
    3    3  -13      0.95      0.18
    3    3  -13      0.95      0.18
    2    3  -13     -2.25     -0.04
    2    3  -13     -2.25     -0.04
    1    3  -13     -2.93      0.29
    0    3  -13     -1.58      0.04
    0    3  -13     -1.58      0.04
   -1    3  -13     -0.16     -0.02
   -4   13   -2     -0.96      0.01
   -3   13   -2     -0.14      0.04
   -2   13   -2      0.69      0.11
   -6   12   -1     -0.67      0.04
   -5   12   -1     -1.38      0.13
   -4   12   -1     -0.91      0.02
   -3   12   -1      0.31     -0.02
   -2   12   -1     -1.65     -0.15
   -1   12   -1      1.23      0.04
    0  -12    1      1.52      0.12
   -1  -12    1      0.10     -0.03
    7  -11    0      0.80     -0.07
   -7   11    0      0.80      0.07
   -6   11    0     -0.61      0.14
   -5   11    0      0.50      0.01
   -4   11    0      1.46      0.00
   -3   11    0      1.13     -0.06
   -2   11    0      3.14     -0.21
   -1   11    0      0.46     -0.79
   -1  -11    0      0.77      0.08
   -2  -11    0     -0.02      0.10
   -2  -11    0     -0.02      0.10
   -3  -11    0      0.01     -0.07
    8  -10   -1      0.49     -0.03
    8  -10   -1      0.49     -0.03
    7  -10   -1      0.04     -0.02
    7  -10   -1      0.04     -0.02
   -7   10    1      0.04      0.02
    6  -10   -1      1.44      0.01
    6  -10   -1      1.44      0.01
   -6   10    1      1.44     -0.01
    5  -10   -1      0.59     -0.13
   -5   10    1      0.59      0.13
    4  -10   -1      1.25     -0.11
   -4   10    1      1.25      0.11
    4  -10   -1      1.25     -0.11
    3  -10   -1      1.22      0.11
   -3   10    1      1.22     -0.11
    3  -10   -1      1.22      0.11
   -2   10    1      1.82     -0.16
    2  -10   -1      1.82      0.16
   -1   10    1      0.40     -0.08
    1  -10   -1      0.40      0.08
    0  -10   -1      1.85      0.27
   -1  -10   -1      0.90      0.02
   -2  -10   -1     -0.27     -0.02
   -2  -10   -1     -0.27     -0.02
   -3  -10   -1      0.26      0.01
    9   -9   -2      0.23     -0.01
    8   -9   -2     -0.54     -0.09
    8   -9   -2     -0.54     -0.09
    7   -9   -2      1.13      0.02
    7   -9   -2      1.13      0.02
    6   -9   -2      0.07      0.05
    6   -9   -2      0.07      0.05
    5   -9   -2      1.08      0.09
    5   -9   -2      1.08      0.09
    4   -9   -2      0.64      0.03
    3   -9   -2      1.36      0.04
    3   -9   -2      1.36      0.04
    2   -9   -2      0.33      0.05
    2   -9   -2      0.33      0.05
    1   -9   -2      2.91     -0.11
    0   -9   -2      0.36     -0.11
   -1   -9   -2      1.51      0.01
   -2   -9   -2      1.25      0.01
   -2   -9   -2      1.25      0.01
   -2   -9   -2      1.25      0.01
   -3   -9   -2     -0.79     -0.01
   -3   -9   -2     -0.79     -0.01
   -3   -9   -2     -0.79     -0.01
   -4   -9   -2     -0.51      0.04
   -4   -9   -2     -0.51      0.04
   -4   -9   -2     -0.51      0.04
    9   -8   -3      0.43      0.06
    9   -8   -3      0.43      0.06
    8   -8   -3      0.85      0.13
    8   -8   -3      0.85      0.13
    7   -8   -3     -1.25      0.02
    7   -8   -3     -1.25      0.02
    6   -8   -3      0.21      0.00
    6   -8   -3      0.21      0.00
    5   -8   -3     -0.68     -0.17
    5   -8   -3     -0.68     -0.17
    4   -8   -3     -1.55      0.50
    4   -8   -3     -1.55      0.50
    3   -8   -3      0.37     -0.04
    3   -8   -3      0.37     -0.04
    2   -8   -3      0.26      0.07
    2   -8   -3      0.26      0.07
    1   -8   -3     -1.08      0.06
    0   -8   -3      0.07     -0.06
   -1   -8   -3     -0.38      0.02
   -2   -8   -3      1.13      0.06
   -2   -8   -3      1.13      0.06
   -2   -8   -3      1.13      0.06
   -3   -8   -3      1.05      0.08
   -3   -8   -3      1.05      0.08
   -3   -8   -3      1.05      0.08
   -4   -8   -3      0.28      0.01
   -4   -8   -3      0.28      0.01
   -4   -8   -3      0.28      0.01
   -5   -8   -3     -0.17      0.00
   -5   -8   -3     -0.17      0.00
    9   -7   -4     -0.29     -0.05
    9   -7   -4     -0.29     -0.05
    8   -7   -4     -0.73      0.04
    8   -7   -4     -0.73      0.04
    8   -7   -4     -0.73      0.04
    7   -7   -4     -0.64      0.00
    7   -7   -4     -0.64      0.00
    7   -7   -4     -0.64      0.00
    6   -7   -4     -0.92     -0.11
    6   -7   -4     -0.92     -0.11
    6   -7   -4     -0.92     -0.11
    5   -7   -4     -0.44      0.05
    5   -7   -4     -0.44      0.05
    4   -7   -4      0.71     -1.22
    4   -7   -4      0.71     -1.22
    3   -7   -4     -0.14      0.18
    2   -7   -4     -0.63     -0.13
    2   -7   -4     -0.63     -0.13
    1   -7   -4     -1.52     -0.04
    0   -7   -4     -2.22      0.07
   -1   -7   -4     -0.86      0.10
   -1   -7   -4     -0.86      0.10
   -2   -7   -4      0.26      0.01
   -2   -7   -4      0.26      0.01
   -2   -7   -4      0.26      0.01
   -3   -7   -4      0.41     -0.05
   -3   -7   -4      0.41     -0.05
   -3   -7   -4      0.41     -0.05
   -4   -7   -4     -0.12     -0.02
   -4   -7   -4     -0.12     -0.02
   -4   -7   -4     -0.12     -0.02
   -4   -7   -4     -0.12     -0.02
   -5   -7   -4     -0.22     -0.02
   -5   -7   -4     -0.22     -0.02
   -5   -7   -4     -0.22     -0.02
   10   -6   -5      0.15      0.00
    9   -6   -5     -0.21     -0.01
    9   -6   -5     -0.21     -0.01
    9   -6   -5     -0.21     -0.01
    8   -6   -5     -1.08     -0.05
    8   -6   -5     -1.08     -0.05
    8   -6   -5     -1.08     -0.05
    7   -6   -5     -0.59      0.01
    7   -6   -5     -0.59      0.01
    7   -6   -5     -0.59      0.01
    6   -6   -5     -1.06     -0.07
    6   -6   -5     -1.06     -0.07
    6   -6   -5     -1.06     -0.07
    5   -6   -5      0.62     -0.13
    5   -6   -5      0.62     -0.13
    5   -6   -5      0.62     -0.13
    4   -6   -5      0.67      0.61
    4   -6   -5      0.67      0.61
    3   -6   -5     -0.18     -0.28
    3   -6   -5     -0.18     -0.28
    2   -6   -5     -0.64     -0.09
    2   -6   -5     -0.64     -0.09
    1   -6   -5     -2.24     -0.02
    1   -6   -5     -2.24     -0.02
    0   -6   -5     -1.69      0.17
    0   -6   -5     -1.69      0.17
   -1   -6   -5     -1.60      0.05
   -1   -6   -5     -1.60      0.05
   -1   -6   -5     -1.60      0.05
   -2   -6   -5     -0.18      0.00
   -2   -6   -5     -0.18      0.00
   -2   -6   -5     -0.18      0.00
   -3   -6   -5     -0.99     -0.01
   -3   -6   -5     -0.99     -0.01
   -3   -6   -5     -0.99     -0.01
   -3   -6   -5     -0.99     -0.01
   -3   -6   -5     -0.99     -0.01
   -4   -6   -5     -0.91      0.03
   -4   -6   -5     -0.91      0.03
   -4   -6   -5     -0.91      0.03
   -4   -6   -5     -0.91      0.03
   -4   -6   -5     -0.91      0.03
   -5   -6   -5     -0.48      0.06
   -5   -6   -5     -0.48      0.06
   -5   -6   -5     -0.48      0.06
   10   -5   -6      0.70     -0.09
   10   -5   -6      0.70     -0.09
    9   -5   -6     -0.37     -0.04
    9   -5   -6     -0.37     -0.04
    9   -5   -6     -0.37     -0.04
    8   -5   -6      0.21     -0.04
    8   -5   -6      0.21     -0.04
    8   -5   -6      0.21     -0.04
    7   -5   -6     -0.05      0.02
    7   -5   -6     -0.05      0.02
    7   -5   -6     -0.05      0.02
    6   -5   -6      0.83      0.10
    6   -5   -6      0.83      0.10
    6   -5   -6      0.83      0.10
    5   -5   -6      0.41      0.09
    5   -5   -6      0.41      0.09
    5   -5   -6      0.41      0.09
    4   -5   -6      2.63     -0.06
    4   -5   -6      2.63     -0.06
    3   -5   -6      0.70     -0.05
    3   -5   -6      0.70     -0.05
    3   -5   -6      0.70     -0.05
    2   -5   -6      0.18      0.05
    2   -5   -6      0.18      0.05
    2   -5   -6      0.18      0.05
    2   -5   -6      0.18      0.05
    1   -5   -6      0.02      0.02
    1   -5   -6      0.02      0.02
    0   -5   -6     -1.23     -0.02
    0   -5   -6     -1.23     -0.02
   -1   -5   -6      1.12      0.01
   -1   -5   -6      1.12      0.01
   -1   -5   -6      1.12      0.01
   -2   -5   -6     -0.70     -0.04
   -2   -5   -6     -0.70     -0.04
   -2   -5   -6     -0.70     -0.04
   -2   -5   -6     -0.70     -0.04
   -3   -5   -6      0.80     -0.02
   -3   -5   -6      0.80     -0.02
   -3   -5   -6      0.80     -0.02
   -3   -5   -6      0.80     -0.02
   -3   -5   -6      0.80     -0.02
   -4   -5   -6      0.26      0.01
   -4   -5   -6      0.26      0.01
   -4   -5   -6      0.26      0.01
   -4   -5   -6      0.26      0.01
   -4   -5   -6      0.26      0.01
   -5   -5   -6     -1.01      0.00
   -5   -5   -6     -1.01      0.00
    9   -4   -7      0.39      0.01
    9   -4   -7      0.39      0.01
    9   -4   -7      0.39      0.01
    8   -4   -7     -0.32      0.03
    8   -4   -7     -0.32      0.03
    8   -4   -7     -0.32      0.03
    7   -4   -7      0.09     -0.01
    7   -4   -7      0.09     -0.01
    7   -4   -7      0.09     -0.01
    6   -4   -7      0.66      0.02
    6   -4   -7      0.66      0.02
    6   -4   -7      0.66      0.02
    5   -4   -7      0.84      0.03
    5   -4   -7      0.84      0.03
    5   -4   -7      0.84      0.03
    4   -4   -7     -1.56     -0.07
    4   -4   -7     -1.56     -0.07
    3   -4   -7      0.82     -0.11
    3   -4   -7      0.82     -0.11
    3   -4   -7      0.82     -0.11
    3   -4   -7      0.82     -0.11
    2   -4   -7     -1.51     -0.12
    2   -4   -7     -1.51     -0.12
    2   -4   -7     -1.51     -0.12
    1   -4   -7     -0.77      0.02
    1   -4   -7     -0.77      0.02
    1   -4   -7     -0.77      0.02
    1   -4   -7     -0.77      0.02
    0   -4   -7      0.21      0.01
    0   -4   -7      0.21      0.01
    0   -4   -7      0.21      0.01
   -1   -4   -7     -0.46     -0.05
   -1   -4   -7     -0.46     -0.05
   -1   -4   -7     -0.46     -0.05
   -2   -4   -7      1.41      0.02
   -2   -4   -7      1.41      0.02
   -2   -4   -7      1.41      0.02
   -2   -4   -7      1.41      0.02
   -2   -4   -7      1.41      0.02
   -3   -4   -7     -0.10     -0.05
   -3   -4   -7     -0.10     -0.05
   -3   -4   -7     -0.10     -0.05
   -3   -4   -7     -0.10     -0.05
   -3   -4   -7     -0.10     -0.05
   -4   -4   -7     -0.71     -0.11
   -4   -4   -7     -0.71     -0.11
   -4   -4   -7     -0.71     -0.11
   -4   -4   -7     -0.71     -0.11
   -5   -4   -7      0.64     -0.07
   -5   -4   -7      0.64     -0.07
    9   -3   -8     -0.90     -0.02
    9   -3   -8     -0.90     -0.02
    9   -3   -8     -0.90     -0.02
    8   -3   -8     -0.35      0.01
    8   -3   -8     -0.35      0.01
    8   -3   -8     -0.35      0.01
    7   -3   -8      1.20      0.05
    7   -3   -8      1.20      0.05
    6   -3   -8      0.72     -0.02
    6   -3   -8      0.72     -0.02
    6   -3   -8      0.72     -0.02
    5   -3   -8     -0.61     -0.03
    4   -3   -8     -0.31     -0.05
    4   -3   -8     -0.31     -0.05
    3   -3   -8     -1.00     -0.03
    3   -3   -8     -1.00     -0.03
    2   -3   -8     -0.54     -0.02
    2   -3   -8     -0.54     -0.02
    2   -3   -8     -0.54     -0.02
    1   -3   -8     -1.67     -0.06
    1   -3   -8     -1.67     -0.06
    1   -3   -8     -1.67     -0.06
    0   -3   -8      0.04      0.10
    0   -3   -8      0.04      0.10
    0   -3   -8      0.04      0.10
   -1   -3   -8      0.73      0.07
   -1   -3   -8      0.73      0.07
   -1   -3   -8      0.73      0.07
   -2   -3   -8      0.30     -0.02
   -2   -3   -8      0.30     -0.02
   -2   -3   -8      0.30     -0.02
   -2   -3   -8      0.30     -0.02
   -3   -3   -8     -0.45     -0.05
   -3   -3   -8     -0.45     -0.05
   -3   -3   -8     -0.45     -0.05
   -3   -3   -8     -0.45     -0.05
   -4   -3   -8     -0.18     -0.04
   -4   -3   -8     -0.18     -0.04
   -4   -3   -8     -0.18     -0.04
   -5   -3   -8     -1.67      0.00
    8   -2   -9      0.38     -0.06
    7   -2   -9      0.05     -0.02
    6   -2   -9      0.49      0.04
    5   -2   -9      0.00     -0.03
    4   -2   -9      1.10     -0.07
    3   -2   -9     -1.50     -0.01
    2   -2   -9     -0.01      0.00
    2   -2   -9     -0.01      0.00
    1   -2   -9     -0.44      0.06
    1   -2   -9     -0.44      0.06
    0   -2   -9     -1.10      0.00
    0   -2   -9     -1.10      0.00
    0   -2   -9     -1.10      0.00
   -1   -2   -9      0.46      0.09
   -1   -2   -9      0.46      0.09
   -2   -2   -9     -0.10      0.03
   -2   -2   -9     -0.10      0.03
   -3   -2   -9     -0.33     -0.03
   -3   -2   -9     -0.33     -0.03
   -4   -2   -9     -1.36     -0.04
   -4   -2   -9     -1.36     -0.04
   -4   -2   -9     -1.36     -0.04
    8   -1  -10     -0.94      0.00
    7   -1  -10      0.34      0.00
    6   -1  -10     -0.90      0.08
    5   -1  -10      0.48      0.06
    5   -1  -10      0.48      0.06
    4   -1  -10     -0.76     -0.09
    4   -1  -10     -0.76     -0.09
    3   -1  -10      1.32      0.05
    3   -1  -10      1.32      0.05
    2   -1  -10     -0.38      0.05
    2   -1  -10     -0.38      0.05
    1   -1  -10     -1.23      0.01
    1   -1  -10     -1.23      0.01
    0   -1  -10     -0.77     -0.01
    0   -1  -10     -0.77     -0.01
    0   -1  -10     -0.77     -0.01
   -1   -1  -10     -0.85     -0.03
   -1   -1  -10     -0.85     -0.03
   -1   -1  -10     -0.85     -0.03
   -2   -1  -10      0.25      0.08
   -2   -1  -10      0.25      0.08
   -3   -1  -10     -0.85      0.01
   -3   -1  -10     -0.85      0.01
   -4   -1  -10     -0.59      0.00
   -4   -1  -10     -0.59      0.00
    7    0  -11     -2.44      0.02
    6    0  -11     -0.53     -0.03
    5    0  -11     -1.53      0.01
    5    0  -11     -1.53      0.01
    4    0  -11      0.61      0.29
    4    0  -11      0.61      0.29
    3    0  -11      0.76      0.06
    3    0  -11      0.76      0.06
    2    0  -11     -0.09      0.00
    1    0  -11      0.03     -0.11
    1    0  -11      0.03     -0.11
    0    0  -11     -0.33      0.04
    0    0  -11     -0.33      0.04
   -1    0  -11     -0.22     -0.01
   -1    0  -11     -0.22     -0.01
   -1    0  -11     -0.22     -0.01
   -2    0  -11     -0.28      0.00
   -2    0  -11     -0.28      0.00
   -3    0  -11      0.59      0.02
   -3    0  -11      0.59      0.02
    6    1  -12     -0.11      0.01
    5    1  -12      0.56      0.07
    5    1  -12      0.56      0.07
    4    1  -12      0.14      0.05
    4    1  -12      0.14      0.05
    3    1  -12     -1.19      0.06
    3    1  -12     -1.19      0.06
    2    1  -12     -0.20      0.30
    1    1  -12      1.12      0.13
    1    1  -12      1.12      0.13
    0    1  -12      0.62     -0.05
    0    1  -12      0.62     -0.05
   -1    1  -12      0.38      0.01
   -2    1  -12     -0.80      0.02
    5    2  -13      0.37     -0.08
    4    2  -13     -1.43     -0.03
    3    2  -13     -1.12      0.02
    2    2  -13     -1.66     -0.16
    1    2  -13     -0.70      0.03
    0    2  -13      1.03      0.00
   -5   12    0      0.31     -0.07
   -4   12    0      0.99     -0.04
   -3   12    0      0.38      0.01
   -2   12    0      1.40      0.05
    0  -12    0     -0.37      0.02
    6  -11   -1      1.24     -0.02
    5  -11   -1      0.12     -0.12
   -4   11    1     -0.18      0.03
    4  -11   -1     -0.18     -0.03
   -3   11    1     -0.40     -0.11
    3  -11   -1     -0.40      0.11
    2  -11   -1     -0.28      0.07
   -2   11    1     -0.28     -0.07
   -1  -11   -1      0.52     -0.05
   -1  -11   -1      0.52     -0.05
   -2  -11   -1     -0.31     -0.03
    8  -10   -2     -0.09     -0.13
    8  -10   -2     -0.09     -0.13
    7  -10   -2      1.12     -0.12
    7  -10   -2      1.12     -0.12
    6  -10   -2      0.57     -0.31
    6  -10   -2      0.57     -0.31
    6  -10   -2      0.57     -0.31
    5  -10   -2      0.77     -0.10
    5  -10   -2      0.77     -0.10
    4  -10   -2      0.11      0.06
    4  -10   -2      0.11      0.06
    3  -10   -2      1.06      0.04
    2  -10   -2      0.12      0.01
    1  -10   -2      3.07     -0.02
    0  -10   -2      1.25     -0.13
   -1  -10   -2      1.30      0.06
   -1  -10   -2      1.30      0.06
   -1  -10   -2      1.30      0.06
   -2  -10   -2      1.11      0.04
   -2  -10   -2      1.11      0.04
   -2  -10   -2      1.11      0.04
   -3  -10   -2     -0.71      0.04
   -3  -10   -2     -0.71      0.04
   -3  -10   -2     -0.71      0.04
    8   -9   -3      0.55      0.08
    8   -9   -3      0.55      0.08
    7   -9   -3     -0.62     -0.12
    7   -9   -3     -0.62     -0.12
    6   -9   -3      1.11     -0.24
    6   -9   -3      1.11     -0.24
    5   -9   -3      0.09     -0.38
    5   -9   -3      0.09     -0.38
    4   -9   -3     -0.99     -0.04
    4   -9   -3     -0.99     -0.04
    3   -9   -3      0.26     -0.17
    3   -9   -3      0.26     -0.17
    2   -9   -3      1.29     -0.04
    1   -9   -3      0.48      0.10
    0   -9   -3      2.29      0.11
   -1   -9   -3      1.08      0.00
   -1   -9   -3      1.08      0.00
   -1   -9   -3      1.08      0.00
   -2   -9   -3      1.01      0.03
   -2   -9   -3      1.01      0.03
   -2   -9   -3      1.01      0.03
   -3   -9   -3      1.04      0.04
   -3   -9   -3      1.04      0.04
   -3   -9   -3      1.04      0.04
   -3   -9   -3      1.04      0.04
    9   -8   -4     -0.62      0.03
    9   -8   -4     -0.62      0.03
    8   -8   -4     -0.73      0.03
    8   -8   -4     -0.73      0.03
    7   -8   -4      0.56     -0.10
    7   -8   -4      0.56     -0.10
    6   -8   -4     -0.39     -0.22
    6   -8   -4     -0.39     -0.22
    5   -8   -4      0.31     -0.17
    5   -8   -4      0.31     -0.17
    4   -8   -4      1.37     -1.14
    4   -8   -4      1.37     -1.14
    3   -8   -4      0.46     -0.28
    3   -8   -4      0.46     -0.28
    2   -8   -4     -0.03     -0.23
    1   -8   -4      0.22     -0.09
    0   -8   -4      1.02     -0.02
    0   -8   -4      1.02     -0.02
   -1   -8   -4      1.03      0.04
   -1   -8   -4      1.03      0.04
   -1   -8   -4      1.03      0.04
   -2   -8   -4      0.57      0.01
   -2   -8   -4      0.57      0.01
   -2   -8   -4      0.57      0.01
   -3   -8   -4     -0.29     -0.09
   -3   -8   -4     -0.29     -0.09
   -3   -8   -4     -0.29     -0.09
   -3   -8   -4     -0.29     -0.09
   -4   -8   -4     -0.58      0.02
   -4   -8   -4     -0.58      0.02
   -4   -8   -4     -0.58      0.02
    9   -7   -5      0.20      0.11
    9   -7   -5      0.20      0.11
    8   -7   -5     -0.27     -0.07
    8   -7   -5     -0.27     -0.07
    7   -7   -5      0.55     -0.01
    7   -7   -5      0.55     -0.01
    6   -7   -5     -0.05     -0.14
    6   -7   -5     -0.05     -0.14
    5   -7   -5      0.36     -0.19
    5   -7   -5      0.36     -0.19
    4   -7   -5      1.20      0.61
    4   -7   -5      1.20      0.61
    4   -7   -5      1.20      0.61
    3   -7   -5     -1.30     -0.29
    3   -7   -5     -1.30     -0.29
    2   -7   -5     -0.09     -0.06
    2   -7   -5     -0.09     -0.06
    2   -7   -5     -0.09     -0.06
    1   -7   -5      0.54     -0.06
    1   -7   -5      0.54     -0.06
    0   -7   -5      0.97      0.08
    0   -7   -5      0.97      0.08
   -1   -7   -5      1.07      0.02
   -1   -7   -5      1.07      0.02
   -1   -7   -5      1.07      0.02
   -2   -7   -5     -0.12     -0.02
   -2   -7   -5     -0.12     -0.02
   -2   -7   -5     -0.12     -0.02
   -2   -7   -5     -0.12     -0.02
   -3   -7   -5     -0.84      0.05
   -3   -7   -5     -0.84      0.05
   -3   -7   -5     -0.84      0.05
   -3   -7   -5     -0.84      0.05
   -4   -7   -5     -0.03      0.01
   -4   -7   -5     -0.03      0.01
   -4   -7   -5     -0.03      0.01
    9   -6   -6     -0.39      0.05
    9   -6   -6     -0.39      0.05
    8   -6   -6      0.79     -0.01
    8   -6   -6      0.79     -0.01
    7   -6   -6      0.09     -0.12
    7   -6   -6      0.09     -0.12
    7   -6   -6      0.09     -0.12
    6   -6   -6      1.24      0.00
    6   -6   -6      1.24      0.00
    5   -6   -6     -0.14      0.01
    5   -6   -6     -0.14      0.01
    4   -6   -6      0.30     -0.01
    4   -6   -6      0.30     -0.01
    3   -6   -6      1.34      0.12
    3   -6   -6      1.34      0.12
    3   -6   -6      1.34      0.12
    3   -6   -6      1.34      0.12
    2   -6   -6      0.03      0.02
    2   -6   -6      0.03      0.02
    2   -6   -6      0.03      0.02
    1   -6   -6      0.78     -0.02
    1   -6   -6      0.78     -0.02
    0   -6   -6      1.14     -0.10
    0   -6   -6      1.14     -0.10
    0   -6   -6      1.14     -0.10
   -1   -6   -6      1.59      0.02
   -1   -6   -6      1.59      0.02
   -1   -6   -6      1.59      0.02
   -1   -6   -6      1.59      0.02
   -2   -6   -6     -0.50      0.08
   -2   -6   -6     -0.50      0.08
   -2   -6   -6     -0.50      0.08
   -2   -6   -6     -0.50      0.08
   -2   -6   -6     -0.50      0.08
   -3   -6   -6      0.45      0.07
   -3   -6   -6      0.45      0.07
   -3   -6   -6      0.45      0.07
   -3   -6   -6      0.45      0.07
   -3   -6   -6      0.45      0.07
   -4   -6   -6     -0.01      0.03
   -4   -6   -6     -0.01      0.03
   -4   -6   -6     -0.01      0.03
    9   -5   -7      0.13      0.00
    9   -5   -7      0.13      0.00
    8   -5   -7     -0.31     -0.01
    8   -5   -7     -0.31     -0.01
    8   -5   -7     -0.31     -0.01
    7   -5   -7     -0.34     -0.08
    7   -5   -7     -0.34     -0.08
    7   -5   -7     -0.34     -0.08
    6   -5   -7      0.23     -0.09
    6   -5   -7      0.23     -0.09
    5   -5   -7      0.69      0.00
    5   -5   -7      0.69      0.00
    4   -5   -7     -1.71     -0.07
    4   -5   -7     -1.71     -0.07
    4   -5   -7     -1.71     -0.07
    3   -5   -7      0.31      0.02
    3   -5   -7      0.31      0.02
    3   -5   -7      0.31      0.02
    3   -5   -7      0.31      0.02
    2   -5   -7     -0.18     -0.06
    2   -5   -7     -0.18     -0.06
    2   -5   -7     -0.18     -0.06
    1   -5   -7      0.83     -0.09
    1   -5   -7      0.83     -0.09
    1   -5   -7      0.83     -0.09
    0   -5   -7      0.82     -0.06
    0   -5   -7      0.82     -0.06
    0   -5   -7      0.82     -0.06
   -1   -5   -7     -0.91     -0.05
   -1   -5   -7     -0.91     -0.05
   -1   -5   -7     -0.91     -0.05
   -1   -5   -7     -0.91     -0.05
   -1   -5   -7     -0.91     -0.05
   -2   -5   -7      0.40      0.04
   -2   -5   -7      0.40      0.04
   -2   -5   -7      0.40      0.04
   -2   -5   -7      0.40      0.04
   -2   -5   -7      0.40      0.04
   -3   -5   -7     -0.65      0.00
   -3   -5   -7     -0.65      0.00
   -3   -5   -7     -0.65      0.00
   -3   -5   -7     -0.65      0.00
   -3   -5   -7     -0.65      0.00
   -4   -5   -7     -0.19     -0.02
   -4   -5   -7     -0.19     -0.02
    9   -4   -8     -0.26      0.00
    8   -4   -8     -0.63     -0.01
    8   -4   -8     -0.63     -0.01
    8   -4   -8     -0.63     -0.01
    7   -4   -8      0.96      0.04
    7   -4   -8      0.96      0.04
    7   -4   -8      0.96      0.04
    6   -4   -8      0.49      0.01
    6   -4   -8      0.49      0.01
    6   -4   -8      0.49      0.01
    5   -4   -8      0.37     -0.01
    5   -4   -8      0.37     -0.01
    5   -4   -8      0.37     -0.01
    4   -4   -8      1.51      0.01
    4   -4   -8      1.51      0.01
    3   -4   -8     -0.28      0.08
    3   -4   -8     -0.28      0.08
    3   -4   -8     -0.28      0.08
    2   -4   -8      1.25      0.01
    2   -4   -8      1.25      0.01
    2   -4   -8      1.25      0.01
    1   -4   -8     -0.54     -0.02
    1   -4   -8     -0.54     -0.02
    1   -4   -8     -0.54     -0.02
    0   -4   -8      0.57      0.00
    0   -4   -8      0.57      0.00
    0   -4   -8      0.57      0.00
   -1   -4   -8      0.48      0.02
   -1   -4   -8      0.48      0.02
   -1   -4   -8      0.48      0.02
   -2   -4   -8     -0.37     -0.08
   -2   -4   -8     -0.37     -0.08
   -2   -4   -8     -0.37     -0.08
   -2   -4   -8     -0.37     -0.08
   -3   -4   -8     -0.75     -0.05
   -3   -4   -8     -0.75     -0.05
   -3   -4   -8     -0.75     -0.05
   -3   -4   -8     -0.75     -0.05
   -4   -4   -8      0.44      0.01
    8   -3   -9      1.06     -0.01
    7   -3   -9      0.68      0.03
    6   -3   -9      1.19      0.10
    5   -3   -9      0.61      0.02
    4   -3   -9      2.05      0.04
    3   -3   -9      0.20     -0.05
    2   -3   -9      0.74      0.05
    2   -3   -9      0.74      0.05
    1   -3   -9      1.62      0.03
    1   -3   -9      1.62      0.03
    1   -3   -9      1.62      0.03
    0   -3   -9     -0.78     -0.01
    0   -3   -9     -0.78     -0.01
    0   -3   -9     -0.78     -0.01
   -1   -3   -9     -0.47     -0.08
   -1   -3   -9     -0.47     -0.08
   -1   -3   -9     -0.47     -0.08
   -2   -3   -9     -0.35     -0.04
   -2   -3   -9     -0.35     -0.04
   -2   -3   -9     -0.35     -0.04
   -3   -3   -9      0.41     -0.02
   -3   -3   -9      0.41     -0.02
   -4   -3   -9     -0.17      0.01
    8   -2  -10      0.13      0.01
    7   -2  -10      0.83      0.00
    6   -2  -10     -0.35      0.05
    5   -2  -10      0.40      0.01
    4   -2  -10     -1.83     -0.02
    3   -2  -10      2.23      0.05
    2   -2  -10      0.29      0.00
    2   -2  -10      0.29      0.00
    1   -2  -10      0.29     -0.03
    1   -2  -10      0.29     -0.03
    0   -2  -10      0.08     -0.08
    0   -2  -10      0.08     -0.08
    0   -2  -10      0.08     -0.08
   -1   -2  -10     -0.86     -0.07
   -1   -2  -10     -0.86     -0.07
   -2   -2  -10     -0.50     -0.01
   -2   -2  -10     -0.50     -0.01
   -3   -2  -10     -0.83      0.04
   -3   -2  -10     -0.83      0.04
    7   -1  -11     -1.38     -0.04
    6   -1  -11      0.43     -0.11
    5   -1  -11     -1.02     -0.05
    4   -1  -11      0.22      0.11
    3   -1  -11     -1.38     -0.02
    2   -1  -11      0.15      0.05
    2   -1  -11      0.15      0.05
    1   -1  -11      0.63     -0.04
    1   -1  -11      0.63     -0.04
    0   -1  -11      0.24      0.02
    0   -1  -11      0.24      0.02
   -1   -1  -11      0.23      0.06
   -1   -1  -11      0.23      0.06
   -2   -1  -11     -1.08     -0.01
   -2   -1  -11     -1.08     -0.01
    6    0  -12     -0.77     -0.02
    5    0  -12      0.51      0.02
    4    0  -12     -0.10      0.02
    3    0  -12     -0.68      0.07
    2    0  -12     -0.08      0.01
    1    0  -12      1.21      0.11
    1    0  -12      1.21      0.11
    0    0  -12      1.01      0.01
    0    0  -12      1.01      0.01
   -1    0  -12      0.23      0.03
    4    1  -13     -1.32      0.05
    3    1  -13      0.73      0.12
    2    1  -13      0.01     -0.02
    1    1  -13     -0.89     -0.12
    1  -12   -1     -0.16     -0.25
    1  -12   -1     -0.16     -0.25
    6  -11   -2     -0.68     -0.06
    5  -11   -2     -0.12      0.17
    4  -11   -2     -0.45      0.26
    3  -11   -2      1.06      0.14
    2  -11   -2     -0.76      0.06
    1  -11   -2     -0.11      0.09
    1  -11   -2     -0.11      0.09
    0  -11   -2     -0.66      0.00
    0  -11   -2     -0.66      0.00
   -1  -11   -2     -0.09      0.08
   -1  -11   -2     -0.09      0.08
    7  -10   -3     -0.36      0.00
    7  -10   -3     -0.36      0.00
    6  -10   -3      0.48      0.07
    6  -10   -3      0.48      0.07
    5  -10   -3      0.90     -0.02
    5  -10   -3      0.90     -0.02
    4  -10   -3      0.26      0.08
    3  -10   -3     -0.35      0.11
    2  -10   -3      0.63      0.16
    1  -10   -3     -1.32      0.21
    1  -10   -3     -1.32      0.21
    0  -10   -3      0.07      0.40
    0  -10   -3      0.07      0.40
    0  -10   -3      0.07      0.40
   -1  -10   -3     -0.21      0.14
   -1  -10   -3     -0.21      0.14
   -1  -10   -3     -0.21      0.14
   -2  -10   -3      0.04      0.07
   -2  -10   -3      0.04      0.07
   -2  -10   -3      0.04      0.07
    8   -9   -4     -0.41     -0.03
    8   -9   -4     -0.41     -0.03
    8   -9   -4     -0.41     -0.03
    7   -9   -4      1.18     -0.03
    7   -9   -4      1.18     -0.03
    6   -9   -4      0.25     -0.05
    6   -9   -4      0.25     -0.05
    6   -9   -4      0.25     -0.05
    5   -9   -4      0.91     -0.02
    5   -9   -4      0.91     -0.02
    4   -9   -4      2.13     -0.44
    4   -9   -4      2.13     -0.44
    4   -9   -4      2.13     -0.44
    3   -9   -4      0.87     -0.07
    2   -9   -4     -0.34      0.01
    2   -9   -4     -0.34      0.01
    1   -9   -4     -0.52      0.06
    1   -9   -4     -0.52      0.06
    0   -9   -4     -0.28      0.02
    0   -9   -4     -0.28      0.02
    0   -9   -4     -0.28      0.02
   -1   -9   -4     -0.60      0.20
   -1   -9   -4     -0.60      0.20
   -1   -9   -4     -0.60      0.20
   -2   -9   -4     -0.01      0.12
   -2   -9   -4     -0.01      0.12
   -2   -9   -4     -0.01      0.12
   -2   -9   -4     -0.01      0.12
   -2   -9   -4     -0.01      0.12
    8   -8   -5      0.23     -0.14
    8   -8   -5      0.23     -0.14
    7   -8   -5      0.48      0.02
    7   -8   -5      0.48      0.02
    6   -8   -5      0.50      0.02
    6   -8   -5      0.50      0.02
    6   -8   -5      0.50      0.02
    5   -8   -5     -0.21     -0.03
    5   -8   -5     -0.21     -0.03
    5   -8   -5     -0.21     -0.03
    4   -8   -5      0.91      0.56
    4   -8   -5      0.91      0.56
    4   -8   -5      0.91      0.56
    3   -8   -5     -1.54     -0.01
    3   -8   -5     -1.54     -0.01
    3   -8   -5     -1.54     -0.01
    2   -8   -5      0.19      0.01
    2   -8   -5      0.19      0.01
    1   -8   -5      1.49     -0.02
    1   -8   -5      1.49     -0.02
    0   -8   -5      0.12      0.08
    0   -8   -5      0.12      0.08
    0   -8   -5      0.12      0.08
   -1   -8   -5      0.47      0.01
   -1   -8   -5      0.47      0.01
   -1   -8   -5      0.47      0.01
   -2   -8   -5     -0.68      0.02
   -2   -8   -5     -0.68      0.02
   -2   -8   -5     -0.68      0.02
   -2   -8   -5     -0.68      0.02
   -2   -8   -5     -0.68      0.02
   -3   -8   -5      0.00      0.06
   -3   -8   -5      0.00      0.06
    8   -7   -6      0.71      0.04
    8   -7   -6      0.71      0.04
    7   -7   -6     -0.39     -0.06
    7   -7   -6     -0.39     -0.06
    6   -7   -6      0.70      0.10
    6   -7   -6      0.70      0.10
    6   -7   -6      0.70      0.10
    5   -7   -6     -0.19      0.10
    5   -7   -6     -0.19      0.10
    5   -7   -6     -0.19      0.10
    4   -7   -6     -2.04      0.03
    4   -7   -6     -2.04      0.03
    4   -7   -6     -2.04      0.03
    3   -7   -6      1.67      0.12
    3   -7   -6      1.67      0.12
    2   -7   -6     -0.19     -0.03
    2   -7   -6     -0.19     -0.03
    1   -7   -6      0.21      0.02
    1   -7   -6      0.21      0.02
    1   -7   -6      0.21      0.02
    0   -7   -6      1.18     -0.09
    0   -7   -6      1.18     -0.09
    0   -7   -6      1.18     -0.09
   -1   -7   -6     -0.19     -0.02
   -1   -7   -6     -0.19     -0.02
   -1   -7   -6     -0.19     -0.02
   -1   -7   -6     -0.19     -0.02
   -2   -7   -6     -0.34      0.07
   -2   -7   -6     -0.34      0.07
   -2   -7   -6     -0.34      0.07
   -2   -7   -6     -0.34      0.07
   -2   -7   -6     -0.34      0.07
   -3   -7   -6      0.44      0.02
   -3   -7   -6      0.44      0.02
    8   -6   -7      0.33      0.03
    8   -6   -7      0.33      0.03
    8   -6   -7      0.33      0.03
    7   -6   -7     -0.07      0.04
    7   -6   -7     -0.07      0.04
    7   -6   -7     -0.07      0.04
    6   -6   -7     -1.17     -0.04
    6   -6   -7     -1.17     -0.04
    6   -6   -7     -1.17     -0.04
    5   -6   -7     -0.51      0.07
    5   -6   -7     -0.51      0.07
    5   -6   -7     -0.51      0.07
    4   -6   -7     -1.24     -0.07
    4   -6   -7     -1.24     -0.07
    4   -6   -7     -1.24     -0.07
    3   -6   -7     -1.85      0.04
    3   -6   -7     -1.85      0.04
    3   -6   -7     -1.85      0.04
    2   -6   -7     -0.77     -0.06
    2   -6   -7     -0.77     -0.06
    1   -6   -7      0.16     -0.08
    1   -6   -7      0.16     -0.08
    1   -6   -7      0.16     -0.08
    0   -6   -7     -0.91      0.00
    0   -6   -7     -0.91      0.00
    0   -6   -7     -0.91      0.00
   -1   -6   -7     -1.40     -0.01
   -1   -6   -7     -1.40     -0.01
   -1   -6   -7     -1.40     -0.01
   -1   -6   -7     -1.40     -0.01
   -1   -6   -7     -1.40     -0.01
   -2   -6   -7     -0.64     -0.01
   -2   -6   -7     -0.64     -0.01
   -2   -6   -7     -0.64     -0.01
   -2   -6   -7     -0.64     -0.01
   -3   -6   -7     -1.27     -0.04
   -3   -6   -7     -1.27     -0.04
    8   -5   -8     -0.27     -0.01
    8   -5   -8     -0.27     -0.01
    7   -5   -8      0.04      0.03
    7   -5   -8      0.04      0.03
    7   -5   -8      0.04      0.03
    6   -5   -8     -0.82     -0.01
    6   -5   -8     -0.82     -0.01
    5   -5   -8     -0.24     -0.08
    5   -5   -8     -0.24     -0.08
    5   -5   -8     -0.24     -0.08
    4   -5   -8      1.11      0.06
    4   -5   -8      1.11      0.06
    3   -5   -8     -0.81      0.04
    3   -5   -8     -0.81      0.04
    3   -5   -8     -0.81      0.04
    2   -5   -8     -0.12      0.00
    2   -5   -8     -0.12      0.00
    1   -5   -8     -1.77      0.00
    1   -5   -8     -1.77      0.00
    1   -5   -8     -1.77      0.00
    0   -5   -8     -0.36     -0.01
    0   -5   -8     -0.36     -0.01
    0   -5   -8     -0.36     -0.01
   -1   -5   -8     -0.20      0.02
   -1   -5   -8     -0.20      0.02
   -1   -5   -8     -0.20      0.02
   -2   -5   -8     -0.73     -0.01
   -2   -5   -8     -0.73     -0.01
   -2   -5   -8     -0.73     -0.01
   -2   -5   -8     -0.73     -0.01
   -3   -5   -8     -1.21     -0.02
    8   -4   -9      0.63     -0.01
    7   -4   -9     -1.04     -0.02
    6   -4   -9     -0.71     -0.02
    5   -4   -9      0.09     -0.07
    4   -4   -9      1.69     -0.04
    3   -4   -9      1.31     -0.17
    3   -4   -9      1.31     -0.17
    2   -4   -9     -0.03     -0.01
    2   -4   -9     -0.03     -0.01
    2   -4   -9     -0.03     -0.01
    1   -4   -9      2.45     -0.02
    1   -4   -9      2.45     -0.02
    0   -4   -9     -0.20      0.01
    0   -4   -9     -0.20      0.01
    0   -4   -9     -0.20      0.01
   -1   -4   -9     -0.02     -0.04
   -1   -4   -9     -0.02     -0.04
   -1   -4   -9     -0.02     -0.04
   -2   -4   -9      0.03     -0.05
   -2   -4   -9      0.03     -0.05
    7   -3  -10     -1.40      0.00
    6   -3  -10     -1.85     -0.02
    5   -3  -10     -0.17      0.00
    4   -3  -10     -1.54     -0.03
    3   -3  -10      2.34      0.00
    2   -3  -10      1.47     -0.09
    2   -3  -10      1.47     -0.09
    1   -3  -10      0.91     -0.02
    1   -3  -10      0.91     -0.02
    0   -3  -10      2.45     -0.07
   -1   -3  -10      1.51      0.03
   -1   -3  -10      1.51      0.03
   -2   -3  -10      0.50     -0.07
   -2   -3  -10      0.50     -0.07
    7   -2  -11     -1.22     -0.02
    6   -2  -11     -0.16     -0.03
    5   -2  -11     -1.27      0.04
    4   -2  -11      0.29      0.02
    3   -2  -11     -2.25      0.00
    2   -2  -11     -0.44      0.00
    1   -2  -11     -0.30     -0.01
    1   -2  -11     -0.30     -0.01
    0   -2  -11      0.75      0.09
   -1   -2  -11      0.81      0.07
    6   -1  -12     -0.95      0.01
    5   -1  -12      0.12     -0.01
    4   -1  -12     -0.70     -0.06
    3   -1  -12     -0.15     -0.01
    2   -1  -12     -1.01     -0.03
    1   -1  -12     -0.70      0.02
    1   -1  -12     -0.70      0.02
    0   -1  -12     -0.71      0.04
    4    0  -13     -0.19     -0.12
    3    0  -13      0.73      0.00
    5  -11   -3     -0.15      0.02
    4  -11   -3      0.02     -0.04
    4  -11   -3      0.02     -0.04
    3  -11   -3     -1.27      0.00
    3  -11   -3     -1.27      0.00
    2  -11   -3      0.79     -0.01
    2  -11   -3      0.79     -0.01
    1  -11   -3      0.26     -0.03
    1  -11   -3      0.26     -0.03
    6  -10   -4     -1.36     -0.01
    5  -10   -4     -1.46      0.07
    4  -10   -4      0.15      0.00
    4  -10   -4      0.15      0.00
    3  -10   -4      0.47      0.00
    3  -10   -4      0.47      0.00
    2  -10   -4      0.14     -0.05
    2  -10   -4      0.14     -0.05
    1  -10   -4      0.00     -0.06
    1  -10   -4      0.00     -0.06
    1  -10   -4      0.00     -0.06
    0  -10   -4     -0.18     -0.21
    0  -10   -4     -0.18     -0.21
    0  -10   -4     -0.18     -0.21
    7   -9   -5     -1.31      0.03
    7   -9   -5     -1.31      0.03
    6   -9   -5     -1.09      0.07
    6   -9   -5     -1.09      0.07
    5   -9   -5     -1.07      0.07
    5   -9   -5     -1.07      0.07
    4   -9   -5     -0.20      0.46
    4   -9   -5     -0.20      0.46
    3   -9   -5     -1.22      0.26
    3   -9   -5     -1.22      0.26
    2   -9   -5      0.17      0.09
    2   -9   -5      0.17      0.09
    1   -9   -5      0.99     -0.03
    1   -9   -5      0.99     -0.03
    1   -9   -5      0.99     -0.03
    0   -9   -5     -0.81      0.07
    0   -9   -5     -0.81      0.07
    0   -9   -5     -0.81      0.07
    0   -9   -5     -0.81      0.07
   -1   -9   -5      0.20     -0.03
   -1   -9   -5      0.20     -0.03
   -1   -9   -5      0.20     -0.03
   -1   -9   -5      0.20     -0.03
   -1   -9   -5      0.20     -0.03
    7   -8   -6     -0.91     -0.08
    7   -8   -6     -0.91     -0.08
    7   -8   -6     -0.91     -0.08
    6   -8   -6      0.08     -0.03
    6   -8   -6      0.08     -0.03
    6   -8   -6      0.08     -0.03
    5   -8   -6      1.21      0.05
    5   -8   -6      1.21      0.05
    4   -8   -6     -1.45      0.00
    3   -8   -6      1.95      0.13
    3   -8   -6      1.95      0.13
    2   -8   -6     -0.54      0.09
    2   -8   -6     -0.54      0.09
    2   -8   -6     -0.54      0.09
    1   -8   -6     -1.42      0.13
    1   -8   -6     -1.42      0.13
    1   -8   -6     -1.42      0.13
    1   -8   -6     -1.42      0.13
    0   -8   -6     -0.48      0.01
    0   -8   -6     -0.48      0.01
    0   -8   -6     -0.48      0.01
    0   -8   -6     -0.48      0.01
   -1   -8   -6     -1.84      0.02
   -1   -8   -6     -1.84      0.02
   -1   -8   -6     -1.84      0.02
   -1   -8   -6     -1.84      0.02
    7   -7   -7      0.83     -0.03
    7   -7   -7      0.83     -0.03
    7   -7   -7      0.83     -0.03
    6   -7   -7      0.06     -0.14
    6   -7   -7      0.06     -0.14
    6   -7   -7      0.06     -0.14
    5   -7   -7      0.19     -0.05
    5   -7   -7      0.19     -0.05
    5   -7   -7      0.19     -0.05
    4   -7   -7      0.89     -0.17
    3   -7   -7     -2.07     -0.07
    3   -7   -7     -2.07     -0.07
    2   -7   -7     -0.52     -0.03
    2   -7   -7     -0.52     -0.03
    1   -7   -7     -0.48      0.01
    1   -7   -7     -0.48      0.01
    1   -7   -7     -0.48      0.01
    0   -7   -7     -2.25      0.08
    0   -7   -7     -2.25      0.08
    0   -7   -7     -2.25      0.08
   -1   -7   -7     -1.20      0.01
   -1   -7   -7     -1.20      0.01
    7   -6   -8      1.56     -0.02
    6   -6   -8      1.58     -0.03
    6   -6   -8      1.58     -0.03
    6   -6   -8      1.58     -0.03
    5   -6   -8      0.70     -0.10
    5   -6   -8      0.70     -0.10
    5   -6   -8      0.70     -0.10
    4   -6   -8      0.08      0.03
    4   -6   -8      0.08      0.03
    3   -6   -8     -0.11     -0.04
    3   -6   -8     -0.11     -0.04
    2   -6   -8     -0.61     -0.01
    2   -6   -8     -0.61     -0.01
    1   -6   -8     -1.52      0.02
    1   -6   -8     -1.52      0.02
    0   -6   -8      0.21      0.00
    0   -6   -8      0.21      0.00
    0   -6   -8      0.21      0.00
   -1   -6   -8      0.20      0.01
   -1   -6   -8      0.20      0.01
   -1   -6   -8      0.20      0.01
    7   -5   -9      0.54     -0.04
    6   -5   -9      0.71     -0.02
    5   -5   -9     -0.02      0.03
    4   -5   -9     -0.67     -0.03
    4   -5   -9     -0.67     -0.03
    3   -5   -9     -0.62     -0.03
    3   -5   -9     -0.62     -0.03
    2   -5   -9     -1.07      0.05
    2   -5   -9     -1.07      0.05
    1   -5   -9      1.46      0.00
    1   -5   -9      1.46      0.00
    0   -5   -9     -0.04      0.01
    0   -5   -9     -0.04      0.01
    0   -5   -9     -0.04      0.01
   -1   -5   -9      0.71      0.05
   -1   -5   -9      0.71      0.05
    7   -4  -10     -1.12     -0.02
    6   -4  -10     -1.00      0.00
    5   -4  -10     -0.71      0.05
    4   -4  -10     -2.25      0.01
    3   -4  -10     -0.55      0.07
    2   -4  -10      0.34      0.01
    1   -4  -10     -0.85      0.04
    0   -4  -10      2.10     -0.03
   -1   -4  -10      1.57      0.01
    6   -3  -11     -0.19      0.00
    5   -3  -11     -0.69      0.03
    4   -3  -11      1.54      0.01
    3   -3  -11     -0.89      0.02
    2   -3  -11     -1.09     -0.04
    1   -3  -11     -0.52      0.00
    0   -3  -11      0.66      0.11
    4   -2  -12      0.80      0.05
    3   -2  -12      2.13      0.00
    4  -10   -5     -0.65      0.05
    3  -10   -5     -1.02      0.06
    2  -10   -5     -0.49      0.06
    2  -10   -5     -0.49      0.06
    5   -9   -6      0.68     -0.01
    4   -9   -6     -1.69     -0.09
    3   -9   -6      0.57     -0.01
    3   -9   -6      0.57     -0.01
    2   -9   -6     -0.40      0.04
    2   -9   -6     -0.40      0.04
    1   -9   -6     -0.84      0.07
    1   -9   -6     -0.84      0.07
    5   -8   -7     -1.67     -0.07
    4   -8   -7     -0.06     -0.11
    3   -8   -7     -2.26      0.00
    3   -8   -7     -2.26      0.00
    2   -8   -7     -0.20      0.05
    2   -8   -7     -0.20      0.05
    1   -8   -7     -0.02     -0.01
    1   -8   -7     -0.02     -0.01
    5   -7   -8      0.10     -0.03
    4   -7   -8     -0.45     -0.02
    3   -7   -8      0.53     -0.01
    2   -7   -8     -1.03      0.05
    2   -7   -8     -1.03      0.05
    1   -7   -8     -1.04      0.03
    1   -7   -8     -1.04      0.03
    3   -6   -9     -1.13     -0.04
    2   -6   -9     -0.65     -0.01
    1   -6   -9      0.43      0.00
    1   -6   -9      0.43      0.00
    0    0    0      0.00      0.00
# SQUEEZE RESULTS (APPEND TO CIF)
# Note: Data are Listed for all Voids in the P1 Unit Cell
# i.e. Centre of Gravity, Solvent Accessible Volume,
# Recovered number of Electrons in the Void and
# Details about the Squeezed Material
loop_
  _platon_squeeze_void_nr
  _platon_squeeze_void_average_x
  _platon_squeeze_void_average_y
  _platon_squeeze_void_average_z
  _platon_squeeze_void_volume
  _platon_squeeze_void_count_electrons
  _platon_squeeze_void_content
   1 -0.012 -0.005 -0.012       584       160 ' '
_platon_squeeze_details
TITL FJU-31-Ch in P-1
CELL    9.2142   11.1531   11.3582    112.29     99.49     99.05
SPGR P-1
# Note: Atoms in Void as Cxxx and Qxxx all others
Q101 0.814 0.472 0.971 !       3.21 eA-3
Q102 0.510 0.423 0.919 !       3.12 eA-3
C103 0.665 0.028 0.515 !       2.87 eA-3
C104 0.944 0.799 0.842 !       2.68 eA-3
C105 0.555 1.001 0.393 !       2.63 eA-3
Q106 0.180 0.706 0.183 !       2.58 eA-3
C107 0.940 0.269 0.391 !       2.49 eA-3
C108 0.998 0.079 0.422 !       2.48 eA-3
C109 0.949 0.361 0.282 !       2.47 eA-3
C110 0.409 0.046 0.419 !       2.39 eA-3
C111 1.010 0.737 0.768 !       2.31 eA-3
C112 0.043 0.089 0.237 !       2.27 eA-3
C113 0.412 0.918 0.567 !       2.23 eA-3
C114 0.782 0.013 0.486 !       2.21 eA-3
C115 1.002 0.834 0.641 !       2.07 eA-3
Q116 0.766 0.515 0.012 !       1.24 eA-3
Q117 0.502 0.454 0.064 !       1.10 eA-3
Q118 0.165 0.391 0.889 !       1.06 eA-3
Q119 0.956 0.765 0.250 !       1.06 eA-3
Q120 0.202 0.688 0.063 !       0.99 eA-3
Q121 0.255 0.344 0.840 !       0.94 eA-3
Q122 0.810 0.419 0.830 !       0.93 eA-3
Q123 0.239 0.531 0.219 !       0.93 eA-3
C124 0.437 0.169 0.578 !       0.91 eA-3
Q125 0.283 0.690 0.025 !       0.89 eA-3
Q126 0.495 0.577 0.907 !       0.88 eA-3
Q127 0.457 0.483 0.124 !       0.85 eA-3
Q128 0.537 0.361 0.046 !       0.81 eA-3
Q129 0.549 0.670 0.107 !       0.78 eA-3
Q130 0.530 0.375 0.731 !       0.78 eA-3
Q131 0.240 0.251 0.749 !       0.78 eA-3
Q132 0.414 0.659 0.048 !       0.78 eA-3
Q133 0.429 0.581 0.652 !       0.76 eA-3
Q134 0.873 0.548 0.085 !       0.75 eA-3
C135 0.098 0.298 0.490 !       0.74 eA-3
Q136 0.437 0.833 0.956 !       0.72 eA-3
Q137 0.389 0.016 0.108 !       0.71 eA-3
Q138 0.266 0.654 0.346 !       0.71 eA-3
C139 0.847 0.058 0.257 !       0.67 eA-3
Q140 0.045 0.513 0.069 !       0.63 eA-3
Q141 0.669 0.235 0.935 !       0.63 eA-3
Q142 0.955 0.189 0.655 !       0.63 eA-3
Q143 0.382 0.097 0.002 !       0.62 eA-3
Q144 0.410 0.938 0.012 !       0.61 eA-3
Q145 0.856 0.700 0.221 !       0.60 eA-3
Q146 0.630 0.388 0.433 !       0.60 eA-3
Q147 0.425 0.469 0.373 !       0.59 eA-3
Q148 0.441 0.578 0.203 !       0.59 eA-3
C149 0.633 0.865 0.356 !       0.58 eA-3
Q150 0.987 0.640 0.082 !       0.58 eA-3
C151 0.039 0.019 0.499 !       0.58 eA-3
Q152 0.400 0.861 0.135 !       0.58 eA-3
Q153 0.698 0.420 0.534 !       0.57 eA-3
Q154 0.423 0.214 0.130 !       0.57 eA-3
Q155 0.598 0.970 0.988 !       0.57 eA-3
Q156 0.597 0.951 0.940 !       0.57 eA-3
C157 0.076 0.032 0.876 !       0.57 eA-3
C158 0.072 0.628 0.487 !       0.56 eA-3
Q159 0.240 0.805 0.234 !       0.56 eA-3
Q160 0.732 0.391 0.984 !       0.56 eA-3
Q161 0.824 0.157 0.658 !       0.55 eA-3
Q162 0.249 0.891 0.204 !       0.54 eA-3
Q163 0.760 0.046 0.723 !       0.54 eA-3
Q164 0.769 0.421 0.279 !       0.54 eA-3
Q165 0.580 0.239 0.899 !       0.54 eA-3
Q166 0.698 0.175 0.812 !       0.54 eA-3
Q167 0.771 0.580 0.933 !       0.54 eA-3
Q168 0.273 0.236 0.707 !       0.54 eA-3
Q169 0.655 0.330 0.869 !       0.53 eA-3
Q170 0.044 0.348 0.089 !       0.53 eA-3
Q171 0.539 0.965 0.032 !       0.53 eA-3
Q172 0.764 0.733 0.170 !       0.53 eA-3
Q173 0.031 0.302 0.623 !       0.52 eA-3
Q174 0.697 0.268 0.642 !       0.51 eA-3
Q175 0.272 0.386 0.957 !       0.51 eA-3
C176 0.751 0.966 0.345 !       0.51 eA-3
Q177 0.409 0.644 0.498 !       0.51 eA-3
Q178 0.009 0.139 0.800 !       0.51 eA-3
Q179 0.581 0.295 0.408 !       0.51 eA-3
;
_olex2_submission_special_instructions 'No special instructions were received'
loop_
_space_group_symop_operation_xyz
'x, y, z'
'-x, -y, -z'
loop_
_atom_site_label
_atom_site_type_symbol
_atom_site_fract_x
_atom_site_fract_y
_atom_site_fract_z
_atom_site_U_iso_or_equiv
_atom_site_adp_type
_atom_site_occupancy
_atom_site_site_symmetry_order
_atom_site_calc_flag
_atom_site_refinement_flags_posn
_atom_site_refinement_flags_adp
_atom_site_refinement_flags_occupancy
_atom_site_disorder_assembly
_atom_site_disorder_group
Zn2 Zn 0.18384(8) 0.61180(10) 0.11164(8) 0.0407(3) Uani 1 1 d . . . . .
Zn1 Zn 0.5000 0.5000 0.0000 0.0380(3) Uani 1 2 d S T P . .
O4 O 0.2805(6) 0.5946(7) 0.2657(5) 0.0655(16) Uani 1 1 d . . . . .
O2 O 0.2680(6) 0.7736(6) 0.0949(6) 0.0629(15) Uani 1 1 d . . . . .
N2 N 0.8443(5) 0.5505(6) 0.0537(5) 0.0369(11) Uani 1 1 d . . . . .
C7 C 0.5639(9) 0.4561(12) 0.3949(8) 0.076(3) Uani 1 1 d . . . . .
H7 H 0.6073 0.4264 0.3239 0.091 Uiso 1 1 calc R . . . .
O1 O 0.4607(7) 0.6908(7) 0.0429(7) 0.0741(17) Uani 1 1 d . . . . .
O3 O 0.4588(6) 0.5033(8) 0.1752(5) 0.0724(19) Uani 1 1 d . . . . .
C3 C 0.5669(10) 0.8937(10) -0.0314(11) 0.071(3) Uani 1 1 d . . . . .
H3 H 0.6115 0.8215 -0.0535 0.086 Uiso 1 1 calc R . . . .
N3 N 0.7302(6) 0.5959(7) 0.1010(6) 0.0484(14) Uani 1 1 d . . . . .
C4 C 0.3799(10) 0.9986(10) 0.0571(11) 0.077(3) Uani 1 1 d . . . . .
H4 H 0.2978 0.9975 0.0950 0.093 Uiso 1 1 calc R . . . .
C8 C 0.3853(10) 0.5660(13) 0.4948(9) 0.079(3) Uani 1 1 d . . . . .
H8 H 0.3083 0.6104 0.4919 0.095 Uiso 1 1 calc R . . . .
N1 N -0.0240(5) 0.6328(7) 0.1386(5) 0.0487(14) Uani 1 1 d . . . . .
C6 C 0.4493(7) 0.5220(9) 0.3898(7) 0.0538(19) Uani 1 1 d . . . . .
C2 C 0.4465(7) 0.8932(8) 0.0274(8) 0.0517(17) Uani 1 1 d . . . . .
C1 C 0.3898(8) 0.7754(8) 0.0577(8) 0.0547(18) Uani 1 1 d . . . . .
C5 C 0.3936(7) 0.5431(8) 0.2672(6) 0.0489(17) Uani 1 1 d . . . . .
C10 C -0.0616(10) 0.7221(11) 0.2353(9) 0.086(4) Uani 1 1 d . . . . .
H10 H 0.0063 0.7892 0.3098 0.104 Uiso 1 1 calc R . . . .
C9 C 0.7888(10) 0.7020(11) 0.2106(9) 0.082(3) Uani 1 1 d . . . . .
H9 H 0.7348 0.7546 0.2625 0.099 Uiso 1 1 calc R . . . .
loop_
_atom_site_aniso_label
_atom_site_aniso_U_11
_atom_site_aniso_U_22
_atom_site_aniso_U_33
_atom_site_aniso_U_23
_atom_site_aniso_U_13
_atom_site_aniso_U_12
Zn2 0.0214(4) 0.0619(6) 0.0500(5) 0.0346(4) 0.0105(3) 0.0099(3)
Zn1 0.0206(5) 0.0603(8) 0.0464(6) 0.0342(6) 0.0119(4) 0.0112(5)
O4 0.053(3) 0.112(5) 0.055(3) 0.054(3) 0.015(2) 0.034(3)
O2 0.050(3) 0.068(4) 0.094(4) 0.054(3) 0.032(3) 0.012(3)
N2 0.0198(19) 0.056(3) 0.045(3) 0.029(2) 0.0113(17) 0.0114(19)
C7 0.055(4) 0.154(10) 0.061(5) 0.068(6) 0.033(3) 0.060(5)
O1 0.050(3) 0.061(4) 0.125(5) 0.050(4) 0.025(3) 0.019(3)
O3 0.048(3) 0.137(6) 0.061(3) 0.063(4) 0.023(2) 0.034(3)
C3 0.054(4) 0.063(6) 0.127(8) 0.055(6) 0.047(5) 0.027(4)
N3 0.027(2) 0.070(4) 0.054(3) 0.027(3) 0.017(2) 0.018(2)
C4 0.058(5) 0.077(7) 0.131(8) 0.061(6) 0.059(5) 0.026(4)
C8 0.063(5) 0.146(10) 0.065(5) 0.062(6) 0.031(4) 0.064(6)
N1 0.022(2) 0.063(4) 0.052(3) 0.020(3) 0.003(2) 0.002(2)
C6 0.036(3) 0.097(6) 0.049(4) 0.048(4) 0.014(3) 0.022(3)
C2 0.037(3) 0.061(5) 0.077(5) 0.045(4) 0.023(3) 0.012(3)
C1 0.038(3) 0.059(5) 0.075(5) 0.040(4) 0.010(3) 0.004(3)
C5 0.031(3) 0.081(5) 0.044(3) 0.037(4) 0.011(2) 0.007(3)
C10 0.055(5) 0.091(8) 0.061(5) -0.020(5) 0.012(4) 0.008(5)
C9 0.051(4) 0.079(7) 0.071(6) -0.018(5) 0.022(4) 0.011(4)
loop_
_atom_type_symbol
_atom_type_description
_atom_type_scat_dispersion_real
_atom_type_scat_dispersion_imag
_atom_type_scat_source
C C 0.0181 0.0091 'International Tables Vol C Tables 4.2.6.8 and 6.1.1.4'
H H 0.0000 0.0000 'International Tables Vol C Tables 4.2.6.8 and 6.1.1.4'
N N 0.0311 0.0180 'International Tables Vol C Tables 4.2.6.8 and 6.1.1.4'
O O 0.0492 0.0322 'International Tables Vol C Tables 4.2.6.8 and 6.1.1.4'
Zn Zn -1.5491 0.6778 'International Tables Vol C Tables 4.2.6.8 and 6.1.1.4'
loop_
_geom_angle_atom_site_label_1
_geom_angle_atom_site_label_2
_geom_angle_atom_site_label_3
_geom_angle
_geom_angle_site_symmetry_1
_geom_angle_site_symmetry_3
O4 Zn2 O2 115.8(3) . .
O4 Zn2 N2 113.2(3) . 2_665
O4 Zn2 N1 103.9(2) . .
O2 Zn2 N2 111.7(2) . 2_665
O2 Zn2 N1 103.2(3) . .
N2 Zn2 N1 107.9(2) 2_665 .
O1 Zn1 O1 180.0 2_665 .
O1 Zn1 N3 87.5(3) 2_665 2_665
O1 Zn1 N3 92.5(3) . 2_665
O1 Zn1 N3 87.5(3) . .
O1 Zn1 N3 92.5(3) 2_665 .
O3 Zn1 O1 88.0(3) 2_665 .
O3 Zn1 O1 92.0(3) 2_665 2_665
O3 Zn1 O1 88.0(3) . 2_665
O3 Zn1 O1 92.0(3) . .
O3 Zn1 O3 180.0 . 2_665
O3 Zn1 N3 88.4(2) . .
O3 Zn1 N3 88.4(2) 2_665 2_665
O3 Zn1 N3 91.6(2) 2_665 .
O3 Zn1 N3 91.6(2) . 2_665
N3 Zn1 N3 180.0 2_665 .
C5 O4 Zn2 121.1(5) . .
C1 O2 Zn2 115.3(5) . .
N3 N2 Zn2 124.2(4) . 2_665
N3 N2 N1 107.7(6) . 1_655
N1 N2 Zn2 128.1(4) 1_655 2_665
C6 C7 C8 120.5(7) . 2_666
C1 O1 Zn1 158.1(6) . .
C5 O3 Zn1 150.1(6) . .
C4 C3 C2 119.8(8) 2_675 .
N2 N3 Zn1 121.6(5) . .
C9 N3 Zn1 130.4(5) . .
C9 N3 N2 108.0(6) . .
C2 C4 C3 120.6(7) . 2_675
C6 C8 C7 119.7(8) . 2_666
N2 N1 Zn2 123.9(5) 1_455 .
C10 N1 Zn2 129.7(5) . .
C10 N1 N2 106.4(6) . 1_455
C7 C6 C5 119.6(6) . .
C8 C6 C7 119.8(7) . .
C8 C6 C5 120.6(7) . .
C3 C2 C1 119.7(7) . .
C4 C2 C3 119.6(7) . .
C4 C2 C1 120.7(7) . .
O2 C1 C2 115.9(7) . .
O1 C1 O2 125.2(7) . .
O1 C1 C2 118.9(7) . .
O4 C5 C6 115.9(6) . .
O3 C5 O4 126.2(6) . .
O3 C5 C6 117.8(6) . .
N1 C10 C9 109.6(7) . 1_455
N3 C9 C10 108.3(7) . 1_655
loop_
_geom_bond_atom_site_label_1
_geom_bond_atom_site_label_2
_geom_bond_distance
_geom_bond_site_symmetry_2
Zn2 O4 1.920(5) .
Zn2 O2 1.939(5) .
Zn2 N2 1.996(6) 2_665
Zn2 N1 2.024(5) .
Zn1 O1 2.100(6) 2_665
Zn1 O1 2.100(6) .
Zn1 O3 2.075(5) .
Zn1 O3 2.075(5) 2_665
Zn1 N3 2.124(5) .
Zn1 N3 2.124(5) 2_665
O4 C5 1.267(9) .
O2 C1 1.262(9) .
N2 Zn2 1.996(6) 2_665
N2 N3 1.340(7) .
N2 N1 1.355(7) 1_655
C7 C8 1.388(11) 2_666
C7 C6 1.384(11) .
O1 C1 1.206(11) .
O3 C5 1.261(9) .
C3 C4 1.377(12) 2_675
C3 C2 1.386(10) .
N3 C9 1.305(10) .
C4 C3 1.377(12) 2_675
C4 C2 1.366(13) .
C8 C7 1.388(11) 2_666
C8 C6 1.374(11) .
N1 N2 1.355(7) 1_455
N1 C10 1.313(11) .
C6 C5 1.519(9) .
C2 C1 1.519(10) .
C10 C9 1.325(13) 1_455
C9 C10 1.325(13) 1_655
