#------------------------------------------------------------------------------
#$Date: 2017-01-09 05:05:43 +0200 (Mon, 09 Jan 2017) $
#$Revision: 190075 $
#$URL: file:///home/coder/svn-repositories/cod/cif/7/22/71/7227123.cif $
#------------------------------------------------------------------------------
#
# This file is available in the Crystallography Open Database (COD),
# http://www.crystallography.net/
#
# All data on this site have been placed in the public domain by the
# contributors.
#
data_7227123
loop_
_publ_author_name
'Smets, M. M. H.'
'Brugman, S. J. T.'
'van Eck, E. R. H.'
'Tinnemans, P.'
'Meekes, H.'
'Cuppen, H. M.'
_publ_section_title
;
 Understanding the single-crystal-to-single-crystal solid-state phase
 transition of dl-methionine
;
_journal_issue                   48
_journal_name_full               CrystEngComm
_journal_page_first              9363
_journal_paper_doi               10.1039/C6CE02079H
_journal_volume                  18
_journal_year                    2016
_chemical_formula_moiety         'C5 H11 N O2 S'
_chemical_formula_sum            'C5 H11 N O2 S'
_chemical_formula_weight         149.21
_space_group_crystal_system      monoclinic
_space_group_IT_number           14
_space_group_name_Hall           '-P 2ybc'
_space_group_name_H-M_alt        'P 1 21/c 1'
_symmetry_space_group_name_Hall  '-P 2ybc'
_symmetry_space_group_name_H-M   'P 1 21/c 1'
_atom_sites_solution_hydrogens   mixed
_atom_sites_solution_primary     direct
_atom_sites_solution_secondary   difmap
_audit_creation_method           SHELXL-2016/6
_cell_angle_alpha                90
_cell_angle_beta                 101.424(5)
_cell_angle_gamma                90
_cell_formula_units_Z            4
_cell_length_a                   16.923(3)
_cell_length_b                   4.7963(7)
_cell_length_c                   9.8840(15)
_cell_measurement_reflns_used    3254
_cell_measurement_temperature    420(2)
_cell_measurement_theta_max      23.69
_cell_measurement_theta_min      2.46
_cell_volume                     786.4(2)
_computing_cell_refinement       Peakref
_computing_data_collection       Apex3
_computing_data_reduction        SAINT,SADABS-2014/5
_computing_molecular_graphics    'PLATON, Shelxle'
_computing_structure_refinement  'SHELXL-2016/6 (Sheldrick, 2016)'
_computing_structure_solution    'SHELXT 2014/4 (Sheldrick, 2014)'
_diffrn_ambient_temperature      420(2)
_diffrn_detector_area_resol_mean 10.4
_diffrn_measured_fraction_theta_full 0.999
_diffrn_measured_fraction_theta_max 0.999
_diffrn_measurement_device       'Bruker D8 Quest Apex3'
_diffrn_measurement_method       '\f and \w scans'
_diffrn_radiation_detector       Photon100
_diffrn_radiation_monochromator  graphite
_diffrn_radiation_type           MoK\a
_diffrn_radiation_wavelength     0.71073
_diffrn_reflns_av_R_equivalents  0.0235
_diffrn_reflns_av_unetI/netI     0.0128
_diffrn_reflns_Laue_measured_fraction_full 0.999
_diffrn_reflns_Laue_measured_fraction_max 0.999
_diffrn_reflns_limit_h_max       19
_diffrn_reflns_limit_h_min       -19
_diffrn_reflns_limit_k_max       5
_diffrn_reflns_limit_k_min       -5
_diffrn_reflns_limit_l_max       11
_diffrn_reflns_limit_l_min       -11
_diffrn_reflns_number            8448
_diffrn_reflns_point_group_measured_fraction_full 0.999
_diffrn_reflns_point_group_measured_fraction_max 0.999
_diffrn_reflns_theta_full        23.809
_diffrn_reflns_theta_max         23.809
_diffrn_reflns_theta_min         2.456
_diffrn_source                   'sealed tube'
_exptl_absorpt_coefficient_mu    0.346
_exptl_absorpt_correction_T_max  0.7450
_exptl_absorpt_correction_T_min  0.7191
_exptl_absorpt_correction_type   multi-scan
_exptl_absorpt_process_details   'SADABS 2014/5'
_exptl_crystal_colour            colourless
_exptl_crystal_density_diffrn    1.260
_exptl_crystal_description       plate
_exptl_crystal_F_000             320
_exptl_crystal_size_max          0.436
_exptl_crystal_size_mid          0.197
_exptl_crystal_size_min          0.070
_refine_diff_density_max         0.430
_refine_diff_density_min         -0.389
_refine_diff_density_rms         0.058
_refine_ls_extinction_method     none
_refine_ls_goodness_of_fit_ref   1.050
_refine_ls_hydrogen_treatment    mixed
_refine_ls_matrix_type           full
_refine_ls_number_parameters     105
_refine_ls_number_reflns         1205
_refine_ls_number_restraints     0
_refine_ls_restrained_S_all      1.050
_refine_ls_R_factor_all          0.0815
_refine_ls_R_factor_gt           0.0723
_refine_ls_shift/su_max          0.000
_refine_ls_shift/su_mean         0.000
_refine_ls_structure_factor_coef Fsqd
_refine_ls_weighting_details
'w=1/[\s^2^(Fo^2^)+(0.1599P)^2^+0.4149P] where P=(Fo^2^+2Fc^2^)/3'
_refine_ls_weighting_scheme      calc
_refine_ls_wR_factor_gt          0.2234
_refine_ls_wR_factor_ref         0.2377
_reflns_Friedel_coverage         0.000
_reflns_number_gt                1018
_reflns_number_total             1205
_reflns_threshold_expression     'I > 2\s(I)'
_cod_data_source_file            c6ce02079h2.cif
_cod_data_source_block           p1619e
_cod_depositor_comments
'Adding full bibliography for 7227123--7227124.cif.'
_cod_database_code               7227123
_shelx_shelxl_version_number     2016/6
_shelx_space_group_comment
;
The symmetry employed for this shelxl refinement is uniquely defined
by the following loop, which should always be used as a source of
symmetry information in preference to the above space-group names.
They are only intended as comments.
;
_shelx_estimated_absorpt_t_min   0.864
_shelx_estimated_absorpt_t_max   0.976
_shelx_res_file
;
TITL p1619e_a.res in P2(1)/c
    p1619e.res
    created by SHELXL-2016/6 at 17:07:43 on 10-Nov-2016
CELL  0.71073  16.9227  4.7963  9.8840   90.0000  101.4243   90.0000
ZERR    4.000   0.0026  0.0007  0.0015    0.0000    0.0053    0.0000
LATT  1
SYMM -X, 1/2+Y, 1/2-Z
SFAC C H N O S
UNIT 20 44 4 8 4
L.S. 50
BOND $H
CONF
ACTA
TEMP 147
SIZE  0.070        0.197        0.436
rem LIST 6
FMAP 2
PLAN 20

EADP C2 C2B
EADP S1 S1B

WGHT    0.159900    0.414900
FVAR       1.09081   0.79510
N1    3    0.592281    0.442652    0.144411    11.00000    0.06357    0.04542 =
         0.03436   -0.00663    0.01457   -0.00522
H1    2    0.609156    0.319314    0.090338    11.00000   -1.50000
H2    2    0.595147    0.609191    0.101800    11.00000   -1.50000
H3    2    0.541816    0.440857    0.148151    11.00000   -1.50000
O1    4    0.565524    0.814614    0.331662    11.00000    0.07122    0.04548 =
         0.05433   -0.00146    0.01771    0.01190
O2    4    0.623662    0.551173    0.508156    11.00000    0.11909    0.05386 =
         0.03362    0.00101    0.01844    0.00138
C1    1    0.606360    0.610948    0.382796    11.00000    0.05561    0.03202 =
         0.03488   -0.00255    0.01570   -0.00800
PART 1
C2    1    0.644322    0.420772    0.282112    21.00000    0.05426    0.03212 =
         0.02971   -0.00263    0.02107    0.01092
AFIX  13
H21   2    0.648617    0.226935    0.314085    21.00000   -1.20000
AFIX   0
C3    1    0.728505    0.546489    0.283214    21.00000    0.05442    0.06184 =
         0.07533   -0.00049    0.01395   -0.00229
AFIX  23
H31   2    0.721914    0.738615    0.252400    21.00000   -1.20000
H32   2    0.758794    0.547573    0.377432    21.00000   -1.20000
AFIX   0
C4    1    0.775738    0.397163    0.195934    21.00000    0.09425    0.13932 =
         0.15475   -0.04307    0.06406   -0.00532
AFIX  23
H41   2    0.743886    0.385593    0.103021    21.00000   -1.20000
H42   2    0.785126    0.208292    0.230469    21.00000   -1.20000
AFIX   0
S1    5    0.869519    0.550226    0.188059    21.00000    0.10224    0.23539 =
         0.22323   -0.01408    0.08075   -0.03605
C5    1    0.919691    0.461852    0.332616    21.00000    0.24527
AFIX  33
H51   2    0.973609    0.532756    0.343027    21.00000   -1.50000
H52   2    0.894912    0.536573    0.404148    21.00000   -1.50000
H53   2    0.921250    0.262150    0.339125    21.00000   -1.50000
AFIX   0
PART 2
C2B   1    0.631840    0.459793    0.304624   -21.00000    0.05426    0.03212 =
         0.02971   -0.00263    0.02107    0.01092
AFIX  13
H22B  2    0.613985    0.279966    0.334872   -21.00000   -1.20000
AFIX   0
C3B   1    0.722439    0.378593    0.293590   -21.00000    0.07208
AFIX  23
H33B  2    0.748489    0.276667    0.375044   -21.00000   -1.20000
H34B  2    0.722400    0.262978    0.213056   -21.00000   -1.20000
AFIX   0
C4B   1    0.767104    0.655522    0.281478   -21.00000    0.10668
AFIX  23
H43B  2    0.750229    0.790561    0.343098   -21.00000   -1.20000
H44B  2    0.750402    0.725408    0.188091   -21.00000   -1.20000
AFIX   0
S1B   5    0.881021    0.633649    0.322632   -21.00000    0.10224    0.23539 =
         0.22323   -0.01408    0.08075   -0.03605
C5B   1    0.895610    0.217440    0.424749   -21.00000    0.26083
AFIX  33
H54B  2    0.951943    0.175130    0.452478   -21.00000   -1.50000
H55B  2    0.871165    0.219990    0.504488   -21.00000   -1.50000
H56B  2    0.870006    0.077902    0.361272   -21.00000   -1.50000
part 0
AFIX   0
HKLF 4




REM  p1619e_a.res in P2(1)/c
REM R1 =  0.0723 for    1018 Fo > 4sig(Fo)  and  0.0815 for all    1205 data
REM    105 parameters refined using      0 restraints

END

WGHT      0.1586      0.4021

REM Highest difference peak  0.430,  deepest hole -0.389,  1-sigma level  0.058
Q1    1   0.7941  0.4513  0.3795  11.00000  0.05    0.43
Q2    1   0.8830  0.3403  0.2647  11.00000  0.05    0.21
Q3    1   0.9199  0.1210  0.6022  11.00000  0.05    0.21
Q4    1   0.8762  0.6075  0.4165  11.00000  0.05    0.16
Q5    1   0.9391  0.5956  0.3561  11.00000  0.05    0.15
Q6    1   0.7990  0.9092  0.3592  11.00000  0.05    0.11
Q7    1   0.9153  0.3346  0.3676  11.00000  0.05    0.11
Q8    1   0.5685  0.5305  0.4828  11.00000  0.05    0.11
Q9    1   0.6583  0.7314  0.5038  11.00000  0.05    0.11
Q10   1   0.5142  0.7672  0.0840  11.00000  0.05    0.11
Q11   1   0.5995  0.0025  0.2015  11.00000  0.05    0.10
Q12   1   0.6959  0.7181  0.4699  11.00000  0.05    0.10
Q13   1   0.7174  0.0505  0.2386  11.00000  0.05    0.10
Q14   1   0.8048  0.6136  0.1206  11.00000  0.05    0.10
Q15   1   0.7217  0.9557  0.3162  11.00000  0.05    0.10
Q16   1   0.8603  0.3225  0.5835  11.00000  0.05    0.09
Q17   1   0.5428  0.6995  0.3477  11.00000  0.05    0.09
Q18   1   0.9423  0.6523  0.2489  11.00000  0.05    0.09
Q19   1   0.6732  0.5049  0.5037  11.00000  0.05    0.09
Q20   1   0.5251  0.3889  0.3732  11.00000  0.05    0.09
;
_shelx_res_checksum              89092
_shelx_hkl_file
;
   0   0   2 6861.56  124.75
   0   0   2 6878.96  124.42
   0   0  -2 6966.82  124.80
   0   0  -2 6645.24  124.38
   0   0  -3    0.42    0.89
   0   0   3   -0.19    0.82
   0   0   3    0.33    0.48
   0   0  -3   -0.43    0.42
   0   0  -4   82.07    2.45
   0   0  -4   81.33    1.82
   0   0   4   79.41    2.36
   0   0   4   82.96    1.89
   0   0  -5   -1.43    0.55
   0   0   5   -2.05    0.66
   0   0   5    0.40    1.10
   0   0   5   -0.80    1.26
   0   0  -5   -0.33    1.18
   0   0   6 1046.32   19.66
   0   0   6 1049.57   19.34
   0   0  -6 1054.42   19.71
   0   0  -6 1037.03   19.26
   0   0  -7   -0.52    0.71
   0   0   7   -1.64    1.37
   0   0   7    2.58    1.90
   0   0   7    0.14    0.96
   0   0  -8   77.86    3.68
   0   0   8   86.36    3.39
   0   0  -8   85.23    2.27
   0   0   8   84.86    4.34
   0   0   8   81.31    2.59
   0   0  -9    0.30    0.93
   0   0   9    1.24    2.00
   0   0   9   -0.01    1.37
   0   0  -9    0.73    2.28
   0   0   9   -1.82    2.88
   0   0  10   14.54    2.57
   0   0  10   23.97    3.77
   0   0 -10   17.62    2.93
   0   0 -10   17.05    2.10
   0   0  10   17.83    2.06
   0   1   0    1.95    0.79
   0  -1   0    0.35    0.85
   0   1   1  449.66    8.44
   0   1  -1  441.38    8.26
   0   1  -1  432.31    8.14
   0  -1   1  428.28    8.14
   0  -1   1  469.74    8.38
   0  -1   1  427.91    8.22
   0   1  -2 1262.31   23.52
   0   1   2 1323.87   23.85
   0   1  -2 1297.03   23.68
   0  -1  -2 1295.70   23.83
   0  -1   2 1261.88   23.65
   0  -1   2 1296.91   23.53
   0   1   3 1477.44   27.37
   0   1   3 1551.00   27.89
   0   1   3 1495.80   27.51
   0   1  -3 1494.77   27.49
   0   1  -3 1531.53   27.71
   0  -1   3 1505.65   27.68
   0  -1  -3 1499.54   27.85
   0  -1   3 1492.63   27.50
   0   1   4  163.54    4.06
   0   1  -4  154.78    3.78
   0   1   4  159.59    3.13
   0   1   4  162.35    3.46
   0   1  -4  154.23    3.25
   0  -1  -4  164.74    3.44
   0  -1  -4  157.48    3.04
   0  -1   4  155.06    3.68
   0  -1   4  157.37    3.32
   0   1   5  192.04    3.87
   0   1  -5  196.38    4.63
   0   1   5  199.29    4.27
   0   1  -5  193.32    3.98
   0   1   5  203.90    4.94
   0  -1   5  192.96    4.06
   0  -1  -5  201.46    4.23
   0  -1   5  189.74    4.44
   0  -1  -5  191.24    3.76
   0   1  -6  106.10    2.54
   0   1   6  107.56    3.02
   0   1   6  111.71    3.86
   0   1   6  106.30    2.47
   0   1  -6   97.47    4.05
   0  -1  -6  104.62    3.01
   0  -1   6  104.58    2.69
   0  -1   6  107.63    3.24
   0  -1  -6  108.45    2.28
   0   1  -7   34.52    1.63
   0   1   7   29.42    1.63
   0   1  -7   26.55    2.16
   0   1   7   30.73    2.60
   0   1   7   29.67    2.34
   0  -1   7   30.91    1.86
   0  -1  -7   31.55    1.27
   0  -1   7   30.76    2.55
   0  -1  -7   30.48    2.47
   0   1   8   25.50    2.78
   0   1   8   26.82    2.01
   0   1  -8   28.70    1.75
   0   1   8   24.91    1.79
   0   1  -8   29.80    2.50
   0  -1   8   25.82    2.15
   0  -1  -8   30.32    1.39
   0  -1   8   31.56    2.96
   0  -1   8   31.05    2.60
   0  -1  -8   26.97    2.10
   0   1   9  281.83    6.52
   0   1   9  267.12    5.73
   0   1   9  261.67    7.67
   0   1  -9  258.75    7.10
   0   1  -9  275.05    5.66
   0  -1   9  250.25    5.95
   0  -1   9  266.45    7.30
   0  -1  -9  265.64    6.48
   0  -1  -9  268.59    5.34
   0  -1   9  279.85    6.68
   0   1 -10    2.84    1.28
   0   1  10    2.07    1.80
   0   1  10    2.92    2.15
   0   1 -10    4.57    3.29
   0  -1 -10    3.36    1.02
   0  -1  10   -1.31    3.53
   0  -1  10    2.84    2.55
   0  -1  10   -0.15    1.59
   0  -1 -10    3.33    2.44
   0   2   0 2042.93   37.70
   0   2   0 2135.09   38.04
   0   2   0 2042.07   37.61
   0  -2   0 2055.62   37.96
   0   2  -1  235.35    4.90
   0   2  -1  252.29    5.24
   0   2   1  255.72    5.33
   0   2  -1  235.71    4.68
   0  -2   1  243.73    5.11
   0  -2   1  232.26    4.71
   0  -2  -1  246.77    5.26
   0   2  -2    3.19    0.66
   0   2   2    2.48    1.42
   0   2  -2    2.95    1.04
   0  -2   2    4.53    0.70
   0  -2   2    4.18    1.32
   0  -2   2    3.35    0.88
   0  -2  -2    3.56    1.39
   0   2  -3   55.68    1.67
   0   2  -3   55.09    2.32
   0   2   3   59.42    2.76
   0  -2   3   55.25    2.07
   0  -2   3   55.80    2.71
   0  -2   3   55.53    1.70
   0  -2  -3   58.99    2.68
   0   2  -4   84.05    2.92
   0   2  -4   85.88    2.18
   0   2   4   87.93    3.89
   0   2   4   85.36    1.81
   0   2   4   85.67    2.17
   0  -2   4   85.26    2.67
   0  -2   4   83.97    2.23
   0   2   5   14.10    0.91
   0   2  -5   14.68    1.75
   0   2  -5   12.31    0.96
   0   2   5   13.67    1.12
   0   2   5   14.84    2.04
   0  -2   5   13.61    1.50
   0  -2   5   15.28    1.52
   0   2  -6   38.06    1.68
   0   2   6   41.23    3.52
   0   2   6   35.50    1.41
   0   2   6   39.92    2.06
   0   2  -6   37.00    3.03
   0  -2   6   35.28    2.58
   0  -2   6   36.39    1.96
   0   2   7  111.23    2.97
   0   2   7  115.61    3.45
   0   2  -7  119.65    3.03
   0   2  -7  122.55    4.47
   0   2   7  130.40    5.01
   0  -2   7  119.51    3.32
   0  -2   7  118.96    3.96
   0   2  -8   61.35    4.29
   0   2  -8   61.02    2.35
   0   2   8   57.37    2.09
   0   2   8   55.65    5.09
   0   2   8   60.69    3.03
   0  -2   8   64.41    3.56
   0  -2   8   54.64    2.83
   0   2  -9    1.87    3.33
   0   2   9    0.96    1.37
   0   2  -9    1.11    1.36
   0   2   9    0.46    1.85
   0  -2   9    1.85    1.90
   0  -2   9   -0.02    2.28
   0   2 -10    7.19    1.61
   0   2  10    6.81    1.72
   0   2  10    6.75    2.23
   0  -2  10    7.49    3.58
   0  -2  10    6.29    2.88
   0   3   0    0.38    0.95
   0   3   0   -0.85    0.65
   0   3   0    2.76    1.49
   0  -3   0    0.43    1.39
   0   3  -1   43.79    1.55
   0   3   1   50.16    2.73
   0   3  -1   44.76    2.04
   0   3  -1   53.53    2.76
   0  -3   1   44.68    2.54
   0  -3  -1   47.03    2.65
   0   3   2   59.20    3.14
   0   3  -2   57.03    1.79
   0   3  -2   54.86    2.41
   0  -3  -2   55.52    2.97
   0  -3   2   58.64    2.68
   0  -3   2   55.85    1.69
   0   3   3    1.02    1.74
   0   3  -3    1.92    1.39
   0   3  -3    1.16    0.81
   0  -3   3    1.01    1.63
   0  -3   3    0.21    1.08
   0  -3  -3    2.49    1.60
   0  -3   3    0.98    0.84
   0   3  -4    3.60    1.57
   0   3  -4    2.57    0.96
   0   3   4    2.47    2.08
   0  -3  -4    4.78    1.96
   0  -3   4    2.78    1.33
   0  -3   4    3.65    1.93
   0  -3   4    4.06    1.01
   0   3   5  140.90    3.28
   0   3   5  136.54    5.18
   0   3  -5  138.05    4.35
   0   3  -5  143.84    3.35
   0  -3   5  140.78    3.45
   0  -3  -5  135.62    4.81
   0  -3   5  138.02    3.92
   0  -3   5  135.85    4.65
   0   3  -6  115.46    4.44
   0   3   6  114.45    2.60
   0   3  -6  118.09    3.11
   0   3   6  108.66    5.36
   0   3   6  120.16    3.19
   0  -3   6  120.33    3.27
   0  -3   6  117.93    3.87
   0  -3   6  119.17    4.89
   0   3   7    0.38    1.39
   0   3  -7    0.48    2.54
   0   3  -7    0.55    1.26
   0   3   7   -0.63    1.42
   0   3   7    3.75    3.13
   0  -3   7    0.80    1.43
   0  -3   7   -1.41    1.85
   0  -3   7    2.86    2.87
   0   3  -8    1.76    2.84
   0   3  -8    2.70    1.41
   0   3   8    4.60    1.71
   0   3   8   -0.04    1.15
   0  -3   8    0.97    1.75
   0  -3   8   -0.99    2.15
   0  -3   8    6.06    3.20
   0   3   9   -0.22    1.38
   0   3  -9    0.88    1.61
   0   3   9   -0.64    2.07
   0  -3   9    1.41    2.57
   0   4   0   23.33    1.53
   0   4   0   22.48    2.28
   0  -4   0   27.61    2.23
   0   4   1    0.15    1.36
   0   4  -1    3.93    1.53
   0   4  -1    0.33    0.91
   0   4  -1    0.86    2.07
   0   4   1    0.53    2.04
   0  -4  -1   -0.90    1.90
   0  -4   1    0.98    1.79
   0   4  -2    7.15    1.76
   0   4  -2    9.04    1.10
   0   4   2   10.99    2.38
   0  -4  -2    9.69    2.15
   0  -4   2    6.69    1.97
   0   4  -3   -0.71    1.03
   0   4  -3    1.30    1.66
   0   4   3    1.03    2.30
   0  -4   3   -0.24    1.87
   0  -4  -3   -1.68    2.05
   0   4  -4   16.44    1.39
   0   4   4   17.31    3.12
   0   4  -4   19.65    2.22
   0  -4   4   19.46    2.30
   0  -4   4   18.04    1.41
   0  -4   4   20.01    1.69
   0  -4  -4   17.44    2.75
   0   4   5    3.37    3.16
   0   4  -5    4.33    2.39
   0   4  -5    1.60    1.30
   0  -4   5    3.97    1.76
   0  -4   5    5.24    1.40
   0  -4   5    4.08    2.34
   0  -4  -5    4.09    2.66
   0   4   6    1.24    1.43
   0   4  -6    3.71    1.39
   0   4   6    7.89    3.54
   0   4  -6    9.46    3.07
   0  -4   6    6.59    2.07
   0  -4   6    4.85    1.57
   0  -4   6    1.63    2.59
   0   4   7    0.37    1.03
   0   4  -7    1.97    1.56
   0   4   7    1.88    1.69
   0  -4   7    1.34    1.72
   0  -4   7    2.70    3.04
   0  -4   7    0.74    2.31
   0   5   0   -1.15    1.12
   0   5   0    1.31    2.88
   0   5   0   -0.34    1.98
   0  -5   0    2.39    2.33
   0   5  -1   14.67    2.25
   0   5  -1   16.50    3.32
   0   5   1   16.21    2.21
   0   5   1   14.42    1.30
   0   5  -1   15.62    1.37
   0   5   1   15.17    3.17
   0  -5   1   14.21    2.54
   0  -5  -1   15.80    2.61
   0   5   2    1.31    3.01
   0   5  -2    1.24    1.31
   0   5  -2    0.76    2.27
   0  -5   2   -0.34    2.31
   0  -5  -2   -0.39    2.62
   0   5  -3   19.00    2.76
   0   5  -3   17.48    2.11
   0   5   3   20.87    3.63
   0  -5   3   19.21    2.57
   0  -5  -3   19.33    3.14
   0   5  -4    0.07    1.43
   0   5   4   -2.34    3.24
   0   5  -4   -0.48    2.85
   0  -5   4   -2.97    2.50
   0  -5  -4    6.07    3.08
   1   0 -11   -3.12    3.28
   1   0 -11   -0.70    1.24
  -1   0  11   -7.20    2.66
   1   0 -10    2.98    2.82
  -1   0  10    3.05    2.27
   1   0 -10    0.10    1.06
  -1   0  10    2.51    1.86
  -1   0  10    0.69    3.34
  -1   0   9   -0.26    1.35
  -1   0   9    0.02    2.76
   1   0  -9   -0.37    0.89
   1   0  -9    3.06    2.20
   1   0  -8  458.86    9.62
  -1   0   8  460.64    8.98
  -1   0   8  461.77    9.48
   1   0  -8  461.88    8.78
  -1   0   8  455.23   10.09
  -1   0   7    1.12    0.92
   1   0  -7    1.04    1.56
  -1   0   7    3.03    1.85
   1   0  -7    0.03    0.69
  -1   0   7    1.16    1.35
   1   0  -6  201.02    4.05
  -1   0   6  201.62    4.67
  -1   0   6  200.36    4.18
   1   0  -6  204.66    4.76
  -1   0   5    0.19    1.15
  -1   0   5   -0.88    0.67
   1   0  -5    0.69    1.13
   1   0  -5   -0.78    0.55
  -1   0   4   -0.29    0.98
   1   0  -4    0.18    0.51
   1   0  -4   -1.37    0.96
  -1   0   4   -0.23    0.58
  -1   0   3   -1.00    0.84
   1   0  -3   -0.01    0.46
   1   0  -3   -0.34    0.85
  -1   0   3   -0.86    0.48
  -1   0   2  109.79    2.43
   1   0  -2  108.39    2.45
   1   0  -2  109.18    2.14
  -1   0   1   -0.20    0.57
  -1   0  -1    1.17    0.43
   1   0   1    1.04    0.55
  -1   0  -1    0.38    0.52
   1   0   1    0.87    0.23
   1   0   2  812.20   15.04
   1   0   2  793.56   14.92
   1   0   2  839.09   15.14
  -1   0  -2  825.05   15.05
  -1   0  -3   -0.59    0.43
   1   0   3   -1.03    0.83
   1   0   3    0.52    0.52
  -1   0  -3   -0.43    0.92
   1   0   3    0.95    0.99
  -1   0  -4  357.05    6.98
   1   0   4  368.94    7.02
   1   0   4  385.15    7.53
  -1   0  -4  379.69    7.36
   1   0   4  372.32    7.31
   1   0   5   -0.38    0.68
  -1   0  -5   -0.50    0.57
   1   0   5    0.87    1.10
   1   0   5    0.24    1.39
  -1   0  -5    0.32    1.17
   1   0   6  510.03   10.05
  -1   0  -6  519.96   10.15
  -1   0  -6  511.06    9.60
   1   0   6  503.59    9.68
   1   0   7   -1.38    1.92
  -1   0  -7   -0.76    1.61
   1   0   7    0.56    0.95
  -1   0  -7    0.16    0.73
   1   0   7   -0.40    1.41
   1   0   8    4.74    2.46
  -1   0  -8    4.70    1.98
  -1   0  -8    1.98    0.88
   1   0   8   -0.43    1.20
   1   0   8    3.05    1.60
  -1   0  -9   -0.83    2.33
   1   0   9   -0.97    2.98
  -1   0  -9    0.87    0.98
   1   0   9    0.08    1.90
   1   0   9    0.17    1.36
  -1   0 -10   12.10    1.25
   1   0  10   11.04    2.54
  -1   0 -10   11.36    2.94
   1   0  10   10.80    1.85
   1   0  10   10.58    3.65
   1   1 -10    3.18    3.01
   1   1 -10   -0.65    1.24
  -1   1  10    3.55    2.07
  -1   1  10    3.51    1.71
   1  -1 -10   -1.92    2.31
  -1  -1  10    2.88    2.38
   1  -1 -10    2.29    1.00
  -1  -1  10    5.36    1.65
  -1  -1  10    3.58    3.37
   1   1  -9  140.70    5.43
  -1   1   9  136.49    3.52
   1   1  -9  110.27    4.53
  -1   1   9  135.84    4.32
  -1   1   9  135.33    5.99
  -1  -1   9  137.96    3.91
  -1  -1   9  144.18    4.73
   1  -1  -9  140.50    3.09
  -1  -1   9  147.48    5.50
   1   1  -8   78.75    2.35
   1   1  -8   79.85    4.00
  -1   1   8   78.77    4.71
  -1   1   8   73.89    2.38
  -1   1   8   78.53    3.19
   1  -1  -8   75.81    1.97
  -1  -1   8   73.55    3.41
   1  -1  -8   77.21    3.36
  -1  -1   8   77.49    2.69
   1   1  -7    0.90    1.78
  -1   1   7    2.49    2.19
  -1   1   7    0.74    1.02
  -1   1   7    1.54    1.32
   1   1  -7    2.13    0.88
  -1  -1   7    0.85    1.42
  -1  -1   7    0.58    1.06
   1  -1  -7    1.04    1.40
   1  -1  -7    1.97    0.61
  -1   1   6   16.13    1.97
  -1   1   6   13.45    1.32
   1   1  -6   15.27    1.26
  -1   1   6   15.24    1.22
   1  -1  -6   15.30    0.88
  -1  -1   6   14.41    1.49
   1  -1  -6   16.83    1.36
  -1  -1   6   16.29    1.38
  -1   1   5  616.56   11.61
   1   1  -5  618.30   11.44
  -1   1   5  622.23   12.10
   1   1  -5  621.99   11.92
  -1   1   5  602.74   11.33
  -1  -1   5  615.42   11.50
   1  -1  -5  615.31   11.53
  -1  -1   5  600.71   11.79
   1  -1  -5  596.91   11.24
  -1   1   4  273.20    5.37
   1   1  -4  267.57    5.68
   1   1  -4  265.14    5.23
  -1   1   4  271.89    5.85
  -1   1   4  272.31    5.09
  -1  -1   4  270.86    5.62
  -1   1   3 1446.20   25.83
  -1   1   3 1433.85   26.19
   1   1  -3 1394.54   25.83
   1   1  -3 1417.94   26.07
  -1   1   3 1360.60   25.69
  -1  -1   3 1411.19   26.03
  -1  -1   3 1434.49   25.86
  -1   1   2 1611.20   28.73
   1   1  -2 1560.52   28.47
   1   1  -2 1537.23   28.63
   1  -1  -2 1566.15   28.70
  -1  -1   2 1562.96   28.61
  -1  -1   2 1536.49   28.47
   1   1  -1 6201.69  114.02
  -1   1   1 6256.33  114.49
   1   1  -1 6454.33  114.79
   1   1  -1 6132.96  114.34
  -1  -1   1 6202.65  114.27
   1  -1  -1 6216.64  114.64
  -1  -1   1 6391.28  114.74
  -1  -1   1 6201.63  113.98
   1   1   0  239.22    4.44
  -1   1   0  234.66    4.54
   1   1   0  239.87    4.54
   1   1   0  240.72    4.85
  -1  -1   0  229.38    4.81
  -1  -1   0  222.94    4.64
   1  -1   0  237.10    4.53
  -1  -1   0  236.91    4.40
   1   1   1 9640.22  171.62
   1   1   1 9019.07  170.68
  -1   1  -1 9397.18  170.35
  -1   1  -1 9198.30  170.63
  -1  -1  -1 9446.93  171.57
   1  -1   1 9460.84  170.36
   1  -1   1 9496.82  170.57
   1  -1   1 9304.86  170.50
   1   1   2  737.75   13.74
  -1   1  -2  770.52   14.01
  -1   1  -2  752.39   13.83
   1   1   2  783.68   14.27
   1   1   2  765.98   13.87
   1  -1   2  744.68   13.84
   1  -1   2  748.52   13.96
  -1  -1  -2  753.89   14.23
  -1  -1  -2  730.73   13.72
   1   1   3   75.61    2.65
   1   1   3   77.85    1.98
  -1   1  -3   74.46    2.34
   1   1   3   76.80    1.64
  -1   1  -3   73.50    1.79
  -1  -1  -3   79.39    2.01
  -1  -1  -3   77.50    1.57
  -1  -1  -3   74.64    2.60
   1  -1   3   77.16    2.24
   1  -1   3   78.23    1.86
  -1   1  -4  109.90    2.42
   1   1   4  108.46    2.68
   1   1   4  110.74    3.33
  -1   1  -4  106.39    3.00
   1  -1   4  107.25    2.90
  -1  -1  -4  109.20    2.21
   1  -1   4  111.35    2.48
  -1  -1  -4  109.50    2.70
   1   1   5   51.38    2.07
   1   1   5   54.07    2.93
   1   1   5   54.15    1.53
  -1   1  -5   53.65    2.51
  -1   1  -5   52.36    1.64
   1  -1   5   51.02    2.31
  -1  -1  -5   57.12    2.19
   1  -1   5   52.39    1.77
  -1  -1  -5   53.67    1.37
  -1   1  -6  157.27    3.42
   1   1   6  157.88    3.85
   1   1   6  155.19    3.36
   1   1   6  158.13    4.66
  -1   1  -6  158.50    4.29
   1  -1   6  158.55    3.53
  -1  -1  -6  155.82    3.19
  -1  -1  -6  157.30    3.89
   1  -1   6  160.70    4.05
   1   1   7   64.85    3.92
   1   1   7   62.56    2.71
  -1   1  -7   58.18    3.39
  -1   1  -7   64.46    2.01
   1   1   7   61.42    2.01
   1  -1   7   62.66    3.26
  -1  -1  -7   62.30    1.71
  -1  -1  -7   61.07    2.90
   1  -1   7   55.01    2.25
   1  -1   7   66.00    2.94
   1   1   8    6.72    1.73
  -1   1  -8    7.13    2.25
   1   1   8    6.39    2.69
   1   1   8    7.68    1.24
  -1   1  -8    6.73    1.07
   1  -1   8    8.28    1.35
   1  -1   8    6.15    2.35
   1  -1   8    6.09    1.83
  -1  -1  -8    9.18    0.91
   1   1   9   62.57    5.57
   1   1   9   75.84    5.33
   1   1   9   65.59    2.65
  -1   1  -9   65.78    4.59
  -1   1  -9   76.67    2.52
   1  -1   9   79.61    4.92
   1  -1   9   75.70    3.94
   1  -1   9   69.72    3.06
  -1  -1  -9   72.50    2.16
  -1  -1  -9   73.99    4.00
   1   1  10    1.33    2.17
  -1   1 -10    0.35    3.22
   1   1  10    6.74    2.02
  -1   1 -10    6.64    1.38
  -1  -1 -10    5.45    2.60
   1  -1  10    8.11    3.65
   1  -1  10    5.97    2.56
  -1  -1 -10    3.88    1.12
  -1   2  10   -0.76    2.06
  -1   2  10    2.56    1.56
   1   2 -10   -1.41    1.49
  -1  -2  10    3.03    2.67
  -1   2   9    5.31    1.29
   1   2  -9    5.98    1.42
  -1   2   9    8.37    3.26
  -1   2   9    3.33    1.82
   1   2  -9    6.36    3.50
  -1  -2   9    9.69    2.04
  -1  -2   9    0.93    2.29
   1   2  -8  262.12    5.47
  -1   2   8  254.95    5.84
  -1   2   8  253.31    5.21
  -1   2   8  244.35    7.38
   1   2  -8  257.52    6.95
  -1  -2   8  245.58    6.57
  -1  -2   8  257.83    5.75
   1   2  -7   12.16    2.22
  -1   2   7    9.77    2.41
  -1   2   7   10.43    1.44
  -1   2   7    9.09    0.96
   1   2  -7    9.04    1.14
  -1  -2   7    8.86    1.37
  -1  -2   7   12.56    1.91
   1   2  -6   14.46    2.02
   1   2  -6   11.96    1.08
  -1   2   6   13.85    2.36
  -1   2   6   13.67    1.12
  -1   2   6   14.99    1.30
  -1  -2   6   12.80    1.27
  -1  -2   6   10.40    1.58
   1   2  -5   12.53    1.77
  -1   2   5   10.89    0.85
   1   2  -5   11.46    0.96
  -1   2   5    9.81    1.87
  -1   2   5   12.03    1.04
  -1  -2   5   13.21    1.12
  -1  -2   5    8.78    1.43
  -1   2   4   26.83    2.48
   1   2  -4   24.12    1.38
   1   2  -4   20.86    2.17
  -1  -2   4   23.35    1.45
  -1  -2   4   29.63    2.24
  -1  -2   4   23.77    1.99
   1   2  -3  188.04    3.81
  -1   2   3  194.76    4.58
   1   2  -3  183.02    4.29
  -1  -2   3  183.11    4.12
   1  -2  -3  182.60    4.47
  -1  -2   3  187.42    4.71
  -1  -2   3  186.98    3.84
   1   2  -2  694.78   12.80
  -1   2   2  692.94   13.23
   1   2  -2  675.24   13.03
  -1  -2   2  692.19   12.93
  -1  -2   2  696.05   13.29
   1  -2  -2  685.10   13.19
  -1  -2   2  694.46   12.78
  -1   2   1  115.02    2.97
   1   2  -1  109.27    2.72
   1   2  -1  109.91    3.25
   1   2  -1  107.36    2.36
  -1  -2   1  107.98    2.33
  -1  -2   1  107.33    2.54
  -1  -2   1  106.74    3.10
   1  -2  -1  107.92    2.95
  -1   2   0   16.37    1.64
   1   2   0   14.98    1.05
   1   2   0   17.20    1.54
  -1  -2   0   16.42    1.55
   1  -2   0   17.42    1.60
   1   2   1 1454.80   25.97
  -1   2  -1 1425.52   25.67
  -1   2  -1 1374.90   25.53
   1   2   1 1397.37   25.40
  -1   2  -1 1413.37   25.41
   1   2   1 1394.03   25.52
  -1  -2  -1 1414.84   25.90
   1  -2   1 1265.17   25.80
   1   2   2   26.64    1.16
  -1   2  -2   27.46    1.10
  -1   2  -2   29.45    1.72
   1   2   2   28.40    2.41
   1  -2   2   27.96    1.47
   1  -2   2   24.83    1.97
  -1  -2  -2   28.25    2.27
   1  -2   2   28.62    1.18
   1   2   3    6.46    0.46
  -1   2  -3    4.90    1.26
   1   2   3    4.55    1.53
   1   2   3    5.90    0.74
  -1   2  -3    5.83    0.76
   1  -2   3    7.47    0.77
   1  -2   3    7.52    1.40
   1  -2   3    5.97    1.06
  -1  -2  -3    4.28    1.51
  -1   2  -4   88.02    2.21
   1   2   4   83.80    3.69
   1   2   4   90.03    2.33
  -1   2  -4   87.61    2.94
   1   2   4   89.66    1.92
  -1  -2  -4   88.07    3.34
   1  -2   4   89.45    2.72
   1  -2   4   93.56    2.31
   1   2   5   92.42    2.57
   1   2   5   94.64    3.91
  -1   2  -5   91.86    2.35
  -1   2  -5   90.23    3.26
   1   2   5   90.27    2.06
   1  -2   5   92.01    2.77
   1  -2   5   89.81    3.00
   1   2   6   22.51    2.45
  -1   2  -6   21.26    1.54
  -1   2  -6   21.52    2.06
   1   2   6   23.63    2.00
   1   2   6   20.20    1.24
   1  -2   6   23.62    1.86
   1  -2   6   22.68    1.83
   1   2   7  251.96    5.71
  -1   2  -7  254.11    6.50
   1   2   7  253.73    5.19
  -1   2  -7  258.49    5.38
   1   2   7  254.26    7.17
   1  -2   7  260.11    5.58
   1  -2   7  268.88    6.12
   1   2   8   -0.19    1.62
   1   2   8    1.09    1.07
  -1   2  -8    2.25    2.36
  -1   2  -8    0.03    1.13
   1   2   8   -0.66    3.12
   1  -2   8    2.49    1.59
   1  -2   8   -1.38    1.97
  -1   2  -9   14.86    3.24
  -1   2  -9   15.44    1.56
   1   2   9   12.99    1.48
   1  -2   9   10.45    3.03
   1  -2   9   15.08    2.42
   1  -2   9   12.48    2.07
  -1   2 -10    5.55    1.59
   1   2  10    8.52    1.94
   1   2  10    6.17    2.17
   1  -2  10    9.83    2.88
   1  -2  10    0.39    3.76
  -1   3   9    2.40    1.37
  -1   3   9    0.79    1.93
   1   3  -9    1.89    1.59
  -1  -3   9    3.43    2.52
  -1   3   8   31.86    2.77
  -1   3   8   50.35    5.76
   1   3  -8   33.88    2.39
  -1   3   8   33.85    1.92
   1   3  -8   34.41    3.65
  -1  -3   8   29.86    3.90
  -1  -3   8   35.10    2.88
  -1  -3   8   36.87    3.69
   1   3  -7    1.26    2.50
  -1   3   7    6.51    0.95
   1   3  -7    2.79    1.28
  -1   3   7    2.78    3.11
  -1   3   7    4.96    1.40
  -1  -3   7    5.13    1.50
  -1  -3   7    2.58    1.92
  -1  -3   7    8.23    3.13
   1   3  -6   75.29    2.52
   1   3  -6   75.43    4.02
  -1   3   6   75.60    2.50
  -1   3   6   72.62    4.81
  -1  -3   6   80.23    3.39
  -1  -3   6   72.17    4.64
  -1  -3   6   74.91    2.74
   1   3  -5  186.54    4.13
   1   3  -5  181.24    5.07
  -1   3   5  189.07    5.69
  -1  -3   5  184.34    4.18
  -1  -3   5  184.45    5.43
  -1  -3   5  184.49    4.66
   1   3  -4    5.33    1.62
   1   3  -4    4.47    0.93
  -1   3   4    6.82    1.99
  -1  -3   4    5.44    1.03
   1  -3  -4    9.12    2.03
  -1  -3   4    8.92    2.09
  -1  -3   4    8.98    1.41
   1   3  -3    0.83    0.86
  -1   3   3    0.56    1.82
   1   3  -3    2.16    1.38
  -1  -3   3    1.45    0.87
  -1  -3   3    0.32    1.73
  -1  -3   3    0.13    1.14
   1  -3  -3    0.42    1.64
   1   3  -2  330.48    6.43
  -1   3   2  336.29    7.24
   1   3  -2  334.80    7.41
   1   3  -2  332.59    6.85
   1  -3  -2  325.94    7.10
  -1  -3   2  321.72    6.49
  -1  -3   2  330.09    6.35
  -1  -3   2  324.03    7.10
   1   3  -1   -0.64    0.73
   1   3  -1   -0.73    1.60
  -1   3   1    1.76    1.37
   1   3  -1   -0.25    1.14
  -1  -3   1    0.04    1.53
   1  -3  -1   -0.32    1.37
  -1   3   0   14.99    1.02
  -1   3   0   16.18    1.48
   1   3   0   15.61    1.26
   1   3   0   19.07    1.88
  -1   3   0   18.74    1.65
   1   3   0   13.59    1.18
  -1  -3   0   17.75    1.81
   1  -3   0   17.06    1.51
  -1   3  -1  173.25    4.24
   1   3   1  167.59    3.80
   1   3   1  166.58    4.60
  -1   3  -1  168.29    3.43
   1   3   1  164.92    3.42
  -1   3  -1  161.60    3.78
  -1  -3  -1  163.64    4.51
   1  -3   1  165.74    4.03
  -1   3  -2    8.78    1.33
  -1   3  -2    7.41    0.85
   1  -3   2    8.38    1.47
  -1  -3  -2    8.91    1.78
   1   3   3   20.57    2.26
  -1   3  -3   22.29    1.44
  -1   3  -3   23.34    1.69
   1  -3   3   21.76    1.44
  -1  -3  -3   22.61    2.12
   1  -3   3   22.46    1.82
   1  -3   3   24.71    1.74
   1   3   4    2.10    2.20
  -1   3  -4    3.10    1.62
   1   3   4    4.41    0.98
  -1   3  -4    3.84    0.95
   1  -3   4    5.29    1.32
  -1  -3  -4    3.51    1.99
   1  -3   4    5.23    1.72
   1  -3   4    3.35    1.02
   1   3   5   33.07    3.02
  -1   3  -5   32.62    3.04
   1   3   5   34.43    1.25
  -1   3  -5   35.06    1.83
   1   3   5   35.81    1.97
  -1  -3  -5   33.51    2.61
   1  -3   5   37.80    2.62
   1  -3   5   34.99    1.98
   1  -3   5   32.41    3.23
  -1   3  -6   80.88    4.04
   1   3   6   81.53    2.79
  -1   3  -6   84.40    2.57
   1   3   6   78.86    2.09
   1   3   6   82.24    5.08
   1  -3   6   79.10    2.73
   1  -3   6   85.44    3.43
  -1  -3  -6   76.21    4.80
   1  -3   6   81.55    4.25
  -1   3  -7    6.68    1.31
   1   3   7    5.89    0.97
   1   3   7    2.05    3.17
   1   3   7    6.12    1.54
  -1   3  -7    6.28    2.58
   1  -3   7    5.02    2.00
   1  -3   7    8.66    2.81
   1  -3   7    6.80    1.57
   1   3   8    3.74    1.25
  -1   3  -8    3.77    1.43
  -1   3  -8    3.06    2.43
   1   3   8    6.31    1.80
   1  -3   8    5.80    1.76
   1  -3   8    6.87    2.32
   1   3   9    5.56    2.15
  -1   3  -9    5.02    1.69
   1   3   9    3.30    1.56
   1  -3   9    7.17    3.35
   1  -3   9    8.78    2.70
   1   4  -7   40.76    2.72
  -1  -4   7   39.60    3.87
  -1  -4   7   38.65    3.82
  -1  -4   7   34.72    3.00
   1   4  -6   -0.64    3.06
   1   4  -6    0.38    1.37
  -1   4   6   -3.98    3.30
  -1  -4   6    0.43    2.69
  -1  -4   6    1.85    1.53
  -1  -4   6   -0.97    1.99
  -1   4   5   -2.17    2.82
   1   4  -5    0.44    1.33
   1   4  -5    1.71    2.36
  -1  -4   5    2.31    1.40
  -1  -4   5   -0.90    2.46
  -1  -4   5    0.14    1.77
   1   4  -4   16.69    2.22
  -1   4   4   15.16    2.77
   1   4  -4   17.03    1.38
  -1  -4   4   18.53    1.73
   1  -4  -4   17.87    2.51
  -1  -4   4   18.18    1.42
  -1  -4   4   16.20    2.46
   1   4  -3    0.50    1.08
  -1   4   3   -0.93    2.12
   1   4  -3   -0.24    1.71
   1  -4  -3   -1.00    2.02
  -1  -4   3    1.07    2.09
   1   4  -2   15.13    2.59
  -1   4   2   18.45    2.33
   1   4  -2   17.27    1.80
   1   4  -2   20.27    1.69
  -1  -4   2   15.11    2.27
   1  -4  -2   17.90    2.27
   1   4  -1   44.06    2.71
   1   4  -1   44.47    1.92
   1   4  -1   44.65    3.77
  -1   4   1   44.14    3.40
  -1  -4   1   44.66    3.43
   1  -4  -1   44.86    3.11
  -1   4   0    9.81    2.10
  -1   4   0    6.74    0.93
   1   4   0    8.30    2.29
  -1   4   0    6.73    1.36
   1   4   0    7.11    1.55
   1  -4   0    6.14    1.77
  -1  -4   0    3.72    2.10
  -1   4  -1   64.27    3.71
   1   4   1   63.67    2.03
   1   4   1   59.91    2.80
  -1   4  -1   58.88    2.72
  -1   4  -1   62.15    2.04
   1   4   1   53.69    3.97
  -1  -4  -1   62.28    3.76
   1  -4   1   61.91    3.16
   1   4   2    3.45    0.99
  -1   4  -2    5.61    1.03
   1   4   2    4.21    2.31
   1  -4   2    4.56    1.70
  -1  -4  -2    0.37    2.01
   1   4   3    1.87    2.49
  -1   4  -3    3.68    1.08
  -1   4  -3   -0.09    1.60
   1  -4   3    3.54    1.77
  -1  -4  -3   -1.32    2.25
   1   4   4    7.65    1.19
  -1   4  -4    5.33    1.18
  -1   4  -4    5.62    1.98
   1   4   4    6.46    3.00
   1  -4   4    8.25    1.26
   1  -4   4    6.81    1.93
   1  -4   4    4.85    1.49
  -1  -4  -4    8.51    2.65
   1   4   5    9.47    0.83
   1   4   5   11.49    1.38
  -1   4  -5    7.63    1.36
   1   4   5   11.21    3.47
  -1   4  -5    6.33    2.35
   1  -4   5    9.95    1.35
  -1  -4  -5    6.76    2.87
   1  -4   5   11.28    1.81
   1  -4   5    7.77    2.19
   1   4   6   10.66    1.49
   1   4   6   10.33    3.51
  -1   4  -6    8.20    3.16
   1   4   6    9.68    1.55
  -1   4  -6    9.03    1.51
   1  -4   6   12.31    2.10
  -1  -4  -6    8.23    3.26
   1  -4   6   12.52    2.59
   1  -4   6   11.40    1.63
  -1   4  -7   23.99    1.87
   1   4   7   23.42    1.83
   1   4   7   21.18    1.95
   1  -4   7   24.03    2.67
   1  -4   7   25.12    3.14
   1  -4   7   21.07    1.99
   1   5  -4   16.01    3.27
   1   5  -4   20.47    1.74
  -1   5   4   13.62    3.35
   1  -5  -4   11.87    5.51
  -1  -5   4   13.81    2.74
   1   5  -3   19.62    2.91
  -1   5   3   18.61    3.45
   1   5  -3   23.87    1.74
  -1  -5   3   19.03    2.77
   1  -5  -3   24.24    3.04
   1   5  -2    8.98    2.45
  -1   5   2   10.78    3.00
   1   5  -2    7.31    1.34
  -1  -5   2    8.15    2.57
   1  -5  -2    3.55    2.54
   1   5  -1    2.08    1.21
   1   5  -1   -2.28    3.00
   1   5  -1    2.39    2.20
  -1   5   1   -0.43    2.77
  -1  -5   1    1.63    2.50
   1  -5  -1    3.09    2.35
  -1   5   0    1.53    2.29
   1   5   0   -2.15    2.98
  -1   5   0    4.95    2.96
   1   5   0    0.90    1.24
   1   5   0    1.51    2.13
  -1   5   0    1.33    1.10
  -1  -5   0    2.20    2.58
   1  -5   0   -2.35    2.09
   1   5   1   67.62    3.92
  -1   5  -1   67.27    2.49
   1   5   1   68.40    5.26
  -1   5  -1   65.01    5.28
  -1   5  -1   61.94    3.63
   1   5   1   64.50    2.47
  -1  -5  -1   68.08    4.79
   1  -5   1   68.96    3.92
  -1   5  -2   14.48    1.64
   1   5   2   10.98    1.37
   1   5   2   10.27    3.34
  -1   5  -2   11.25    2.29
   1   5   2   13.11    1.36
   1  -5   2   11.84    2.35
  -1  -5  -2   13.21    2.81
  -1   5  -3   14.95    2.64
   1   5   3   18.98    3.65
  -1  -5  -3   18.98    4.08
   1  -5   3   13.34    2.33
   1   5   4    9.77    3.20
  -1   5  -4   10.59    3.01
  -1   5  -4   11.20    1.55
  -1  -5  -4    9.81    3.43
   1  -5   4    9.12    2.34
   2   0 -11    2.15    3.09
  -2   0  11    2.06    2.63
   2   0 -11   -0.57    1.23
  -2   0  10    8.85    1.89
   2   0 -10    9.39    2.73
  -2   0  10    7.53    2.38
  -2   0  10    4.98    3.36
   2   0 -10    8.85    1.15
   2   0  -9    0.91    2.18
  -2   0   9   -0.01    2.70
  -2   0   9   -1.00    2.01
  -2   0   9    0.13    1.35
   2   0  -9   -0.45    0.91
   2   0  -8  182.80    3.88
  -2   0   8  181.06    5.50
  -2   0   8  182.29    4.84
   2   0  -8  181.21    5.01
  -2   0   8  183.48    4.18
  -2   0   7   -0.04    0.93
   2   0  -7   -0.78    1.57
  -2   0   7    1.50    1.39
   2   0  -7    1.45    0.71
  -2   0   6   -1.25    0.82
   2   0  -6   -1.28    0.64
  -2   0   6   -1.62    1.23
   2   0  -6   -3.14    1.31
   2   0  -5   -0.62    0.56
   2   0  -5   -0.56    1.15
  -2   0   5   -0.19    0.69
  -2   0   5   -0.98    1.11
   2   0  -4   76.25    2.40
  -2   0   4   75.48    2.34
   2   0  -4   80.71    1.77
  -2   0   4   79.02    1.85
  -2   0   3    0.47    0.54
   2   0  -3   -0.46    0.45
   2   0  -3   -0.63    0.89
  -2   0   3   -0.33    0.82
   2   0  -2    7.68    0.66
  -2   0   2    7.52    0.85
   2   0  -2    6.48    0.83
  -2   0   2    8.00    0.67
  -2   0   1   -0.03    0.32
   2   0  -1    0.12    0.32
   2   0  -1    0.19    0.20
   2   0   0   46.91    0.99
   2   0   0   47.06    1.39
  -2   0   0   49.19    1.09
  -2   0   0   49.84    1.43
   2   0   1    0.20    0.30
  -2   0  -1    0.00    0.30
   2   0   1    0.90    0.75
  -2   0  -1    0.43    0.66
  -2   0  -1    0.51    0.51
   2   0   1   -0.04    0.45
   2   0   2 1967.62   35.32
  -2   0  -2 1963.39   35.31
  -2   0  -2 1803.14   35.45
  -2   0  -2 1914.80   35.21
   2   0   2 1961.81   35.21
   2   0   2 1975.85   35.21
  -2   0  -3    0.05    0.46
   2   0   3   -0.52    1.03
  -2   0  -3    0.59    0.91
   2   0   3    0.18    0.87
   2   0   3    0.36    0.50
   2   0   4 3169.82   58.77
  -2   0  -4 3184.31   58.72
   2   0   4 3325.84   58.97
   2   0   4 3149.17   58.56
  -2   0  -4 3280.49   58.80
   2   0   5   -1.06    1.03
   2   0   5   -0.43    1.40
  -2   0  -5    0.30    1.26
  -2   0  -5    0.55    0.60
   2   0   5   -0.79    0.72
  -2   0  -6  467.17    9.19
   2   0   6  467.88    9.09
   2   0   6  410.35   10.59
  -2   0  -6  469.63    8.62
  -2   0  -7    0.10    1.56
   2   0   7    2.44    2.00
   2   0   7   -0.36    1.35
  -2   0  -7   -0.72    0.76
   2   0   7    0.90    0.96
   2   0   8   60.38    2.39
   2   0   8   63.88    3.29
  -2   0  -8   63.88    3.67
  -2   0  -8   66.00    2.04
   2   0   8   62.05    4.15
   2   0   9    4.15    2.08
  -2   0  -9   -0.05    0.98
  -2   0  -9    1.78    2.41
   2   0   9   -0.56    2.95
   2   0   9   -4.78    1.40
   2   0  10   18.12    3.75
  -2   0 -10   10.73    3.08
   2   0  10   15.50    2.62
  -2   0 -10   13.63    1.31
   2   0  10   16.03    1.56
   2   1 -10    1.58    1.22
  -2   1  10    2.07    2.02
  -2   1  10    2.11    1.57
   2   1 -10   -1.27    2.96
  -2  -1  10   -0.16    1.77
  -2  -1  10    1.71    3.34
   2  -1 -10    0.24    0.92
   2  -1 -10    2.50    2.37
  -2  -1  10   -3.73    2.37
   2   1  -9    4.49    1.38
   2   1  -9    6.30    2.71
  -2   1   9    6.24    1.31
  -2   1   9    8.28    1.91
  -2   1   9    6.99    3.19
   2  -1  -9    6.95    2.03
  -2  -1   9    3.94    2.05
  -2  -1   9    5.76    1.70
   2  -1  -9    5.38    0.87
   2   1  -8   68.32    2.19
  -2   1   8   64.81    3.04
  -2   1   8   63.51    2.19
  -2   1   8   65.64    4.38
   2   1  -8   68.73    3.88
   2  -1  -8   64.41    1.79
  -2  -1   8   68.74    2.58
  -2  -1   8   66.52    3.35
   2  -1  -8   67.09    3.11
  -2   1   7  193.25    5.46
  -2   1   7  192.37    4.08
   2   1  -7  195.72    5.17
   2   1  -7  196.34    4.13
  -2   1   7  195.92    4.61
   2  -1  -7  193.85    3.83
  -2  -1   7  191.25    4.29
   2  -1  -7  191.59    4.58
  -2  -1   7  196.69    4.86
   2   1  -6    5.99    0.85
   2   1  -6    3.60    1.74
  -2   1   6    4.48    1.68
  -2   1   6    6.00    1.25
  -2   1   6    5.12    0.75
  -2  -1   6    4.64    1.31
   2  -1  -6    6.95    0.57
  -2  -1   6    6.23    1.43
   2  -1  -6    8.51    1.22
  -2   1   5    0.13    0.61
  -2   1   5    0.68    1.02
   2   1  -5    0.38    1.37
  -2   1   5    2.69    1.38
   2   1  -5    0.90    0.77
  -2  -1   5   -0.56    0.86
  -2  -1   5    0.01    1.18
   2   1  -4  173.66    3.57
  -2   1   4  170.70    3.37
  -2   1   4  174.80    4.18
  -2   1   4  178.04    3.69
   2   1  -4  174.13    4.09
  -2  -1   4  173.91    3.62
  -2  -1   4  174.63    4.02
  -2   1   3   24.55    1.79
   2   1  -3   18.30    1.02
   2   1  -3   20.50    1.74
  -2  -1   3   19.60    1.14
  -2  -1   3   20.48    1.71
  -2   1   2 1020.71   18.69
   2   1  -2 1015.42   18.68
   2   1  -2  988.18   18.49
  -2  -1   2 1001.66   18.49
  -2  -1   2  992.42   18.64
  -2  -1   2 1037.73   18.98
   2   1  -1   15.60    1.40
  -2   1   1   17.36    1.18
   2   1  -1   17.09    0.98
   2   1  -1   14.08    1.43
  -2  -1   1   17.06    0.99
  -2  -1   1   17.32    1.43
  -2  -1   1   22.36    2.05
   2   1   0  173.56    3.47
   2   1   0  179.68    4.06
   2   1   0  183.23    3.72
  -2  -1   0  180.04    4.00
  -2  -1   0  177.58    3.66
  -2  -1   0  177.61    3.47
   2   1   1  229.41    4.38
  -2   1  -1  226.88    4.44
   2   1   1  230.77    4.94
  -2   1  -1  230.31    4.28
   2   1   1  226.67    4.23
  -2  -1  -1  228.94    4.21
  -2  -1  -1  227.69    4.36
   2  -1   1  222.02    4.36
   2  -1   1  230.61    4.28
  -2  -1  -1  223.99    4.89
  -2   1  -2   14.35    1.39
   2   1   2   14.31    0.68
  -2   1  -2   14.12    0.83
   2   1   2   15.51    1.07
   2   1   2   14.78    1.49
   2  -1   2   16.04    1.31
   2  -1   2   14.72    0.89
  -2  -1  -2   14.44    1.13
  -2  -1  -2   15.05    1.46
   2   1   3  389.15    7.26
   2   1   3  389.37    7.47
  -2   1  -3  387.69    7.34
   2   1   3  404.12    8.00
  -2   1  -3  396.19    7.65
  -2  -1  -3  380.00    7.92
  -2  -1  -3  396.70    7.46
   2  -1   3  393.60    7.36
  -2  -1  -3  382.19    7.21
   2  -1   3  389.41    7.58
   2   1   4   15.18    0.97
   2   1   4   16.85    1.57
  -2   1  -4   16.67    1.09
   2   1   4   18.23    1.76
  -2   1  -4   18.81    1.48
  -2  -1  -4   18.22    1.79
  -2  -1  -4   18.79    1.63
  -2  -1  -4   16.52    0.83
   2  -1   4   17.82    1.74
   2  -1   4   16.10    1.20
  -2   1  -5  100.85    2.41
  -2   1  -5  102.04    3.24
   2   1   5   84.92    5.45
   2   1   5  105.37    2.35
   2   1   5  107.31    2.86
   2  -1   5   98.09    2.53
  -2  -1  -5  102.57    2.20
   2  -1   5  104.89    3.08
  -2  -1  -5  106.77    2.92
   2  -1   5  100.38    3.00
   2   1   6   60.60    2.49
   2   1   6   57.90    1.83
  -2   1  -6   59.31    2.97
  -2   1  -6   60.26    1.83
   2   1   6   59.63    3.48
   2  -1   6   65.58    2.65
  -2  -1  -6   60.96    1.63
  -2  -1  -6   57.62    2.57
   2  -1   6   61.51    2.87
   2  -1   6   58.64    2.03
  -2   1  -7  100.03    2.56
   2   1   7   97.56    3.27
  -2   1  -7   97.73    3.82
   2   1   7   98.46    2.59
   2   1   7   97.24    4.47
  -2  -1  -7   97.25    2.33
   2  -1   7  102.43    3.86
  -2  -1  -7   96.59    3.45
   2  -1   7  101.52    3.42
   2  -1   7   95.73    2.80
   2   1   8    1.20    1.19
   2   1   8   -2.09    2.69
   2   1   8   -2.47    1.60
  -2   1  -8    0.03    2.19
  -2   1  -8    0.94    1.02
   2  -1   8   -0.19    1.29
  -2  -1  -8    1.37    0.84
   2  -1   8    0.58    2.11
   2  -1   8    2.78    2.36
  -2  -1  -8   -2.80    1.96
   2   1   9    1.84    1.90
  -2   1  -9    3.07    2.61
   2   1   9    5.11    3.41
   2   1   9    1.34    1.38
  -2   1  -9    1.03    1.15
   2  -1   9    1.41    2.15
   2  -1   9    2.66    1.75
  -2  -1  -9    0.64    1.00
  -2  -1  -9    3.91    2.33
   2  -1   9    2.45    2.95
   2   1  10    3.93    1.82
   2   1  10    5.66    2.41
  -2   1 -10    5.42    2.82
  -2   1 -10    4.90    1.33
  -2  -1 -10    8.05    2.76
   2  -1  10   -1.70    3.47
  -2  -1 -10    6.26    1.19
   2  -1  10    7.79    2.70
   2   2 -10   -0.09    1.45
  -2   2  10    2.58    1.63
  -2   2  10    0.02    2.13
  -2  -2  10    3.36    2.63
  -2   2   9    8.04    1.86
   2   2  -9    6.02    3.18
  -2   2   9    8.84    2.84
  -2   2   9    7.71    1.19
   2   2  -9    6.50    1.41
  -2  -2   9   -1.07    2.01
  -2  -2   9    5.82    2.38
   2   2  -8  171.56    5.66
   2   2  -8  164.73    4.03
  -2   2   8  170.79    3.69
  -2   2   8  161.48    5.94
  -2   2   8  163.50    4.34
  -2  -2   8  148.76    5.44
  -2  -2   8  163.77    4.32
  -2   2   7   95.09    3.04
  -2   2   7   95.82    4.43
   2   2  -7   94.92    4.17
   2   2  -7   96.95    2.69
  -2   2   7   93.20    2.36
  -2  -2   7   98.29    3.06
  -2  -2   7   92.95    3.61
   2   2  -6   68.76    2.15
  -2   2   6   68.59    1.78
  -2   2   6   72.23    3.62
   2   2  -6   68.26    3.38
  -2   2   6   67.76    2.36
  -2  -2   6   71.83    2.40
  -2  -2   6   71.64    3.01
  -2   2   5    5.39    1.73
  -2   2   5    1.62    0.89
   2   2  -5    3.44    0.82
   2   2  -5    2.27    1.52
  -2  -2   5    2.55    1.39
  -2  -2   5    2.28    1.06
   2   2  -4    0.98    1.34
   2   2  -4    0.99    0.71
  -2   2   4   -1.67    1.46
  -2  -2   4    0.52    0.89
  -2  -2   4    0.55    1.90
  -2  -2   4    1.36    1.18
   2   2  -3   43.48    2.25
  -2   2   3   43.71    2.36
   2   2  -3   46.08    1.58
  -2  -2   3   46.31    1.62
  -2  -2   3   45.78    2.90
  -2  -2   3   47.28    2.11
   2   2  -2  277.12    5.45
  -2   2   2  289.01    5.87
   2   2  -2  279.91    5.81
  -2  -2   2  285.32    6.29
  -2  -2   2  275.13    5.45
   2  -2  -2  279.80    5.83
  -2  -2   2  276.16    5.67
  -2   2   1  133.44    3.23
   2   2  -1  132.67    2.83
   2   2  -1  135.31    3.78
   2   2  -1  132.36    3.22
  -2  -2   1  133.35    2.80
   2  -2  -1  133.92    3.17
  -2  -2   1  132.19    3.03
  -2  -2   1  133.67    3.75
   2   2   0  118.40    3.50
  -2   2   0  111.19    2.73
   2   2   0  111.26    2.45
   2   2   0  113.19    2.82
  -2  -2   0  111.17    3.42
  -2  -2   0  112.71    2.39
  -2  -2   0  109.96    2.55
   2   2   1  883.25   16.46
  -2   2  -1  851.76   15.77
  -2   2  -1  848.59   15.90
   2   2   1  856.49   15.83
  -2  -2  -1  861.81   16.41
   2   2   2    0.09    0.39
   2   2   2   -0.44    0.69
  -2   2  -2   -1.42    0.98
  -2   2  -2   -0.78    0.59
   2   2   2    2.02    1.54
  -2  -2  -2    0.47    1.35
   2  -2   2   -0.70    0.60
   2  -2   2    0.11    0.79
   2   2   3   19.43    1.25
  -2   2  -3   19.02    1.16
   2   2   3   19.49    0.84
   2   2   3   23.26    1.95
  -2   2  -3   21.24    1.45
  -2  -2  -3   20.43    1.90
   2  -2   3   20.13    1.24
   2  -2   3   18.95    1.92
   2  -2   3   15.89    1.66
  -2   2  -4    7.05    1.44
   2   2   4    6.86    0.60
   2   2   4    7.78    1.83
  -2   2  -4    6.25    0.82
   2   2   4    6.85    0.94
  -2  -2  -4    7.94    1.77
   2  -2   4    5.26    1.19
   2  -2   4    7.62    0.92
  -2   2  -5  114.05    3.63
   2   2   5  118.46    4.28
   2   2   5  119.24    3.02
  -2   2  -5  115.98    2.78
   2   2   5  115.93    2.54
  -2  -2  -5  117.61    4.07
   2  -2   5  117.55    3.35
   2   2   6   14.15    1.25
  -2   2  -6   13.99    1.89
  -2   2  -6   14.82    1.48
   2   2   6   13.93    1.43
   2   2   6   14.38    2.61
  -2  -2  -6   10.30    2.12
   2  -2   6   15.12    1.67
   2  -2   6   15.48    1.30
  -2   2  -7  193.26    5.56
  -2   2  -7  196.62    4.34
   2   2   7  194.84    6.54
   2   2   7  200.06    4.78
   2   2   7  195.30    4.18
   2  -2   7  194.84    4.56
   2  -2   7  202.41    5.19
  -2   2  -8   33.17    2.15
  -2   2  -8   28.08    2.88
   2   2   8   29.33    3.72
   2   2   8   32.32    1.98
   2   2   8   31.40    2.87
   2  -2   8   30.45    2.57
   2  -2   8   33.00    2.85
   2  -2   8   34.75    3.51
  -2   2  -9   17.93    1.63
   2   2   9   27.43    2.27
   2   2   9   15.44    2.18
  -2   2  -9   15.42    2.72
   2  -2   9   18.95    3.26
   2  -2   9   24.20    2.75
   2  -2   9   18.96    2.14
  -2   3   9    5.73    1.97
  -2   3   9    4.53    1.40
   2   3  -9    3.84    1.61
  -2  -3   9    2.95    3.96
  -2  -3   9    8.71    2.67
   2   3  -8   36.09    2.46
  -2   3   8   34.36    3.65
   2   3  -8   34.57    3.67
  -2   3   8   35.47    1.82
  -2   3   8   37.02    2.79
  -2  -3   8   43.85    3.81
  -2  -3   8   37.31    2.95
  -2  -3   8   35.73    4.00
   2   3  -7    2.97    1.28
   2   3  -7    4.56    2.57
  -2   3   7    6.59    0.92
  -2   3   7    6.83    3.03
  -2   3   7    6.89    1.40
  -2  -3   7    8.57    2.03
  -2  -3   7    5.56    1.60
  -2  -3   7    5.61    3.20
   2   3  -6   19.21    2.38
   2   3  -6   20.73    1.46
  -2   3   6   21.23    3.06
  -2  -3   6   17.32    2.00
  -2  -3   6   21.88    2.91
  -2  -3   6   17.36    1.58
   2   3  -5   43.38    3.31
   2   3  -5   49.63    2.08
  -2   3   5   52.59    3.90
  -2  -3   5   48.94    2.22
  -2  -3   5   51.58    3.92
  -2  -3   5   48.90    2.79
  -2   3   4   42.42    3.17
   2   3  -4   43.66    2.89
   2   3  -4   43.48    1.81
  -2  -3   4   42.64    3.67
  -2  -3   4   43.53    2.46
  -2  -3   4   41.10    1.91
   2   3  -3    6.35    1.54
  -2   3   3    5.75    1.89
   2   3  -3    4.15    0.93
  -2  -3   3    5.27    0.95
   2  -3  -3    4.86    1.62
  -2  -3   3    6.25    1.28
  -2  -3   3    5.78    1.94
   2   3  -2  435.65    8.39
   2   3  -2  429.09    8.81
  -2   3   2  450.99    9.02
   2   3  -2  448.06    9.41
   2  -3  -2  435.11    8.88
  -2  -3   2  435.44    8.32
  -2  -3   2  436.69    8.49
  -2  -3   2  431.42    9.15
   2   3  -1   49.95    2.37
   2   3  -1   53.01    3.17
  -2   3   1   48.94    2.46
   2   3  -1   49.18    1.68
   2  -3  -1   52.63    2.38
  -2  -3   1   46.24    3.13
   2   3   0   22.48    2.16
   2   3   0   19.37    1.98
   2   3   0   19.92    1.30
  -2   3   0   24.08    1.65
   2  -3   0   20.58    1.90
  -2  -3   0   20.13    1.96
   2   3   1   86.20    2.79
  -2   3  -1   89.20    2.11
   2   3   1   87.94    2.21
  -2   3  -1   98.07    2.94
  -2   3  -1   85.99    2.55
   2   3   1   89.16    3.68
  -2  -3  -1   87.84    3.50
   2  -3   1   87.51    2.64
   2   3   2  341.68    6.59
   2   3   2  348.50    6.35
  -2   3  -2  341.87    6.57
   2   3   2  339.50    7.78
  -2   3  -2  335.68    6.92
   2  -3   2  334.94    6.78
  -2  -3  -2  337.51    7.63
   2   3   3   35.31    1.69
  -2   3  -3   39.99    1.61
   2   3   3   37.19    1.13
   2   3   3   41.72    3.52
  -2   3  -3   38.38    2.40
   2  -3   3   37.34    2.13
   2  -3   3   41.76    1.60
   2  -3   3   39.13    1.90
  -2  -3  -3   39.93    3.32
   2   3   4    4.37    0.61
  -2   3  -4    3.16    0.94
   2   3   4    6.04    1.07
  -2   3  -4    1.79    1.57
   2   3   4    3.07    2.33
  -2  -3  -4    6.37    2.26
   2  -3   4    3.69    1.57
   2  -3   4    7.05    1.33
   2  -3   4    5.13    0.99
  -2   3  -5    7.04    1.07
  -2   3  -5    6.40    1.85
   2   3   5   10.80    2.69
   2   3   5    7.02    1.19
   2   3   5    8.64    0.76
   2  -3   5    7.37    1.87
  -2  -3  -5    8.87    2.52
   2  -3   5    9.33    1.61
   2  -3   5    9.98    1.20
  -2   3  -6    4.17    2.18
   2   3   6   -2.94    2.96
   2   3   6    4.27    1.40
   2   3   6    3.93    1.11
  -2   3  -6    4.21    1.22
   2  -3   6    5.60    1.31
   2  -3   6    5.12    2.32
   2  -3   6    4.21    1.75
  -2  -3  -6    2.75    2.48
  -2   3  -7   15.55    2.84
   2   3   7   17.14    1.80
  -2   3  -7   15.32    1.45
   2   3   7   14.21    1.13
   2   3   7   15.32    3.58
   2  -3   7   17.12    2.91
   2  -3   7   13.33    1.62
   2  -3   7   18.06    2.24
   2   3   8   18.73    1.50
   2   3   8   17.19    2.06
  -2   3  -8   20.67    1.68
   2  -3   8   18.70    2.82
   2  -3   8   20.94    2.54
   2  -3   8   15.59    1.91
   2   4  -7  138.98    3.87
  -2  -4   7  132.58    4.85
  -2  -4   7  120.81    4.11
  -2  -4   7  125.69    6.47
   2   4  -6    3.73    3.14
  -2   4   6    4.96    3.39
   2   4  -6    7.29    1.46
  -2  -4   6    6.49    1.67
  -2  -4   6    2.53    2.01
  -2  -4   6    3.30    2.91
  -2   4   5   -2.32    2.84
   2   4  -5   -1.23    1.27
   2   4  -5    0.83    2.35
  -2  -4   5    0.33    1.77
  -2  -4   5    1.05    2.66
  -2  -4   5    0.67    1.44
  -2   4   4    3.75    2.45
   2   4  -4    1.75    1.18
   2   4  -4   -1.54    1.91
  -2  -4   4   -0.57    1.55
  -2  -4   4    0.43    2.46
  -2  -4   4    1.90    1.61
  -2   4   3   12.03    2.19
   2   4  -3    7.78    1.21
   2   4  -3    8.60    1.92
   2  -4  -3   11.04    2.19
  -2  -4   3    9.61    1.16
  -2  -4   3    9.57    1.47
  -2  -4   3   10.21    2.46
   2   4  -2   28.64    2.94
   2   4  -2   23.56    1.86
   2   4  -2   25.18    1.99
  -2   4   2   28.24    2.37
   2  -4  -2   27.31    2.24
  -2  -4   2   28.16    2.61
   2   4  -1  168.70    5.62
   2   4  -1  177.29    5.07
  -2   4   1  183.71    5.01
   2   4  -1  174.93    3.94
  -2  -4   1  172.63    5.35
   2  -4  -1  169.77    4.76
  -2   4   0    0.55    0.78
   2   4   0   -1.31    2.26
   2   4   0    7.64    1.70
  -2   4   0   -0.70    1.23
  -2   4   0    3.93    1.88
   2   4   0   -0.15    0.97
  -2  -4   0    1.67    2.04
   2  -4   0   -2.41    1.54
  -2   4  -1   86.80    3.03
   2   4   1   87.42    3.40
   2   4   1   91.57    2.51
  -2   4  -1   93.52    2.41
   2   4   1   91.97    4.60
  -2   4  -1   97.09    3.88
  -2  -4  -1   90.89    4.25
   2  -4   1   86.41    3.19
  -2   4  -2   33.69    1.76
   2   4   2   32.45    1.83
   2   4   2   33.46    1.21
   2   4   2   39.64    3.26
  -2  -4  -2   40.38    3.92
   2  -4   2   31.33    2.59
   2   4   3    6.60    0.67
  -2   4  -3    7.26    1.12
   2   4   3    6.22    1.15
  -2   4  -3    3.99    1.71
   2   4   3    7.82    2.77
  -2  -4  -3    8.64    2.38
   2  -4   3    7.50    1.59
   2   4   4   -3.90    2.94
  -2   4  -4    2.14    1.07
  -2   4  -4   -3.16    1.92
   2   4   4    0.58    1.20
   2   4   4    0.87    0.69
  -2  -4  -4    1.65    2.52
   2  -4   4   -0.08    1.15
  -2   4  -5    5.84    2.37
   2   4   5    6.79    0.87
  -2   4  -5    6.60    1.27
   2   4   5    7.58    1.40
   2   4   5    3.45    3.48
   2  -4   5    6.77    1.73
  -2  -4  -5    8.68    5.03
   2  -4   5    7.68    1.37
  -2   4  -6    9.22    1.42
   2   4   6    8.31    1.62
   2   4   6    6.41    0.97
  -2   4  -6    3.04    3.20
   2  -4   6    8.12    1.62
   2  -4   6    7.89    2.07
  -2  -4  -6   11.11    3.22
   2   4   7   45.54    3.09
   2   4   7   44.15    2.11
  -2   4  -7   44.27    2.74
   2  -4   7   44.06    4.25
   2  -4   7   43.30    3.15
   2  -4   7   43.56    3.15
   2   5  -4   28.23    3.54
  -2   5   4   37.43    3.71
   2   5  -4   38.82    2.61
  -2  -5   4   31.43    3.42
  -2   5   3   14.76    3.11
   2   5  -3   11.30    1.57
   2   5  -3    8.28    2.75
  -2  -5   3   10.69    2.95
   2   5  -2   27.18    2.86
   2   5  -2   30.01    2.29
  -2   5   2   33.04    3.36
   2  -5  -2   30.60    2.81
  -2  -5   2   31.30    3.21
   2   5  -1   24.69    3.58
  -2   5   1   27.79    3.17
   2   5  -1   25.59    2.22
   2   5  -1   22.07    2.61
  -2  -5   1   23.20    3.08
   2  -5  -1   21.39    2.44
   2   5   0   12.84    3.43
  -2   5   0   16.32    2.96
   2   5   0   13.36    2.38
  -2   5   0   23.50    3.09
   2   5   0   17.36    1.46
  -2   5   0   16.97    1.30
  -2  -5   0   12.67    2.92
   2  -5   0   13.96    2.32
  -2   5  -1   59.80    4.88
   2   5   1   59.50    2.48
  -2   5  -1   53.38    3.42
  -2   5  -1   59.54    2.42
   2   5   1   59.36    5.61
   2  -5   1   57.92    3.44
  -2  -5  -1   57.81    5.05
   2   5   2   36.85    3.86
   2   5   2   35.66    1.56
   2   5   2   32.54    2.30
  -2   5  -2   36.09    2.65
  -2   5  -2   39.22    2.26
  -2  -5  -2   38.15    3.51
   2  -5   2   32.54    3.19
  -2   5  -3    6.90    2.49
   2   5   3    3.45    1.35
   2   5   3   -2.90    3.52
  -2   5  -3    3.70    2.49
   2   5   3    2.67    0.85
  -2  -5  -3    2.59    3.13
   3   0 -11    0.77    1.24
   3   0 -11    1.21    3.09
  -3   0  11    0.15    2.56
  -3   0  10    9.43    1.92
  -3   0  10    5.68    3.28
   3   0 -10   11.67    2.62
   3   0 -10    6.70    1.12
  -3   0  10    6.52    2.32
   3   0  -9   -0.63    2.23
  -3   0   9   -1.11    2.73
   3   0  -9   -0.86    0.91
  -3   0   9   -1.50    1.37
  -3   0   9    1.08    1.92
  -3   0   8   42.51    2.94
   3   0  -8   40.41    1.68
  -3   0   8   36.51    2.10
   3   0  -8   38.13    3.26
  -3   0   7    0.27    1.43
  -3   0   7   -1.30    0.95
   3   0  -7    1.58    1.65
   3   0  -7   -1.13    0.70
  -3   0   6   20.84    2.14
   3   0  -6   22.03    1.66
   3   0  -6   21.13    1.17
  -3   0   6   23.06    1.44
  -3   0   5   -0.94    0.73
  -3   0   5    0.80    1.16
   3   0  -5   -0.91    0.56
   3   0  -5   -2.15    1.22
   3   0  -4  164.41    3.76
   3   0  -4  166.05    3.29
  -3   0   4  167.84    3.36
  -3   0   4  167.81    3.74
  -3   0   3    0.26    0.91
   3   0  -3    0.39    0.94
  -3   0   3    0.08    0.55
   3   0  -3   -0.41    0.48
  -3   0   2 1762.08   32.46
   3   0  -2 1749.75   32.49
  -3   0   2 1844.06   32.62
  -3   0   1   -0.07    0.44
   3   0  -1    0.22    0.25
  -3   0   1   -0.03    0.25
   3   0  -1   -0.33    0.42
  -3   0   0    3.92    0.97
  -3   0   0    5.00    0.56
   3   0   0    5.54    0.56
  -3   0   0    6.81    0.45
   3   0   0    6.96    0.48
   3   0   0    3.98    0.96
  -3   0  -1    0.06    0.57
   3   0   1    0.73    0.92
   3   0   1   -0.16    0.37
  -3   0  -1    0.03    0.36
  -3   0  -1    0.21    0.93
   3   0   1   -0.23    0.58
   3   0   2  139.33    3.29
  -3   0  -2  140.94    3.07
   3   0   2  134.39    2.99
  -3   0  -2  143.75    2.76
   3   0   2  143.40    2.76
  -3   0  -2  138.91    3.29
   3   0   3    0.23    0.52
  -3   0  -3   -0.02    0.90
  -3   0  -3    0.32    0.48
  -3   0  -3   -0.85    1.09
   3   0   3    0.22    0.82
   3   0   3    0.71    1.12
   3   0   4  652.46   12.28
   3   0   4  654.25   12.53
  -3   0  -4  644.04   11.99
   3   0   4  640.87   12.01
  -3   0  -4  647.42   12.30
   3   0   5    0.70    1.15
   3   0   5    0.28    0.79
   3   0   5    0.19    1.45
  -3   0  -5    0.19    1.26
  -3   0  -5   -0.03    0.60
   3   0   6    1.92    0.90
  -3   0  -6    2.13    0.73
   3   0   6    0.84    1.25
   3   0   6    0.89    1.74
  -3   0  -7   -0.54    0.77
   3   0   7   -0.14    1.48
   3   0   7    0.54    2.05
   3   0   7   -0.40    1.02
  -3   0  -7    2.84    1.71
   3   0   8   93.22    4.74
   3   0   8   97.64    3.68
  -3   0  -8   90.86    4.12
  -3   0  -8   93.49    2.49
   3   0   8   89.65    2.83
  -3   0  -9    2.54    2.41
   3   0   9   -0.43    2.09
  -3   0  -9    0.30    1.70
   3   0   9   -1.97    1.50
   3   0   9    2.10    3.26
  -3   0 -10   51.31    2.34
   3   0  10   59.87    4.41
  -3   0 -10   56.69    5.19
   3   0  10   46.94    4.33
  -3   1  11   -0.81    2.38
   3   1 -11    3.80    1.45
   3   1 -11    2.25    3.25
  -3   1  11    3.73    1.52
  -3  -1  11   -1.37    2.79
   3  -1 -11    1.14    1.02
   3  -1 -11    6.43    2.80
   3   1 -10    3.12    2.88
  -3   1  10    2.71    2.12
   3   1 -10    3.68    1.28
  -3   1  10    3.14    1.53
  -3  -1  10    3.16    1.87
  -3  -1  10    2.48    2.32
   3  -1 -10    2.50    0.92
  -3   1   9  124.69    3.36
   3   1  -9  133.62    3.26
   3   1  -9  131.14    5.14
  -3   1   9  126.88    5.73
  -3   1   9  135.46    4.25
   3  -1  -9  126.29    4.26
   3  -1  -9  124.22    2.86
  -3  -1   9  118.92    3.73
  -3  -1   9  128.08    4.58
  -3   1   8   -1.59    2.41
   3   1  -8    0.32    0.96
  -3   1   8    1.41    1.59
   3   1  -8   -2.20    2.10
  -3   1   8   -1.27    1.05
   3  -1  -8   -0.83    0.68
  -3  -1   8   -1.25    1.78
   3  -1  -8   -1.15    1.62
  -3  -1   8   -0.44    1.37
   3   1  -7   53.79    3.31
  -3   1   7   58.09    3.48
   3   1  -7   50.92    1.86
  -3   1   7   53.38    2.59
  -3   1   7   51.04    1.82
   3  -1  -7   52.07    1.42
  -3  -1   7   53.87    2.89
  -3  -1   7   51.36    2.19
   3  -1  -7   48.82    2.57
  -3   1   6  318.61    6.08
  -3   1   6  325.45    6.50
  -3   1   6  315.26    7.04
   3   1  -6  326.41    6.21
   3   1  -6  309.25    7.28
  -3  -1   6  287.39    6.58
  -3  -1   6  324.55    6.75
  -3   1   5   50.39    1.42
   3   1  -5   49.57    1.62
   3   1  -5   47.62    2.59
  -3   1   5   52.94    2.03
  -3  -1   5   45.68    2.38
  -3  -1   5   51.64    1.79
   3   1  -4  301.13    5.83
   3   1  -4  305.64    6.29
  -3   1   4  304.88    5.91
  -3   1   4  297.38    5.64
  -3  -1   4  302.55    6.22
  -3  -1   4  297.38    5.87
   3   1  -3    4.36    1.14
   3   1  -3    3.87    0.66
  -3  -1   3    6.47    1.09
  -3  -1   3    4.17    0.73
   3   1  -2    5.20    1.13
   3   1  -2    3.52    0.66
  -3  -1   2    3.86    0.69
  -3  -1   2    5.55    1.67
  -3  -1   2    4.42    1.07
   3   1  -1 4042.87   74.89
   3   1  -1 4098.24   74.90
   3   1  -1 4109.24   75.13
  -3  -1   1 4131.00   74.89
  -3  -1   1 4165.72   74.94
  -3  -1   1 4082.56   75.11
  -3   1   0 1099.65   19.96
   3   1   0 1074.87   19.93
   3   1   0 1094.51   20.04
   3   1   0 1138.69   20.46
  -3   1   0 1085.15   20.03
  -3  -1   0 1087.58   20.04
  -3  -1   0 1103.96   20.20
  -3  -1   0 1079.91   20.41
  -3   1  -1   14.72    0.73
   3   1   1   13.22    1.12
   3   1   1   13.94    0.67
   3   1   1   10.73    1.42
  -3   1  -1   13.62    1.11
  -3  -1  -1   10.56    1.38
  -3  -1  -1   13.17    1.11
   3  -1   1   14.14    0.74
   3  -1   1   12.49    1.02
  -3  -1  -1   12.80    0.60
  -3   1  -2   41.56    1.64
   3   1   2   42.85    1.10
   3   1   2   41.91    1.51
  -3   1  -2   41.95    1.19
   3   1   2   40.57    2.42
   3  -1   2   41.79    1.51
   3  -1   2   43.12    1.22
  -3  -1  -2   38.91    2.33
  -3  -1  -2   42.55    1.51
  -3   1  -3  582.34   10.90
   3   1   3  577.32   11.05
  -3   1  -3  583.57   11.18
   3   1   3  591.95   10.85
   3   1   3  600.34   11.58
  -3  -1  -3  589.54   11.05
  -3  -1  -3  585.10   11.54
  -3  -1  -3  579.82   10.81
   3  -1   3  592.66   11.06
   3  -1   3  599.37   10.92
   3  -1   3  588.36   11.12
  -3   1  -4    0.42    1.13
  -3   1  -4    1.22    0.62
   3   1   4    1.77    0.92
   3   1   4    0.71    1.51
   3   1   4    0.73    0.59
   3  -1   4    1.94    1.09
  -3  -1  -4    0.45    0.50
  -3  -1  -4    1.38    1.55
  -3  -1  -4    1.70    1.00
   3  -1   4   -0.05    0.73
   3  -1   4   -1.61    1.08
   3   1   5 1154.47   21.69
  -3   1  -5 1122.80   20.88
   3   1   5 1132.87   20.83
   3   1   5 1121.34   21.10
  -3   1  -5 1148.65   21.32
  -3  -1  -5 1147.35   21.11
   3  -1   5 1132.90   21.19
   3  -1   5 1141.12   20.92
  -3  -1  -5 1110.03   21.54
   3  -1   5 1149.58   21.25
  -3  -1  -5 1107.52   20.75
  -3   1  -6    7.45    0.87
   3   1   6    6.90    1.35
   3   1   6    8.30    1.01
   3   1   6   12.27    2.20
  -3   1  -6    9.19    1.64
  -3  -1  -6    7.38    1.49
   3  -1   6   10.58    1.72
   3  -1   6    9.89    1.49
  -3  -1  -6    9.69    0.75
   3  -1   6   10.06    1.08
  -3   1  -7   25.75    2.29
  -3   1  -7   28.36    1.62
   3   1   7   28.64    2.85
   3   1   7   26.94    2.50
   3   1   7   27.93    1.71
  -3  -1  -7   27.36    1.39
   3  -1   7   29.05    1.95
   3  -1   7   27.60    2.35
   3  -1   7   26.40    2.69
  -3   1  -8    0.40    1.48
   3   1   8   -0.75    1.71
   3   1   8   -0.37    1.18
   3   1   8    2.56    2.94
  -3   1  -8    0.98    2.23
  -3  -1  -8   -2.14    0.83
   3  -1   8    0.24    2.02
   3  -1   8    0.87    1.30
  -3  -1  -8   -0.85    1.95
   3  -1   8    0.48    2.35
   3   1   9    7.13    2.07
   3   1   9    7.30    3.63
  -3   1  -9    8.58    2.95
  -3   1  -9    7.87    1.29
   3   1   9    4.67    1.61
   3  -1   9   10.18    3.05
  -3  -1  -9    6.13    2.39
   3  -1   9    4.87    1.76
   3  -1   9    4.95    2.40
  -3  -1  -9    6.01    1.06
   3   1  10    0.00    2.44
  -3   1 -10    2.19    1.41
   3  -1  10    1.91    2.65
  -3  -1 -10    3.12    1.16
   3  -1  10    2.80    3.77
  -3  -1 -10    3.56    2.86
  -3   2  10    3.62    2.17
  -3   2  10    5.93    1.66
   3   2 -10    2.40    1.54
  -3  -2  10    3.30    2.61
   3   2  -9   22.06    2.19
  -3   2   9   21.33    1.91
   3   2  -9   21.55    3.32
  -3   2   9   21.78    2.07
  -3   2   9   17.13    3.17
  -3  -2   9   22.31    2.51
  -3  -2   9   20.93    2.14
  -3   2   8   14.85    1.74
   3   2  -8   14.21    1.49
  -3   2   8   10.64    2.63
   3   2  -8   10.36    2.59
  -3   2   8   14.27    1.15
  -3  -2   8   12.43    2.50
  -3  -2   8   14.52    1.76
   3   2  -7  190.14    4.21
  -3   2   7  190.46    5.75
  -3   2   7  185.65    4.46
  -3   2   7  183.95    3.91
   3   2  -7  189.92    5.50
  -3  -2   7  186.27    4.42
  -3  -2   7  193.15    5.02
   3   2  -6   20.90    2.09
  -3   2   6   20.26    2.23
  -3   2   6   19.81    1.12
   3   2  -6   19.39    1.57
  -3   2   6   20.74    1.85
  -3  -2   6   19.10    1.86
  -3  -2   6   22.33    1.84
   3   2  -5   64.00    1.99
   3   2  -5   60.61    3.03
  -3   2   5   63.42    3.08
  -3  -2   5   60.42    2.70
   3   2  -4  611.99   11.54
  -3   2   4  614.11   12.07
   3   2  -4  611.95   12.02
  -3  -2   4  616.96   11.57
  -3  -2   4  616.32   11.88
  -3  -2   4  607.48   12.50
   3   2  -3   18.15    1.55
   3   2  -3   18.85    1.29
  -3   2   3   20.13    1.59
  -3  -2   3   19.44    1.45
  -3  -2   3   19.93    2.16
  -3  -2   3   18.85    1.40
  -3   2   2  390.51    7.69
   3   2  -2  390.53    8.29
   3   2  -2  377.64    7.74
   3   2  -2  386.63    7.40
  -3  -2   2  384.30    8.22
  -3  -2   2  389.32    7.64
  -3  -2   2  392.03    7.40
   3   2  -1  406.13    7.76
   3   2  -1  409.87    8.08
   3   2  -1  408.37    8.53
  -3   2   1  411.74    7.94
  -3  -2   1  407.95    8.50
  -3  -2   1  408.89    7.93
  -3  -2   1  413.05    7.74
   3   2   0  273.18    5.33
   3   2   0  274.58    6.19
   3   2   0  275.89    5.68
  -3   2   0  275.57    5.41
  -3  -2   0  274.16    5.30
  -3  -2   0  277.56    6.12
  -3  -2   0  273.50    5.49
   3  -2   0  272.87    5.32
  -3   2  -1   10.03    0.89
   3   2   1    8.52    0.86
   3   2   1    8.64    0.68
   3   2   1    7.99    1.53
  -3   2  -1    8.24    0.63
  -3  -2  -1    7.25    0.99
  -3  -2  -1    8.05    1.67
  -3  -2  -1    8.67    0.74
   3   2   2  602.27   11.70
   3   2   2  577.81   10.88
  -3   2  -2  578.25   10.78
   3   2   2  585.08   10.69
  -3   2  -2  572.26   11.01
   3  -2   2  573.12   10.86
  -3  -2  -2  573.00   11.59
  -3  -2  -2  572.73   10.80
   3  -2   2  594.36   10.77
  -3   2  -3  282.08    5.56
  -3   2  -3  287.77    5.98
   3   2   3  287.14    5.43
   3   2   3  295.72    6.82
   3   2   3  287.01    5.70
   3  -2   3  291.85    5.59
   3  -2   3  285.32    5.78
  -3  -2  -3  280.92    6.55
   3   2   4   17.80    1.50
   3   2   4   16.95    0.99
  -3   2  -4   16.20    1.22
  -3   2  -4   17.38    1.60
   3   2   4   18.30    2.17
  -3  -2  -4   17.76    1.96
   3  -2   4   17.85    1.32
   3  -2   4   18.54    1.39
  -3  -2  -4   16.68    1.58
  -3   2  -5  184.56    4.70
   3   2   5  189.76    4.21
  -3   2  -5  184.41    3.93
   3   2   5  184.79    3.77
   3   2   5  182.54    5.46
   3  -2   5  185.45    4.44
  -3  -2  -5  181.02    5.23
   3  -2   5  182.87    4.06
  -3  -2  -5  185.02    4.12
   3  -2   5  187.96    4.25
   3   2   6    8.38    1.04
  -3   2  -6    7.83    1.05
   3   2   6    4.94    2.57
  -3   2  -6    5.22    1.82
   3   2   6    7.81    1.37
  -3  -2  -6    7.97    1.36
   3  -2   6    7.88    1.22
   3  -2   6    9.57    1.69
  -3  -2  -6    9.30    2.27
   3  -2   6    8.46    1.65
  -3   2  -7   50.70    2.61
   3   2   7   47.41    2.71
  -3   2  -7   43.11    3.69
   3   2   7   49.75    4.93
   3   2   7   44.50    1.89
  -3  -2  -7   45.60    2.80
   3  -2   7   41.21    3.30
   3  -2   7   43.16    3.15
   3  -2   7   46.65    2.44
   3   2   8   60.99    2.39
   3   2   8   65.87    5.57
   3   2   8   65.66    3.23
  -3   2  -8   66.77    2.53
  -3   2  -8   52.67    4.63
  -3  -2  -8   63.33    3.42
   3  -2   8   62.05    2.94
   3  -2   8   64.68    3.85
   3  -2   8   63.31    4.34
  -3  -2  -8   59.80    1.79
   3   2   9   15.14    2.15
   3   2   9   13.13    1.66
  -3   2  -9   15.69    1.60
   3  -2   9   19.80    2.72
   3  -2   9   12.40    3.27
   3  -2   9   13.99    1.77
  -3   3   9    5.57    1.28
  -3   3   9    5.23    1.92
   3   3  -9    5.09    1.61
  -3  -3   9    2.46    2.58
  -3  -3   9    4.76    4.21
   3   3  -8    3.45    1.43
   3   3  -8    7.08    3.15
  -3   3   8    0.80    3.18
  -3   3   8    3.40    1.59
  -3  -3   8    0.44    2.17
  -3  -3   8    1.16    1.90
  -3  -3   8    0.87    3.46
   3   3  -7   23.43    2.96
  -3   3   7   25.18    3.40
   3   3  -7   24.59    2.12
  -3  -3   7   25.35    2.55
  -3  -3   7   25.43    3.57
  -3  -3   7   26.44    2.69
   3   3  -6   34.95    2.09
   3   3  -6   33.06    2.73
  -3   3   6   28.53    2.98
  -3  -3   6   39.51    3.28
  -3  -3   6   37.97    3.06
  -3  -3   6   33.54    2.35
   3   3  -5   12.38    1.26
  -3   3   5   11.46    2.20
   3   3  -5   13.13    2.04
  -3  -3   5   13.31    1.33
  -3  -3   5   16.70    2.61
  -3  -3   5   14.11    1.72
  -3   3   4   11.56    1.95
   3   3  -4   12.74    1.15
   3   3  -4    8.63    1.81
  -3  -3   4   11.75    1.20
  -3  -3   4   12.47    1.59
  -3  -3   4   15.29    2.55
   3   3  -3    3.60    0.93
  -3   3   3    5.54    1.64
  -3  -3   3    3.28    2.06
  -3  -3   3    3.48    0.99
  -3  -3   3    4.48    1.32
   3   3  -2   63.12    2.78
   3   3  -2   70.91    3.81
   3   3  -2   61.74    2.02
  -3   3   2   63.16    2.74
   3  -3  -2   66.15    2.60
  -3  -3   2   63.01    3.47
  -3  -3   2   63.87    2.34
  -3  -3   2   61.73    1.98
  -3   3   1  152.78    3.91
   3   3  -1  149.50    3.98
   3   3  -1  155.39    4.72
   3   3  -1  157.82    3.41
  -3  -3   1  155.82    3.32
   3  -3  -1  154.69    3.71
  -3  -3   1  151.06    4.54
  -3  -3   1  153.57    3.51
   3   3   0   -1.00    1.75
   3   3   0    0.48    0.80
   3   3   0   -0.67    1.30
  -3  -3   0   -1.07    1.76
   3  -3   0   -1.07    0.98
  -3   3  -1   43.51    1.93
  -3   3  -1   44.89    1.38
   3   3   1   46.12    1.68
   3   3   1   43.00    3.26
  -3  -3  -1   44.49    3.17
   3   3   2  243.46    4.93
   3   3   2  247.40    6.26
   3   3   2  240.83    4.61
  -3   3  -2  242.73    4.81
  -3   3  -2  231.83    5.19
  -3  -3  -2  244.59    6.12
  -3   3  -3   43.14    1.63
   3   3   3   41.43    1.85
   3   3   3   41.82    1.25
   3   3   3   42.67    3.64
  -3   3  -3   42.07    2.52
   3  -3   3   42.75    1.64
   3  -3   3   43.71    1.90
  -3  -3  -3   41.07    3.54
  -3   3  -4    6.72    1.67
   3   3   4    7.07    1.15
   3   3   4    2.29    2.44
  -3   3  -4    3.79    0.93
   3   3   4    5.53    0.67
   3  -3   4    4.86    0.98
  -3  -3  -4    6.51    2.25
   3  -3   4    5.72    1.28
   3   3   5   80.89    5.06
  -3   3  -5   90.55    2.57
  -3   3  -5   87.70    3.71
   3   3   5   91.82    2.88
   3   3   5   89.12    2.19
  -3  -3  -5   88.30    4.59
   3  -3   5   97.80    3.28
   3  -3   5   89.16    3.44
   3  -3   5   89.02    2.66
   3   3   6   41.80    1.64
   3   3   6   42.86    2.59
   3   3   6   41.95    3.76
  -3   3  -6   35.69    2.69
   3  -3   6   46.82    3.02
   3  -3   6   43.25    3.52
   3  -3   6   33.20    2.26
  -3  -3  -6   45.69    3.65
   3   3   7   15.29    1.82
  -3   3  -7   17.47    1.50
   3   3   7   14.95    1.18
  -3   3  -7   19.17    3.05
   3   3   7   16.03    3.41
  -3  -3  -7   13.82    3.21
   3  -3   7   18.82    2.59
   3  -3   7   21.71    2.88
   3  -3   7   19.55    1.76
   3  -3   7   14.43    2.25
   3   3   8   22.26    2.27
  -3   3  -8   18.15    1.74
   3  -3   8   17.94    2.07
   3  -3   8   23.04    2.91
   3  -3   8   25.05    2.64
   3   4  -7  119.92    3.72
  -3  -4   7  120.09    4.76
  -3  -4   7  110.35    3.97
  -3  -4   7  109.47    6.59
  -3   4   6   10.38    3.34
   3   4  -6   16.66    1.68
   3   4  -6   14.97    3.39
  -3  -4   6   16.59    2.26
  -3  -4   6   15.49    1.86
  -3  -4   6   16.70    3.40
   3   4  -5    4.91    2.61
  -3   4   5   -1.55    2.64
   3   4  -5    2.63    1.33
  -3  -4   5   -0.31    1.81
  -3  -4   5    0.17    2.81
  -3  -4   5    1.40    1.48
   3   4  -4    7.94    2.21
  -3   4   4   13.74    2.47
   3   4  -4   10.07    1.33
  -3  -4   4    9.07    2.77
  -3  -4   4    7.85    1.69
  -3  -4   4   10.92    1.39
   3   4  -3   31.77    2.09
   3   4  -3   37.92    3.15
  -3   4   3   37.35    3.50
  -3  -4   3   33.23    1.99
  -3  -4   3   35.32    2.54
  -3  -4   3   38.12    3.13
   3   4  -2   28.26    1.93
   3   4  -2   27.43    2.20
   3   4  -2   25.90    3.07
  -3   4   2   29.81    2.95
   3  -4  -2   29.75    2.20
  -3  -4   2   26.92    2.84
  -3   4   1  205.19    5.33
   3   4  -1  197.73    5.17
   3   4  -1  203.89    4.43
   3   4  -1  204.27    6.29
  -3  -4   1  209.51    6.04
   3  -4  -1  200.39    5.01
  -3   4   0    2.51    1.81
   3   4   0   -0.44    1.07
   3   4   0    0.19    1.69
   3   4   0   -3.08    2.42
   3  -4   0   -1.47    1.38
  -3  -4   0    0.24    2.16
   3   4   1   15.07    2.59
   3   4   1   15.57    1.27
  -3   4  -1   20.50    2.10
  -3   4  -1   16.11    1.44
  -3   4  -1   13.65    1.58
  -3  -4  -1   16.78    2.56
   3  -4   1   15.51    1.50
   3   4   2   36.37    1.97
  -3   4  -2   38.93    1.81
   3   4   2   38.31    1.30
   3   4   2   34.92    3.23
  -3  -4  -2   38.25    3.10
  -3   4  -3   -2.31    1.59
   3   4   3    2.32    2.92
   3   4   3    0.09    1.17
   3   4   3    0.97    0.67
  -3   4  -3    0.55    1.00
  -3  -4  -3   -3.29    2.40
  -3   4  -4    1.62    1.11
  -3   4  -4    4.14    1.95
   3   4   4    1.21    0.87
   3   4   4    0.43    1.26
   3   4   4    5.68    3.27
  -3  -4  -4    5.42    2.70
   3   4   5   -1.15    1.39
  -3   4  -5   -1.25    1.17
  -3   4  -5   -0.30    2.26
   3   4   5   -6.02    3.45
   3   4   5   -0.09    0.87
   3  -4   5    0.63    1.71
  -3  -4  -5   -1.79    2.93
   3  -4   5    0.64    1.29
   3   4   6    5.14    1.60
  -3   4  -6    0.81    1.31
  -3   4  -6    3.80    3.25
   3   4   6    0.62    1.02
   3  -4   6    1.44    1.45
  -3  -4  -6   -2.03    3.24
   3  -4   6    4.62    2.03
   3   5  -4   17.81    3.71
  -3   5   4   18.79    3.38
   3   5  -4   17.23    1.71
  -3  -5   4   20.69    3.49
  -3   5   3   11.46    2.94
   3   5  -3    0.47    1.40
   3   5  -3    0.37    2.70
  -3  -5   3    2.00    3.03
   3   5  -2   35.11    3.12
  -3   5   2   51.21    4.68
   3   5  -2   35.52    4.06
  -3  -5   2   29.75    3.45
   3   5  -1   47.15    4.19
   3   5  -1   43.85    3.09
   3   5  -1   48.28    2.48
  -3   5   1   49.49    4.57
  -3  -5   1   43.36    3.46
   3  -5  -1   37.61    3.63
   3   5   0   31.56    3.90
   3   5   0   31.76    2.29
  -3   5   0   36.55    3.14
  -3   5   0   34.12    2.99
  -3   5   0   32.28    1.93
   3  -5   0   31.79    3.23
  -3  -5   0   31.33    3.41
   3   5   1   23.88    3.82
   3   5   1   19.68    1.43
  -3   5  -1   19.87    2.22
  -3   5  -1   24.97    1.99
   3   5   1   21.80    1.62
  -3  -5  -1   21.93    3.30
  -3   5  -2   24.08    2.47
  -3   5  -2   28.28    2.10
   3   5   2   23.28    2.33
   3   5   2   22.70    3.89
   3   5   2   23.22    1.50
  -3   5  -3    4.74    2.15
   3   5   3    0.22    3.41
   3   5   3    5.76    0.96
   3   5   3    9.18    1.47
  -3   5  -3    7.05    2.50
  -3  -5  -3    3.56    3.12
   4   0 -11    0.66    3.10
  -4   0  11    4.35    2.60
  -4   0  10   -1.46    3.02
   4   0 -10    0.46    2.56
   4   0 -10    1.20    1.03
  -4   0  10    3.86    1.83
  -4   0  10   -0.69    2.27
  -4   0   9   -0.04    1.88
   4   0  -9    0.70    0.91
  -4   0   9    0.12    1.42
   4   0  -9    1.72    2.26
   4   0  -8  238.34    4.88
   4   0  -8  241.06    5.90
  -4   0   8  241.23    5.16
  -4   0   8  240.38    5.82
  -4   0   7   -0.50    0.95
   4   0  -7   -0.20    0.71
   4   0  -7   -1.45    1.53
  -4   0   7    0.21    1.43
   4   0  -6  277.82    6.07
   4   0  -6  280.67    5.43
  -4   0   6  281.02    5.58
  -4   0   6  280.65    6.04
  -4   0   5   -0.56    0.72
   4   0  -5    0.77    1.19
   4   0  -5    0.80    0.59
  -4   0   5   -0.44    1.12
   4   0  -4   16.30    1.30
  -4   0   4   14.38    1.10
   4   0  -4   15.70    0.94
  -4   0   4   13.92    1.20
  -4   0   3    0.73    0.97
   4   0  -3    0.64    0.53
  -4   0   3    0.87    0.59
   4   0  -2  142.11    2.67
   4   0  -2  137.91    2.79
  -4   0   2  143.24    2.84
  -4   0   2  136.21    3.20
   4   0  -1    0.49    0.32
   4   0  -1    0.69    0.51
  -4   0   1   -0.73    1.30
  -4   0   1   -0.36    0.54
  -4   0   1    0.79    0.32
   4   0   0 9796.58  178.71
   4   0   0 9941.81  179.76
  -4   0   0 9572.61  180.02
   4   0   0 9996.29  179.03
  -4   0   0 9707.41  178.71
  -4   0   0 9999.00  179.10
   4   0   1    0.16    0.40
   4   0   1   -0.60    0.70
  -4   0  -1   -0.36    0.38
   4   0   1    0.55    1.08
  -4   0  -1    0.18    1.31
  -4   0  -1   -0.47    0.69
  -4   0  -2  211.76    4.63
  -4   0  -2  216.56    4.41
  -4   0  -2  214.28    4.14
   4   0   2  222.30    4.16
   4   0   2  219.27    4.71
   4   0   3   -0.73    1.21
  -4   0  -3   -0.16    1.22
   4   0   3    0.03    0.53
  -4   0  -3   -0.04    0.91
  -4   0  -3    0.44    0.51
   4   0   3    0.62    0.83
  -4   0  -4   88.59    2.88
  -4   0  -4   88.55    2.74
   4   0   4   85.93    3.06
  -4   0  -4   93.15    2.07
   4   0   4   91.60    2.14
   4   0   4   88.60    2.55
  -4   0  -5    0.08    0.63
   4   0   5    0.17    1.15
   4   0   5   -0.24    0.74
   4   0   5   -0.28    1.52
  -4   0  -5   -0.40    1.31
   4   0   6  304.66    6.51
   4   0   6  317.03    7.08
   4   0   6  300.85    6.08
  -4   0  -6  305.69    6.68
  -4   0  -6  303.63    5.98
  -4   0  -7    1.17    1.78
   4   0   7    1.14    1.06
   4   0   7    1.41    2.12
   4   0   7    0.90    1.47
  -4   0  -7   -0.65    0.82
   4   0   8   37.52    3.38
   4   0   8   32.20    2.16
  -4   0  -8   34.84    2.66
   4   0   8   35.17    3.14
  -4   0  -8   35.35    1.78
   4   0   9   -2.18    3.35
   4   0   9   -1.79    2.13
   4   0   9   -1.16    1.74
  -4   0  -9   -1.54    2.52
  -4   0  -9    0.06    1.11
  -4   0 -10   39.21    2.22
  -4   0 -10   34.61    3.73
   4   0  10   37.49    3.09
   4   0  10   36.01    4.26
  -4   1  11   14.12    1.89
   4   1 -11    3.11    3.49
  -4   1  11    9.99    2.59
   4   1 -11    8.37    1.45
  -4  -1  11    9.03    2.82
   4  -1 -11   10.64    2.67
   4   1 -10    4.91    2.85
   4   1 -10    0.57    1.24
  -4   1  10    1.69    1.52
  -4   1  10    2.22    2.07
   4  -1 -10    0.58    0.90
  -4  -1  10    0.83    2.37
  -4  -1  10    2.32    1.90
   4  -1 -10    7.77    2.23
   4   1  -9  251.56    6.82
  -4   1   9  251.04    5.37
  -4   1   9  247.46    6.07
  -4   1   9  251.98    7.35
   4   1  -9  256.56    5.29
  -4  -1   9  252.70    6.39
  -4  -1   9  239.65    5.65
   4  -1  -9  238.99    5.96
   4  -1  -9  246.83    4.91
   4   1  -8   21.92    1.67
  -4   1   8   20.84    2.65
  -4   1   8   22.12    1.89
  -4   1   8   19.22    1.72
   4   1  -8   19.25    2.42
  -4  -1   8   19.81    1.57
  -4  -1   8   19.72    2.10
   4  -1  -8   21.87    1.85
   4  -1  -8   19.75    1.15
  -4   1   7   -0.45    1.38
   4   1  -7   -3.16    1.78
  -4   1   7   -1.83    0.86
  -4   1   7    1.00    1.91
   4   1  -7   -0.93    0.89
  -4  -1   7   -0.18    1.54
  -4  -1   7   -1.36    1.13
   4   1  -6  462.24    8.77
  -4   1   6  470.22    9.05
   4   1  -6  436.54    9.78
  -4   1   6  450.98    8.66
  -4  -1   6  473.19    9.32
  -4  -1   6  458.88    8.92
   4   1  -5    9.26    0.88
   4   1  -5    8.89    1.50
  -4   1   5    8.91    1.12
  -4   1   5    8.49    0.73
  -4  -1   5    8.60    1.33
  -4  -1   5    9.57    0.94
  -4   1   4  346.50    6.48
  -4   1   4  346.85    6.75
   4   1  -4  347.07    7.12
   4   1  -4  344.15    6.65
  -4  -1   4  341.69    7.05
  -4  -1   4  352.04    6.70
   4   1  -3 2421.15   44.07
   4   1  -3 2431.01   44.34
  -4  -1   3 2407.14   44.30
  -4  -1   3 2412.95   44.07
   4   1  -2  148.49    3.46
   4   1  -2  135.44    2.97
  -4  -1   2  143.87    3.43
  -4  -1   2  141.81    3.00
   4   1  -1  114.33    2.56
   4   1  -1  120.42    3.57
   4   1  -1  116.43    2.32
  -4  -1   1  122.54    3.66
  -4  -1   1  119.08    3.00
  -4  -1   1  117.03    2.58
   4   1   0  661.54   12.40
  -4   1   0  649.42   11.77
  -4   1   0  621.92   11.68
   4   1   0  646.70   11.86
   4   1   0  615.86   11.71
  -4  -1   0  641.97   11.86
  -4  -1   0  640.95   12.34
   4   1   1  423.26    7.84
  -4   1  -1  425.01    8.00
   4   1   1  433.92    8.55
   4   1   1  425.43    8.02
  -4   1  -1  421.57    7.85
  -4  -1  -1  420.81    8.56
   4  -1   1  421.69    7.94
  -4  -1  -1  415.03    7.82
  -4  -1  -1  433.24    8.02
   4  -1   1  423.30    7.84
   4   1   2   43.08    2.62
   4   1   2   42.85    1.59
  -4   1  -2   43.61    1.76
   4   1   2   43.44    1.18
  -4   1  -2   44.29    1.21
   4  -1   2   46.41    1.25
  -4  -1  -2   44.90    1.12
   4  -1   2   42.49    1.52
  -4  -1  -2   42.34    1.61
  -4  -1  -2   41.92    2.45
  -4   1  -3  106.20    2.84
   4   1   3  102.79    3.51
   4   1   3  112.79    2.31
   4   1   3  106.54    2.61
  -4   1  -3  107.30    2.34
   4  -1   3  110.73    2.39
  -4  -1  -3  110.06    2.23
   4  -1   3  105.49    2.72
   4  -1   3  105.95    2.70
  -4  -1  -3  109.04    2.76
  -4  -1  -3  104.73    3.46
  -4   1  -4   -0.14    1.22
   4   1   4    2.34    1.65
   4   1   4    0.65    0.95
  -4   1  -4   -0.16    0.61
   4   1   4    0.43    0.61
   4  -1   4    0.67    1.02
  -4  -1  -4   -0.22    1.52
   4  -1   4    0.71    0.72
  -4  -1  -4    0.25    0.53
   4  -1   4   -1.03    1.12
  -4  -1  -4   -0.20    1.08
  -4   1  -5  202.42    4.14
  -4   1  -5  194.75    5.03
   4   1   5  200.71    4.11
   4   1   5  205.27    4.52
   4   1   5  210.82    5.46
  -4  -1  -5  203.51    4.01
  -4  -1  -5  194.99    5.17
   4  -1   5  203.86    4.65
   4  -1   5  200.41    4.77
  -4  -1  -5  206.17    4.64
   4   1   6   14.99    1.42
   4   1   6   15.62    1.50
  -4   1  -6   15.43    1.81
  -4   1  -6   15.60    1.33
   4   1   6   13.04    2.43
   4  -1   6   17.78    1.89
   4  -1   6   16.64    1.67
  -4  -1  -6   13.36    2.05
  -4  -1  -6   16.02    1.66
   4  -1   6   15.67    1.17
  -4  -1  -6   16.21    1.17
  -4   1  -7   29.73    1.63
  -4   1  -7   28.44    2.36
   4   1   7   30.67    1.82
   4   1   7   28.95    2.54
   4   1   7   23.99    2.96
  -4  -1  -7   29.99    2.94
  -4  -1  -7   28.29    1.44
   4  -1   7   31.64    2.77
   4  -1   7   26.15    2.44
   4  -1   7   28.88    2.04
   4   1   8   -1.44    1.27
  -4   1  -8   -2.92    2.30
   4   1   8   -1.69    3.07
  -4   1  -8    1.23    1.08
  -4  -1  -8   -0.25    2.13
   4  -1   8   -4.78    2.34
   4  -1   8   -1.75    1.92
  -4  -1  -8   -0.07    0.87
   4  -1   8   -0.18    1.42
  -4   1  -9   12.73    1.41
  -4   1  -9   10.86    3.16
   4   1   9   16.26    2.31
   4   1   9    9.91    3.71
   4   1   9   12.44    1.92
   4  -1   9   10.35    1.91
   4  -1   9   16.17    3.35
  -4  -1  -9   11.31    2.51
  -4  -1  -9   12.68    1.18
   4  -1   9    7.30    2.40
  -4   1 -10    0.77    1.42
   4   1  10   -1.10    2.44
  -4  -1 -10    1.41    1.43
   4  -1  10    5.72    4.08
   4  -1  10   -1.76    2.81
  -4  -1 -10   -0.82    2.98
   4   2 -10    7.99    1.57
  -4   2  10    5.22    1.60
  -4  -2  10    5.83    2.77
  -4   2   9   32.38    2.03
  -4   2   9   25.98    3.31
  -4   2   9   35.86    3.09
   4   2  -9   32.21    3.52
   4   2  -9   37.25    2.31
  -4  -2   9   34.27    2.89
  -4  -2   9   31.89    3.24
  -4   2   8    3.84    1.62
   4   2  -8   -1.72    2.56
   4   2  -8    0.51    1.34
  -4   2   8    4.17    1.71
  -4   2   8    5.48    2.76
  -4  -2   8    2.45    1.55
  -4  -2   8    0.07    2.09
  -4   2   7   21.93    2.60
   4   2  -7   16.28    1.28
  -4   2   7   14.38    1.34
   4   2  -7   16.68    2.43
  -4  -2   7   19.67    1.97
  -4  -2   7   17.18    1.59
   4   2  -6  103.00    2.71
  -4   2   6  100.12    2.27
   4   2  -6   99.89    3.91
  -4   2   6  104.93    2.85
  -4   2   6  101.86    4.00
  -4  -2   6  104.10    3.54
  -4  -2   6  100.85    2.90
   4   2  -5    6.43    0.95
  -4   2   5    8.99    1.73
   4   2  -5    4.36    1.68
  -4  -2   5    7.78    1.57
  -4  -2   5    6.36    1.14
  -4  -2   5    7.64    2.52
  -4   2   4  480.25    9.59
   4   2  -4  484.50    9.08
   4   2  -4  465.04    9.59
  -4  -2   4  474.72    9.44
  -4  -2   4  463.85   10.19
  -4  -2   4  474.24    9.10
   4   2  -3   61.30    2.66
  -4   2   3   62.13    2.43
   4   2  -3   62.44    1.91
  -4  -2   3   63.95    2.50
  -4  -2   3   62.10    1.96
  -4  -2   3   64.94    3.31
   4   2  -2  357.14    7.77
   4   2  -2  344.38    6.72
   4   2  -2  349.24    7.17
  -4   2   2  341.74    6.92
  -4  -2   2  346.85    7.70
  -4  -2   2  348.31    7.00
  -4  -2   2  346.98    6.72
  -4   2   1    0.14    0.92
   4   2  -1   -0.96    0.73
   4   2  -1    0.35    1.21
   4   2  -1    0.37    1.56
  -4  -2   1    2.22    1.81
  -4  -2   1   -0.32    1.08
  -4  -2   1   -0.62    0.77
   4   2   0  952.82   18.04
   4   2   0  915.58   17.13
   4   2   0  931.92   17.31
  -4  -2   0  946.66   17.47
  -4  -2   0  933.03   17.96
  -4  -2   0  945.06   17.29
   4   2   1   13.79    0.81
  -4   2  -1   16.80    0.90
   4   2   1   14.67    1.84
   4   2   1   13.47    1.37
  -4   2  -1   15.15    1.37
  -4  -2  -1   13.25    1.83
  -4  -2  -1   17.36    1.28
  -4  -2  -1   14.20    1.30
   4   2   2  510.05    9.41
  -4   2  -2  500.20    9.73
  -4   2  -2  505.75    9.48
   4   2   2  517.45   10.50
   4   2   2  511.53    9.64
   4  -2   2  497.71    9.55
   4  -2   2  523.47    9.48
  -4  -2  -2  506.31    9.58
  -4  -2  -2  493.19   10.37
  -4  -2  -2  520.12    9.80
  -4   2  -3   67.03    2.42
   4   2   3   67.10    3.40
   4   2   3   64.70    1.61
  -4   2  -3   65.12    1.76
   4   2   3   63.56    2.08
   4  -2   3   66.27    1.79
  -4  -2  -3   63.65    2.03
   4  -2   3   65.46    2.10
  -4  -2  -3   65.83    1.45
  -4  -2  -3   63.28    3.21
   4   2   4   67.66    2.27
  -4   2  -4   64.97    3.16
   4   2   4   61.50    3.70
  -4   2  -4   63.40    1.89
   4   2   4   66.68    1.71
  -4  -2  -4   64.61    1.51
   4  -2   4   64.94    2.12
   4  -2   4   68.46    1.94
  -4  -2  -4   75.18    3.54
   4  -2   4   65.29    2.37
  -4  -2  -4   68.31    2.26
   4   2   5   77.36    2.51
   4   2   5   76.13    1.97
   4   2   5   73.33    4.21
  -4   2  -5   69.20    3.19
  -4   2  -5   72.42    2.13
  -4  -2  -5   75.10    2.60
   4  -2   5   73.93    2.26
   4  -2   5   74.62    2.83
  -4  -2  -5   73.21    1.71
  -4  -2  -5   77.33    3.91
   4  -2   5   71.14    2.66
   4   2   6   43.34    2.50
   4   2   6   44.40    1.77
  -4   2  -6   47.65    3.29
  -4   2  -6   47.95    1.88
   4   2   6   49.02    4.54
  -4  -2  -6   44.50    3.97
   4  -2   6   44.79    2.10
  -4  -2  -6   43.41    2.61
   4  -2   6   45.86    2.82
   4  -2   6   46.83    2.82
  -4  -2  -6   46.03    1.39
  -4   2  -7   10.36    1.22
  -4   2  -7    6.24    2.35
   4   2   7    9.97    1.15
   4   2   7   10.79    3.08
   4   2   7   10.88    1.75
   4  -2   7   10.38    1.94
  -4  -2  -7    9.49    1.82
  -4  -2  -7    7.93    2.93
   4  -2   7   10.17    2.18
   4  -2   7   11.22    1.47
  -4  -2  -7    9.73    0.83
   4   2   8   54.95    4.44
   4   2   8   47.62    2.34
   4   2   8   36.52    3.67
  -4   2  -8   48.68    4.85
  -4   2  -8   50.14    2.41
   4  -2   8   45.81    4.16
   4  -2   8   53.12    3.71
   4  -2   8   47.13    2.84
  -4  -2  -8   45.41    1.68
  -4   2  -9    6.67    1.51
   4   2   9    4.70    1.79
   4   2   9    6.25    2.20
  -4  -2  -9    3.91    0.95
  -4  -2  -9    5.02    2.48
   4  -2   9    3.99    2.55
   4  -2   9    7.36    3.31
  -4   3   9    4.21    1.35
   4   3  -9    2.24    1.64
  -4   3   9    3.98    1.85
  -4  -3   9    4.54    4.54
  -4  -3   9    2.89    2.69
  -4   3   8    4.37    1.03
   4   3  -8    4.41    3.35
   4   3  -8    3.74    1.43
  -4   3   8    6.81    1.65
  -4   3   8    2.94    3.03
  -4  -3   8    8.70    3.97
  -4  -3   8    3.27    2.32
  -4  -3   8    3.74    2.04
  -4   3   7   33.02    3.37
   4   3  -7   31.91    2.27
   4   3  -7   28.79    2.96
  -4  -3   7   31.97    2.67
  -4  -3   7   32.17    3.52
   4   3  -6   53.23    3.98
  -4   3   6   52.26    4.08
   4   3  -6   55.88    2.31
  -4  -3   6   45.91    3.29
  -4  -3   6   50.76    2.61
  -4  -3   6   51.87    4.74
  -4   3   5    7.39    2.09
   4   3  -5    6.11    1.18
   4   3  -5    6.95    2.10
  -4  -3   5    5.68    1.27
  -4  -3   5    7.66    1.67
  -4  -3   5    7.33    2.70
   4   3  -4    1.10    0.99
   4   3  -4    1.10    1.69
  -4   3   4    4.92    1.69
  -4  -3   4    1.88    2.53
  -4  -3   4    1.53    1.40
  -4  -3   4    2.44    1.48
  -4   3   3  131.01    3.86
   4   3  -3  132.47    3.99
   4   3  -3  137.59    3.21
  -4  -3   3  130.27    3.63
  -4  -3   3  129.80    4.80
  -4  -3   3  136.24    3.21
  -4   3   2   -1.34    1.35
   4   3  -2    0.22    0.88
   4   3  -2   -0.48    1.48
  -4  -3   2    0.15    0.88
  -4  -3   2   -0.28    2.00
  -4  -3   2    1.41    1.27
   4   3  -1   48.33    1.86
   4   3  -1   45.67    4.73
  -4   3   1   47.59    2.40
   4   3  -1   46.67    2.72
  -4  -3   1   49.25    2.19
  -4  -3   1   52.72    3.41
  -4  -3   1   49.16    1.79
   4   3   0   17.92    2.23
   4   3   0   16.13    1.45
  -4  -3   0   18.49    2.23
  -4  -3   0   17.75    1.73
  -4  -3   0   17.80    1.41
  -4   3  -1   20.71    1.71
   4   3   1   23.23    0.99
  -4   3  -1   21.60    1.15
   4   3   1   25.79    2.47
   4   3   1   20.94    1.52
  -4  -3  -1   21.06    2.25
   4   3   2   26.98    2.58
  -4   3  -2   25.15    1.30
   4   3   2   23.83    1.05
   4   3   2   24.68    1.70
  -4   3  -2   26.52    2.05
  -4  -3  -2   22.77    2.35
   4   3   3   41.98    1.37
   4   3   3   40.48    4.04
  -4   3  -3   43.92    1.63
  -4   3  -3   38.27    2.67
   4   3   3   43.61    1.98
  -4  -3  -3   40.28    3.69
   4  -3   3   43.93    1.87
   4  -3   3   43.41    1.67
  -4   3  -4   57.55    3.04
  -4   3  -4   59.00    1.99
   4   3   4   59.58    2.37
   4   3   4   57.41    1.68
   4   3   4   54.00    4.67
   4  -3   4   59.78    2.04
   4  -3   4   60.32    2.49
  -4  -3  -4   56.87    4.24
  -4   3  -5  108.96    2.85
  -4   3  -5  104.03    4.05
   4   3   5  105.41    2.51
   4   3   5  108.47    3.20
   4   3   5  104.49    5.48
  -4  -3  -5  106.26    5.13
   4  -3   5  103.65    2.96
   4  -3   5  109.69    3.46
   4   3   6  204.62    7.38
   4   3   6  206.84    4.94
  -4   3  -6  213.02    4.63
  -4   3  -6  193.82    5.85
   4   3   6  204.31    4.31
   4  -3   6  215.81    5.25
   4  -3   6  200.58    4.89
  -4  -3  -6  201.31    9.61
   4  -3   6  206.95    4.77
   4   3   7   10.70    1.20
  -4   3  -7   10.03    3.03
  -4   3  -7   10.62    1.45
   4   3   7    8.49    1.83
  -4  -3  -7    6.34    3.15
   4  -3   7    6.16    3.37
   4  -3   7    9.10    2.53
   4  -3   7    9.04    2.11
   4  -3   7   12.71    1.70
   4   3   8    6.88    2.04
   4   3   8    6.34    1.56
  -4   3  -8   10.10    1.58
   4  -3   8    6.90    1.99
   4  -3   8   10.08    4.19
   4  -3   8    8.27    2.38
   4   4  -7   22.99    1.93
  -4   4   7   22.50    3.32
  -4  -4   7   19.42    2.15
  -4  -4   7   22.59    2.63
  -4  -4   7   19.51    4.03
   4   4  -6   21.37    1.78
  -4   4   6   24.29    3.31
   4   4  -6   17.61    3.53
  -4  -4   6   25.52    2.41
  -4  -4   6   16.58    3.58
  -4  -4   6   21.01    1.97
  -4   4   5   22.79    2.82
   4   4  -5   25.40    2.30
   4   4  -5   20.37    2.89
  -4  -4   5   23.00    1.78
  -4  -4   5   23.01    3.46
  -4  -4   5   24.34    2.21
  -4   4   4   11.82    2.33
   4   4  -4   11.24    2.40
   4   4  -4   11.51    1.35
  -4  -4   4    9.47    1.82
  -4  -4   4   11.29    2.97
  -4  -4   4    9.91    1.35
   4   4  -3  157.71    3.80
  -4   4   3  148.13    4.84
   4   4  -3  146.68    4.78
  -4  -4   3  156.28    4.18
  -4  -4   3  152.04    5.57
  -4  -4   3  151.24    3.70
  -4   4   2   -5.10    1.77
   4   4  -2    1.13    1.16
   4   4  -2   -0.08    1.81
   4   4  -2    1.77    2.81
  -4  -4   2    1.14    1.09
  -4  -4   2    1.35    1.38
  -4  -4   2   -1.69    2.58
   4   4  -1  111.43    3.98
  -4   4   1  114.73    3.98
   4   4  -1  122.41    5.36
   4   4  -1  118.71    3.11
  -4  -4   1  120.13    4.97
   4   4   0   15.09    2.81
  -4   4   0   17.83    1.93
   4   4   0   15.84    1.34
  -4  -4   0   16.80    2.62
  -4   4  -1   -0.66    0.85
   4   4   1   -1.19    1.09
   4   4   1    4.75    2.70
  -4   4  -1    0.87    1.40
  -4  -4  -1   -0.80    2.55
   4   4   2   17.00    3.13
   4   4   2   20.47    1.94
  -4   4  -2   16.04    2.14
  -4   4  -2   18.25    1.54
  -4  -4  -2   15.97    2.92
   4   4   3   19.07    1.28
   4   4   3   19.10    1.51
  -4   4  -3   17.59    1.29
   4   4   3   19.08    3.39
  -4   4  -3   17.02    1.87
  -4  -4  -3   20.10    3.22
   4   4   4   13.21    3.66
  -4   4  -4   17.61    1.84
   4   4   4   16.74    1.38
  -4   4  -4   16.26    2.17
   4   4   4   18.39    1.58
  -4  -4  -4   16.47    4.89
   4   4   5   -0.31    1.47
  -4   4  -5    0.20    2.32
  -4   4  -5   -0.49    1.23
   4   4   5   -0.74    0.95
   4   4   5    0.89    3.36
   4  -4   5   -0.06    1.35
  -4  -4  -5    2.43    3.10
   4  -4   5   -0.80    1.68
   4   4   6   -0.78    1.07
   4   4   6   -2.01    1.63
  -4   4  -6    1.11    1.34
  -4   4  -6    0.39    2.84
   4  -4   6   -0.54    1.53
   4  -4   6    1.89    2.04
  -4  -4  -6   -4.28    3.30
   4   5  -4    5.77    3.35
  -4   5   4   -6.87    3.04
   4   5  -4    2.84    1.60
  -4  -5   4    2.47    3.48
   4   5  -3   -1.84    3.02
   4   5  -3   -0.62    1.44
  -4   5   3    8.27    2.97
  -4  -5   3    2.75    3.23
  -4   5   2   11.82    2.86
   4   5  -2    2.76    3.75
   4   5  -2    8.02    1.51
   4   5  -2    9.53    2.81
  -4  -5   2    2.26    3.18
   4   5  -1   31.17    4.16
   4   5  -1   30.06    3.18
  -4   5   1   33.37    3.73
   4   5  -1   33.90    2.43
  -4  -5   1   30.66    3.61
   4   5   0   14.84    1.57
  -4   5   0   21.74    2.67
  -4   5   0   17.23    1.95
   4   5   0   21.35    3.90
  -4  -5   0   15.59    3.36
   4   5   1    4.17    3.42
  -4   5  -1    3.28    1.17
   4   5   1   -0.81    1.37
   4   5   1    0.38    0.93
  -4   5  -1    0.70    1.90
   4   5   2    1.19    0.87
  -4   5  -2   -0.79    1.16
  -4   5  -2    0.18    2.13
   4   5   2   -0.58    1.40
   4   5   2    7.49    3.56
  -4  -5  -2    4.23    3.30
   4   5   3   11.87    1.62
  -4   5  -3   12.55    2.68
   4   5   3   10.93    1.09
  -4   5  -3   11.02    1.55
  -4  -5  -3    9.03    3.67
   5   0 -11    3.49    3.15
   5   0 -11   -1.35    1.35
  -5   0  11    1.81    2.65
   5   0 -10   10.28    1.19
  -5   0  10   12.38    2.37
   5   0 -10   17.93    2.80
  -5   0  10   11.15    1.98
  -5   0   9   -0.02    1.48
  -5   0   9    0.74    1.95
   5   0  -9    0.70    0.94
   5   0  -9    0.27    2.31
   5   0  -8  497.19   10.58
  -5   0   8  521.34   10.53
  -5   0   8  511.88    9.96
   5   0  -8  519.13    9.73
   5   0  -7   -0.35    0.74
  -5   0   7   -0.41    1.48
   5   0  -7   -1.29    1.53
  -5   0   7    0.78    0.97
   5   0  -6  366.27    7.63
   5   0  -6  365.23    6.99
  -5   0   6  370.12    7.60
  -5   0   6  366.87    7.15
  -5   0   5   -1.99    1.19
  -5   0   5   -2.25    0.74
   5   0  -5   -0.71    0.59
   5   0  -5   -0.09    1.25
  -5   0   4 1194.20   21.64
  -5   0   4 1174.21   21.36
   5   0  -4 1122.19   21.29
  -5   0   3   -1.60    1.02
  -5   0   3   -0.54    0.62
   5   0  -3    0.47    0.54
   5   0  -3   -1.06    0.38
  -5   0   2 2739.17   50.81
   5   0  -2 2782.48   50.90
  -5   0   2 2840.64   50.94
   5   0  -2 2819.24   50.94
  -5   0   1   -0.09    0.62
   5   0  -1   -0.39    0.35
  -5   0   1   -0.27    0.34
  -5   0   1    0.45    1.53
   5   0  -1   -0.27    0.60
  -5   0   0 1146.32   20.63
   5   0   0 1120.13   20.64
   5   0   0 1095.83   20.21
  -5   0   0 1068.03   20.20
   5   0   0 1109.29   20.31
  -5   0   0 1114.13   20.33
   5   0   1   -1.36    1.21
   5   0   1   -0.26    0.73
  -5   0  -1    0.14    0.43
   5   0   1   -0.31    0.45
  -5   0  -1   -0.68    0.73
  -5   0  -1    0.01    1.18
   5   0   2   10.54    0.85
   5   0   2   10.79    1.41
  -5   0  -2    8.07    1.27
  -5   0  -2   11.11    0.80
  -5   0  -2   10.74    0.98
   5   0   2    9.59    0.90
   5   0   3   -1.50    1.32
  -5   0  -3   -1.44    0.98
   5   0   3   -0.45    0.59
   5   0   3    0.39    0.85
  -5   0  -3    0.71    1.27
  -5   0  -3    0.00    0.52
  -5   0  -4   35.58    2.16
   5   0   4   41.78    2.62
   5   0   4   38.62    1.43
  -5   0  -4   37.65    1.33
   5   0   4   38.06    1.90
  -5   0  -4   39.85    2.37
  -5   0  -5    1.00    2.13
   5   0   5    0.04    1.14
   5   0   5   -0.29    0.93
  -5   0  -5    0.34    0.68
   5   0   5   -0.89    1.62
  -5   0  -6   74.48    3.28
   5   0   6   72.91    2.24
   5   0   6   74.23    3.69
  -5   0  -6   73.33    2.05
   5   0   6   70.49    2.78
   5   0   7    0.54    1.14
   5   0   7   -1.01    1.60
  -5   0  -7   -0.30    0.88
   5   0   7   -0.09    2.41
  -5   0  -7   -1.38    1.86
  -5   0  -8    9.32    1.12
   5   0   8    9.82    1.40
   5   0   8    4.08    3.04
  -5   0  -8    7.43    2.39
   5   0   8   11.20    1.98
   5   0   9    2.33    1.63
  -5   0  -9   -2.08    2.64
   5   0   9    2.65    3.76
  -5   0  -9    0.93    1.13
   5   0   9   -0.82    2.20
   5   0  10    4.82    2.85
  -5   0 -10    4.12    2.99
  -5   0 -10    9.01    1.39
   5   0  10    8.74    4.44
   5   1 -11   15.83    3.79
   5   1 -10    1.38    1.23
   5   1 -10    2.13    2.85
  -5   1  10   -0.38    2.12
  -5  -1  10    0.55    1.91
  -5  -1  10    2.91    2.52
  -5   1   9  152.97    4.61
   5   1  -9  155.61    3.68
   5   1  -9  152.30    5.43
  -5   1   9  149.70    3.77
  -5   1   9  143.45    5.84
  -5  -1   9  161.52    5.05
  -5  -1   9  150.47    4.19
   5   1  -8   44.05    3.76
  -5   1   8   44.34    2.01
   5   1  -8   48.71    1.97
  -5   1   8   45.99    2.98
  -5  -1   8   48.14    3.30
  -5  -1   8   45.94    2.41
  -5   1   7   -0.71    0.88
   5   1  -7   -1.77    0.89
  -5   1   7   -1.09    1.43
   5   1  -7   -2.40    1.73
  -5  -1   7    0.03    1.17
  -5  -1   7   -0.03    1.56
   5   1  -6   83.51    2.23
  -5   1   6   77.69    2.10
  -5   1   6   82.37    2.73
  -5  -1   6   78.48    2.41
  -5  -1   6   82.31    3.07
  -5   1   5   74.30    1.88
   5   1  -5   72.91    3.01
   5   1  -5   77.02    2.08
  -5   1   5   78.09    2.44
  -5  -1   5   79.06    2.80
  -5  -1   5   76.26    2.20
   5   1  -4   44.74    1.55
  -5   1   4   44.74    1.27
   5   1  -4   43.88    2.49
  -5   1   4   43.49    1.87
  -5  -1   4   46.42    1.69
  -5  -1   4   41.64    2.29
  -5   1   3 1203.04   22.25
  -5   1   3 1219.44   22.31
   5   1  -3 1209.04   22.48
   5   1  -3 1223.28   22.81
  -5  -1   3 1250.37   22.79
  -5  -1   3 1226.92   22.51
  -5  -1   3 1237.76   23.31
   5   1  -2 1261.45   23.52
  -5  -1   2 1273.04   24.17
  -5  -1   2 1298.52   23.80
  -5  -1   2 1299.02   23.54
   5   1  -1   45.60    1.14
  -5   1   1   44.13    1.03
  -5   1   1   44.23    1.24
   5   1  -1   43.70    1.48
   5   1  -1   46.09    2.83
  -5  -1   1   44.16    2.15
  -5  -1   1   49.21    2.94
  -5  -1   1   47.96    1.54
  -5   1   0   51.01    1.45
   5   1   0   47.23    1.19
   5   1   0   48.00    1.58
  -5   1   0   48.23    1.15
   5   1   0   44.74    2.82
  -5  -1   0   48.00    1.17
   5  -1   0   48.93    1.29
   5  -1   0   48.88    1.14
  -5  -1   0   48.24    1.61
  -5  -1   0   47.74    2.66
   5   1   1  358.60    7.47
   5   1   1  354.43    6.60
  -5   1  -1  356.70    6.79
  -5   1  -1  349.76    6.60
   5   1   1  357.42    6.81
  -5  -1  -1  344.99    7.42
  -5  -1  -1  358.91    6.82
   5  -1   1  356.66    6.60
  -5  -1  -1  349.14    6.58
   5  -1   1  350.41    6.72
   5   1   2   48.77    1.78
  -5   1  -2   47.38    1.83
  -5   1  -2   48.14    1.30
   5   1   2   42.83    2.70
   5   1   2   51.17    1.31
   5  -1   2   47.43    1.72
   5  -1   2   49.50    1.69
  -5  -1  -2   47.61    1.24
   5  -1   2   50.43    1.36
  -5  -1  -2   46.24    2.69
  -5  -1  -2   48.44    1.80
   5   1   3  170.05    3.79
   5   1   3  167.87    3.44
  -5   1  -3  169.04    3.45
  -5   1  -3  171.50    3.94
   5   1   3  179.06    4.67
  -5  -1  -3  171.57    4.51
  -5  -1  -3  171.29    3.83
  -5  -1  -3  167.59    3.37
   5  -1   3  173.55    3.83
   5  -1   3  166.92    3.76
   5  -1   3  176.77    3.51
   5   1   4   61.31    1.69
  -5   1  -4   60.07    1.67
  -5   1  -4   60.63    2.52
   5   1   4   57.68    3.70
   5   1   4   58.98    2.10
  -5  -1  -4   59.54    2.33
  -5  -1  -4   60.93    3.10
   5  -1   4   60.00    2.44
   5  -1   4   60.57    1.78
   5  -1   4   60.94    2.23
  -5  -1  -4   58.56    1.55
  -5   1  -5   -1.36    1.34
  -5   1  -5    0.47    0.69
   5   1   5    0.18    1.21
   5   1   5    2.43    2.02
   5   1   5   -1.34    1.06
  -5  -1  -5    1.94    1.35
   5  -1   5   -1.23    1.47
   5  -1   5   -1.04    1.20
  -5  -1  -5    1.56    0.64
   5  -1   5   -0.56    0.85
  -5  -1  -5    0.21    1.67
   5   1   6   12.19    1.50
  -5   1  -6    8.12    1.77
   5   1   6   11.77    1.06
   5   1   6   11.46    2.45
  -5   1  -6   11.34    0.97
   5  -1   6   11.08    1.59
   5  -1   6   11.42    1.99
  -5  -1  -6   12.28    0.89
   5  -1   6   11.59    1.17
  -5  -1  -6    8.04    2.11
  -5  -1  -6   10.03    1.74
  -5   1  -7    2.50    0.95
   5   1   7    2.01    1.57
   5   1   7    2.84    2.78
   5   1   7    0.61    1.10
  -5   1  -7    1.52    2.02
   5  -1   7    3.18    1.23
   5  -1   7    6.04    1.65
  -5  -1  -7    3.45    0.89
  -5  -1  -7    1.84    1.88
   5  -1   7    3.62    2.28
  -5   1  -8    1.13    1.12
   5   1   8    0.55    1.36
   5   1   8    2.42    3.29
  -5   1  -8    3.52    2.44
   5   1   8    0.12    1.86
  -5  -1  -8    1.06    0.96
   5  -1   8    5.14    2.82
  -5  -1  -8    2.91    2.18
   5  -1   8    0.80    1.50
   5  -1   8    4.44    2.00
   5   1   9    5.80    2.28
   5   1   9   14.40    3.77
  -5   1  -9    3.28    2.91
  -5   1  -9    5.64    1.39
   5   1   9    6.66    1.84
  -5  -1  -9    3.49    2.59
  -5  -1  -9    7.45    1.16
   5  -1   9    5.80    1.68
   5  -1   9    3.29    3.41
   5  -1   9   10.20    2.46
  -5   2  10    3.43    1.60
   5   2 -10    3.38    1.56
  -5  -2  10    4.40    2.77
  -5   2   9   10.17    1.97
  -5   2   9   14.44    3.06
  -5   2   9   13.04    1.37
   5   2  -9   14.56    1.51
   5   2  -9   13.78    3.35
  -5  -2   9   12.89    2.63
  -5  -2   9    8.34    2.20
  -5   2   8   51.25    3.55
   5   2  -8   44.84    2.29
   5   2  -8   47.51    4.36
  -5   2   8   47.40    2.87
  -5  -2   8   43.51    3.61
  -5  -2   8   45.78    2.75
   5   2  -7    0.39    2.14
   5   2  -7    0.44    1.14
  -5   2   7   -0.17    2.30
  -5   2   7    3.43    1.40
  -5   2   7   -0.37    0.82
  -5  -2   7    1.79    1.83
  -5  -2   7   -1.31    1.33
  -5   2   6   54.57    3.42
   5   2  -6   57.73    2.10
  -5   2   6   57.15    2.27
   5   2  -6   57.88    3.42
  -5  -2   6   56.76    2.36
  -5  -2   6   51.14    3.06
   5   2  -5   -1.08    1.61
  -5   2   5    2.17    1.60
   5   2  -5   -0.77    0.83
  -5  -2   5   -1.14    1.07
  -5  -2   5   -1.07    2.53
  -5  -2   5    0.74    1.45
  -5   2   4   16.08    1.65
   5   2  -4   12.54    1.06
   5   2  -4    9.27    1.59
  -5  -2   4   13.27    1.53
  -5  -2   4   16.00    2.36
  -5  -2   4   15.31    1.59
   5   2  -3  337.99    7.18
   5   2  -3  340.88    6.61
  -5   2   3  339.69    6.90
  -5  -2   3  339.17    6.64
  -5  -2   3  338.75    6.99
  -5  -2   3  323.14    7.66
   5   2  -2  112.01    4.15
   5   2  -2  110.86    2.66
   5   2  -2  113.98    3.38
  -5   2   2  110.16    2.88
  -5  -2   2  106.59    4.19
  -5  -2   2  110.72    3.18
  -5  -2   2  112.56    2.71
  -5   2   1   87.87    2.34
   5   2  -1   88.88    3.65
   5   2  -1   90.67    2.30
  -5  -2   1   88.25    2.35
  -5  -2   1   89.96    2.82
  -5  -2   1   86.24    3.71
   5   2   0   19.08    0.90
  -5   2   0   19.34    1.14
   5   2   0   19.21    1.41
  -5   2   0   19.15    0.83
   5   2   0   18.78    1.99
  -5  -2   0   19.17    1.44
  -5  -2   0   18.47    2.01
  -5  -2   0   21.24    1.46
  -5   2  -1  302.86    6.00
   5   2   1  304.66    5.78
  -5   2  -1  307.99    5.79
   5   2   1  305.30    6.05
   5   2   1  311.13    7.07
  -5  -2  -1  301.00    6.99
  -5  -2  -1  306.12    6.01
  -5  -2  -1  310.56    6.32
  -5   2  -2  325.02    6.58
  -5   2  -2  329.89    6.29
   5   2   2  333.18    6.24
   5   2   2  332.05    6.52
   5  -2   2  330.59    6.39
   5  -2   2  337.45    6.27
  -5  -2  -2  326.63    6.47
  -5  -2  -2  322.71    7.37
   5   2   3   -1.03    1.79
  -5   2  -3   -0.12    1.18
   5   2   3    0.94    0.60
   5   2   3    0.27    1.00
  -5   2  -3    0.56    0.67
  -5  -2  -3   -0.18    0.97
  -5  -2  -3    0.64    0.49
   5  -2   3   -0.19    0.90
   5  -2   3    0.52    0.73
  -5  -2  -3   -1.27    1.74
   5   2   4   42.66    2.06
  -5   2  -4   41.68    2.47
   5   2   4   36.08    3.63
   5   2   4   38.81    1.40
  -5   2  -4   38.55    1.54
  -5  -2  -4   39.49    3.44
  -5  -2  -4   38.70    1.20
  -5  -2  -4   38.86    2.10
   5  -2   4   41.12    1.67
   5  -2   4   40.59    2.09
  -5   2  -5   21.59    1.47
  -5   2  -5   30.73    2.82
   5   2   5   23.55    2.87
   5   2   5   20.84    1.38
   5   2   5   21.91    2.12
  -5  -2  -5   23.72    2.25
  -5  -2  -5   19.65    2.49
   5  -2   5   20.36    1.67
  -5  -2  -5   22.16    1.09
   5  -2   5   22.08    2.18
   5  -2   5   22.07    2.29
  -5   2  -6    6.32    1.93
   5   2   6    5.54    2.98
   5   2   6    6.99    1.50
   5   2   6    6.04    1.01
  -5   2  -6    5.57    1.02
   5  -2   6    6.30    1.61
  -5  -2  -6    6.95    0.73
  -5  -2  -6    5.22    1.70
  -5  -2  -6    3.63    2.38
   5  -2   6    5.14    1.81
   5  -2   6    5.35    1.20
   5   2   7  160.95    6.81
  -5   2  -7  156.04    3.75
   5   2   7  154.66    4.32
  -5   2  -7  145.34    5.28
   5   2   7  149.92    3.59
   5  -2   7  148.39    3.92
   5  -2   7  159.47    5.27
  -5  -2  -7  156.47    5.99
   5  -2   7  149.95    4.83
  -5  -2  -7  148.94    3.25
  -5   2  -8   23.55    3.16
   5   2   8   26.75    2.27
  -5   2  -8   30.27    2.23
   5   2   8   20.71    3.68
   5   2   8   22.20    2.29
   5  -2   8   24.05    2.50
   5  -2   8   27.54    2.86
   5  -2   8   27.52    3.04
  -5  -2  -8   23.27    2.37
  -5  -2  -8   24.69    1.55
   5   2   9   -4.23    2.23
   5   2   9    2.41    1.59
  -5   2  -9   -0.50    1.43
   5  -2   9   -3.48    3.41
  -5  -2  -9    0.10    0.98
   5  -2   9    2.20    2.54
  -5  -2  -9    2.59    2.63
  -5   3   9    3.33    1.90
  -5   3   9    1.45    1.31
   5   3  -9    3.26    1.69
  -5  -3   9   -2.41    2.65
  -5  -3   9    7.57    4.31
   5   3  -8   13.54    1.60
  -5   3   8   16.49    1.65
  -5   3   8   16.05    3.27
   5   3  -8   15.27    3.02
  -5  -3   8   18.31    4.06
  -5  -3   8   11.82    2.15
  -5  -3   8   17.30    2.57
   5   3  -7   11.22    1.47
  -5   3   7   14.31    3.04
   5   3  -7    8.43    2.75
  -5  -3   7   11.33    1.77
  -5  -3   7   12.70    3.63
  -5  -3   7   11.29    2.19
   5   3  -6    0.74    2.36
  -5   3   6    1.81    2.28
   5   3  -6   -0.53    1.50
  -5  -3   6   -0.14    1.44
  -5  -3   6   -0.19    3.00
  -5  -3   6    1.44    1.81
   5   3  -5    9.87    1.25
  -5   3   5   11.63    2.17
   5   3  -5    8.54    2.15
  -5  -3   5    8.01    1.81
  -5  -3   5    8.04    1.38
  -5  -3   5   10.45    3.09
  -5   3   4   62.58    3.08
   5   3  -4   63.12    2.25
   5   3  -4   56.40    3.39
  -5  -3   4   60.64    2.98
  -5  -3   4   58.93    2.41
  -5  -3   4   59.95    4.71
   5   3  -3   13.90    1.20
   5   3  -3   17.71    1.92
  -5   3   3   16.68    1.69
  -5  -3   3   16.29    1.28
  -5  -3   3   15.65    1.68
  -5  -3   3   14.74    2.49
  -5   3   2  249.41    5.64
   5   3  -2  257.14    5.28
   5   3  -2  259.05    6.85
  -5  -3   2  257.15    5.63
  -5  -3   2  250.75    6.68
  -5  -3   2  256.31    5.25
   5   3  -1   94.49    3.45
   5   3  -1   93.79    2.57
  -5   3   1   93.89    2.92
   5   3  -1   96.97    4.35
  -5  -3   1   95.69    2.53
  -5  -3   1   94.12    4.11
  -5  -3   1   95.01    2.94
   5   3   0   92.21    4.30
   5   3   0   96.40    2.13
   5   3   0   94.67    2.58
  -5  -3   0   94.14    2.52
  -5  -3   0   95.64    2.88
  -5  -3   0  103.53    4.30
   5   3   1   17.40    1.02
  -5   3  -1   17.51    1.73
   5   3   1   17.71    1.61
   5   3   1   16.25    2.47
  -5   3  -1   17.79    1.12
  -5  -3  -1   19.91    2.48
  -5  -3  -1   17.00    1.53
  -5  -3  -1   19.43    1.40
  -5   3  -2   11.46    1.18
   5   3   2   12.66    1.00
  -5   3  -2   15.24    1.42
   5   3   2   13.97    1.23
   5   3   2   17.39    2.59
  -5  -3  -2   14.29    2.50
  -5   3  -3    0.18    0.79
   5   3   3   -1.14    2.40
   5   3   3    0.31    0.64
   5   3   3    0.50    1.13
  -5   3  -3    1.35    1.68
   5  -3   3   -0.42    1.04
  -5  -3  -3    1.33    2.15
   5  -3   3    0.68    0.83
   5   3   4    8.65    0.92
  -5   3  -4    6.21    1.81
  -5   3  -4    9.21    1.03
   5   3   4   12.94    3.21
   5   3   4    7.43    1.34
   5  -3   4    7.40    1.07
   5  -3   4    9.02    1.33
  -5  -3  -4    7.34    2.81
  -5   3  -5   84.47    2.51
  -5   3  -5   84.12    3.85
   5   3   5   81.46    2.23
   5   3   5   76.29    5.65
   5   3   5   87.98    3.00
  -5  -3  -5   82.62    5.12
   5  -3   5   85.29    3.22
   5  -3   5   83.37    2.69
   5   3   6  161.52    4.29
  -5   3  -6  149.69    5.28
   5   3   6  153.51    6.94
   5   3   6  157.54    3.56
  -5   3  -6  164.57    3.85
   5  -3   6  153.05    4.02
   5  -3   6  165.60    4.59
  -5  -3  -6  151.38    6.04
  -5   3  -7    7.41    2.88
   5   3   7    6.76    1.30
  -5   3  -7    7.56    1.45
   5  -3   7    5.31    2.11
   5  -3   7    7.13    1.62
   5  -3   7    5.01    2.08
  -5  -3  -7    9.76    3.50
   5   3   8   -1.94    1.55
   5   3   8   -2.37    1.97
  -5   3  -8    0.26    1.54
   5  -3   8   -0.96    2.33
   5  -3   8    6.44    1.96
   5  -3   8   -4.01    2.63
  -5   4   7    4.66    2.96
   5   4  -7    2.05    1.73
  -5  -4   7    1.89    2.35
  -5  -4   7    5.40    2.06
  -5  -4   7   11.12    4.19
   5   4  -6    6.40    1.68
   5   4  -6    4.75    3.34
  -5   4   6   12.70    2.99
  -5  -4   6    8.76    3.75
  -5  -4   6    5.10    1.88
   5   4  -5   10.71    2.95
  -5   4   5   18.42    2.69
   5   4  -5   16.64    1.65
  -5  -4   5   15.00    2.12
  -5  -4   5   15.43    3.43
  -5  -4   5   17.13    1.76
  -5   4   4    9.79    2.20
   5   4  -4    7.25    2.61
  -5  -4   4   11.43    2.98
  -5  -4   4   12.78    2.00
  -5  -4   4    8.00    1.40
   5   4  -3  178.61    5.41
   5   4  -3  179.48    4.29
  -5   4   3  177.96    5.17
  -5  -4   3  178.89    6.26
  -5  -4   3  181.21    4.70
   5   4  -2   11.44    2.13
  -5   4   2   12.62    2.09
   5   4  -2    8.16    1.37
   5   4  -2   13.37    3.11
  -5  -4   2   10.84    1.29
  -5  -4   2   12.86    1.64
  -5  -4   2   12.29    2.81
   5   4  -1   29.90    2.00
   5   4  -1   26.27    3.45
  -5   4   1   26.13    2.14
   5   4  -1   21.89    2.28
  -5  -4   1   25.91    3.03
   5   4   0   21.75    1.99
   5   4   0   28.28    3.25
   5   4   0   24.62    1.24
  -5  -4   0   26.11    3.15
   5   4   1    2.61    0.70
  -5   4  -1    3.61    1.38
  -5   4  -1    2.64    0.88
   5   4   1    5.43    3.19
   5   4   1    3.46    1.22
  -5  -4  -1   -0.06    2.53
   5   4   2   -0.13    0.69
   5   4   2    1.18    1.23
   5   4   2    0.17    3.14
  -5   4  -2    1.69    0.95
  -5   4  -2    2.32    1.52
  -5  -4  -2    1.26    2.64
   5   4   3   86.32    2.24
  -5   4  -3   90.97    2.57
   5   4   3   92.04    6.19
  -5   4  -3   87.54    3.52
   5   4   3   89.72    2.96
  -5  -4  -3   95.40    5.45
  -5   4  -4   14.64    2.20
   5   4   4   12.19    3.72
   5   4   4   10.61    1.02
   5   4   4   13.99    1.61
  -5   4  -4   11.40    1.26
  -5  -4  -4   12.07    3.44
  -5   4  -5   19.78    2.04
  -5   4  -5   13.70    2.71
   5   4   5   17.58    1.73
   5   4   5   15.02    1.80
   5  -4   5   14.52    1.89
   5  -4   5   17.29    1.53
  -5  -4  -5   17.30    3.79
  -5   4  -6    2.07    1.38
  -5   4  -6   -3.22    2.30
   5   4   6   -1.39    1.19
   5  -4   6    0.19    2.07
  -5  -4  -6    3.67    3.51
   5  -4   6    4.90    1.63
  -5   5   3    3.07    2.81
   5   5  -3    1.09    1.48
   5   5  -3   -0.38    3.44
  -5  -5   3    2.85    3.42
  -5   5   2    9.52    2.87
   5   5  -2   11.65    1.61
   5   5  -2   11.06    3.10
   5   5  -2   11.89    4.08
  -5  -5   2   10.38    3.51
   5   5  -1    3.36    3.85
  -5   5   1    5.00    2.53
   5   5  -1    8.29    1.62
  -5  -5   1    1.67    3.28
   5   5   0    1.04    3.68
   5   5   0    0.18    1.49
   5   5   0    0.36    0.99
  -5  -5   0   -3.02    4.34
   5   5   1   -2.09    3.59
  -5   5  -1    5.05    1.99
   5   5   1    3.38    1.51
   5   5   1    4.28    1.01
  -5   5  -1    8.32    1.22
  -5  -5  -1    6.28    3.35
   5   5   2   11.27    1.62
  -5   5  -2    6.16    2.34
   5   5   2   16.23    1.64
  -5   5  -2   15.28    1.40
  -5  -5  -2   16.56    3.71
   6   0 -11   -0.49    3.13
   6   0 -11   -0.52    1.19
  -6   0  11    0.14    2.64
   6   0 -10   41.89    2.03
  -6   0  10   49.87    3.92
   6   0 -10   49.41    4.32
  -6   0  10   44.62    3.08
   6   0  -9    3.66    2.28
  -6   0   9    0.00    1.46
  -6   0   9    2.19    2.04
   6   0  -9   -0.51    0.92
  -6   0   8  204.66    4.57
   6   0  -8  200.34    4.21
   6   0  -8  194.02    5.40
  -6   0   8  202.03    5.31
   6   0  -7    0.57    0.74
  -6   0   7   -0.46    1.48
  -6   0   7    0.97    1.06
   6   0  -7   -0.62    1.59
   6   0  -6  209.65    4.17
  -6   0   6  202.91    4.36
   6   0  -6  203.35    4.95
  -6   0   6  212.44    4.90
  -6   0   5   -1.33    1.22
  -6   0   5    0.07    0.78
   6   0  -5   -0.16    0.64
   6   0  -4  519.31    9.59
   6   0  -4  509.04    9.48
  -6   0   4  510.26    9.66
  -6   0   4  517.23   10.02
   6   0  -3   -0.73    0.41
   6   0  -3   -0.43    0.61
  -6   0   3   -0.82    0.68
  -6   0   3   -0.50    1.11
   6   0  -2  545.69   10.24
   6   0  -2  547.42   10.13
  -6   0   2  557.47   10.29
  -6   0   2  555.72   10.14
  -6   0   1    0.34    0.38
  -6   0   1   -0.35    0.70
   6   0  -1    0.63    0.66
   6   0  -1   -0.52    0.41
  -6   0   1   -0.93    1.42
   6   0   0 4294.07   78.52
  -6   0   0 4277.01   78.70
  -6   0   0 4366.08   78.58
   6   0   0 4296.60   78.71
  -6   0   0 4289.85   78.68
   6   0   0 4366.12   78.68
  -6   0  -1    0.56    1.29
  -6   0  -1   -1.34    0.47
   6   0   1    3.06    1.38
   6   0   1   -0.58    0.82
   6   0   1   -0.72    0.49
  -6   0  -1   -1.28    0.79
   6   0   2  114.24    2.46
  -6   0  -2  119.46    3.23
  -6   0  -2  113.35    2.86
   6   0   2  121.65    3.34
  -6   0  -2  113.25    2.43
  -6   0  -3    0.89    1.05
   6   0   3   -1.53    0.96
   6   0   3   -0.49    1.47
   6   0   3    0.02    0.61
  -6   0  -3    0.16    0.56
  -6   0  -3   -1.20    1.32
  -6   0  -4  377.26    7.92
   6   0   4  385.79    7.32
   6   0   4  374.90    7.59
  -6   0  -4  379.06    7.72
   6   0   4  388.72    8.07
  -6   0  -4  383.25    7.26
  -6   0  -5    1.59    1.45
   6   0   5    0.16    1.14
   6   0   5    0.04    0.80
  -6   0  -5   -0.82    1.64
   6   0   5   -0.75    1.77
  -6   0  -5   -1.08    0.66
  -6   0  -6   23.70    2.03
   6   0   6   21.08    1.76
   6   0   6   23.17    2.44
  -6   0  -6   20.52    1.41
   6   0   6   23.60    1.71
  -6   0  -7    0.07    0.87
   6   0   7    0.61    1.12
  -6   0  -7    1.62    1.93
   6   0   7    0.70    2.62
   6   0   7    1.64    1.63
  -6   0  -8    5.58    2.51
  -6   0  -8    5.39    1.10
   6   0   8    4.50    1.51
   6   0   8    5.84    2.10
   6   0   8    4.07    3.08
   6   0   9   -0.66    2.46
  -6   0  -9    3.62    3.08
  -6   0  -9    2.75    1.24
   6   0   9   -4.16    3.78
   6   1 -10    7.85    3.15
  -6   1  10    7.70    2.23
   6   1 -10    7.21    1.35
  -6  -1  10    7.20    1.84
  -6  -1  10    8.71    2.60
  -6   1   9   20.19    2.21
   6   1  -9   19.42    1.44
  -6   1   9   15.97    1.50
   6   1  -9   21.56    2.86
  -6   1   9   14.77    3.08
  -6  -1   9   17.43    1.80
  -6  -1   9   21.60    2.50
  -6   1   8   95.99    2.74
   6   1  -8  100.82    2.74
   6   1  -8   98.41    4.49
  -6   1   8   97.72    3.67
  -6  -1   8  106.01    4.03
  -6  -1   8   96.68    3.10
  -6   1   7   13.58    1.11
  -6   1   7   11.77    1.63
   6   1  -7   14.89    2.05
   6   1  -7   12.65    1.14
  -6  -1   7   14.23    1.86
  -6  -1   7   11.35    1.31
   6   1  -6   29.29    2.92
   6   1  -6   33.79    1.58
  -6   1   6   31.54    2.23
  -6   1   6   28.77    1.42
  -6  -1   6   33.23    2.60
  -6  -1   6   31.44    1.80
  -6   1   5   18.25    1.89
  -6   1   5   13.27    1.15
   6   1  -5   14.03    1.25
   6   1  -5   15.40    1.72
  -6  -1   5   15.43    1.55
  -6  -1   5   15.23    1.56
   6   1  -4  296.26    5.79
  -6   1   4  292.59    5.61
   6   1  -4  289.99    6.37
  -6   1   4  292.76    5.94
  -6  -1   4  293.91    5.84
  -6  -1   4  296.62    6.29
  -6   1   3    3.86    0.39
  -6   1   3    4.38    0.61
   6   1  -3    3.92    0.80
  -6  -1   3    2.09    2.12
  -6  -1   3    4.07    0.87
  -6  -1   3    3.91    1.27
  -6   1   2 3176.66   57.30
   6   1  -2 3108.10   57.32
   6   1  -2 3143.73   57.28
  -6   1   2 3143.49   57.18
  -6  -1   2 3114.74   57.33
  -6  -1   2 3206.63   57.62
  -6   1   1    9.49    0.74
  -6   1   1    6.55    0.65
   6   1  -1   10.06    1.74
   6   1  -1    8.81    0.57
   6   1  -1    7.88    0.86
  -6  -1   1    8.45    0.96
  -6  -1   1   11.41    1.88
  -6   1   0  596.06   10.92
   6   1   0  589.38   11.14
   6   1   0  596.84   10.95
  -6   1   0  596.79   11.06
  -6   1   0  597.37   11.20
   6   1   0  610.47   11.84
   6  -1   0  590.21   10.98
  -6  -1   0  578.14   11.75
  -6  -1   0  589.70   10.93
   6  -1   0  594.14   10.90
  -6  -1   0  594.90   11.15
  -6   1  -1   31.22    1.51
   6   1   1   36.08    2.74
  -6   1  -1   32.20    1.04
   6   1   1   31.33    1.07
   6   1   1   32.19    1.59
  -6   1  -1   32.55    1.50
  -6  -1  -1   31.36    2.79
   6  -1   1   32.60    1.41
   6  -1   1   32.69    1.08
   6  -1   1   32.96    1.77
  -6  -1  -1   34.29    1.61
  -6  -1  -1   32.12    1.03
   6   1   2    3.65    0.96
  -6   1  -2    2.66    0.56
  -6   1  -2    3.37    0.98
   6   1   2    2.66    0.60
   6   1   2    4.46    1.65
  -6   1  -2    4.44    0.91
  -6  -1  -2    3.95    0.52
  -6  -1  -2    2.96    0.95
  -6  -1  -2    0.80    1.71
   6  -1   2    4.55    0.65
   6  -1   2    3.00    1.05
   6  -1   2    3.85    0.89
   6   1   3  235.52    5.75
  -6   1  -3  231.90    4.98
   6   1   3  229.47    4.52
  -6   1  -3  228.23    4.52
   6   1   3  230.72    4.85
   6  -1   3  227.70    4.55
  -6  -1  -3  226.75    4.89
  -6  -1  -3  224.23    5.57
   6  -1   3  231.54    4.85
   6  -1   3  229.20    4.90
  -6  -1  -3  229.67    4.45
   6   1   4  157.22    3.36
   6   1   4  163.30    4.82
  -6   1  -4  159.38    3.36
   6   1   4  156.43    3.79
  -6  -1  -4  158.60    3.89
   6  -1   4  164.01    3.99
   6  -1   4  155.04    3.77
  -6  -1  -4  160.36    3.26
   6  -1   4  159.38    3.43
  -6  -1  -4  155.59    4.62
  -6   1  -5   66.26    3.04
   6   1   5   68.72    2.53
  -6   1  -5   69.53    1.97
   6   1   5   68.32    2.02
   6   1   5   70.23    3.97
  -6  -1  -5   67.44    1.83
  -6  -1  -5   70.89    3.63
   6  -1   5   67.41    2.65
   6  -1   5   69.98    3.00
   6  -1   5   67.46    2.12
  -6   1  -6    3.33    0.92
   6   1   6    5.30    1.49
   6   1   6    2.87    1.01
   6   1   6    4.87    2.54
  -6   1  -6    3.44    1.82
   6  -1   6    2.33    1.91
  -6  -1  -6    4.09    2.41
   6  -1   6    3.21    1.47
   6  -1   6    3.59    1.11
  -6  -1  -6    3.94    1.71
  -6  -1  -6    4.13    0.82
   6   1   7   37.88    2.90
  -6   1  -7   41.91    3.77
   6   1   7   38.97    2.13
   6   1   7   41.82    3.54
  -6  -1  -7   39.79    1.69
  -6  -1  -7   39.13    3.37
   6  -1   7   43.28    3.95
   6  -1   7   36.77    3.79
   6  -1   7   40.13    2.33
   6   1   8   10.17    3.65
   6   1   8    7.06    1.52
   6   1   8    7.85    2.05
  -6   1  -8    5.27    2.79
  -6   1  -8    6.20    1.25
  -6  -1  -8    5.56    2.36
  -6  -1  -8    7.95    1.06
   6  -1   8    6.97    2.18
   6  -1   8    8.78    3.05
   6  -1   8    6.91    1.82
  -6   1  -9    3.78    1.37
   6   1   9    2.24    2.45
   6  -1   9    2.61    2.61
  -6  -1  -9    4.53    1.19
  -6  -1  -9    3.45    2.80
   6  -1   9    1.95    3.65
  -6   2  10    2.83    1.62
  -6   2  10    2.08    2.69
   6   2 -10    1.73    1.51
  -6  -2  10    0.98    2.73
  -6   2   9    1.09    2.87
  -6   2   9    0.13    1.94
  -6   2   9    2.64    1.30
   6   2  -9    0.01    1.33
   6   2  -9    3.57    3.35
  -6  -2   9    0.89    2.44
  -6  -2   9    4.84    2.11
  -6   2   8   27.24    2.03
   6   2  -8   22.59    3.00
   6   2  -8   24.36    2.07
  -6   2   8   29.73    3.15
  -6  -2   8   24.43    1.92
  -6  -2   8   26.38    2.53
   6   2  -7    1.65    1.18
  -6   2   7    2.16    0.91
   6   2  -7    1.55    2.21
  -6   2   7   -0.57    1.46
  -6   2   7   -1.70    2.25
  -6  -2   7    2.12    1.42
  -6  -2   7    1.50    2.01
  -6   2   6   -1.68    0.71
   6   2  -6   -0.56    0.98
  -6   2   6    0.85    1.88
  -6   2   6   -1.91    1.18
   6   2  -6   -2.00    1.98
  -6  -2   6    2.10    3.00
  -6  -2   6   -1.55    1.16
  -6  -2   6   -1.19    1.58
   6   2  -5  165.78    4.73
   6   2  -5  165.10    3.76
  -6   2   5  166.25    4.54
  -6  -2   5  170.27    4.50
  -6  -2   5  167.42    3.89
  -6  -2   5  167.67    5.86
   6   2  -4   39.41    1.70
   6   2  -4   31.38    2.48
  -6   2   4   38.67    2.35
  -6  -2   4   35.31    2.76
  -6  -2   4   40.45    2.51
  -6  -2   4   38.76    2.21
   6   2  -3   36.84    2.73
   6   2  -3   40.10    1.71
  -6   2   3   39.23    2.04
  -6  -2   3   35.15    1.85
  -6  -2   3   38.08    2.42
   6   2  -2   84.27    3.98
   6   2  -2   84.28    2.31
  -6   2   2   81.41    2.43
  -6  -2   2   82.10    2.93
  -6  -2   2   85.23    3.97
  -6  -2   2   81.89    2.36
   6   2  -1   79.50    2.25
  -6   2   1   77.68    2.19
   6   2  -1   75.36    3.71
   6   2  -1   84.23    1.86
  -6  -2   1   82.61    2.33
  -6  -2   1   84.75    2.85
  -6  -2   1   88.93    3.86
   6   2   0   20.33    1.51
   6   2   0   20.03    2.26
   6   2   0   19.61    0.98
  -6   2   0   20.26    1.24
  -6   2   0   20.93    0.87
  -6  -2   0   19.63    1.55
  -6  -2   0   18.56    2.16
  -6  -2   0   22.68    1.60
   6   2   1  516.67   12.86
  -6   2  -1  510.30    9.82
  -6   2  -1  518.30    9.61
   6   2   1  513.66    9.87
   6   2   1  525.17    9.62
  -6  -2  -1  505.92   10.75
  -6  -2  -1  528.11   10.19
  -6  -2  -1  518.29    9.85
   6   2   2   91.91    3.90
  -6   2  -2   86.04    2.61
   6   2   2   88.54    2.05
  -6   2  -2   92.15    2.10
   6   2   2   91.45    2.52
   6  -2   2   91.97    2.09
  -6  -2  -2   87.90    2.54
  -6  -2  -2   94.12    1.95
  -6  -2  -2   85.27    3.74
   6  -2   2   86.66    2.34
   6   2   3    8.01    2.22
   6   2   3    5.98    1.15
   6   2   3    8.16    0.76
  -6   2  -3    8.37    1.32
  -6   2  -3    8.52    0.79
   6  -2   3    8.51    0.85
  -6  -2  -3    7.03    1.17
   6  -2   3    7.30    1.13
  -6  -2  -3    7.86    0.62
  -6  -2  -3    8.42    1.87
   6   2   4   77.13    4.33
   6   2   4   72.11    2.24
  -6   2  -4   78.42    3.03
  -6   2  -4   79.93    2.13
   6   2   4   80.47    2.65
  -6  -2  -4   76.74    2.69
   6  -2   4   79.53    2.22
   6  -2   4   77.43    2.59
  -6  -2  -4   80.47    1.85
  -6  -2  -4   78.32    4.03
   6   2   5   46.02    2.47
  -6   2  -5   43.55    1.79
   6   2   5   48.64    4.49
   6   2   5   42.34    1.71
  -6   2  -5   43.58    3.09
  -6  -2  -5   41.26    4.06
  -6  -2  -5   45.87    2.59
   6  -2   5   38.91    1.94
  -6  -2  -5   43.60    1.42
   6  -2   5   42.84    2.52
   6   2   6    0.33    1.51
  -6   2  -6    0.98    1.00
  -6   2  -6    0.22    2.01
   6   2   6    1.15    1.03
   6   2   6   -2.02    3.06
  -6  -2  -6   -0.95    0.70
   6  -2   6    1.26    1.81
  -6  -2  -6    1.42    2.45
   6  -2   6   -1.50    1.24
   6  -2   6   -1.35    1.64
  -6   2  -7  136.45    5.31
  -6   2  -7  146.82    3.59
   6   2   7  141.17    3.52
   6   2   7  148.41    6.83
   6  -2   7  134.73    3.82
   6  -2   7  150.16    4.54
  -6  -2  -7  134.66    4.46
   6  -2   7  142.08    4.83
  -6  -2  -7  141.42    3.13
  -6   2  -8   -1.51    2.47
   6   2   8    0.87    2.02
  -6   2  -8    2.35    1.30
   6   2   8    1.59    1.65
   6  -2   8   -0.22    1.80
   6  -2   8    3.72    2.86
   6  -2   8   -1.34    2.24
  -6  -2  -8    1.78    2.23
  -6  -2  -8    1.54    0.96
  -6   3   9    8.17    2.00
  -6   3   9    5.84    1.36
   6   3  -9    5.26    1.67
  -6  -3   9    3.21    2.74
  -6  -3   9    0.26    4.65
   6   3  -8   13.75    2.90
   6   3  -8   18.95    1.75
  -6   3   8   11.65    3.19
  -6  -3   8   20.87    4.04
  -6  -3   8   16.80    2.26
  -6  -3   8   17.45    2.61
  -6   3   7    0.16    2.72
   6   3  -7   -0.88    1.35
   6   3  -7   -1.56    2.87
  -6  -3   7    0.98    2.09
  -6  -3   7    3.08    3.43
  -6  -3   7   -0.20    1.67
  -6   3   6    4.60    2.27
   6   3  -6    2.67    2.48
   6   3  -6    0.00    1.61
  -6  -3   6    3.21    1.55
  -6  -3   6    0.48    1.89
  -6  -3   6    2.55    2.90
   6   3  -5    8.85    2.18
  -6   3   5   13.80    2.08
   6   3  -5   10.48    1.32
  -6  -3   5   13.48    3.31
  -6  -3   5   14.44    1.64
  -6  -3   5   13.08    1.99
   6   3  -4   49.81    2.13
   6   3  -4   48.32    3.51
  -6   3   4   45.12    2.87
  -6  -3   4   46.81    2.36
  -6  -3   4   50.64    2.98
  -6  -3   4   55.87    4.72
   6   3  -3    4.50    1.08
  -6   3   3    2.11    1.47
   6   3  -3    3.73    1.84
  -6  -3   3    2.53    1.54
  -6  -3   3    1.35    2.57
  -6   3   2  614.24   11.93
   6   3  -2  622.95   13.17
   6   3  -2  606.60   12.33
   6   3  -2  615.71   11.72
  -6  -3   2  615.82   12.02
  -6  -3   2  611.69   11.69
  -6  -3   2  611.79   12.92
   6   3  -1   59.37    4.13
   6   3  -1   56.80    2.15
  -6   3   1   58.13    2.32
  -6  -3   1   61.72    3.97
  -6  -3   1   57.06    2.74
  -6  -3   1   58.44    2.17
   6   3   0    0.26    1.03
  -6   3   0    1.30    0.58
   6   3   0    0.74    0.63
   6   3   0    1.00    2.48
  -6   3   0    1.09    0.91
  -6  -3   0    1.05    1.06
  -6  -3   0    1.47    1.35
  -6  -3   0    3.23    2.17
  -6   3  -1   42.58    2.02
   6   3   1   41.76    1.40
   6   3   1   42.59    1.97
   6   3   1   41.19    4.07
  -6   3  -1   44.04    1.44
  -6  -3  -1   40.60    3.96
  -6  -3  -1   45.59    2.46
  -6  -3  -1   41.65    1.92
  -6   3  -2    6.16    0.82
  -6   3  -2    4.17    1.32
   6   3   2    5.35    1.13
   6   3   2    6.14    2.63
   6   3   2    3.56    1.18
  -6  -3  -2    7.72    2.40
  -6  -3  -2    7.30    1.16
  -6  -3  -2    5.40    1.42
   6   3   3    1.62    2.73
   6   3   3    1.18    1.23
  -6   3  -3    1.00    1.52
   6   3   3    1.80    0.75
  -6   3  -3    4.31    0.91
  -6  -3  -3    1.45    1.48
  -6  -3  -3    2.31    1.18
   6  -3   3    2.45    0.84
   6  -3   3    3.51    1.10
  -6  -3  -3    2.58    2.45
   6   3   4    9.03    3.15
   6   3   4   10.95    0.93
  -6   3  -4   11.46    1.85
  -6   3  -4   10.02    1.06
   6   3   4    7.42    1.44
   6  -3   4    8.84    1.43
  -6  -3  -4    8.42    2.86
   6  -3   4    9.28    1.15
   6   3   5   20.34    1.73
  -6   3  -5   16.40    2.29
  -6   3  -5   20.60    1.79
   6   3   5   22.16    1.57
   6   3   5   23.88    3.83
   6  -3   5   20.98    1.97
   6  -3   5   23.11    1.88
  -6  -3  -5   21.12    3.15
   6   3   6   11.51    3.78
   6   3   6   13.31    1.80
  -6   3  -6   11.61    1.37
  -6   3  -6   12.94    2.69
   6   3   6   11.75    1.19
   6  -3   6   11.51    1.52
  -6  -3  -6    9.84    3.43
   6  -3   6   15.01    2.02
  -6   3  -7    6.35    2.23
   6   3   7    5.69    1.92
  -6   3  -7    2.64    1.46
   6   3   7    4.67    1.40
   6  -3   7    3.57    1.63
  -6  -3  -7    3.84    3.71
   6  -3   7    4.92    2.28
  -6   4   7   45.17    3.64
   6   4  -7   45.33    3.10
  -6  -4   7   46.11    4.21
  -6  -4   7   45.21    3.65
   6   4  -6    1.98    1.65
   6   4  -6    0.27    2.72
  -6   4   6    4.57    2.95
  -6  -4   6    5.59    3.75
  -6  -4   6    1.25    2.16
  -6  -4   6    0.27    1.83
   6   4  -5    8.68    3.21
   6   4  -5   -0.54    1.41
  -6   4   5    3.33    2.30
  -6  -4   5   -0.50    2.00
  -6  -4   5   -1.39    1.58
  -6  -4   5    3.89    3.39
   6   4  -4    8.19    2.84
  -6   4   4   10.73    2.26
   6   4  -4   11.50    1.47
  -6  -4   4    9.80    1.57
  -6  -4   4   13.31    2.00
  -6  -4   4   11.79    3.34
   6   4  -3    6.58    1.35
   6   4  -3    5.82    2.36
  -6   4   3    5.69    2.03
  -6  -4   3    7.88    1.37
  -6  -4   3    9.08    3.07
  -6  -4   3    6.78    1.80
   6   4  -2    4.82    1.31
   6   4  -2    9.34    3.38
   6   4  -2    7.08    2.26
  -6   4   2    6.46    2.00
  -6  -4   2   10.44    3.05
  -6  -4   2    7.39    1.74
  -6  -4   2    6.01    1.35
   6   4  -1   65.43    5.49
   6   4  -1   58.47    2.45
  -6   4   1   46.65    3.06
  -6  -4   1   59.22    2.91
  -6  -4   1   53.23    2.39
  -6  -4   1   58.43    5.00
   6   4   0    4.18    1.31
   6   4   0    5.87    0.81
   6   4   0   11.31    3.30
  -6  -4   0    4.27    2.81
   6   4   1    0.16    0.71
   6   4   1   -1.00    3.20
  -6   4  -1   -1.06    0.84
   6   4   1    0.77    1.22
  -6   4  -1   -0.28    1.41
  -6  -4  -1    1.24    2.71
   6   4   2    8.85    0.87
  -6   4  -2    8.12    1.08
   6   4   2    7.96    1.38
  -6   4  -2    8.68    1.71
   6   4   2   12.90    3.49
  -6  -4  -2    5.47    2.98
   6   4   3   65.36    2.01
  -6   4  -3   65.93    3.42
   6   4   3   65.32    6.36
  -6   4  -3   69.41    2.29
   6   4   3   64.37    2.78
  -6  -4  -3   51.49    6.31
  -6   4  -4    4.92    2.16
   6   4   4    5.90    3.52
   6   4   4    0.74    1.50
   6   4   4    2.78    0.99
  -6  -4  -4    4.79    3.41
  -6   4  -5   13.28    2.95
  -6   4  -5   13.16    1.39
   6   4   5   12.09    2.02
   6   4   5   10.84    1.30
   6  -4   5   15.10    1.57
   6  -4   5   17.36    1.92
  -6  -4  -5   15.13    3.68
   6   5  -3    6.10    3.63
  -6   5   3    5.03    2.80
   6   5  -3    6.15    1.67
  -6  -5   3    1.19    4.36
  -6   5   2   27.47    3.13
   6   5  -2   37.35    2.67
   6   5  -2   24.60    4.62
  -6  -5   2   29.40    4.04
   6   5  -1    0.29    1.05
   6   5  -1   -1.28    1.42
   6   5  -1   -9.34    4.01
  -6  -5   1    3.31    3.84
   6   5   0   -0.31    1.09
   6   5   0    2.59    1.50
  -6   5   0    4.24    1.06
   6   5   0    3.50    3.59
  -6  -5   0    3.60    3.53
  -6   5  -1    6.64    2.07
  -6   5  -1   12.27    1.27
   6   5   1   10.49    1.71
   6   5   1   10.98    1.18
  -6  -5  -1    8.99    3.72
   6   5   2   11.56    1.23
  -6  -5  -2    5.58    3.73
   7   0 -11   -0.84    1.27
  -7   0  11    1.75    2.70
   7   0 -11    2.92    3.28
   7   0 -10  121.01    3.06
  -7   0  10  113.64    4.10
   7   0 -10  111.43    5.17
  -7   0  10  121.14    4.83
   7   0  -9   -1.06    0.94
  -7   0   9    1.52    1.57
   7   0  -9    1.50    2.26
  -7   0   9    1.07    2.64
   7   0  -8   21.56    2.44
  -7   0   8   20.22    1.57
  -7   0   8   21.13    2.18
   7   0  -8   19.08    1.54
  -7   0   7   -1.12    1.55
   7   0  -7   -0.48    0.79
  -7   0   7   -0.29    1.05
   7   0  -6  209.39    4.11
  -7   0   6  213.83    5.07
   7   0  -6  211.01    4.27
  -7   0   6  214.58    4.48
  -7   0   5   -1.16    0.82
   7   0  -5   -1.49    0.51
   7   0  -5   -0.43    0.67
  -7   0   5   -1.54    1.31
  -7   0   4 1014.57   18.87
   7   0  -4  999.78   18.33
   7   0  -4  991.93   18.44
  -7   0   4 1004.82   18.52
   7   0  -3   -0.77    0.43
  -7   0   3   -0.32    0.74
   7   0  -3   -1.57    0.63
  -7   0   3   -0.91    1.20
  -7   0   2  482.05    9.03
   7   0  -2  485.14    9.15
  -7   0   2  492.92    9.21
   7   0  -2  490.50    9.03
  -7   0   2  493.76   10.07
  -7   0   1   -0.56    0.76
   7   0  -1   -0.40    0.69
  -7   0   1    0.68    1.50
   7   0  -1   -0.36    0.48
  -7   0   1   -0.95    0.42
   7   0   0  500.67    9.32
  -7   0   0  498.27    9.36
   7   0   0  492.81    9.15
  -7   0   0  491.26    9.83
  -7   0   0  487.58    9.14
   7   0   0  492.01    9.89
   7   0   1    0.97    0.87
   7   0   1   -1.31    1.44
  -7   0  -1    0.14    0.49
  -7   0  -1    1.13    0.90
  -7   0  -1   -2.11    1.30
   7   0   1   -0.30    0.55
   7   0   2  586.19   11.03
  -7   0  -2  578.70   11.07
   7   0   2  589.45   11.45
  -7   0  -2  567.47   11.32
  -7   0  -2  575.61   10.76
   7   0   2  582.28   10.79
   7   0   3   -0.27    0.64
   7   0   3   -1.08    1.54
  -7   0  -3    0.62    0.59
   7   0   3    0.35    1.04
  -7   0  -3    0.30    1.12
  -7   0  -3   -0.59    1.33
  -7   0  -4  119.97    3.71
   7   0   4  119.66    3.24
  -7   0  -4  112.48    3.99
  -7   0  -4  120.38    2.65
   7   0   4  127.72    3.97
   7   0   4  112.31    2.94
  -7   0  -5   -1.10    1.55
   7   0   5   -0.40    0.89
   7   0   5   -2.88    1.15
  -7   0  -5   -1.43    1.67
  -7   0  -5   -1.67    0.75
  -7   0  -6   10.07    1.93
  -7   0  -6    7.70    0.99
   7   0   6    8.69    1.16
   7   0   6   10.67    1.66
   7   0   6   11.96    2.55
  -7   0  -7   -0.67    0.93
  -7   0  -7   -0.38    2.20
   7   0   7   -1.53    1.84
   7   0   7    0.26    1.30
   7   0   7   -6.55    2.60
  -7   0  -8   57.66    4.60
   7   0   8   43.10    3.00
   7   0   8   58.24    3.85
   7   0   8   65.61    5.63
  -7   0  -8   64.17    2.30
   7   0   9   -4.47    2.43
  -7   0  -9    1.78    2.88
   7   0   9    3.71    4.15
  -7   0  -9   -0.47    1.27
   7   1 -10   10.48    1.41
  -7   1  10    8.07    2.33
  -7   1  10    8.00    1.77
   7   1 -10   12.12    3.12
  -7  -1  10    4.87    2.58
  -7  -1  10   12.23    1.72
  -7   1   9    2.51    1.38
   7   1  -9    4.94    2.75
  -7   1   9    5.50    2.08
   7   1  -9    4.41    1.20
  -7  -1   9    1.87    1.70
  -7  -1   9    7.67    2.44
  -7   1   8   63.52    2.29
  -7   1   8   61.06    3.36
   7   1  -8   66.71    2.30
   7   1  -8   61.06    4.17
  -7  -1   8   63.85    2.72
  -7  -1   8   69.12    3.74
   7   1  -7   28.62    2.44
  -7   1   7   28.24    1.98
  -7   1   7   27.31    1.69
   7   1  -7   28.28    1.72
  -7  -1   7   25.55    2.04
  -7  -1   7   23.38    2.10
   7   1  -6    5.63    0.97
   7   1  -6    3.51    1.85
  -7   1   6    3.92    1.41
  -7   1   6    4.06    0.90
  -7  -1   6    4.86    1.20
  -7  -1   6    4.79    1.61
   7   1  -5    1.42    0.85
  -7   1   5    0.69    0.75
  -7   1   5    2.33    1.22
   7   1  -5    3.76    1.58
  -7  -1   5   -0.28    1.43
  -7  -1   5   -0.23    1.42
  -7   1   4   66.20    1.73
   7   1  -4   64.96    1.95
  -7  -1   4   64.63    2.09
  -7  -1   4   62.44    2.79
  -7   1   3  321.29    6.04
   7   1  -3  318.61    5.99
   7   1  -3  315.22    6.21
  -7   1   3  319.23    5.90
  -7  -1   3  319.76    6.71
  -7  -1   3  321.88    6.27
  -7  -1   3  299.97    7.49
  -7   1   2  383.64    7.10
   7   1  -2  370.55    7.03
   7   1  -2  376.91    7.25
  -7   1   2  380.50    6.96
  -7  -1   2  378.52    7.29
  -7  -1   2  379.76    7.72
  -7  -1   2  357.75    8.20
   7   1  -1 3909.58   72.89
   7   1  -1 4050.32   73.56
  -7   1   1 3997.85   72.79
  -7   1   1 4030.49   73.02
   7   1  -1 3946.08   72.99
  -7   1   1 3998.71   73.14
  -7  -1   1 3955.01   73.11
   7  -1  -1 4072.58   72.78
   7  -1  -1 4069.13   73.00
  -7  -1   1 4069.03   73.52
  -7  -1   1 3976.45   72.90
  -7   1   0   19.42    0.90
   7   1   0   24.85    2.02
  -7   1   0   20.89    1.38
   7   1   0   16.69    1.12
  -7   1   0   23.51    2.09
   7   1   0   14.17    0.98
  -7  -1   0   17.00    1.55
   7  -1   0   19.90    0.89
  -7  -1   0   18.99    0.92
   7  -1   0   19.96    1.17
  -7  -1   0   23.30    2.07
  -7   1  -1  112.86    2.37
  -7   1  -1   99.92    3.31
  -7   1  -1  111.27    2.71
   7   1   1  116.58    3.90
   7   1   1  109.29    2.39
   7   1   1  110.95    2.81
   7  -1   1  111.38    2.36
  -7  -1  -1  112.02    2.83
  -7  -1  -1  114.95    3.86
   7  -1   1  113.41    2.65
   7  -1   1  114.50    3.04
  -7  -1  -1  111.16    2.34
   7   1   2   72.56    3.39
  -7   1  -2   71.73    2.10
  -7   1  -2   73.52    2.34
   7   1   2   70.56    2.28
   7   1   2   72.54    1.81
  -7   1  -2   72.96    1.78
  -7  -1  -2   70.93    1.72
   7  -1   2   73.42    2.49
  -7  -1  -2   73.34    2.35
  -7  -1  -2   73.13    3.31
   7  -1   2   72.46    2.20
   7  -1   2   69.82    1.81
   7   1   3  157.26    3.70
  -7   1  -3  150.63    3.51
   7   1   3  153.12    5.32
   7   1   3  157.22    3.26
  -7   1  -3  154.73    3.81
  -7   1  -3  153.77    3.24
   7  -1   3  154.76    3.28
   7  -1   3  153.47    3.63
  -7  -1  -3  161.36    3.19
   7  -1   3  152.29    3.78
  -7  -1  -3  148.87    4.52
  -7  -1  -3  152.91    3.74
   7   1   4   74.24    3.79
  -7   1  -4   71.74    1.94
   7   1   4   72.66    2.00
   7   1   4   70.09    2.54
  -7   1  -4   69.92    2.84
  -7  -1  -4   74.27    3.61
   7  -1   4   65.07    2.35
   7  -1   4   69.52    2.86
  -7  -1  -4   70.51    2.87
  -7  -1  -4   72.95    1.85
   7  -1   4   73.58    2.63
  -7   1  -5  208.55    5.19
   7   1   5  208.45    4.84
  -7   1  -5  205.50    4.30
   7   1   5  210.74    6.06
   7   1   5  210.11    4.35
   7  -1   5  202.87    4.40
  -7  -1  -5  201.55    5.68
  -7  -1  -5  205.63    4.97
   7  -1   5  205.95    4.83
   7  -1   5  204.39    5.17
  -7  -1  -5  203.73    4.18
  -7   1  -6    6.95    0.98
   7   1   6   11.33    2.97
  -7   1  -6    7.41    2.03
   7   1   6    7.12    1.20
   7   1   6    2.48    1.59
  -7  -1  -6    6.15    1.86
  -7  -1  -6    6.42    0.92
   7  -1   6    8.10    2.21
   7  -1   6    5.90    1.59
   7  -1   6    7.12    1.25
  -7  -1  -6    6.30    2.31
  -7   1  -7   50.42    4.04
   7   1   7   56.79    5.45
   7   1   7   49.59    3.15
  -7   1  -7   51.64    2.15
   7   1   7   48.87    2.39
   7  -1   7   56.60    4.36
  -7  -1  -7   49.00    3.73
  -7  -1  -7   52.11    1.90
   7  -1   7   47.28    3.34
  -7  -1  -7   46.33    4.44
   7  -1   7   48.66    2.50
   7   1   8    0.53    2.13
  -7   1  -8    0.37    1.25
  -7   1  -8    2.66    2.94
   7   1   8    0.56    3.90
   7   1   8    1.13    1.68
   7  -1   8    1.64    2.23
  -7  -1  -8    1.45    2.52
   7  -1   8   -1.22    3.13
  -7  -1  -8    0.01    1.65
   7  -1   8   -0.65    1.80
   7   1   9    1.80    2.53
  -7   1  -9   -0.22    1.45
  -7  -1  -9    1.89    2.92
  -7  -1  -9   -0.10    1.18
   7  -1   9    2.12    2.63
   7  -1   9    2.43    3.88
  -7   2  10    4.62    1.72
  -7   2  10    5.79    2.79
   7   2 -10    3.07    1.59
  -7  -2  10    2.70    2.82
   7   2  -9    3.18    1.40
  -7   2   9   -2.32    3.16
   7   2  -9    2.88    3.49
  -7   2   9    2.52    1.38
  -7   2   9    5.22    2.01
  -7  -2   9    2.47    1.92
  -7  -2   9    5.59    2.43
  -7   2   8   17.03    2.95
   7   2  -8   13.98    2.91
   7   2  -8   13.14    1.44
  -7   2   8   15.14    1.89
  -7  -2   8   13.10    2.40
  -7  -2   8   16.14    1.94
  -7   2   7   23.10    1.75
  -7   2   7   19.87    1.56
   7   2  -7   22.11    1.97
   7   2  -7   20.22    2.80
  -7   2   7   23.42    2.80
  -7  -2   7   19.00    1.66
  -7  -2   7   23.25    2.28
  -7   2   6   28.50    2.19
   7   2  -6   22.90    2.52
   7   2  -6   24.33    1.80
  -7   2   6   24.87    2.30
  -7   2   6   26.13    1.33
  -7  -2   6   26.51    2.12
  -7  -2   6   24.89    2.21
  -7  -2   6   21.33    3.27
  -7   2   5   77.75    3.18
   7   2  -5   76.93    2.38
   7   2  -5   75.34    3.64
  -7  -2   5   77.61    3.28
  -7  -2   5   71.97    2.56
  -7  -2   5   71.90    4.80
   7   2  -4   42.51    3.02
   7   2  -4   43.96    1.87
  -7  -2   4   43.20    2.71
  -7  -2   4   44.71    2.06
  -7  -2   4   35.15    2.92
   7   2  -3  297.66    5.95
  -7  -2   3  296.58    5.98
  -7  -2   3  290.37    6.47
  -7  -2   3  291.62    7.37
   7   2  -2    4.46    2.59
   7   2  -2    3.03    0.61
   7   2  -2    1.28    0.93
  -7  -2   2    0.99    1.41
  -7  -2   2    1.64    2.15
  -7  -2   2    3.19    0.99
  -7   2   1  584.80   10.71
  -7   2   1  591.02   10.83
   7   2  -1  575.25   10.81
   7   2  -1  579.50   11.07
  -7  -2   1  593.95   11.46
  -7  -2   1  586.14   11.09
  -7  -2   1  567.59   12.04
  -7   2   0   34.96    1.54
   7   2   0   30.73    1.20
   7   2   0   31.33    1.74
  -7   2   0   34.27    1.07
   7   2   0   29.53    2.72
  -7  -2   0   32.64    1.81
  -7  -2   0   34.37    2.50
  -7  -2   0   33.37    3.22
  -7   2  -1   59.39    2.08
   7   2   1   59.46    2.12
   7   2   1   57.36    1.58
   7   2   1   58.59    3.70
  -7   2  -1   56.20    1.54
  -7  -2  -1   58.55    2.14
  -7  -2  -1   60.56    3.64
   7  -2   1   59.08    1.49
   7   2   2   33.41    1.93
  -7   2  -2   35.44    1.32
  -7   2  -2   33.51    2.03
   7   2   2   33.26    1.29
   7   2   2   32.91    2.71
  -7  -2  -2   32.66    1.99
   7  -2   2   34.21    1.68
   7  -2   2   33.92    1.30
  -7  -2  -2   35.89    1.16
  -7  -2  -2   33.18    3.32
   7   2   3    0.40    1.13
   7   2   3   -1.81    2.15
  -7   2  -3    0.58    0.73
   7   2   3   -0.32    0.85
  -7  -2  -3   -0.19    1.17
   7  -2   3   -1.81    0.78
   7  -2   3    1.19    1.11
  -7  -2  -3    0.47    0.58
  -7  -2  -3   -1.04    1.95
  -7   2  -4    6.28    0.91
   7   2   4    7.75    1.36
  -7   2  -4    4.72    1.60
   7   2   4    6.80    0.92
   7   2   4    9.21    2.78
  -7  -2  -4    7.99    1.43
  -7  -2  -4    6.60    2.46
  -7  -2  -4    7.40    0.73
   7  -2   4    6.81    1.36
   7  -2   4    5.55    1.61
  -7   2  -5   52.19    1.94
   7   2   5   52.81    1.94
  -7   2  -5   55.61    3.31
   7   2   5   50.19    2.70
   7   2   5   52.24    4.88
  -7  -2  -5   52.49    1.63
  -7  -2  -5   52.87    3.18
   7  -2   5   57.37    2.75
   7  -2   5   51.59    2.17
  -7  -2  -5   52.41    4.47
   7   2   6    3.59    1.15
  -7   2  -6    2.69    1.11
   7   2   6    4.78    3.36
  -7   2  -6    5.60    2.22
   7   2   6    5.57    1.68
  -7  -2  -6    4.24    0.82
   7  -2   6    4.97    1.93
  -7  -2  -6    3.19    2.85
  -7  -2  -6    3.84    1.85
   7  -2   6    3.78    1.80
  -7   2  -7   30.78    2.14
   7   2   7   30.25    3.08
   7   2   7   31.60    4.22
  -7   2  -7   26.89    3.15
   7   2   7   30.12    2.21
   7  -2   7   31.34    2.45
   7  -2   7   32.07    2.76
  -7  -2  -7   32.14    3.46
  -7  -2  -7   31.47    1.62
   7  -2   7   36.75    3.39
  -7  -2  -7   32.47    2.48
  -7   2  -8    3.82    1.50
   7   2   8    4.47    1.88
   7   2   8    5.11    2.22
  -7  -2  -8    1.54    1.02
  -7  -2  -8    8.74    3.67
   7  -2   8    2.36    3.06
   7  -2   8    4.41    2.43
  -7  -2  -8    3.46    2.49
   7  -2   8    1.73    1.65
  -7   3   9   12.46    1.47
  -7   3   9    9.99    2.11
   7   3  -9   15.86    1.89
  -7  -3   9    8.34    2.84
  -7  -3   9    8.98    4.64
  -7   3   8    4.27    2.97
   7   3  -8   -0.38    1.51
   7   3  -8    1.32    3.96
  -7  -3   8   -1.69    2.36
  -7  -3   8    0.04    2.09
  -7  -3   8    1.05    4.69
   7   3  -7    2.43    3.25
  -7   3   7    7.27    2.67
   7   3  -7    5.22    1.50
  -7  -3   7    7.34    2.28
  -7  -3   7    6.37    1.88
  -7  -3   7    2.84    3.44
   7   3  -6    6.68    2.66
   7   3  -6    8.05    1.37
  -7   3   6    6.06    2.21
  -7  -3   6    8.81    2.17
  -7  -3   6    4.86    3.49
  -7  -3   6    5.53    1.66
   7   3  -5    2.75    1.25
   7   3  -5    1.76    2.26
  -7   3   5    4.21    1.90
  -7  -3   5    3.12    1.50
  -7  -3   5    0.79    1.90
  -7  -3   5   -0.48    2.95
  -7   3   4    2.09    1.61
   7   3  -4    2.69    1.17
   7   3  -4    0.21    2.02
  -7  -3   4    1.68    1.35
  -7  -3   4    1.34    1.74
  -7  -3   4   -1.85    2.65
  -7   3   3    5.85    1.51
   7   3  -3    5.40    1.23
   7   3  -3    5.73    2.03
  -7  -3   3    4.79    1.26
  -7  -3   3    2.72    1.63
  -7  -3   3    2.76    2.74
   7   3  -2   22.98    3.29
  -7   3   2   20.30    1.61
   7   3  -2   26.18    1.87
  -7  -3   2   20.21    1.87
  -7  -3   2   21.84    2.86
  -7  -3   2   20.49    1.84
   7   3  -1    1.57    0.70
   7   3  -1   -3.44    1.06
   7   3  -1   -1.46    2.43
  -7  -3   1   -1.77    1.13
  -7  -3   1    1.35    2.42
  -7  -3   1   -1.27    1.51
   7   3   0   67.87    1.81
  -7   3   0   68.61    1.70
  -7   3   0   65.39    2.13
   7   3   0   67.15    2.38
   7   3   0   75.15    4.63
  -7  -3   0   71.66    4.47
  -7  -3   0   66.96    2.42
  -7  -3   0   63.09    3.00
   7   3   1    3.06    0.73
   7   3   1    3.86    1.17
  -7   3  -1    3.66    0.74
   7   3   1    2.21    2.68
  -7   3  -1    2.44    1.19
  -7  -3  -1    3.27    2.41
  -7  -3  -1    3.83    1.54
  -7  -3  -1    2.53    1.16
   7   3   2    3.82    0.79
  -7   3  -2    4.66    1.38
   7   3   2    3.34    2.73
  -7   3  -2    4.69    0.81
   7   3   2    3.03    1.25
  -7  -3  -2    3.59    1.21
  -7  -3  -2    4.96    2.45
  -7  -3  -2    4.88    1.65
   7   3   3   32.53    2.31
  -7   3  -3   35.03    1.65
   7   3   3   30.63    3.61
   7   3   3   34.97    1.51
  -7   3  -3   34.98    2.71
   7  -3   3   33.92    2.03
  -7  -3  -3   35.11    2.31
   7  -3   3   31.35    1.65
  -7  -3  -3   35.78    2.95
  -7  -3  -3   35.35    3.07
   7   3   4    4.42    1.48
  -7   3  -4    4.94    1.04
  -7   3  -4    6.14    1.81
   7   3   4    4.78    0.92
   7   3   4    2.13    3.16
  -7  -3  -4    6.15    1.88
  -7  -3  -4    5.45    1.51
   7  -3   4    4.59    1.47
  -7  -3  -4    2.52    2.89
   7  -3   4    6.47    1.10
   7   3   5    2.73    3.56
   7   3   5    1.16    1.50
   7   3   5    1.42    1.02
  -7   3  -5    2.09    1.27
  -7   3  -5    1.70    2.30
  -7  -3  -5   -0.84    3.23
   7  -3   5    1.50    1.19
  -7  -3  -5    2.84    1.68
   7  -3   5   -0.83    1.69
  -7  -3  -5   -0.42    2.05
  -7   3  -6    5.58    3.00
  -7   3  -6    8.79    1.34
   7   3   6    7.99    1.83
  -7  -3  -6    4.03    3.17
   7  -3   6   10.49    2.10
   7  -3   6    7.97    1.49
  -7   3  -7    0.24    1.42
   7   3   7    0.96    1.62
   7   3   7   -0.82    1.87
   7  -3   7    1.38    1.63
  -7  -3  -7   -0.99    3.60
   7  -3   7    2.74    2.31
   7   4  -7   53.50    3.23
  -7   4   7   38.40    3.74
  -7  -4   7   43.24    3.86
  -7  -4   7   59.30    5.21
  -7  -4   7   51.58    4.38
   7   4  -6   17.19    1.91
  -7   4   6   14.73    2.98
  -7  -4   6   19.75    5.71
  -7  -4   6   13.55    2.11
  -7  -4   6   16.24    2.47
  -7   4   5    7.41    2.38
   7   4  -5    2.84    1.62
   7   4  -5    3.37    3.37
  -7  -4   5    3.55    1.74
  -7  -4   5    3.51    3.68
  -7  -4   5   -0.72    2.03
   7   4  -4    4.36    2.87
  -7   4   4   -1.56    2.13
   7   4  -4    2.01    1.44
  -7  -4   4    2.46    3.41
  -7  -4   4    0.07    1.52
  -7  -4   4    0.43    1.92
   7   4  -3   21.47    2.72
   7   4  -3   21.58    2.90
  -7  -4   3   27.65    2.25
  -7  -4   3   24.67    2.40
  -7  -4   3   20.51    3.29
   7   4  -2   16.41    3.73
  -7   4   2   10.55    1.95
   7   4  -2    8.62    1.45
  -7  -4   2    6.63    1.45
  -7  -4   2   11.08    1.91
  -7  -4   2   11.69    3.40
   7   4  -1  170.88    7.16
   7   4  -1  173.03    3.66
   7   4  -1  172.51    4.21
  -7  -4   1  167.86    4.16
  -7  -4   1  169.91    4.62
  -7  -4   1  172.27    6.64
  -7   4   0    0.61    0.79
  -7   4   0   -0.56    1.31
   7   4   0   -2.20    1.31
   7   4   0    0.11    0.80
   7   4   0    0.00    3.31
  -7  -4   0    2.02    1.66
  -7  -4   0   -2.47    2.89
  -7  -4   0   -0.72    1.33
  -7   4  -1    9.39    1.63
   7   4   1    5.38    1.37
   7   4   1    6.03    3.41
   7   4   1    8.66    0.93
  -7   4  -1   11.77    1.02
  -7  -4  -1    6.54    3.04
   7   4   2   33.04    1.57
  -7   4  -2   33.12    2.89
   7   4   2   35.00    2.43
  -7   4  -2   31.86    1.77
   7   4   2   27.57    4.16
   7   4   3   14.46    1.66
   7   4   3   13.60    1.14
   7   4   3   15.67    3.81
  -7   4  -3   18.69    1.73
  -7   4  -3   12.50    2.18
  -7  -4  -3   15.02    3.47
  -7   4  -4    0.98    1.16
  -7   4  -4    0.12    2.35
   7   4   4    0.16    2.40
   7   4   4    0.00    1.11
  -7  -4  -4   -4.23    3.38
  -7   4  -5    1.25    1.29
  -7   4  -5    1.87    3.17
   7   4   5    0.06    1.30
   7   4   5   -1.01    1.64
  -7  -4  -5    2.37    3.61
   7  -4   5    3.38    1.80
   7   5  -2    6.38    1.39
  -7   5   2    6.92    2.64
   7   5  -2    9.98    1.68
   7   5  -2   13.80    4.07
  -7  -5   2    4.64    3.80
   7   5  -1    4.48    1.58
   7   5  -1    1.47    5.39
   7   5  -1    0.00    1.28
  -7  -5   1    3.84    3.82
  -7   5   0   -0.26    2.32
  -7   5   0   -0.14    1.04
   7   5   0    0.88    1.15
   7   5   0   -2.23    1.48
  -7  -5   0    3.11    3.77
  -8   0  10   72.48    4.52
   8   0 -10   71.76    2.44
  -8   0  10   62.80    3.71
  -8   0   9   -4.42    3.60
  -8   0   9    2.00    1.56
   8   0  -9    0.33    1.00
   8   0  -8    3.18    0.98
  -8   0   8    2.77    1.43
  -8   0   8    1.84    1.99
   8   0  -8    2.51    0.82
  -8   0   7   -1.23    1.14
  -8   0   7    0.78    1.70
   8   0  -7   -0.96    0.83
   8   0  -6    7.11    0.68
  -8   0   6   10.31    1.69
   8   0  -6    9.24    0.88
  -8   0   5    0.53    1.39
  -8   0   5   -1.00    0.91
   8   0  -5    0.16    0.73
   8   0  -5   -0.31    0.55
   8   0  -4  723.00   13.36
  -8   0   4  721.32   13.58
  -8   0   4  729.07   13.99
   8   0  -4  733.40   13.49
  -8   0   3   -2.30    0.84
   8   0  -3   -1.84    0.71
   8   0  -2  471.41    8.84
  -8   0   2  473.09    8.91
  -8   0   2  465.50    8.69
  -8   0   2  463.91    9.81
   8   0  -2  467.82    8.69
  -8   0   1   -3.41    1.60
   8   0  -1   -0.87    0.53
  -8   0   1   -0.36    0.49
  -8   0   1    0.98    0.89
   8   0  -1   -0.57    0.76
   8   0   0 1673.86   31.14
  -8   0   0 1720.39   31.76
   8   0   0 1697.64   31.30
   8   0   0 1747.98   31.83
  -8   0   0 1727.47   31.35
  -8   0   0 1683.17   31.14
   8   0   1   -0.30    0.93
   8   0   1   -1.14    1.62
   8   0   1   -1.29    0.59
  -8   0  -1    1.11    0.94
  -8   0  -1   -0.74    0.54
  -8   0  -1   -1.32    1.48
   8   0   2   28.88    1.79
  -8   0  -2   29.05    1.16
  -8   0  -2   25.13    2.48
  -8   0  -2   27.33    1.92
   8   0   2   29.16    2.77
   8   0   2   28.95    1.27
   8   0   3   -1.59    1.62
  -8   0  -3   -0.66    1.54
   8   0   3   -0.01    0.75
  -8   0  -3   -0.84    0.59
   8   0   3   -1.25    1.14
  -8   0  -3   -0.60    1.30
  -8   0  -4   65.34    2.82
  -8   0  -4   67.15    1.88
   8   0   4   63.74    2.57
   8   0   4   69.05    3.44
   8   0   4   65.42    2.01
  -8   0  -4   67.46    3.24
   8   0   5   -2.04    1.33
  -8   0  -5   -0.91    0.79
   8   0   5    1.53    2.13
   8   0   5   -1.70    0.99
  -8   0  -5   -2.75    1.84
  -8   0  -5   -0.41    1.66
  -8   0  -6    4.17    0.95
   8   0   6    5.21    1.24
   8   0   6    3.35    1.69
  -8   0  -6    3.99    2.08
  -8   0  -6    2.35    1.92
   8   0   6    5.57    2.62
   8   0   7   -2.87    1.90
   8   0   7   -2.05    1.36
   8   0   7    0.08    3.00
  -8   0  -7   -0.66    1.01
  -8   0  -7   -3.29    2.19
   8   0   8   37.46    4.08
  -8   0  -8   35.64    3.40
  -8   0  -8   37.80    2.16
   8   0   8   35.75    2.67
   8   0   8   42.13    3.81
   8   0   9    0.93    2.60
  -8   0  -9   -0.99    1.37
   8   0   9    2.63    4.43
   8   1 -10   -0.90    3.23
  -8   1  10    1.95    1.81
  -8   1  10   -2.31    2.28
   8   1 -10    1.37    1.35
  -8  -1  10   -2.00    2.66
  -8   1   9  173.60    5.18
   8   1  -9  168.25    5.96
  -8   1   9  168.08    4.24
   8   1  -9  182.91    4.35
  -8  -1   9  171.07    5.61
  -8  -1   9  167.71    4.67
  -8   1   8   28.08    1.98
   8   1  -8   27.66    2.79
  -8   1   8   25.92    2.21
   8   1  -8   30.29    1.91
  -8  -1   8   27.59    3.04
  -8  -1   8   29.43    2.44
   8   1  -7    2.57    1.04
  -8   1   7    1.65    1.34
   8   1  -7    2.58    2.09
  -8   1   7    0.91    1.66
  -8  -1   7    1.52    1.79
  -8  -1   7    3.22    1.27
   8   1  -6   16.79    1.52
   8   1  -6   16.41    2.12
  -8   1   6   17.97    1.75
  -8   1   6   18.62    1.48
  -8  -1   6   16.45    1.35
  -8  -1   6   14.36    1.87
   8   1  -5   17.83    1.49
  -8   1   5   16.66    1.33
  -8   1   5   18.23    1.55
  -8  -1   5   16.36    1.73
  -8  -1   5   18.67    1.71
   8   1  -4  117.60    2.49
   8   1  -4  113.31    2.77
  -8   1   4  118.36    2.63
  -8  -1   4  112.13    4.79
  -8  -1   4  116.20    3.57
  -8  -1   4  114.40    2.91
   8   1  -3  350.47    6.61
   8   1  -3  352.73    6.85
  -8   1   3  355.42    6.53
  -8   1   3  353.54    6.70
  -8  -1   3  351.21    6.92
  -8  -1   3  352.98    7.40
  -8  -1   3  332.13    8.14
  -8   1   2    1.92    0.46
   8   1  -2    1.50    0.59
   8   1  -2    1.22    0.90
  -8   1   2    1.41    0.74
  -8  -1   2    4.06    1.43
  -8  -1   2   -0.52    1.99
  -8  -1   2    1.26    0.96
  -8   1   1  453.33    8.51
   8   1  -1  465.12    9.66
  -8   1   1  446.75    8.32
  -8   1   1  442.76    9.03
   8   1  -1  438.35    8.37
   8   1  -1  452.79    8.62
   8  -1  -1  446.11    8.37
  -8  -1   1  443.56    9.60
   8  -1  -1  442.47    8.29
  -8  -1   1  452.16    8.36
  -8  -1   1  447.19    8.65
   8   1   0  241.45    5.08
  -8   1   0  248.46    4.76
  -8   1   0  249.87    5.35
  -8   1   0  251.76    5.04
   8   1   0  247.71    6.17
   8   1   0  248.60    4.80
  -8  -1   0  247.62    4.77
  -8  -1   0  248.98    5.16
   8  -1   0  252.48    4.75
  -8  -1   0  247.23    6.06
   8  -1   0  246.96    4.89
   8   1   1   37.21    1.84
  -8   1  -1   37.36    1.82
  -8   1  -1   35.55    1.96
  -8   1  -1   36.50    1.22
   8   1   1   36.16    1.31
   8   1   1   38.55    3.18
   8  -1   1   36.66    1.24
  -8  -1  -1   40.15    3.15
   8  -1   1   37.96    2.36
  -8  -1  -1   35.36    1.20
   8  -1   1   36.69    1.69
  -8  -1  -1   36.54    1.90
   8   1   2  176.05    4.07
  -8   1  -2  184.52    3.67
  -8   1  -2  173.98    3.98
   8   1   2  178.42    5.17
  -8   1  -2  182.21    4.15
   8   1   2  180.05    3.69
   8  -1   2  180.43    3.69
  -8  -1  -2  182.71    3.63
   8  -1   2  181.90    4.00
  -8  -1  -2  178.40    5.05
  -8  -1  -2  183.74    4.16
   8  -1   2  182.77    4.32
   8   1   3   14.24    1.33
   8   1   3   12.24    1.23
  -8   1  -3   14.05    1.32
   8   1   3   13.48    2.23
  -8   1  -3   12.71    1.16
  -8  -1  -3   15.08    1.50
   8  -1   3   12.13    1.30
   8  -1   3   12.80    1.58
   8  -1   3   13.27    0.97
  -8  -1  -3   14.33    2.13
  -8  -1  -3   14.49    1.07
   8   1   4   66.48    4.01
   8   1   4   63.77    1.97
  -8   1  -4   60.36    1.85
   8   1   4   61.22    2.56
  -8   1  -4   60.22    2.88
  -8  -1  -4   61.51    3.59
   8  -1   4   60.37    2.00
   8  -1   4   63.01    2.98
   8  -1   4   60.02    2.59
  -8  -1  -4   63.25    1.76
  -8  -1  -4   62.41    2.78
   8   1   5  119.03    3.55
  -8   1  -5  114.82    2.83
   8   1   5  118.34    2.94
  -8   1  -5  114.92    3.96
   8   1   5  117.77    5.11
   8  -1   5  115.51    4.04
   8  -1   5  117.96    3.61
  -8  -1  -5  111.78    4.64
  -8  -1  -5  117.55    2.71
   8  -1   5  115.66    3.02
  -8  -1  -5  114.61    3.75
   8   1   6   15.75    3.20
   8   1   6   16.09    1.42
  -8   1  -6   16.14    1.40
   8   1   6   15.76    1.92
  -8   1  -6   13.36    2.20
   8  -1   6   14.83    1.44
  -8  -1  -6   16.15    1.44
   8  -1   6   19.65    2.67
   8  -1   6   17.86    1.95
  -8  -1  -6   20.23    2.79
  -8  -1  -6   14.53    2.12
   8   1   7   16.26    3.72
   8   1   7   13.32    1.59
   8   1   7   17.26    2.08
  -8   1  -7   18.23    2.84
  -8   1  -7   19.48    1.97
  -8  -1  -7   20.49    2.51
   8  -1   7   18.28    2.25
  -8  -1  -7   12.53    3.03
   8  -1   7   16.05    1.72
   8  -1   7   14.61    2.96
  -8  -1  -7   18.55    1.64
   8   1   8    6.00    4.22
   8   1   8   -2.05    1.40
  -8   1  -8    4.31    1.34
   8   1   8    2.32    2.33
  -8   1  -8   -2.08    2.55
  -8  -1  -8    3.87    2.68
  -8  -1  -8    2.94    1.11
   8  -1   8    1.78    1.46
   8  -1   8    3.53    3.42
   8  -1   8    2.97    2.34
   8   2 -10    0.30    1.58
  -8   2  10    0.15    1.74
  -8  -2  10   -1.50    2.90
   8   2  -9   26.40    2.37
  -8   2   9   28.37    2.47
  -8   2   9   27.73    2.30
   8   2  -9   25.93    4.05
  -8  -2   9   27.46    2.69
  -8  -2   9   23.62    2.96
  -8   2   8    6.76    1.83
  -8   2   8    7.81    1.43
   8   2  -8    9.76    3.06
  -8   2   8   10.85    2.94
   8   2  -8    7.08    1.44
  -8  -2   8    9.75    2.52
  -8  -2   8    6.24    1.75
  -8   2   7    4.23    2.43
   8   2  -7   -1.18    2.46
  -8   2   7    0.59    1.02
   8   2  -7    1.67    1.22
  -8   2   7    1.77    1.59
  -8  -2   7    1.46    1.48
  -8  -2   7    1.66    3.76
  -8  -2   7    1.13    3.36
  -8   2   6  179.79    3.80
   8   2  -6  186.81    4.20
  -8   2   6  182.64    4.41
   8   2  -6  179.13    5.52
  -8  -2   6  180.05    4.44
  -8  -2   6  184.94    5.13
  -8  -2   6  178.24    6.95
   8   2  -5   26.60    2.39
   8   2  -5   26.93    1.83
  -8  -2   5   24.71    3.13
  -8  -2   5   24.80    2.08
  -8  -2   5   26.20    2.22
   8   2  -4   70.81    2.33
  -8  -2   4   70.50    3.24
  -8  -2   4   69.42    2.50
   8   2  -3   34.38    1.30
   8   2  -3   36.10    1.79
  -8  -2   3   37.26    2.78
  -8  -2   3   34.24    2.39
  -8  -2   3   39.47    3.22
   8   2  -2  156.71    5.47
   8   2  -2  157.72    3.65
  -8  -2   2  164.87    4.33
  -8  -2   2  159.37    3.74
  -8  -2   2  156.10    5.30
   8   2  -1   62.35    2.16
  -8   2   1   67.05    1.86
  -8   2   1   66.23    1.52
   8   2  -1   68.82    4.04
   8   2  -1   61.89    1.68
  -8  -2   1   54.92    2.95
  -8  -2   1   63.48    2.30
  -8  -2   1   64.45    3.93
   8   2   0  600.84   11.03
  -8   2   0  593.44   11.16
  -8   2   0  602.98   10.97
   8   2   0  589.05   11.31
  -8  -2   0  561.11   12.26
  -8  -2   0  597.93   11.33
  -8  -2   0  596.30   11.76
   8   2   1  269.72    6.99
  -8   2  -1  274.87    5.21
  -8   2  -1  269.85    5.57
   8   2   1  267.65    5.62
   8   2   1  245.44    5.61
   8  -2   1  276.83    5.15
  -8  -2  -1  267.35    5.63
  -8  -2  -1  273.15    6.86
   8  -2   1  273.04    5.26
  -8   2  -2    2.43    0.71
   8   2   2    0.39    0.73
  -8   2  -2    1.51    1.23
   8   2   2   -3.01    2.30
   8   2   2    0.92    1.16
  -8  -2  -2    0.74    1.26
  -8  -2  -2    2.12    0.64
   8  -2   2    0.80    0.95
   8  -2   2    2.59    0.74
  -8  -2  -2    3.36    2.16
   8   2   3    6.22    2.54
  -8   2  -3    1.34    0.76
   8   2   3    1.67    1.24
   8   2   3    1.17    0.81
  -8   2  -3    1.26    1.39
   8  -2   3    1.54    0.85
  -8  -2  -3    2.05    1.54
  -8  -2  -3    1.74    0.64
   8  -2   3    0.82    1.20
  -8  -2  -3   -0.39    2.34
   8   2   4    3.73    0.93
   8   2   4    6.34    2.79
  -8   2  -4    3.13    1.68
   8   2   4    2.70    1.39
  -8   2  -4    2.83    0.86
  -8  -2  -4    2.60    2.40
  -8  -2  -4    2.34    1.49
  -8  -2  -4    3.54    0.75
   8  -2   4    3.59    1.01
   8  -2   4    1.68    1.39
  -8   2  -5   64.06    2.21
   8   2   5   64.53    2.25
   8   2   5   63.56    5.25
   8   2   5   67.82    3.03
  -8   2  -5   61.48    3.61
  -8  -2  -5   66.23    3.17
  -8  -2  -5   68.33    4.96
   8  -2   5   74.33    3.05
  -8  -2  -5   65.70    1.90
   8  -2   5   64.32    2.37
   8   2   6    4.78    3.42
   8   2   6    9.85    1.96
   8   2   6    8.00    1.35
  -8   2  -6    7.35    1.21
  -8   2  -6   11.74    2.54
  -8  -2  -6    7.24    2.06
   8  -2   6    6.34    1.41
  -8  -2  -6    9.10    0.94
   8  -2   6    6.04    1.88
   8  -2   6    6.32    2.02
  -8  -2  -6    5.87    3.23
  -8   2  -7    0.81    1.28
   8   2   7    3.75    1.56
  -8   2  -7    2.12    2.62
   8   2   7    2.36    2.01
   8   2   7    8.79    3.63
  -8  -2  -7   -3.28    3.05
   8  -2   7    4.14    2.49
  -8  -2  -7    6.01    2.33
  -8  -2  -7    0.99    0.93
   8  -2   7   -0.03    1.58
   8  -2   7    1.97    2.12
   8   2   8    6.05    2.39
  -8   2  -8    3.34    1.51
  -8  -2  -8    6.62    3.59
  -8  -2  -8    0.94    1.07
  -8  -2  -8    1.19    2.72
   8  -2   8   -1.94    2.44
   8  -2   8    3.17    3.23
   8   3  -8   -1.19    1.62
  -8   3   8   -2.58    2.94
  -8  -3   8    4.38    3.96
  -8  -3   8    1.06    2.59
  -8  -3   8    0.55    1.59
  -8   3   7    1.95    2.74
   8   3  -7    0.86    1.48
   8   3  -7    0.24    3.45
  -8  -3   7   -0.65    1.83
  -8  -3   7    1.55    3.63
  -8  -3   7    0.60    2.30
   8   3  -6    2.99    1.44
  -8   3   6    2.89    2.30
   8   3  -6    3.68    2.70
  -8  -3   6   -0.46    2.75
  -8  -3   6    2.25    1.68
  -8  -3   6    4.13    3.62
  -8   3   5   -0.99    1.72
   8   3  -5   -0.78    1.96
   8   3  -5    3.30    2.47
  -8  -3   5    2.21    1.93
  -8  -3   5    4.88    3.29
  -8  -3   5   -0.05    1.55
   8   3  -4    8.74    2.38
  -8   3   4    1.90    1.64
   8   3  -4    5.32    1.27
  -8  -3   4    5.02    1.54
  -8  -3   4    5.93    2.99
  -8  -3   4    8.92    1.90
  -8   3   3   75.19    3.02
   8   3  -3   78.21    2.65
  -8  -3   3   74.90    2.79
  -8  -3   3   82.98    3.52
  -8  -3   3   78.11    5.02
   8   3  -2   47.48    2.25
  -8   3   2   48.12    2.42
   8   3  -2   48.10    3.73
   8   3  -2   46.28    1.61
  -8  -3   2   53.53    4.50
  -8  -3   2   46.88    3.10
  -8  -3   2   49.90    2.38
   8   3  -1    0.00    0.73
   8   3  -1   -1.54    1.13
   8   3  -1    1.25    2.77
  -8  -3   1   -1.09    1.65
  -8  -3   1    0.87    2.54
  -8   3   0   58.44    1.63
   8   3   0   59.98    4.98
  -8   3   0   57.20    2.14
   8   3   0   57.45    1.77
   8   3   0   54.78    2.35
  -8  -3   0   59.94    2.48
  -8  -3   0   61.08    4.67
  -8  -3   0   62.00    3.20
  -8   3  -1   14.30    1.39
   8   3   1   10.93    1.36
   8   3   1   11.21    0.91
  -8   3  -1   12.11    1.20
   8   3   1    9.41    3.05
  -8  -3  -1   14.80    1.42
  -8  -3  -1   14.17    1.89
  -8  -3  -1    9.55    2.78
   8   3   2    0.18    2.95
  -8   3  -2    2.83    0.84
   8   3   2    2.31    1.35
  -8   3  -2    2.15    1.41
   8   3   2    1.72    0.84
  -8  -3  -2    0.16    2.69
  -8  -3  -2    2.77    1.86
  -8  -3  -2    1.75    1.37
   8   3   3   79.06    2.17
  -8   3  -3   73.67    3.14
  -8   3  -3   78.85    2.28
   8   3   3   65.07    5.69
   8   3   3   77.02    2.93
  -8  -3  -3   76.26    5.14
  -8  -3  -3   74.27    2.96
  -8  -3  -3   78.92    3.68
   8  -3   3   78.65    2.57
   8  -3   3   74.23    2.21
  -8   3  -4    7.98    1.97
   8   3   4    3.83    3.55
   8   3   4    6.11    1.05
  -8   3  -4    6.13    1.10
   8   3   4    7.40    1.58
  -8  -3  -4    5.97    3.16
   8  -3   4    9.50    1.58
  -8  -3  -4   11.00    1.73
  -8  -3  -4    8.56    2.20
   8   3   5    3.38    1.13
   8   3   5   -1.54    2.65
   8   3   5    0.80    3.49
  -8   3  -5    1.11    1.12
  -8   3  -5    4.50    2.41
   8  -3   5    0.25    1.22
   8  -3   5    2.75    1.74
  -8  -3  -5    3.00    3.42
  -8   3  -6   27.29    3.29
   8   3   6   29.16    2.33
   8   3   6   29.94    3.06
  -8   3  -6   33.34    2.33
   8  -3   6   35.36    3.43
  -8  -3  -6   29.44    2.38
   8  -3   6   30.23    2.45
  -8  -3  -6   34.48    4.34
  -8   3  -7    2.99    1.54
   8   3   7    0.60    1.37
   8   3   7   -0.35    2.03
   8  -3   7    4.11    1.76
   8  -3   7    3.33    2.44
  -8  -3  -7    0.90    2.31
  -8  -3  -7    5.94    3.84
   8   4  -6   17.09    1.98
  -8   4   6   20.32    3.08
  -8  -4   6   15.27    2.21
  -8  -4   6   18.15    2.68
  -8  -4   6   19.51    4.32
  -8   4   5    2.09    2.39
   8   4  -5   -1.22    3.45
   8   4  -5    2.59    1.70
  -8  -4   5    2.01    1.75
  -8  -4   5    3.09    2.66
  -8   4   4    3.89    2.21
   8   4  -4    2.35    3.11
   8   4  -4    3.70    1.55
  -8  -4   4    4.88    1.62
  -8  -4   4    3.82    3.43
  -8  -4   4    6.79    2.18
   8   4  -3   57.05    2.77
  -8   4   3   53.25    3.74
  -8  -4   3   55.40    2.91
  -8  -4   3   62.91    5.93
  -8  -4   3   62.33    3.68
   8   4  -2    1.20    4.09
  -8   4   2   10.20    1.89
   8   4  -2    2.58    2.23
   8   4  -2    5.49    0.98
  -8  -4   2    5.40    2.00
  -8  -4   2    7.09    3.45
  -8  -4   2    2.52    1.48
   8   4  -1   58.81    1.97
   8   4  -1   56.46    2.74
   8   4  -1   55.72    4.58
  -8  -4   1   59.89    5.73
  -8  -4   1   51.96    2.67
  -8  -4   1   56.89    3.48
   8   4   0    3.57    1.45
  -8   4   0    6.34    0.88
   8   4   0    3.50    0.96
  -8   4   0    5.12    1.40
   8   4   0    3.49    4.07
  -8  -4   0    3.13    1.85
  -8  -4   0    3.61    1.48
  -8  -4   0    2.11    3.23
  -8   4  -1    1.58    0.92
  -8   4  -1    0.09    1.69
   8   4   1   -0.21    3.50
   8   4   1    0.33    1.39
   8   4   1    0.41    0.86
  -8  -4  -1    6.35    6.09
  -8  -4  -1    0.69    1.48
   8   4   2   18.34    1.77
  -8   4  -2   20.89    2.05
   8   4   2    9.08    3.77
   8   4   2   19.01    1.60
  -8   4  -2   18.67    1.69
  -8  -4  -2    8.28    3.44
  -8   4  -3   12.09    2.21
   8   4   3   12.21    1.22
   8   4   3   10.29    2.12
  -8   4  -3   11.04    1.23
  -8  -4  -3   14.82    3.64
   8   4   4    4.40    1.70
  -8   4  -4    3.23    1.25
  -8   4  -4    7.06    2.55
   8   4   4    2.44    1.24
  -8  -4  -4    8.50    3.96
   9   0 -10    3.38    1.05
   9   0 -10    3.12    1.18
  -9   0  10    4.80    2.29
  -9   0  10    5.62    2.51
  -9   0   9   -3.87    2.23
  -9   0   9    0.55    1.59
   9   0  -9    1.13    0.92
   9   0  -9    1.36    1.03
   9   0  -8  397.02    7.55
  -9   0   8  389.19    8.07
   9   0  -8  397.04    7.71
  -9   0   8  404.74    8.81
   9   0  -7   -0.45    0.86
   9   0  -7   -1.93    0.66
  -9   0   7   -2.89    1.72
  -9   0   7    0.06    1.23
  -9   0   6   21.93    1.99
   9   0  -6   22.07    1.42
  -9   0   6   20.35    1.79
   9   0  -6   19.36    1.11
   9   0  -5   -1.08    0.59
   9   0  -5    0.00    0.75
  -9   0   5    0.32    1.00
  -9   0   5   -0.26    1.45
  -9   0   4   26.15    1.63
   9   0  -4   23.63    1.05
  -9   0   4   25.06    2.42
   9   0  -4   23.91    1.38
  -9   0   3   -1.80    0.89
  -9   0   3   -0.53    0.51
   9   0  -3   -1.91    0.76
  -9   0   3   -0.11    2.27
  -9   0   2  883.74   16.24
  -9   0   2  838.98   17.02
  -9   0   2  881.87   16.01
   9   0  -2  883.27   16.16
   9   0  -2  869.04   16.00
  -9   0   1    2.47    1.88
   9   0  -1   -1.02    0.57
  -9   0   1   -1.75    0.49
   9   0  -1   -1.43    0.81
  -9   0   1   -0.64    0.94
   9   0   0    3.79    0.67
  -9   0   0    5.44    1.71
   9   0   0    3.78    0.91
   9   0   0    2.71    1.91
  -9   0   0    5.14    1.06
  -9   0  -1   -1.21    0.53
   9   0   1   -0.43    0.66
  -9   0  -1   -0.73    1.55
   9   0   1    0.37    1.84
  -9   0  -1   -1.42    1.03
   9   0   1    0.31    1.01
  -9   0  -2  111.46    3.12
   9   0   2  108.20    2.55
  -9   0  -2  113.53    3.70
   9   0   2  109.66    2.98
   9   0   2  109.32    3.87
  -9   0  -2  110.11    2.46
  -9   0  -3   -1.17    1.36
   9   0   3   -2.02    1.20
   9   0   3   -1.10    0.79
  -9   0  -3   -0.91    0.70
  -9   0  -3   -0.08    1.68
   9   0   3   -0.79    1.89
  -9   0  -4    0.41    0.77
  -9   0  -4    1.34    1.50
   9   0   4    1.38    0.93
  -9   0  -4    3.71    1.93
   9   0   4    0.04    2.42
   9   0   4   -2.27    1.32
  -9   0  -5   -0.55    0.86
   9   0   5   -1.62    1.44
   9   0   5    0.95    2.29
  -9   0  -5   -0.11    1.78
  -9   0  -5   -0.44    1.98
   9   0   5   -1.16    1.03
  -9   0  -6    2.08    2.17
   9   0   6    2.72    1.25
   9   0   6    2.39    2.25
  -9   0  -6    0.34    2.06
  -9   0  -6    1.86    1.20
   9   0   6   -1.70    2.68
  -9   0  -7   -3.80    2.47
   9   0   7    2.58    3.27
  -9   0  -7    0.95    1.19
   9   0   7    2.21    2.05
   9   0   7   -1.85    1.49
  -9   0  -8   10.97    1.43
  -9   0  -8   12.59    2.81
   9   0   8    9.62    2.49
   9   0   8   15.24    4.10
  -9   1  10    9.63    1.90
  -9   1  10   11.94    2.56
   9   1 -10   10.40    1.48
   9   1 -10   10.03    3.48
  -9  -1  10    8.58    2.95
   9   1  -9  125.57    5.67
  -9   1   9  137.46    3.82
  -9   1   9  145.93    4.91
  -9  -1   9  136.78    4.44
  -9  -1   9  149.12    5.40
   9   1  -8    6.96    1.23
  -9   1   8    7.02    1.99
  -9   1   8    5.00    1.26
  -9  -1   8    7.31    1.68
  -9  -1   8    7.53    2.39
  -9   1   7   17.84    1.99
   9   1  -7   13.55    1.28
  -9   1   7   13.89    1.31
  -9  -1   7   15.55    1.58
  -9  -1   7   15.60    2.17
   9   1  -6   22.80    1.69
  -9   1   6   23.27    1.87
  -9   1   6   24.86    1.66
   9   1  -6   19.59    1.28
  -9  -1   6   21.50    2.07
  -9  -1   6   21.40    2.00
   9   1  -5   67.08    2.14
  -9   1   5   64.13    2.80
  -9   1   5   62.38    1.99
   9   1  -5   63.57    1.75
  -9  -1   5   64.89    2.34
  -9  -1   5   57.90    4.70
  -9  -1   5   63.91    3.20
  -9   1   4  141.32    2.79
  -9   1   4  143.12    3.10
   9   1  -4  138.85    3.24
   9   1  -4  137.76    2.91
  -9  -1   4  141.43    4.06
  -9  -1   4  135.62    5.29
  -9  -1   4  128.67    3.73
   9   1  -3  163.43    3.64
  -9   1   3  161.59    3.23
  -9   1   3  166.58    3.53
   9   1  -3  162.77    3.34
  -9  -1   3  166.63    4.38
  -9  -1   3  163.78    3.75
  -9   1   2    6.27    0.91
   9   1  -2    6.57    0.66
  -9   1   2    6.49    0.56
   9   1  -2    5.07    0.99
   9  -1  -2    7.49    0.54
  -9  -1   2    5.70    1.12
  -9  -1   2    6.56    2.07
  -9   1   1   14.82    0.91
  -9   1   1   16.06    1.46
  -9   1   1   16.58    1.85
   9   1  -1   14.78    1.18
   9   1  -1   14.65    1.04
   9   1  -1   12.82    2.35
   9  -1  -1   15.63    1.15
  -9  -1   1   14.15    0.95
  -9  -1   1   14.17    1.23
   9  -1  -1   15.05    0.85
  -9  -1   1   17.06    2.27
  -9   1   0    2.88    0.57
   9   1   0    3.16    0.97
   9   1   0   -0.67    1.94
   9   1   0    2.22    0.64
  -9   1   0    2.08    0.98
  -9   1   0    2.27    1.41
  -9  -1   0    1.51    1.07
  -9  -1   0    2.78    1.90
   9  -1   0    3.50    0.83
  -9  -1   0    2.35    0.59
   9  -1   0    3.72    0.59
  -9   1  -1  499.18    9.90
   9   1   1  514.52    9.57
   9   1   1  463.52   11.31
  -9   1  -1  520.76    9.54
  -9   1  -1  519.27    9.85
   9   1   1  517.78    9.85
   9  -1   1  513.82    9.53
  -9  -1  -1  512.79    9.90
  -9  -1  -1  526.52    9.53
   9  -1   1  522.88    9.73
  -9  -1  -1  496.63   10.68
   9  -1   1  501.32   10.12
  -9   1  -2   21.02    1.99
  -9   1  -2   23.85    2.06
  -9   1  -2   24.87    1.23
   9   1   2   24.76    1.94
   9   1   2   24.00    1.31
   9   1   2   23.24    2.43
   9  -1   2   22.97    1.77
   9  -1   2   24.16    1.82
   9  -1   2   23.87    1.32
  -9  -1  -2   24.57    1.19
  -9  -1  -2   19.65    2.27
  -9   1  -3  187.43    4.61
  -9   1  -3  192.52    3.98
   9   1   3  201.55    5.80
   9   1   3  189.90    4.04
   9   1   3  195.34    4.50
  -9   1  -3  190.10    4.47
  -9  -1  -3  194.74    3.92
   9  -1   3  188.80    4.80
  -9  -1  -3  188.02    4.58
   9  -1   3  195.37    4.47
  -9  -1  -3  194.73    5.48
   9   1   4   13.84    1.59
  -9   1  -4   15.37    1.62
   9   1   4   14.54    2.65
  -9   1  -4   15.48    1.40
   9   1   4   15.38    1.55
  -9   1  -4   13.77    1.85
  -9  -1  -4   17.74    2.38
  -9  -1  -4   14.32    1.30
  -9  -1  -4   11.30    1.72
   9  -1   4   16.04    1.58
   9  -1   4   18.57    2.09
   9  -1   4   15.99    1.61
  -9   1  -5   75.24    3.60
   9   1   5   77.46    2.47
  -9   1  -5   78.60    2.32
   9   1   5   81.45    3.19
   9   1   5   74.88    4.94
   9  -1   5   75.85    2.56
  -9  -1  -5   74.86    3.51
   9  -1   5   76.63    3.94
  -9  -1  -5   77.46    2.17
   9  -1   5   78.05    3.19
  -9  -1  -5   86.21    4.52
   9   1   6   12.92    3.55
  -9   1  -6    9.20    2.27
   9   1   6    9.05    1.37
   9   1   6    9.57    1.80
  -9   1  -6   11.14    1.20
   9  -1   6    9.30    4.52
  -9  -1  -6   11.29    2.24
   9  -1   6    8.19    1.38
  -9  -1  -6    9.49    1.04
  -9  -1  -6    8.54    2.73
  -9   1  -7   -1.15    2.87
   9   1   7    3.35    1.73
   9   1   7    4.19    2.05
   9   1   7   -2.00    3.90
  -9   1  -7    3.20    1.28
   9  -1   7    3.19    3.00
   9  -1   7    3.57    2.15
  -9  -1  -7    3.39    2.89
  -9  -1  -7    2.06    2.49
  -9  -1  -7    3.38    1.08
   9  -1   7    0.23    1.63
   9   1   8   11.43    2.60
  -9   1  -8    8.39    1.49
   9   1   8   14.63    4.10
   9  -1   8    9.14    2.57
   9  -1   8   10.84    3.88
  -9  -1  -8    8.59    1.29
  -9  -1  -8    3.72    3.06
   9   2  -9   12.72    1.65
  -9   2   9   11.93    2.35
  -9   2   9   10.21    1.56
   9   2  -9   14.71    3.95
  -9  -2   9   12.34    2.90
  -9   2   8   12.86    3.04
   9   2  -8   14.22    3.25
   9   2  -8   17.09    1.60
  -9   2   8   16.64    1.50
  -9   2   8   17.95    2.09
  -9  -2   8   13.84    1.97
  -9  -2   8   10.34    5.36
  -9  -2   8   18.67    2.82
  -9   2   7   -1.68    1.01
   9   2  -7   -0.63    2.71
  -9   2   7    1.46    1.68
   9   2  -7    1.16    2.29
  -9  -2   7    0.18    2.19
  -9  -2   7    0.17    3.68
  -9  -2   7   -1.27    1.49
  -9   2   6   52.17    2.79
   9   2  -6   58.94    4.27
  -9   2   6   49.67    1.88
   9   2  -6   54.56    2.34
  -9  -2   6   54.42    3.52
  -9  -2   6   45.55    4.07
  -9  -2   6   56.56    2.69
   9   2  -5   10.12    1.25
  -9   2   5   10.69    0.94
  -9  -2   5   12.86    1.99
  -9  -2   5   12.24    1.56
  -9  -2   5    7.33    2.93
   9   2  -4    6.53    0.80
   9   2  -4    6.13    1.21
  -9  -2   4    5.96    2.53
  -9  -2   4    7.01    1.30
  -9  -2   4    6.64    1.83
   9   2  -3   75.54    1.96
  -9   2   3   79.50    1.68
   9   2  -3   74.61    2.40
  -9  -2   3   73.16    3.34
  -9  -2   3   72.62    4.71
  -9  -2   3   75.84    2.62
  -9   2   2    2.91    0.84
  -9   2   2    3.51    0.52
   9   2  -2    0.36    2.44
   9   2  -2    2.82    0.70
   9   2  -2    1.49    0.99
  -9  -2   2    3.99    1.62
  -9  -2   2    1.66    1.19
  -9  -2   2    5.19    2.48
  -9   2   1   77.40    2.17
   9   2  -1   79.15    2.42
   9   2  -1   76.05    1.93
  -9   2   1   76.85    2.91
  -9   2   1   79.54    1.78
   9   2  -1   75.03    4.54
  -9  -2   1   75.39    3.28
  -9  -2   1   65.23    3.87
  -9  -2   1   72.72    4.25
   9   2   0  115.91    2.58
  -9   2   0  115.66    2.47
   9   2   0  112.94    5.01
   9   2   0  115.55    3.04
  -9   2   0  115.10    2.89
  -9  -2   0   94.58    4.31
  -9  -2   0  115.52    4.63
  -9  -2   0  120.55    3.89
   9   2   1   81.66    4.53
   9   2   1   79.85    2.05
   9   2   1   82.04    2.60
  -9   2  -1   79.28    1.98
  -9   2  -1   76.68    2.61
  -9  -2  -1   76.91    4.29
   9  -2   1   78.73    1.92
  -9  -2  -1   81.59    1.92
  -9  -2  -1   65.56    4.02
   9  -2   1   80.10    2.15
   9   2   2   20.17    2.86
   9   2   2   22.12    1.36
   9   2   2   19.59    1.53
  -9   2  -2   21.30    1.31
  -9  -2  -2   22.40    2.22
  -9  -2  -2   18.88    1.18
  -9  -2  -2   19.92    2.76
   9  -2   2   19.85    1.79
   9  -2   2   19.30    1.33
   9   2   3   20.83    1.51
   9   2   3   22.03    3.13
   9   2   3   22.68    2.23
  -9   2  -3   22.40    1.83
  -9   2  -3   22.38    1.47
  -9  -2  -3   20.95    2.86
   9  -2   3   20.54    2.14
  -9  -2  -3   21.05    1.72
  -9  -2  -3   22.73    1.24
   9  -2   3   20.09    1.58
   9   2   4   13.00    3.23
  -9   2  -4   15.07    1.90
  -9   2  -4   15.26    1.55
   9   2   4   16.37    1.69
   9   2   4   14.87    1.20
   9  -2   4   20.33    1.73
  -9  -2  -4   16.58    1.33
   9  -2   4   14.93    1.24
  -9  -2  -4   10.43    2.67
  -9  -2  -4   15.09    1.81
  -9   2  -5    7.61    1.58
   9   2   5    6.45    2.19
   9   2   5    6.52    1.25
  -9   2  -5    5.50    2.11
   9   2   5   12.26    3.44
  -9  -2  -5    8.19    1.94
   9  -2   5    7.95    1.76
  -9  -2  -5    6.55    2.99
  -9  -2  -5    7.24    0.93
   9  -2   5    8.91    1.36
   9   2   6   13.16    4.32
   9   2   6    7.88    1.99
   9   2   6    7.41    1.49
  -9   2  -6    6.81    2.83
  -9   2  -6    7.99    1.31
  -9  -2  -6    9.98    1.02
  -9  -2  -6   12.23    2.32
   9  -2   6    6.93    1.45
   9  -2   6    9.12    3.34
  -9  -2  -6    9.13    3.24
  -9   2  -7    7.78    1.43
   9   2   7    8.49    2.26
   9   2   7   10.40    1.70
   9  -2   7    9.14    2.75
  -9  -2  -7    6.80    2.52
  -9  -2  -7    6.00    1.07
  -9  -2  -7    9.40    3.77
   9  -2   7    5.97    2.34
   9  -2   7    6.29    1.84
  -9   3   8    1.86    2.93
   9   3  -8    1.75    1.67
  -9  -3   8   -0.92    2.69
  -9  -3   8   -1.37    4.05
  -9   3   7    0.80    2.74
   9   3  -7    1.71    1.59
   9   3  -7   -2.58    3.29
  -9  -3   7    4.03    2.11
  -9  -3   7    5.41    2.53
  -9  -3   7    2.51    3.89
   9   3  -6    3.05    1.53
   9   3  -6    3.15    3.01
  -9   3   6    2.66    2.32
  -9  -3   6    6.19    1.82
  -9  -3   6   11.48    3.97
  -9  -3   6    4.52    2.17
  -9   3   5   -0.92    1.82
   9   3  -5    0.47    1.38
  -9  -3   5   -2.60    1.97
  -9  -3   5   -1.03    1.62
  -9  -3   5   -0.03    3.42
   9   3  -4   35.12    2.28
  -9   3   4   29.09    2.91
  -9  -3   4   34.32    3.37
  -9  -3   4   37.78    3.76
  -9  -3   4   36.81    2.63
   9   3  -3   47.64    1.76
   9   3  -3   48.48    2.36
  -9   3   3   48.73    2.74
  -9  -3   3   48.57    3.73
  -9  -3   3   49.51    3.36
  -9  -3   3   45.38    2.59
   9   3  -2   93.23    2.37
   9   3  -2   96.99    5.93
  -9   3   2   94.95    3.01
   9   3  -2   94.80    2.95
  -9  -3   2   90.18    3.06
  -9  -3   2   92.57    3.85
  -9  -3   2   94.61    5.44
  -9   3   1    2.42    1.04
   9   3  -1   -2.08    2.93
   9   3  -1    0.62    1.23
  -9   3   1    1.28    0.64
   9   3  -1    0.94    0.79
  -9  -3   1    2.65    1.35
  -9  -3   1    0.54    1.81
  -9  -3   1   -0.93    2.83
   9   3   0   18.88    3.52
  -9   3   0   24.70    1.94
  -9   3   0   27.63    1.23
   9   3   0   21.05    1.38
   9   3   0   25.01    2.12
  -9  -3   0   22.80    2.31
  -9  -3   0   24.30    2.14
  -9  -3   0   21.88    3.36
   9   3   1   14.34    1.53
  -9   3  -1   12.39    1.44
   9   3   1   14.67    3.18
  -9   3  -1   13.78    1.27
   9   3   1   12.18    0.98
  -9  -3  -1   11.03    1.47
  -9  -3  -1   14.43    2.11
  -9  -3  -1    9.72    2.97
  -9   3  -2   15.56    1.58
   9   3   2   16.66    1.66
  -9   3  -2   17.76    1.45
   9   3   2   15.92    3.53
   9   3   2   15.20    1.12
  -9  -3  -2   15.30    3.17
  -9  -3  -2   15.90    1.72
  -9  -3  -2   17.75    2.20
   9   3   3   14.14    1.62
  -9   3  -3   15.16    1.57
   9   3   3   15.21    1.57
  -9   3  -3   16.64    1.96
   9   3   3   18.68    3.71
   9  -3   3   15.75    1.14
  -9  -3  -3   14.72    2.29
  -9  -3  -3   14.42    1.78
   9  -3   3   15.55    1.42
  -9  -3  -3   11.65    3.38
  -9   3  -4   -0.98    2.04
   9   3   4    2.16    1.11
   9   3   4    0.13    3.74
  -9  -3  -4    1.30    2.25
  -9  -3  -4   -1.07    3.35
   9  -3   4    2.04    1.13
  -9  -3  -4    0.01    1.77
   9  -3   4   -0.52    1.55
   9   3   5   11.62    1.92
   9   3   5   12.17    1.43
  -9   3  -5   13.69    1.34
  -9   3  -5   10.68    2.79
  -9  -3  -5   10.02    2.06
   9  -3   5   13.42    2.01
  -9  -3  -5    6.51    3.74
   9  -3   5   12.61    1.40
   9   3   6   28.00    2.38
   9   3   6   25.99    2.66
  -9   3  -6   29.27    2.36
   9  -3   6   27.12    2.51
   9  -3   6   32.27    4.17
  -9  -3  -6   32.39    2.67
  -9  -3  -6   28.59    4.30
   9   4  -6    1.51    1.91
  -9   4   6    7.13    2.93
  -9  -4   6    5.49    4.54
  -9  -4   6    4.82    2.60
  -9  -4   6    7.22    2.24
   9   4  -5    2.95    1.74
  -9   4   5    0.17    2.48
  -9  -4   5    1.67    1.93
  -9  -4   5    1.64    2.35
  -9  -4   5    5.21    4.21
  -9   4   4   22.08    2.57
   9   4  -4   19.44    1.85
  -9  -4   4   21.13    4.43
  -9  -4   4   16.82    1.93
  -9  -4   4   20.15    2.53
  -9   4   3   51.80    3.58
   9   4  -3   52.16    2.22
   9   4  -3   51.97    2.92
  -9  -4   3   41.33    2.93
  -9  -4   3   54.59    3.83
  -9  -4   3   33.29    7.88
   9   4  -2    5.87    1.11
   9   4  -2    3.16    4.34
   9   4  -2    4.21    1.55
  -9  -4   2    4.71    2.13
  -9  -4   2    5.45    1.67
   9   4  -1   12.14    4.26
   9   4  -1    8.15    1.60
   9   4  -1    7.99    1.08
  -9  -4   1   10.33    2.17
  -9  -4   1   11.01    1.66
  -9   4   0    3.14    0.88
   9   4   0    3.75    1.59
   9   4   0    8.65    4.14
   9   4   0    3.84    1.04
  -9   4   0    4.69    1.45
  -9  -4   0    2.23    3.45
  -9  -4   0    8.47    2.08
  -9  -4   0    5.29    1.61
   9   4   1    0.89    1.00
   9   4   1   -3.09    3.49
   9   4   1    1.71    1.53
  -9   4  -1    1.20    0.96
  -9   4  -1    0.96    1.69
  -9  -4  -1    1.19    1.99
  -9  -4  -1    1.88    3.43
  -9   4  -2    4.26    1.97
   9   4   2    2.56    1.08
   9   4   2    0.56    1.56
  -9   4  -2    2.48    1.07
  -9  -4  -2    2.91    2.05
  -9  -4  -2   -0.11    1.64
  -9  -4  -2    5.94    3.50
   9   4   3   50.52    3.09
   9   4   3   53.40    2.32
  -9   4  -3   43.98    3.35
  -9   4  -3   51.00    3.93
  -9  -4  -3   67.51    6.70
  -9   4  -4    5.91    1.33
  -9   4  -4    5.74    2.90
   9   4   4    4.78    1.77
   9   4   4    3.64    1.49
  -9  -4  -4    1.61    4.07
  10   0 -10   24.76    1.76
 -10   0  10   17.71    2.41
 -10   0  10   21.98    2.97
  10   0 -10   23.38    1.99
 -10   0   9   -0.52    2.34
  10   0  -9    0.62    0.97
  10   0  -9    0.51    1.07
 -10   0   9    2.03    1.72
  10   0  -8  293.13    5.86
  10   0  -8  286.03    5.67
 -10   0   8  288.77    6.30
 -10   0   8  293.40    7.18
 -10   0   7    0.84    2.01
  10   0  -7   -1.07    0.91
  10   0  -7    1.15    1.00
 -10   0   7   -1.13    1.34
  10   0  -6   88.92    2.13
  10   0  -6   90.70    2.38
 -10   0   6   82.97    2.73
 -10   0   6   92.73    3.71
  10   0  -5    1.38    0.82
 -10   0   5    0.09    1.63
 -10   0   5    1.54    1.42
  10   0  -5    0.66    0.61
  10   0  -4   14.13    1.02
 -10   0   4   12.74    1.18
  10   0  -4   10.71    0.96
 -10   0   4    9.00    1.72
 -10   0   3   -1.71    2.32
 -10   0   3   -0.61    0.99
 -10   0   3   -0.06    0.53
  10   0  -3   -1.71    0.82
  10   0  -3   -1.57    0.57
 -10   0   2    3.22    1.94
  10   0  -2    1.37    0.87
 -10   0   2    0.56    0.99
 -10   0   2    1.33    0.55
  10   0  -2    1.36    0.61
 -10   0   1   -2.68    1.92
 -10   0   1   -0.30    1.01
  10   0  -1    0.62    0.62
 -10   0   1   -0.69    0.51
  10   0  -1   -0.83    0.86
  10   0   0    1.84    1.97
  10   0   0    1.13    0.67
 -10   0   0   -0.07    1.05
 -10   0   0   -0.84    1.77
  10   0   0    1.36    0.92
 -10   0   0    0.53    0.55
 -10   0  -1   -3.80    1.72
  10   0   1   -0.88    1.85
  10   0   1   -0.48    0.68
  10   0   1   -0.82    1.10
 -10   0  -1   -0.38    1.27
 -10   0  -1   -0.26    0.58
  10   0   2  295.09    7.08
  10   0   2  305.92    5.93
 -10   0  -2  308.78    5.87
 -10   0  -2  295.45    6.90
 -10   0  -2  299.57    6.40
  10   0   2  302.98    6.28
 -10   0  -3    0.92    0.73
 -10   0  -3    0.99    1.86
  10   0   3    0.41    1.35
 -10   0  -3    0.68    1.46
  10   0   3   -5.57    2.10
  10   0   3    0.50    0.89
  10   0   4  269.37    5.90
  10   0   4  270.29    6.84
 -10   0  -4  267.10    5.31
 -10   0  -4  254.46    6.10
  10   0   4  259.16    5.41
 -10   0  -4  254.77    6.49
  10   0   5    1.36    1.15
  10   0   5   -2.71    2.54
 -10   0  -5    3.02    1.99
 -10   0  -5   -0.77    0.89
 -10   0  -5    0.39    2.21
  10   0   5   -1.58    1.61
  10   0   6   -0.66    1.35
  10   0   6    1.07    1.89
 -10   0  -6    2.93    2.41
 -10   0  -6   -0.41    1.05
 -10   0  -6   -0.59    2.23
  10   0   6   -1.42    3.08
 -10   0  -7    0.87    1.19
  10   0   7    3.66    2.28
  10   0   7    7.03    3.76
 -10   0  -7    2.19    2.93
  10   0   7    0.13    1.59
  10   0   8    0.11    4.47
 -10   0  -8   -0.67    1.33
  10   0   8    3.40    2.53
 -10   1  10   24.53    2.87
  10   1 -10   30.24    2.34
 -10   1  10   23.70    2.26
 -10  -1  10   24.19    3.28
  10   1  -9    4.22    1.14
 -10   1   9    2.32    1.64
  10   1  -9    2.25    1.32
 -10   1   9    4.11    2.30
 -10  -1   9    6.09    2.27
 -10  -1   9    6.26    2.77
  10   1  -8    2.27    1.02
 -10   1   8    3.47    1.36
  10   1  -8    0.76    1.20
 -10   1   8   -0.63    2.09
 -10  -1   8    2.34    2.34
 -10  -1   8    1.65    1.60
 -10   1   7   78.93    3.64
 -10   1   7   67.53    2.40
  10   1  -7   68.94    2.07
  10   1  -7   73.29    2.45
 -10  -1   7   75.22    3.96
 -10  -1   7   65.68    2.84
 -10   1   6   37.44    2.90
 -10   1   6   37.68    1.92
  10   1  -6   35.06    1.90
  10   1  -6   33.79    1.51
 -10  -1   6   32.63    3.25
 -10  -1   6   37.53    2.25
  10   1  -5   48.77    1.58
 -10   1   5   46.38    1.92
  10   1  -5   50.65    2.04
 -10   1   5   49.41    2.85
 -10  -1   5   48.89    3.16
 -10  -1   5   44.27    3.75
 -10  -1   5   48.46    2.30
  10   1  -4   17.44    1.64
 -10   1   4   17.36    0.98
  10   1  -4   13.93    1.16
 -10   1   4   15.28    1.53
 -10  -1   4   18.39    1.90
 -10  -1   4   14.98    1.84
 -10  -1   4   13.42    2.75
  10   1  -3   -0.28    1.22
 -10   1   3    0.73    0.54
  10   1  -3    0.34    0.95
 -10   1   3   -0.95    0.91
 -10  -1   3    1.05    1.61
 -10  -1   3    1.31    1.12
 -10  -1   3    1.21    2.25
 -10   1   2  164.14    4.95
  10   1  -2  165.13    3.43
 -10   1   2  161.94    3.66
  10   1  -2  165.35    3.74
 -10   1   2  167.13    3.31
  10  -1  -2  167.46    3.40
 -10  -1   2  167.18    5.41
  10  -1  -2  164.53    3.26
 -10   1   1   52.11    1.97
 -10   1   1   53.09    3.12
  10   1  -1   51.10    1.58
  10   1  -1   50.40    3.92
 -10   1   1   50.46    1.43
  10   1  -1   54.31    2.06
 -10  -1   1   51.61    1.48
 -10  -1   1   47.80    2.78
 -10  -1   1   50.37    3.70
  10  -1  -1   51.89    1.39
  10  -1  -1   52.16    1.68
 -10   1   0   44.36    1.40
  10   1   0   44.92    1.99
 -10   1   0   48.03    2.03
 -10   1   0   42.84    2.74
  10   1   0   41.73    3.70
  10  -1   0   44.99    1.40
 -10  -1   0   44.66    1.40
  10  -1   0   43.52    1.73
 -10  -1   0   42.39    3.48
 -10   1  -1    2.26    1.14
  10   1   1    1.94    1.14
  10   1   1    1.74    0.74
  10   1   1    2.30    2.17
 -10   1  -1    1.57    1.45
 -10   1  -1    2.17    0.68
 -10  -1  -1    2.11    0.66
 -10  -1  -1    0.66    2.04
 -10  -1  -1    1.51    1.20
  10  -1   1    2.23    1.02
  10  -1   1    2.17    0.72
  10   1   2    6.04    1.27
 -10   1  -2    4.88    0.77
 -10   1  -2    5.69    1.51
  10   1   2    5.00    2.37
  10   1   2    3.83    0.88
 -10   1  -2    5.65    1.40
 -10  -1  -2    5.84    1.43
 -10  -1  -2    4.90    0.76
  10  -1   2    4.83    1.22
  10  -1   2    6.70    1.76
  10  -1   2    5.35    0.85
 -10  -1  -2    2.65    2.14
 -10   1  -3   -0.12    1.53
  10   1   3    0.84    0.88
  10   1   3   -2.88    2.46
  10   1   3    0.57    1.36
 -10   1  -3    0.44    0.81
 -10   1  -3    3.11    1.49
  10  -1   3   -0.07    1.32
  10  -1   3    0.82    1.92
 -10  -1  -3    0.89    2.07
 -10  -1  -3    1.47    0.75
 -10  -1  -3   -0.96    1.51
  10  -1   3    0.47    0.90
  10   1   4    2.86    2.76
  10   1   4    2.52    1.53
 -10   1  -4    2.34    0.88
 -10   1  -4    2.05    1.73
  10   1   4    4.08    1.05
 -10   1  -4    1.39    1.59
 -10  -1  -4    2.46    0.84
  10  -1   4    3.15    1.06
 -10  -1  -4    0.32    1.70
  10  -1   4    4.84    2.13
 -10  -1  -4    1.70    2.48
  10  -1   4    1.41    1.50
 -10   1  -5    3.73    2.12
  10   1   5    1.36    3.10
  10   1   5    3.24    1.20
 -10  -1  -5    4.80    0.95
  10  -1   5    2.58    2.32
  10  -1   5    5.69    1.71
 -10  -1  -5    2.27    2.75
  10  -1   5    5.18    1.25
 -10  -1  -5    4.24    2.02
 -10   1  -6    0.18    2.49
  10   1   6   -0.42    3.63
 -10   1  -6   -0.19    1.11
  10   1   6   -1.60    1.84
  10   1   6   -2.01    1.41
 -10  -1  -6    2.11    2.25
 -10  -1  -6   -0.89    1.16
  10  -1   6   -1.82    2.76
  10  -1   6   -0.39    1.34
 -10  -1  -6   -0.30    2.76
  10  -1   6   -1.03    1.94
 -10   1  -7   -0.53    1.30
  10   1   7    4.19    4.01
  10   1   7   -1.71    1.17
 -10   1  -7   -3.61    2.23
  10   1   7   -1.69    2.21
 -10  -1  -7   -1.15    1.08
  10  -1   7   -1.83    2.22
  10  -1   7    6.37    3.33
 -10  -1  -7    1.45    5.28
 -10  -1  -7    4.09    2.54
  10  -1   7    1.87    1.78
 -10   1  -8   11.31    1.64
  10   1   8   13.29    2.68
  10  -1   8   11.84    2.82
 -10  -1  -8   13.68    3.03
 -10  -1  -8   11.19    1.35
  10  -1   8   17.91    4.24
 -10   2   9   -0.62    1.54
  10   2  -9    3.76    1.62
 -10   2   9    2.37    2.29
  10   2  -9   -0.09    3.07
 -10  -2   9    4.80    2.97
 -10  -2   9   -1.68    4.70
 -10   2   8    2.46    1.39
  10   2  -8    1.88    1.44
 -10   2   8    3.03    2.02
 -10  -2   8    3.77    4.16
 -10  -2   8    5.46    2.57
 -10  -2   8    2.33    2.12
  10   2  -7    0.83    1.40
 -10   2   7    0.91    1.81
 -10   2   7    2.53    1.14
 -10  -2   7    1.01    2.29
 -10  -2   7    5.05    4.14
 -10  -2   7    1.94    1.64
  10   2  -6    6.78    1.01
  10   2  -6    7.07    1.33
 -10   2   6    6.85    1.08
 -10   2   6    5.51    1.72
 -10  -2   6    6.02    2.21
 -10  -2   6    9.15    4.06
 -10  -2   6    8.43    1.63
  10   2  -5    5.44    0.91
 -10   2   5    5.94    1.00
  10   2  -5    3.56    1.28
 -10  -2   5    5.54    1.64
 -10  -2   5    8.84    2.08
 -10  -2   5    4.76    3.25
  10   2  -4   53.94    1.80
  10   2  -4   55.74    2.29
 -10   2   4   53.11    1.86
 -10   2   4   56.16    1.43
 -10  -2   4   51.31    4.96
 -10  -2   4   53.80    2.57
 -10  -2   4   54.07    3.42
 -10   2   3    4.18    0.89
  10   2  -3    4.43    1.14
  10   2  -3    4.71    0.79
 -10   2   3    3.30    0.58
 -10  -2   3    4.90    1.38
 -10  -2   3    3.05    2.67
 -10  -2   3    3.91    1.83
  10   2  -2  161.71    6.03
 -10   2   2  153.54    3.49
  10   2  -2  162.27    3.78
 -10   2   2  156.46    3.16
  10   2  -2  156.51    3.35
 -10  -2   2  155.89    3.95
 -10  -2   2  149.78    5.66
 -10  -2   2  158.95    4.66
 -10   2   1   62.66    1.65
  10   2  -1   65.76    4.82
  10   2  -1   66.66    1.86
  10   2  -1   67.41    2.35
 -10   2   1   58.75    2.81
 -10   2   1   62.44    2.16
 -10  -2   1   67.35    3.37
 -10  -2   1   61.05    2.55
 -10  -2   1   59.42    4.37
  10   2   0   23.85    1.37
 -10   2   0   24.97    1.20
 -10   2   0   24.65    1.87
  10   2   0   23.50    3.10
  10   2   0   22.98    1.94
 -10  -2   0   21.46    2.83
 -10  -2   0   24.70    2.20
  10   2   1    8.72    0.87
  10   2   1    7.69    1.32
 -10   2  -1    8.18    0.82
 -10   2  -1    6.73    1.36
  10   2   1    6.09    2.56
 -10  -2  -1    5.10    2.52
 -10  -2  -1    7.20    1.39
 -10  -2  -1    8.75    0.78
  10  -2   1    7.70    1.00
  10  -2   1    8.42    0.81
  10   2   2   91.60    5.28
  10   2   2   99.49    3.18
 -10   2  -2  103.18    2.52
 -10   2  -2   98.36    3.34
  10   2   2  100.57    2.59
  10  -2   2  103.59    2.51
 -10  -2  -2  102.14    2.40
  10  -2   2  105.39    2.89
 -10  -2  -2  107.08    5.03
 -10  -2  -2  104.53    3.35
 -10   2  -3    1.04    0.88
  10   2   3    0.52    1.46
  10   2   3    1.11    3.29
  10   2   3    2.31    0.95
 -10   2  -3    0.60    1.64
  10  -2   3    0.89    1.36
 -10  -2  -3    0.20    2.83
 -10  -2  -3    1.98    0.76
  10  -2   3    1.78    1.13
 -10  -2  -3    3.39    1.61
  10   2   4  126.43    6.47
 -10   2  -4  131.41    4.42
 -10   2  -4  140.14    3.27
  10   2   4  131.08    3.31
  10   2   4  137.78    4.03
  10  -2   4  142.80    3.93
 -10  -2  -4  133.10    4.19
 -10  -2  -4  127.27    5.93
 -10  -2  -4  136.18    3.05
  10  -2   4  134.99    3.36
 -10   2  -5    1.64    1.09
 -10   2  -5   -0.25    2.26
  10   2   5   -3.06    3.67
  10   2   5   -1.35    1.74
  10   2   5    1.04    1.22
  10  -2   5    0.99    1.76
 -10  -2  -5   -0.12    0.90
  10  -2   5    0.98    1.26
 -10  -2  -5    2.57    3.43
 -10  -2  -5   -2.11    2.04
  10   2   6   10.82    2.19
  10   2   6    2.30    3.64
 -10   2  -6    7.69    2.86
  10   2   6    7.45    1.71
 -10   2  -6    6.34    1.32
 -10  -2  -6    9.45    2.36
  10  -2   6    7.48    1.56
 -10  -2  -6    6.41    3.46
 -10  -2  -6    9.14    1.04
  10  -2   6   10.50    2.15
 -10   2  -7    8.02    1.54
  10   2   7    8.35    2.42
  10  -2   7   10.64    1.94
  10  -2   7   11.53    2.52
 -10  -2  -7    9.06    1.20
 -10  -2  -7   14.35    2.82
 -10  -2  -7    9.80    3.68
  10  -2   7   13.05    2.93
  10   3  -8    6.82    1.87
 -10   3   8    7.52    3.35
 -10  -3   8   12.40    3.04
 -10  -3   8    6.83    4.67
  10   3  -7    1.29    1.64
 -10   3   7    1.92    2.73
 -10  -3   7   10.21    4.31
 -10  -3   7    3.35    2.53
 -10  -3   7    0.86    2.16
  10   3  -6    3.73    1.54
 -10   3   6    3.89    2.33
 -10  -3   6    5.34    1.89
 -10  -3   6    4.25    4.58
 -10  -3   6    2.91    2.38
 -10   3   5   31.61    3.12
  10   3  -5   31.83    2.50
  10   3  -5   27.90    1.83
 -10  -3   5   27.50    3.15
 -10  -3   5   25.91    4.10
 -10  -3   5   29.46    2.09
  10   3  -4   39.48    1.81
 -10   3   4   46.86    3.01
  10   3  -4   47.06    2.74
 -10  -3   4   42.77    2.92
 -10  -3   4   48.01    4.30
 -10  -3   4   40.95    3.66
 -10   3   3   80.10    4.05
  10   3  -3   86.02    2.90
  10   3  -3   73.62    2.28
 -10  -3   3   89.17    3.96
 -10  -3   3   77.76    5.93
 -10  -3   3   79.08    3.21
  10   3  -2  191.02    4.47
 -10   3   2  176.03    4.38
  10   3  -2  176.78    7.39
  10   3  -2  185.93    3.96
 -10  -3   2  189.51    5.33
 -10  -3   2  186.94    4.61
 -10  -3   2  188.38    6.81
  10   3  -1    0.49    3.38
 -10   3   1    0.13    0.69
  10   3  -1   -0.76    1.33
 -10   3   1    1.20    1.13
  10   3  -1   -2.26    0.84
 -10  -3   1    1.84    2.99
 -10  -3   1   -0.23    1.95
 -10  -3   1    1.19    1.47
 -10   3   0   25.53    1.37
  10   3   0   25.13    1.56
  10   3   0   30.23    3.93
 -10   3   0   26.22    2.17
  10   3   0   24.78    2.24
 -10  -3   0   25.85    3.68
 -10  -3   0   24.55    1.88
 -10  -3   0   26.30    2.38
  10   3   1   29.07    3.57
  10   3   1   40.49    2.52
 -10   3  -1   39.47    2.38
  10   3   1   41.11    1.81
 -10   3  -1   43.83    1.65
 -10  -3  -1   35.66    3.78
 -10  -3  -1   39.08    3.61
 -10  -3  -1   37.99    2.66
  10   3   2   24.42    3.86
  10   3   2   30.93    1.80
 -10   3  -2   33.57    1.69
  10   3   2   31.33    2.56
 -10   3  -2   33.32    2.65
 -10  -3  -2   32.12    3.81
 -10  -3  -2   35.11    2.65
 -10  -3  -2   29.19    2.89
  10   3   3    7.50    3.91
 -10   3  -3    5.97    1.87
  10   3   3    5.32    1.74
 -10   3  -3    6.93    1.04
  10   3   3    7.11    1.19
 -10  -3  -3    7.39    2.42
  10  -3   3    8.08    1.09
 -10  -3  -3    6.94    1.84
  10  -3   3    6.98    1.37
 -10  -3  -3    9.43    3.65
  10   3   4   13.80    3.92
 -10   3  -4    8.93    2.26
  10   3   4    8.26    1.81
 -10   3  -4    7.47    1.23
  10   3   4    9.04    1.35
 -10  -3  -4    1.91    3.55
  10  -3   4   10.45    1.74
 -10  -3  -4   15.88    2.14
  10  -3   4    6.87    1.23
 -10   3  -5    5.85    1.32
  10   3   5    3.84    1.89
 -10   3  -5   10.45    3.30
  10   3   5    7.67    1.65
  10  -3   5    7.61    2.01
  10  -3   5   10.04    1.41
 -10  -3  -5    5.99    3.99
 -10  -3  -5    8.02    2.18
  10   3   6   10.97    2.28
 -10   3  -6    6.58    1.56
  10  -3   6    7.49    1.68
 -10  -3  -6    7.79    2.63
  10  -3   6    8.39    2.46
 -10  -3  -6    6.65    4.04
 -10   4   5   30.82    3.12
  10   4  -5   20.98    2.10
 -10  -4   5   21.28    2.29
 -10  -4   5   27.60    4.45
 -10  -4   5   27.09    2.86
 -10   4   4    9.53    2.61
  10   4  -4   11.41    1.16
  10   4  -4   14.92    1.96
 -10  -4   4   13.77    2.52
 -10  -4   4   12.97    4.58
 -10  -4   4   14.46    2.03
  10   4  -3    5.40    1.76
  10   4  -3    5.32    1.35
 -10   4   3    7.19    2.16
 -10  -4   3    9.04    2.38
 -10  -4   3    6.31    1.91
 -10  -4   3    8.12    3.89
  10   4  -2   -0.85    1.56
  10   4  -2   -0.72    1.22
  10   4  -2   -3.26    4.52
 -10  -4   2    0.25    3.81
 -10  -4   2    0.73    2.21
 -10  -4   2    0.56    1.77
 -10   4   1   -0.59    0.81
  10   4  -1   -0.65    1.12
  10   4  -1   -1.77    1.52
  10   4  -1   -2.39    4.33
 -10  -4   1   -0.23    2.16
 -10  -4   1   -0.60    1.75
 -10  -4   1   -0.09    3.82
  10   4   0    6.87    4.13
  10   4   0    5.04    1.61
 -10   4   0    5.46    0.97
 -10   4   0    4.15    2.57
  10   4   0    6.24    1.18
 -10  -4   0    7.51    1.75
 -10  -4   0    7.26    2.27
 -10  -4   0    4.53    3.73
  10   4   1    2.64    1.58
 -10   4  -1    0.25    1.76
 -10   4  -1    1.31    1.00
  10   4   1    2.05    1.21
 -10  -4  -1    3.85    2.27
 -10  -4  -1    0.04    1.80
 -10  -4  -1   -0.01    3.69
 -10   4  -2    0.95    1.08
  10   4   2   -0.51    1.29
  10   4   2   -1.52    1.63
 -10   4  -2    2.13    2.06
 -10  -4  -2    2.15    2.27
 -10  -4  -2    4.45    3.88
 -10  -4  -2    0.49    1.80
 -10   4  -3   29.75    2.05
  10   4   3   28.43    2.46
  10   4   3   24.45    2.14
 -10   4  -3   30.46    2.91
 -10  -4  -3   30.10    2.68
 -10  -4  -3   31.45    4.64
 -10  -4  -3   27.60    2.22
  11   0 -10   62.01    2.45
 -11   0  10   59.90    3.16
  11   0 -10   60.20    2.20
 -11   0  10   61.97    4.98
 -11   0   9    1.40    2.40
 -11   0   9   -3.87    1.94
  11   0  -9   -0.97    0.95
  11   0  -9    2.52    1.20
 -11   0   8   15.70    2.97
 -11   0   8   14.83    1.75
  11   0  -8   16.35    1.04
  11   0  -8   16.21    1.27
 -11   0   7   -3.84    2.11
 -11   0   7   -3.42    1.45
  11   0  -6  244.27    4.93
 -11   0   6  232.75    6.01
 -11   0   6  235.92    5.26
  11   0  -6  239.14    4.70
 -11   0   5   -2.30    1.72
  11   0  -5   -1.43    0.92
 -11   0   5    1.47    1.19
  11   0  -5   -0.29    0.71
 -11   0   4  846.84   17.97
  11   0  -4  899.27   16.31
  11   0  -4  908.68   16.49
 -11   0   4  892.30   17.16
 -11   0   4  879.60   16.76
 -11   0   3   -1.98    1.11
 -11   0   3   -0.28    0.60
 -11   0   3   -1.03    2.29
  11   0  -3   -2.02    0.91
  11   0  -3   -2.08    0.66
 -11   0   2    1.78    1.11
 -11   0   2   -0.52    2.26
 -11   0   2    0.88    0.59
  11   0  -2   -0.57    0.66
  11   0  -2    0.27    0.94
 -11   0   1   -0.76    2.05
 -11   0   1   -0.42    0.58
 -11   0   1   -1.62    1.24
  11   0  -1   -0.64    0.93
  11   0  -1   -0.21    0.67
  11   0   0   62.08    1.75
 -11   0   0   59.38    2.45
 -11   0   0   59.80    1.65
  11   0   0   54.03    3.84
  11   0   0   58.99    2.21
 -11   0   0   54.79    3.56
  11   0   1   -0.99    2.10
  11   0   1    0.65    1.15
  11   0   1    0.82    0.79
 -11   0  -1   -0.47    0.63
 -11   0  -1   -0.01    2.06
 -11   0  -1    1.34    1.24
 -11   0  -2   31.71    2.45
 -11   0  -2   31.26    1.42
  11   0   2   28.28    2.68
  11   0   2   31.42    1.61
  11   0   2   32.50    2.26
 -11   0  -2   26.55    2.46
 -11   0  -3   -1.74    2.01
  11   0   3    0.55    2.35
  11   0   3    0.04    0.99
 -11   0  -3    0.76    1.54
 -11   0  -3    0.65    0.81
  11   0   3    1.84    1.44
 -11   0  -4   23.93    1.56
 -11   0  -4   21.88    2.49
  11   0   4   19.46    1.90
  11   0   4   20.60    2.86
  11   0   4   21.59    1.92
 -11   0  -4   21.00    2.08
  11   0   5    0.40    1.80
 -11   0  -5   -2.09    2.06
  11   0   5    2.62    3.05
  11   0   5   -1.14    1.23
 -11   0  -5   -1.25    2.44
 -11   0  -5   -0.01    1.00
  11   0   6   12.30    2.21
 -11   0  -6    7.61    2.66
 -11   0  -6    8.09    1.27
  11   0   6    9.25    3.42
  11   0   6    7.89    1.71
 -11   0  -6    5.54    2.59
  11   0   7    4.47    2.42
  11   0   7   -5.87    3.95
 -11   0  -7   -0.19    1.27
 -11   0  -7    4.05    3.37
  11   1 -10   29.48    2.15
 -11   1  10   28.21    2.43
  11   1 -10   26.77    2.44
 -11   1  10   26.67    3.02
 -11  -1  10   24.58    3.32
  11   1  -9    2.51    1.35
  11   1  -9    1.19    1.18
 -11   1   9    2.10    1.72
 -11  -1   9    3.28    2.75
 -11  -1   9    3.20    1.92
 -11   1   8   11.02    1.52
 -11   1   8   11.25    2.32
  11   1  -8    7.05    1.40
  11   1  -8    8.84    1.13
 -11  -1   8    5.82    2.49
 -11  -1   8    7.28    1.87
 -11   1   7   -0.54    1.99
  11   1  -7    1.33    1.21
 -11   1   7    2.61    1.26
  11   1  -7    2.98    0.99
 -11  -1   7    0.60    1.62
 -11   1   6   22.69    1.89
  11   1  -6   25.28    1.48
  11   1  -6   27.32    1.94
 -11   1   6   25.46    2.20
 -11  -1   6   25.16    2.33
 -11  -1   6   27.95    2.53
 -11  -1   6   25.76    3.91
 -11   1   5  127.39    3.22
  11   1  -5  129.12    3.26
  11   1  -5  128.28    2.87
 -11   1   5  122.88    4.02
 -11  -1   5  128.69    3.48
 -11  -1   5  131.78    4.38
 -11  -1   5  116.94    6.08
 -11   1   4    0.58    0.63
  11   1  -4   -0.06    0.78
  11   1  -4   -0.32    1.05
 -11   1   4    0.40    1.06
 -11  -1   4    2.83    2.72
 -11  -1   4    0.51    1.77
 -11  -1   4    0.89    1.23
  11   1  -3  273.26    5.60
  11   1  -3  271.52    5.29
 -11   1   3  268.93    5.52
 -11   1   3  275.93    5.19
 -11   1   3  259.96    7.01
 -11  -1   3  267.89    5.74
 -11  -1   3  254.25    7.31
 -11  -1   3  270.51    6.41
  11  -1  -3  271.62    5.23
  11  -1  -3  270.30    5.13
  11   1  -2   84.94    2.53
 -11   1   2   76.69    4.03
  11   1  -2   80.56    2.08
 -11   1   2   81.53    1.95
 -11   1   2   81.34    2.51
 -11  -1   2   80.12    4.64
  11  -1  -2   79.23    2.10
  11  -1  -2   77.88    1.89
 -11  -1   2   82.45    2.76
 -11   1   1  498.05    9.30
 -11   1   1  497.43    9.61
 -11   1   1  503.67   10.30
  11   1  -1  496.63    9.66
  11   1  -1  489.56    9.35
  11   1  -1  497.44   11.10
  11  -1  -1  496.02    9.41
 -11  -1   1  506.83    9.33
  11  -1  -1  491.80    9.26
 -11  -1   1  486.06   10.79
 -11  -1   1  494.49    9.74
  11   1   0    5.14    1.22
 -11   1   0    6.03    1.25
 -11   1   0    4.60    1.84
 -11   1   0    5.46    0.76
  11   1   0    8.18    2.51
  11   1   0    6.22    0.87
 -11  -1   0    6.93    0.77
 -11  -1   0    5.60    2.22
 -11  -1   0    5.71    1.39
  11  -1   0    6.98    0.78
  11  -1   0    5.46    1.05
  11   1   1    5.48    1.31
 -11   1  -1    6.02    1.70
  11   1   1    5.69    0.86
 -11   1  -1    6.64    1.35
 -11   1  -1    6.48    0.79
  11   1   1    0.05    2.43
 -11  -1  -1    4.57    2.34
 -11  -1  -1    3.43    1.41
  11  -1   1    6.85    1.19
 -11  -1  -1    6.17    0.78
  11  -1   1    5.70    0.84
  11   1   2    1.53    1.29
  11   1   2    0.66    2.61
  11   1   2    2.31    0.94
 -11   1  -2    1.04    1.50
 -11   1  -2    0.51    0.77
 -11   1  -2    2.15    1.51
 -11  -1  -2    1.03    1.57
 -11  -1  -2    1.66    0.76
 -11  -1  -2   -1.01    2.23
  11  -1   2    2.89    0.88
  11  -1   2    0.01    1.25
  11  -1   2    1.69    1.96
 -11   1  -3  134.89    3.08
 -11   1  -3  128.46    4.03
  11   1   3  131.02    3.75
  11   1   3  130.87    3.17
 -11   1  -3  133.21    3.97
  11   1   3  123.94    5.57
 -11  -1  -3  136.26    4.04
 -11  -1  -3  127.84    5.13
 -11  -1  -3  135.04    3.01
  11  -1   3  134.55    3.69
  11  -1   3  130.42    3.18
  11  -1   3  129.94    4.53
 -11   1  -4    2.15    0.95
  11   1   4    3.18    1.63
  11   1   4    2.35    1.14
  11   1   4    3.31    3.20
 -11   1  -4    1.24    1.72
 -11   1  -4    0.25    1.79
  11  -1   4   -1.10    2.30
 -11  -1  -4   -0.21    2.59
  11  -1   4    2.54    1.20
  11  -1   4    3.29    1.68
 -11  -1  -4    1.70    0.87
 -11  -1  -4   -0.43    1.84
 -11   1  -5  115.32    4.60
  11   1   5  124.14    4.08
 -11   1  -5  120.65    3.10
  11   1   5  115.72    3.31
  11   1   5  137.51    6.46
 -11  -1  -5  117.06    4.41
  11  -1   5  103.77    5.09
 -11  -1  -5  122.83    5.79
  11  -1   5  109.30    3.29
  11  -1   5  115.87    6.13
  11   1   6    4.96    2.24
  11   1   6   -1.84    3.83
 -11   1  -6    5.68    2.76
 -11   1  -6    3.92    1.28
  11   1   6    3.61    1.66
 -11  -1  -6    6.53    3.11
 -11  -1  -6   -1.01    2.46
  11  -1   6    4.01    1.64
 -11  -1  -6    2.05    1.07
  11  -1   6    1.17    2.06
  11  -1   6    6.92    3.10
  11   1   7    2.42    2.48
 -11   1  -7    0.89    1.38
  11   1   7   -9.16    3.94
 -11  -1  -7    4.96    3.45
 -11  -1  -7    0.54    1.17
 -11  -1  -7   -3.13    2.87
  11  -1   7   -3.44    3.66
  11  -1   7    3.48    2.45
 -11   2   9    2.98    1.68
 -11   2   9   -2.47    2.35
  11   2  -9    1.08    1.63
 -11  -2   9   -0.28    4.92
 -11  -2   9    0.68    3.04
 -11   2   8    5.92    1.45
  11   2  -8    6.04    1.59
  11   2  -8    4.52    1.37
 -11   2   8    8.49    2.21
 -11  -2   8    5.38    1.78
 -11  -2   8    2.78    4.55
 -11  -2   8    9.66    2.88
  11   2  -7    3.33    1.41
  11   2  -7    4.52    1.10
 -11   2   7    3.67    2.19
 -11   2   7    6.36    2.03
 -11  -2   7    3.23    4.08
 -11  -2   7    5.80    2.56
 -11  -2   7    1.07    2.02
 -11   2   6   70.66    2.44
 -11   2   6   78.28    3.41
  11   2  -6   74.26    2.30
 -11  -2   6   78.42    6.41
 -11  -2   6   80.66    3.23
 -11  -2   6   78.25    4.19
  11   2  -5   14.85    1.50
 -11   2   5   10.99    1.07
 -11   2   5   14.87    1.21
  11   2  -5   11.65    1.11
 -11  -2   5    7.49    3.59
 -11  -2   5   20.69    2.51
 -11  -2   5   14.13    1.69
 -11   2   4  102.51    2.26
  11   2  -4  104.02    3.06
  11   2  -4  103.39    2.57
 -11   2   4  101.08    2.66
 -11  -2   4  100.27    3.35
 -11  -2   4  106.37    4.24
 -11  -2   4   93.01    5.75
 -11   2   3   75.96    2.36
  11   2  -3   79.04    2.15
  11   2  -3   81.47    2.68
 -11   2   3   78.55    1.89
 -11  -2   3   83.61    3.79
 -11  -2   3   75.00    5.22
 -11  -2   3   84.39    3.04
 -11   2   2   16.28    2.30
  11   2  -2   13.88    1.36
  11   2  -2   11.38    3.22
 -11   2   2   15.10    1.23
 -11   2   2   14.66    1.08
  11   2  -2   15.44    1.31
 -11  -2   2   13.62    1.57
 -11  -2   2   15.90    2.15
 -11  -2   2   12.69    3.15
 -11   2   1  187.01    4.85
 -11   2   1  183.91    4.19
  11   2  -1  184.34    3.91
 -11   2   1  184.81    3.77
  11   2  -1  190.76    6.71
  11   2  -1  187.56    4.36
 -11  -2   1  182.79    6.18
 -11  -2   1  187.10    5.33
 -11  -2   1  185.41    4.52
  11   2   0   -1.93    2.79
  11   2   0    3.60    1.32
 -11   2   0    2.65    0.75
  11   2   0    2.77    0.87
 -11   2   0    2.78    1.27
 -11  -2   0    6.48    2.81
 -11  -2   0    0.83    1.48
  11   2   1   12.08    1.06
  11   2   1   12.06    1.47
 -11   2  -1   12.53    1.27
  11   2   1   10.88    3.22
 -11   2  -1   11.47    1.60
 -11  -2  -1    7.22    2.94
 -11  -2  -1   11.83    1.23
  11  -2   1   11.98    1.14
  11  -2   1   11.45    0.92
 -11  -2  -1   13.34    1.65
 -11   2  -2    2.56    1.60
  11   2   2    2.08    1.46
  11   2   2    2.65    0.98
  11   2   2    2.97    3.07
 -11   2  -2    2.31    0.92
 -11  -2  -2   -1.21    2.86
  11  -2   2    2.91    1.28
 -11  -2  -2    2.64    1.71
  11  -2   2    1.53    0.94
 -11  -2  -2    0.92    0.80
 -11   2  -3   19.44    1.61
  11   2   3   18.56    1.75
  11   2   3   17.79    3.70
  11   2   3   18.41    1.90
 -11   2  -3   18.92    2.05
  11  -2   3   18.21    1.28
 -11  -2  -3   15.31    1.97
 -11  -2  -3   19.27    1.39
  11  -2   3   17.72    1.66
 -11  -2  -3   17.00    3.12
  11   2   4   41.28    4.32
 -11   2  -4   44.22    2.10
  11   2   4   44.73    2.18
  11   2   4   46.09    3.07
 -11   2  -4   40.26    3.62
  11  -2   4   43.95    2.24
 -11  -2  -4   44.31    3.33
 -11  -2  -4   37.35    3.76
  11  -2   4   45.68    2.91
 -11  -2  -4   45.00    1.77
 -11   2  -5    0.41    1.17
 -11   2  -5    1.11    2.63
  11   2   5    1.78    1.58
  11   2   5   -2.27    1.91
  11   2   5   -0.70    4.16
  11  -2   5   -0.65    1.87
  11  -2   5    2.92    1.44
 -11  -2  -5    3.48    3.35
 -11  -2  -5   -1.13    2.20
 -11  -2  -5    0.90    0.96
  11   2   6    1.70    1.74
 -11   2  -6   -2.24    1.30
  11   2   6    2.91    2.24
 -11  -2  -6   -2.27    2.45
  11  -2   6   -1.21    1.58
 -11  -2  -6    1.58    1.09
  11  -2   6   -0.07    2.18
 -11  -2  -6    0.46    3.59
 -11   3   7   -3.20    2.66
  11   3  -7    1.49    1.70
 -11  -3   7    3.52    2.75
 -11  -3   7    0.79    4.36
  11   3  -6    0.28    1.63
 -11   3   6   -4.15    2.20
  11   3  -6   -1.04    1.18
 -11  -3   6   -6.14    3.99
 -11  -3   6   -0.93    2.14
 -11  -3   6   -0.80    2.42
  11   3  -5   19.20    1.83
  11   3  -5   16.33    1.40
 -11   3   5   17.59    2.26
 -11  -3   5   16.59    2.08
 -11  -3   5   18.13    2.56
 -11  -3   5   13.54    4.34
  11   3  -4    9.16    1.65
 -11   3   4   10.65    1.95
  11   3  -4   10.70    1.16
 -11  -3   4    8.59    1.85
 -11  -3   4   11.89    3.75
  11   3  -3   27.30    1.73
 -11   3   3   32.00    2.74
  11   3  -3   28.50    2.42
 -11  -3   3   28.02    3.97
 -11  -3   3   31.31    2.87
 -11  -3   3   26.38    2.62
 -11   3   2   32.47    1.33
 -11   3   2   30.58    1.97
  11   3  -2   31.03    4.21
 -11   3   2   32.52    2.44
  11   3  -2   31.88    1.71
 -11  -3   2   35.37    3.68
 -11  -3   2   36.94    3.79
  11   3  -1    0.22    2.23
 -11   3   1    0.65    1.20
 -11   3   1   -0.09    0.75
  11   3  -1    1.38    3.68
  11   3  -1    1.40    0.96
 -11  -3   1   -0.16    3.29
 -11  -3   1    2.10    2.09
 -11  -3   1    0.75    1.60
 -11   3   0   46.25    1.70
  11   3   0   52.00    4.44
  11   3   0   40.00    4.45
  11   3   0   48.46    1.91
 -11  -3   0   46.57    2.99
 -11  -3   0   47.36    3.87
 -11  -3   0   42.18    3.83
  11   3   1   59.20    2.14
 -11   3  -1   60.68    2.82
 -11   3  -1   62.73    2.00
  11   3   1   56.96    3.70
  11   3   1   52.77    4.68
 -11  -3  -1   63.37    4.08
 -11  -3  -1   61.44    4.56
 -11  -3  -1   59.81    3.14
 -11   3  -2   19.96    1.66
  11   3   2   19.67    4.12
  11   3   2   19.82    1.84
  11   3   2   20.05    1.90
 -11   3  -2   21.05    1.98
 -11  -3  -2   20.92    2.65
 -11  -3  -2   20.32    2.11
 -11  -3  -2   19.64    3.78
 -11   3  -3    7.22    2.05
  11   3   3    0.25    1.78
  11   3   3    4.38    1.31
  11   3   3   -1.76    3.49
  11  -3   3    4.50    1.05
 -11  -3  -3    4.30    2.53
 -11  -3  -3    9.98    3.70
  11  -3   3    2.38    1.42
 -11  -3  -3    1.92    1.96
 -11   3  -4    6.47    2.63
  11   3   4    1.86    1.57
 -11   3  -4    1.62    1.16
  11   3   4    3.25    1.96
  11  -3   4    1.81    1.73
 -11  -3  -4   -1.23    2.17
  11  -3   4    2.31    1.20
 -11  -3  -4    2.49    3.88
 -11   3  -5    8.79    3.22
 -11   3  -5    3.79    1.36
  11   3   5    2.49    2.10
  11  -3   5    2.27    2.05
 -11  -3  -5    3.29    2.44
 -11  -3  -5    3.91    3.82
  11  -3   5    2.00    1.44
 -11   4   5   10.21    2.83
  11   4  -5    5.12    2.00
 -11  -4   5   10.85    2.77
 -11  -4   5    8.77    2.30
 -11  -4   5    7.92    4.81
 -11   4   4    2.25    2.50
  11   4  -4    0.67    1.88
 -11  -4   4   -2.00    4.33
 -11  -4   4    0.92    2.03
 -11  -4   4    1.82    2.55
 -11   4   3    3.02    2.09
  11   4  -3    0.62    1.04
  11   4  -3   -0.11    1.80
 -11  -4   3    1.65    2.44
 -11  -4   3    0.89    3.94
 -11  -4   3    6.97    1.99
  11   4  -2    6.46    1.82
  11   4  -2    7.11    1.38
 -11  -4   2    6.07    1.93
 -11  -4   2    5.28    4.27
 -11  -4   2    5.54    2.48
  11   4  -1    1.46    1.75
 -11   4   1   -0.53    0.90
  11   4  -1   -0.71    1.35
 -11  -4   1    1.58    2.30
 -11  -4   1    2.60    1.94
 -11  -4   1    1.52    4.10
  11   4   0    5.27    1.48
 -11   4   0    5.64    1.03
  11   4   0    6.23    1.83
 -11   4   0    6.08    1.75
 -11  -4   0    5.75    2.50
 -11  -4   0    2.56    4.03
 -11  -4   0    5.96    1.98
 -11   4  -1    1.33    1.86
 -11   4  -1    2.30    1.11
  11   4   1    2.66    1.47
  11   4   1    4.40    1.83
 -11  -4  -1    0.25    2.43
 -11  -4  -1    3.15    2.10
 -11  -4  -1    6.91    4.27
 -11   4  -2    3.14    1.96
 -11   4  -2    6.40    2.29
  11   4   2    1.26    1.82
  11   4   2    2.53    1.28
 -11  -4  -2    2.02    2.11
 -11  -4  -2    0.12    4.17
 -11  -4  -2    4.32    2.60
  12   0  -9    0.32    1.02
 -12   0   9   -0.38    2.17
  12   0  -9   -0.16    1.19
 -12   0   9   -0.31    2.59
  12   0  -8    6.09    0.97
 -12   0   8   11.44    2.49
 -12   0   8    8.81    1.79
  12   0  -8    6.22    1.22
 -12   0   7   -4.20    1.52
 -12   0   7   -3.27    2.28
  12   0  -6   75.65    2.30
  12   0  -6   68.20    2.56
 -12   0   6   74.31    2.86
 -12   0   6   71.10    3.89
 -12   0   5    0.60    3.16
 -12   0   5   -1.74    1.27
 -12   0   5   -0.04    1.93
  12   0  -5   -1.20    0.99
  12   0  -5   -1.08    0.79
 -12   0   4 1180.86   22.15
  12   0  -4 1209.42   22.00
  12   0  -4 1198.42   21.82
 -12   0   4 1165.59   23.53
 -12   0   3   -0.73    2.44
 -12   0   3   -0.62    0.72
  12   0  -2  499.52    9.45
  12   0  -2  498.38    9.67
 -12   0   2  504.75   10.98
 -12   0   2  513.88    9.44
 -12   0   2  494.06    9.81
  12   0  -1   -3.44    1.04
 -12   0   1   -1.65    1.21
 -12   0   1   -5.03    2.31
 -12   0   0  162.42    3.37
  12   0   0  161.51    3.44
  12   0   0  162.17    3.83
 -12   0   0  158.91    4.01
 -12   0   0  149.05    5.08
 -12   0  -1    0.36    0.73
 -12   0  -1   -3.45    2.20
  12   0   1    0.53    0.87
  12   0   1    1.07    1.22
 -12   0  -1   -0.29    1.35
 -12   0  -2   73.03    4.04
  12   0   2   74.26    2.29
  12   0   2   72.56    4.42
 -12   0  -2   76.70    3.22
 -12   0  -2   77.45    2.12
  12   0   2   80.47    2.90
  12   0   3    0.07    1.03
 -12   0  -3   -1.07    2.24
  12   0   3   -1.83    2.63
 -12   0  -3   -0.53    0.85
 -12   0  -3    2.27    1.75
  12   0   3   -1.25    1.54
 -12   0  -4   25.37    2.25
  12   0   4   26.78    2.08
 -12   0  -4   26.33    2.29
  12   0   4   25.82    3.26
  12   0   4   24.40    2.39
 -12   0  -4   32.63    2.80
  12   0   5   -3.01    3.23
  12   0   5   -2.33    1.97
 -12   0  -5    1.16    1.07
 -12   0  -5   -2.48    2.53
 -12   0  -5   -1.56    2.45
  12   0   5    0.96    1.40
 -12   0  -6   23.36    2.81
 -12   0  -6   31.11    2.13
  12   0   6   32.63    2.63
 -12   0  -6   30.60    3.20
  12   0   6   28.13    2.59
  12   0   6   30.68    4.12
 -12   0  -7   -0.21    1.33
  12   0   7   -2.83    4.50
  12   0   7   -0.19    2.55
 -12   1   9   32.69    3.08
  12   1  -9   31.02    2.07
  12   1  -9   35.41    2.43
 -12   1   9   32.72    3.00
 -12  -1   9   33.95    3.50
  12   1  -8   22.25    1.74
  12   1  -8   17.79    2.46
 -12   1   8   21.41    1.85
 -12   1   8   24.34    2.64
 -12  -1   8   14.97    2.82
 -12  -1   8   15.46    2.27
 -12   1   7   56.10    3.91
 -12   1   7   60.79    2.55
  12   1  -7   57.85    2.07
  12   1  -7   59.90    2.47
 -12  -1   7   56.92    3.06
 -12  -1   7   66.01    4.35
 -12  -1   7   62.69    6.92
  12   1  -6   20.60    1.57
 -12   1   6   22.93    1.96
 -12   1   6   24.85    2.30
  12   1  -6   21.63    2.03
 -12  -1   6   27.73    4.28
 -12  -1   6   25.11    2.54
 -12  -1   6   20.15    1.82
  12   1  -5  222.82    4.81
 -12   1   5  212.43    4.77
  12   1  -5  217.39    4.44
 -12  -1   5  214.61    5.02
 -12  -1   5  212.90    5.89
  12   1  -4    0.73    1.19
  12   1  -4    1.46    0.82
 -12   1   4    0.86    0.68
 -12   1   4    0.77    1.26
 -12  -1   4    1.51    3.03
 -12  -1   4    2.18    1.92
 -12  -1   4    0.16    1.42
 -12   1   3  232.69    4.46
 -12   1   3  212.16    6.63
 -12   1   3  230.78    4.89
  12   1  -3  227.93    4.93
  12   1  -3  227.03    4.57
 -12  -1   3  228.35    5.13
 -12  -1   3  214.95    6.97
  12  -1  -3  224.78    4.40
  12  -1  -3  228.11    4.53
 -12  -1   3  218.35    5.83
  12   1  -2   14.78    1.33
 -12   1   2   17.76    1.45
  12   1  -2   16.53    1.33
 -12   1   2   17.25    2.43
 -12   1   2   15.66    1.18
 -12  -1   2   17.86    1.64
 -12  -1   2   15.51    2.81
 -12  -1   2   19.80    1.16
  12  -1  -2   17.45    1.42
  12  -1  -2   14.70    1.12
 -12   1   1   85.01    2.06
 -12   1   1   85.06    3.99
 -12   1   1   71.90    3.32
  12   1  -1   82.17    2.22
  12   1  -1   82.72    4.98
  12   1  -1   82.14    2.71
 -12  -1   1   81.56    2.93
  12  -1  -1   83.30    2.04
  12  -1  -1   83.43    2.37
 -12  -1   1   82.64    4.71
 -12  -1   1   85.88    2.10
  12   1   0   -0.17    2.59
 -12   1   0    2.83    1.34
  12   1   0    0.75    1.24
  12   1   0    0.34    0.90
 -12   1   0    2.19    0.73
 -12   1   0   -0.11    1.88
 -12  -1   0    2.50    0.73
 -12  -1   0    1.94    2.38
  12  -1   0    1.27    1.08
 -12  -1   0    1.61    1.45
  12  -1   0    1.19    0.77
 -12   1  -1    5.72    1.45
  12   1   1    7.46    1.38
  12   1   1    6.24    2.83
 -12   1  -1    7.31    1.84
 -12   1  -1    7.20    0.88
  12   1   1    6.73    0.97
 -12  -1  -1    7.25    0.82
 -12  -1  -1    0.83    2.43
 -12  -1  -1    8.00    1.59
  12  -1   1    7.79    1.28
  12   1   2   -1.85    1.39
  12   1   2   -7.49    2.83
 -12   1  -2   -0.21    0.85
 -12   1  -2    0.61    1.57
  12   1   2   -0.10    0.99
 -12   1  -2   -0.21    1.69
  12  -1   2   -0.46    1.34
  12  -1   2   -0.56    0.89
 -12  -1  -2   -3.49    2.58
 -12  -1  -2    0.13    0.79
  12  -1   2   -1.96    2.27
 -12  -1  -2    0.19    1.63
 -12   1  -3   45.12    1.87
 -12   1  -3   37.96    3.18
 -12   1  -3   42.94    3.08
  12   1   3   43.04    2.05
  12   1   3   42.35    3.73
  12   1   3   49.96    2.83
 -12  -1  -3   45.32    1.78
 -12  -1  -3   48.39    4.60
  12  -1   3   45.78    2.73
 -12  -1  -3   45.94    3.24
  12  -1   3   41.91    2.01
  12  -1   3   38.18    3.79
  12   1   4    7.69    3.59
  12   1   4    2.04    1.30
 -12   1  -4    3.20    1.96
 -12   1  -4    3.47    1.08
 -12   1  -4    5.61    2.13
  12   1   4    4.78    1.76
  12  -1   4    2.77    1.71
 -12  -1  -4    2.21    2.90
 -12  -1  -4    6.57    2.09
 -12  -1  -4    4.85    1.77
  12  -1   4    3.91    2.76
  12  -1   4    3.17    1.25
 -12   1  -5   44.35    2.16
  12   1   5   40.41    3.42
  12   1   5   38.21    4.43
 -12   1  -5   39.28    3.37
  12   1   5   41.56    2.69
 -12   1  -5   33.72    3.04
  12  -1   5   40.29    5.11
  12  -1   5   40.20    2.46
  12  -1   5   40.66    3.28
 -12  -1  -5   42.60    3.84
 -12  -1  -5   42.41    1.95
 -12  -1  -5   35.00    2.86
  12   1   6    9.07    4.53
 -12   1  -6    8.30    1.40
  12   1   6    9.50    2.32
  12  -1   6    8.93    3.51
  12  -1   6    8.20    1.82
  12  -1   6    8.88    2.27
 -12  -1  -6   21.30    6.46
 -12  -1  -6    9.06    1.25
 -12  -1  -6    2.63    2.84
 -12   2   8    3.40    2.37
  12   2  -8    0.52    1.37
  12   2  -8    2.10    1.62
 -12   2   8    4.16    1.58
 -12  -2   8   -6.41    5.10
 -12  -2   8    2.00    2.76
 -12   2   7    2.88    1.40
 -12   2   7   -1.80    2.06
  12   2  -7    0.05    1.20
  12   2  -7   -0.61    1.47
 -12  -2   7   -0.72    2.59
 -12  -2   7    1.28    2.07
 -12  -2   7   -3.77    4.15
  12   2  -6    0.70    1.46
 -12   2   6    1.43    1.46
  12   2  -6   -1.78    1.05
 -12   2   6   -0.42    1.94
 -12  -2   6    2.20    2.38
 -12  -2   6   -1.20    1.80
 -12   2   5   29.62    1.31
 -12   2   5   29.61    2.00
  12   2  -5   28.36    1.78
 -12  -2   5   24.75    4.09
 -12  -2   5   29.52    2.89
 -12  -2   5   24.86    3.14
 -12   2   4   56.34    2.22
  12   2  -4   60.56    2.60
 -12   2   4   55.46    1.62
  12   2  -4   56.26    1.99
 -12  -2   4   54.92    3.95
 -12  -2   4   57.13    3.01
 -12  -2   4   56.17    5.73
  12   2  -3   87.44    2.45
 -12   2   3   93.44    2.72
 -12   2   3   91.59    2.18
  12   2  -3   90.97    3.00
 -12  -2   3   92.17    5.90
 -12  -2   3   89.00    4.23
 -12  -2   3   95.44    3.36
 -12   2   2    3.55    0.73
  12   2  -2    3.92    3.63
 -12   2   2    2.81    1.19
  12   2  -2    2.63    1.31
  12   2  -2    3.20    0.94
 -12   2   2    1.38    2.21
 -12  -2   2    2.64    2.08
 -12  -2   2    4.53    2.91
 -12  -2   2    3.18    1.65
  12   2  -1    8.77    3.14
  12   2  -1    5.44    1.36
 -12   2   1    3.42    0.78
 -12   2   1    2.68    1.97
 -12   2   1    5.50    1.32
  12   2  -1    3.75    0.94
 -12  -2   1    6.26    1.59
 -12  -2   1    4.40    2.91
 -12  -2   1    4.08    2.13
  12   2   0   16.56    1.63
 -12   2   0   19.91    1.60
  12   2   0   14.42    3.49
 -12   2   0   20.46    1.34
  12   2   0   19.02    1.55
 -12  -2   0   17.12    1.83
 -12  -2   0   17.28    3.14
  12   2   1   79.67    2.39
  12   2   1   81.01    3.02
 -12   2  -1   77.45    3.12
 -12   2  -1   79.87    2.20
  12   2   1   81.70    5.82
  12  -2   1   83.00    2.51
 -12  -2  -1   79.59    3.33
 -12  -2  -1   67.83    5.40
  12  -2   1   79.65    2.19
 -12  -2  -1   79.99    2.15
 -12   2  -2    0.90    1.59
  12   2   2   -0.24    2.81
 -12   2  -2    1.46    0.92
  12   2   2    1.35    1.09
  12   2   2    1.80    3.31
  12  -2   2   -1.65    1.29
 -12  -2  -2    1.96    1.93
 -12  -2  -2    0.46    0.87
 -12  -2  -2    0.23    3.15
  12   2   3   25.29    2.02
 -12   2  -3   23.07    2.24
 -12   2  -3   31.40    2.71
  12   2   3   28.47    2.84
  12   2   3   15.59    3.96
 -12  -2  -3   22.83    2.20
 -12  -2  -3   22.20    3.49
  12  -2   3   28.62    2.59
 -12  -2  -3   25.87    1.53
  12  -2   3   25.93    1.90
 -12   2  -4   -0.02    2.37
  12   2   4    1.41    1.47
  12   2   4   -0.42    4.00
 -12   2  -4    1.03    1.12
  12   2   4    2.24    1.88
  12  -2   4   -1.80    1.72
 -12  -2  -4   -4.00    4.00
  12  -2   4    2.05    1.32
 -12  -2  -4    1.54    2.08
 -12   2  -5    7.51    1.37
  12   2   5    3.76    1.34
  12   2   5   -4.69    4.37
 -12   2  -5    3.38    2.45
  12   2   5    4.01    2.14
  12  -2   5    6.63    2.09
  12  -2   5    6.14    1.54
 -12  -2  -5    4.51    3.66
 -12  -2  -5    5.06    2.41
 -12  -2  -5    8.00    1.10
  12   2   6    4.59    2.33
 -12   2  -6    6.71    1.50
 -12  -2  -6    2.27    2.87
 -12  -2  -6    4.39    1.18
  12  -2   6    4.96    2.36
  12  -2   6    6.31    1.86
 -12  -2  -6    6.89    4.14
 -12   3   7    0.23    2.71
  12   3  -7    0.52    1.84
 -12  -3   7    0.49    2.97
 -12  -3   7    4.79    4.92
 -12   3   6   -0.74    2.25
  12   3  -6    1.14    1.77
 -12  -3   6    1.08    2.76
 -12  -3   6    1.20    2.12
 -12  -3   6    3.46    4.56
  12   3  -5   -0.83    1.66
 -12   3   5   -0.36    2.06
  12   3  -5   -0.66    1.27
 -12  -3   5    1.28    2.59
 -12  -3   5    2.37    2.09
 -12  -3   5    1.84    4.21
 -12   3   4    8.79    2.08
  12   3  -4    7.45    1.64
  12   3  -4    9.22    1.27
 -12  -3   4    7.35    3.96
 -12  -3   4   12.87    2.57
 -12  -3   4   10.29    2.01
 -12   3   3   16.52    1.94
 -12   3   3   20.02    1.23
 -12   3   3   20.23    2.01
  12   3  -3   19.68    1.76
  12   3  -3   20.43    1.83
 -12  -3   3   17.40    3.08
 -12  -3   3   17.73    2.07
 -12  -3   3   21.43    4.93
  12   3  -2    3.43    1.10
 -12   3   2    3.04    0.80
 -12   3   2    1.52    1.29
 -12   3   2    0.01    2.37
  12   3  -2    2.22    1.57
  12   3  -2   -0.83    4.16
 -12   3   2    1.33    1.53
 -12  -3   2    0.35    1.73
 -12  -3   2    2.25    2.19
  12   3  -1   32.21    4.49
  12   3  -1   31.84    1.88
 -12   3   1   32.10    2.45
 -12   3   1   32.19    1.52
  12   3  -1   30.81    2.66
 -12  -3   1   31.48    2.98
 -12  -3   1   34.05    2.79
  12   3   0   17.35    4.31
 -12   3   0   24.44    1.80
  12   3   0   19.85    1.85
 -12   3   0   21.39    1.54
  12   3   0   19.18    1.86
 -12  -3   0   23.29    4.83
 -12  -3   0   19.87    2.05
 -12  -3   0   21.69    2.67
  12   3   1   42.81    2.91
  12   3   1   41.64    2.11
 -12   3  -1   40.52    1.85
 -12   3  -1   42.89    2.86
  12   3   1   25.13    4.66
 -12  -3  -1   42.12    3.27
 -12  -3  -1   35.16    4.15
 -12  -3  -1   48.22    4.19
  12   3   2    9.83    1.46
 -12   3  -2   11.49    2.03
  12   3   2   12.34    1.83
 -12   3  -2   11.89    1.20
  12   3   2   10.98    3.89
 -12  -3  -2   11.69    2.21
 -12  -3  -2   16.40    3.86
 -12  -3  -2   10.23    2.68
 -12   3  -3   -1.98    1.09
  12   3   3   -1.57    1.86
  12   3   3   -0.73    1.55
 -12   3  -3   -0.30    2.16
 -12  -3  -3    1.41    2.12
 -12  -3  -3    1.00    3.78
  12  -3   3    1.88    1.48
  12  -3   3    0.75    1.06
 -12  -3  -3   -3.70    2.66
 -12   3  -4    5.93    2.84
 -12   3  -4    1.63    1.30
  12   3   4    2.62    2.10
 -12  -3  -4    2.78    2.32
  12  -3   4   -0.55    1.79
  12  -3   4    2.74    1.35
 -12  -3  -4    5.01    4.11
  12   4  -4    2.88    2.09
 -12   4   4    0.37    2.58
 -12  -4   4   -0.44    2.32
 -12  -4   4    8.24    4.81
 -12  -4   4    2.15    2.71
 -12   4   3    1.10    2.08
  12   4  -3   -0.17    1.88
 -12  -4   3   -1.22    2.15
 -12  -4   3   -1.59    2.58
 -12  -4   3   -3.41    4.27
  12   4  -2    2.93    1.86
 -12  -4   2    3.44    2.56
 -12  -4   2    5.54    4.42
 -12  -4   2    0.60    2.01
 -12   4   1    0.97    1.72
 -12   4   1    1.16    0.99
  12   4  -1    0.79    1.91
 -12  -4   1    5.17    4.36
 -12  -4   1    1.40    2.05
  12   4   0   -0.40    1.84
 -12   4   0   -0.21    1.02
 -12   4   0   -0.54    1.85
 -12  -4   0    1.89    2.10
 -12  -4   0    2.15    2.67
 -12  -4   0    4.42    4.16
  12   4   1    1.42    1.99
 -12   4  -1    2.25    1.14
 -12  -4  -1    1.64    2.26
 -12  -4  -1    0.42    4.57
 -12  -4  -1    4.76    2.86
 -13   0   9   -3.07    2.25
  13   0  -9    0.15    1.27
  13   0  -9   -1.88    1.10
 -13   0   9    1.07    2.80
 -13   0   8   11.18    2.04
  13   0  -8   13.15    1.11
 -13   0   8   12.04    2.60
  13   0  -8   14.37    1.37
 -13   0   7   -1.55    1.57
  13   0  -7   -0.14    1.13
  13   0  -7   -2.53    0.91
  13   0  -6   -0.69    1.06
  13   0  -6   -0.08    0.88
 -13   0   6   -1.76    1.49
 -13   0   6   -2.63    2.03
 -13   0   5   -3.13    2.01
  13   0  -5   -0.96    1.08
 -13   0   5    1.95    3.38
 -13   0   5   -1.43    1.38
  13   0  -5   -2.39    0.76
 -13   0   4    3.41    1.38
  13   0  -4    2.14    1.11
  13   0  -4    3.22    0.92
 -13   0   4    1.90    2.93
 -13   0   3    0.32    0.72
  13   0  -3   -3.28    1.05
  13   0  -3   -2.13    0.81
 -13   0   3   -2.15    1.30
 -13   0   3    3.14    2.83
  13   0  -2  129.29    2.93
 -13   0   2  124.13    3.54
 -13   0   2  122.92    5.47
  13   0  -2  126.56    3.27
 -13   0   2  131.51    2.86
  13   0  -1   -1.86    1.14
 -13   0   1   -0.81    0.71
 -13   0   1   -2.25    1.37
  13   0  -1   -2.06    0.86
 -13   0   1   -1.38    2.43
 -13   0   0   52.44    3.94
  13   0   0   50.08    4.58
 -13   0   0   47.26    2.69
 -13   0   0   51.32    1.69
  13   0   0   47.88    1.83
  13   0   0   52.01    2.39
  13   0   1    5.02    2.80
 -13   0  -1    1.34    1.56
 -13   0  -1    1.07    2.37
  13   0   1    0.28    0.95
 -13   0  -1    0.75    0.77
  13   0   1    0.97    1.33
 -13   0  -2  155.39    4.55
 -13   0  -2  158.64    3.51
  13   0   2  152.02    5.80
  13   0   2  158.96    3.67
  13   0   2  159.54    4.20
 -13   0  -2  161.05    5.39
  13   0   3    0.37    1.65
  13   0   3   -1.00    1.17
 -13   0  -3    3.70    1.98
  13   0   3    3.13    2.96
 -13   0  -3    0.12    1.18
 -13   0  -3   -0.84    2.44
 -13   0  -4   39.14    3.71
  13   0   4   38.68    3.68
 -13   0  -4   38.92    1.97
  13   0   4   42.98    3.21
  13   0   4   40.11    2.38
 -13   0  -4   41.98    3.18
  13   0   5    3.93    2.05
 -13   0  -5   -1.03    2.79
 -13   0  -5    2.08    2.74
  13   0   5    2.63    3.75
 -13   0  -5   -0.12    1.12
  13   0   5   -0.36    1.59
 -13   0  -6    2.36    3.02
  13   0   6   -2.41    2.40
 -13   0  -6   -0.08    1.29
  13   0   6   -2.93    4.34
 -13   1   9   26.00    3.02
 -13   1   9   22.58    2.22
  13   1  -9   21.04    2.08
  13   1  -9   21.83    1.77
 -13  -1   9   25.07    3.32
  13   1  -8   30.31    2.33
  13   1  -8   25.53    1.94
 -13   1   8   21.13    4.11
 -13   1   8   27.41    2.82
 -13  -1   8   29.44    3.24
 -13  -1   8   26.02    2.44
 -13  -1   8   27.58    5.59
  13   1  -7   13.81    1.55
 -13   1   7   16.78    1.63
  13   1  -7   17.03    1.67
 -13   1   7   16.91    2.47
 -13  -1   7   13.70    2.18
 -13  -1   7   13.77    2.86
 -13  -1   7   18.61    4.57
 -13   1   6   33.68    2.62
  13   1  -6   33.25    2.28
  13   1  -6   38.87    1.76
 -13   1   6   35.40    2.36
 -13  -1   6   29.65    2.87
 -13  -1   6   32.92    2.87
 -13  -1   6   39.32    4.30
 -13   1   5   60.76    2.44
  13   1  -5   57.91    2.46
  13   1  -5   55.18    1.99
 -13  -1   5   65.26    4.00
 -13  -1   5   53.37    2.87
 -13  -1   5   54.11    4.62
  13   1  -4   -2.17    0.90
 -13   1   4    0.38    1.26
 -13   1   4   -0.85    3.05
 -13   1   4   -0.39    0.73
  13   1  -4   -2.37    1.20
 -13  -1   4   -2.14    1.50
 -13  -1   4   -5.80    1.90
 -13  -1   4   -0.97    3.04
  13   1  -3  136.44    3.59
 -13   1   3  137.95    3.61
  13   1  -3  141.24    3.17
 -13   1   3  143.50    3.02
 -13   1   3  137.10    5.55
  13  -1  -3  134.63    2.94
 -13  -1   3  135.91    6.38
 -13  -1   3  136.74    4.74
 -13  -1   3  137.19    3.88
  13  -1  -3  139.52    3.13
 -13   1   2    6.63    0.84
 -13   1   2   10.11    2.51
  13   1  -2    3.81    1.31
 -13   1   2    4.58    1.37
  13   1  -2    5.82    0.98
  13  -1  -2    6.73    1.04
 -13  -1   2    7.50    0.81
 -13  -1   2    7.33    2.95
 -13  -1   2    4.55    1.59
  13  -1  -2    7.14    0.83
  13   1  -1    0.83    0.90
 -13   1   1    0.24    0.73
  13   1  -1    0.26    2.94
  13   1  -1   -1.57    1.28
 -13   1   1   -0.77    1.36
 -13   1   1    0.86    2.38
 -13  -1   1    0.13    2.73
 -13  -1   1   -0.46    1.44
  13  -1  -1    0.32    1.08
  13  -1  -1    1.35    0.73
 -13  -1   1    0.01    0.75
 -13   1   0   25.25    2.38
  13   1   0   23.41    3.44
 -13   1   0   25.02    1.40
  13   1   0   18.23    1.57
  13   1   0   22.51    1.65
 -13   1   0   25.92    2.46
 -13  -1   0   21.12    1.83
 -13  -1   0   23.14    1.41
 -13  -1   0   23.28    3.05
  13  -1   0   23.75    1.63
  13  -1   0   24.14    1.97
  13   1   1   42.59    2.55
 -13   1  -1   41.54    1.69
 -13   1  -1   34.70    3.44
  13   1   1   41.50    1.90
 -13   1  -1   39.32    2.78
  13   1   1   36.17    3.61
  13  -1   1   41.17    1.78
 -13  -1  -1   42.46    3.45
 -13  -1  -1   38.88    2.95
 -13  -1  -1   43.65    1.67
  13  -1   1   44.67    2.36
 -13   1  -2    0.87    1.77
  13   1   2    4.93    3.24
 -13   1  -2    2.14    0.97
  13   1   2    1.14    1.09
 -13   1  -2    2.68    1.92
  13   1   2   -0.16    1.61
 -13  -1  -2    0.22    2.88
 -13  -1  -2    1.18    1.92
 -13  -1  -2    1.34    0.88
  13  -1   2    0.84    1.47
  13  -1   2   -0.40    1.01
  13  -1   2    6.83    2.63
  13   1   3   25.01    2.02
 -13   1  -3   22.44    1.77
  13   1   3   25.92    2.04
  13   1   3   23.25    3.73
 -13   1  -3   23.95    2.27
 -13   1  -3   19.96    2.38
  13  -1   3   25.48    1.96
  13  -1   3   27.74    2.71
 -13  -1  -3   20.04    1.86
 -13  -1  -3   23.55    2.39
 -13  -1  -3   19.39    3.37
  13  -1   3   26.52    2.98
  13   1   4    3.39    1.45
  13   1   4   -1.46    3.75
 -13   1  -4    3.94    1.17
  13   1   4    3.90    1.99
 -13   1  -4    4.80    2.39
 -13   1  -4    2.18    2.17
  13  -1   4   -0.75    3.09
  13  -1   4    1.73    2.86
  13  -1   4    5.19    1.33
 -13  -1  -4   -2.65    3.28
 -13  -1  -4    2.85    1.06
 -13  -1  -4    4.69    2.28
 -13   1  -5    3.77    2.27
  13   1   5    0.42    1.35
  13   1   5    0.42    4.37
  13   1   5    1.07    2.20
 -13   1  -5   -2.68    2.31
 -13   1  -5    0.21    1.26
 -13  -1  -5   -1.79    3.34
  13  -1   5    2.05    1.46
  13  -1   5   -5.99    3.29
  13  -1   5    0.00    2.07
 -13  -1  -5    3.10    1.15
 -13  -1  -5    2.62    2.96
 -13   1  -6    8.46    1.47
  13   1   6    6.66    4.76
  13   1   6    8.02    2.49
  13  -1   6    2.93    3.83
 -13  -1  -6    8.06    3.51
  13  -1   6    7.45    2.43
 -13  -1  -6    8.71    1.30
 -13   2   8    6.56    2.56
 -13   2   8    8.33    1.77
  13   2  -8    8.33    1.81
  13   2  -8    8.00    1.86
 -13  -2   8    8.40    5.58
 -13  -2   8   13.37    3.14
  13   2  -7    6.50    1.64
 -13   2   7   10.52    1.58
  13   2  -7    5.16    1.38
 -13   2   7    9.76    2.32
 -13  -2   7    6.13    2.94
 -13  -2   7   -0.70    4.56
 -13  -2   7    3.22    1.80
  13   2  -6   21.10    1.91
 -13   2   6   26.41    2.42
  13   2  -6   22.34    1.88
 -13   2   6   22.97    2.30
 -13  -2   6   17.08    2.25
 -13  -2   6   18.85    4.21
 -13  -2   6   22.18    2.91
 -13   2   5   15.71    2.43
  13   2  -5   13.82    1.22
  13   2  -5   14.73    1.67
 -13   2   5   14.88    1.29
 -13  -2   5   17.04    2.08
 -13  -2   5   17.30    2.73
  13   2  -4   25.88    2.23
 -13   2   4   24.85    1.34
  13   2  -4   22.51    1.77
 -13   2   4   24.74    1.95
 -13  -2   4   20.34    2.78
 -13  -2   4   28.62    4.15
 -13  -2   4   22.94    2.03
  13   2  -3  162.21    4.55
  13   2  -3  157.29    3.65
 -13   2   3  163.68    5.76
 -13   2   3  166.07    3.42
 -13   2   3  152.33    4.49
 -13  -2   3  159.14    4.52
 -13  -2   3  166.26    5.85
 -13  -2   3  163.51    7.00
 -13   2   2   62.99    1.82
  13   2  -2   62.41    6.19
  13   2  -2   64.95    2.80
 -13   2   2   61.02    2.62
  13   2  -2   58.92    2.13
 -13   2   2   62.74    4.09
 -13  -2   2   59.90    3.22
 -13  -2   2   59.06    4.15
 -13  -2   2   69.87    5.72
 -13   2   1    2.66    0.85
  13   2  -1    4.97    1.01
 -13   2   1    3.24    1.33
 -13   2   1    1.45    2.14
  13   2  -1    6.69    3.61
  13   2  -1    2.59    1.56
 -13  -2   1    2.48    1.72
 -13  -2   1    4.89    2.36
 -13  -2   1    4.57    3.09
 -13   2   0    7.05    0.95
 -13   2   0    8.05    1.49
  13   2   0    6.39    1.15
  13   2   0   11.09    3.71
  13   2   0    3.09    2.73
 -13  -2   0    7.03    3.20
 -13  -2   0    5.79    1.94
 -13   2  -1   54.89    1.95
  13   2   1   46.67    4.53
  13   2   1   51.99    2.24
 -13   2  -1   52.93    3.01
  13   2   1   62.13    2.95
 -13  -2  -1   49.08    4.08
 -13  -2  -1   54.18    1.87
  13  -2   1   51.47    1.92
 -13  -2  -1   52.24    3.26
  13  -2   1   59.89    2.36
 -13   2  -2   17.11    2.04
  13   2   2   13.16    3.80
  13   2   2   13.93    1.95
 -13   2  -2   13.83    1.16
  13   2   2   14.63    1.39
 -13  -2  -2   12.22    1.84
  13  -2   2   13.87    1.19
 -13  -2  -2   14.27    2.22
 -13  -2  -2   17.58    3.63
  13  -2   2   16.55    1.60
  13   2   3   33.96    3.15
 -13   2  -3   32.59    1.94
  13   2   3   25.91    4.47
  13   2   3   28.86    2.39
 -13   2  -3   25.79    2.50
  13  -2   3   30.01    2.79
 -13  -2  -3   27.28    2.46
  13  -2   3   26.60    2.09
 -13  -2  -3   31.01    1.68
 -13  -2  -3   23.69    5.05
 -13   2  -4   -0.62    2.82
  13   2   4    7.47    4.09
  13   2   4    1.85    2.04
  13   2   4   -0.86    1.33
 -13   2  -4    1.55    1.24
  13  -2   4    2.14    1.91
 -13  -2  -4    0.23    1.03
  13  -2   4   -0.37    1.37
 -13  -2  -4    0.12    3.64
 -13  -2  -4    2.41    2.26
 -13   2  -5    2.24    1.38
  13   2   5    1.97    2.27
 -13  -2  -5    0.06    2.79
  13  -2   5    3.72    2.20
 -13  -2  -5    1.79    4.03
 -13  -2  -5    3.54    1.16
  13  -2   5    2.31    1.59
 -13   3   6    6.68    1.47
 -13   3   6    4.69    2.51
  13   3  -6    9.14    2.05
 -13  -3   6    2.65    3.03
 -13  -3   6    4.35    4.78
  13   3  -5    4.77    1.30
  13   3  -5    6.40    1.85
 -13   3   5    6.22    2.34
 -13  -3   5    4.23    2.34
 -13  -3   5    8.71    4.69
 -13  -3   5    5.94    2.86
 -13   3   4    2.52    0.82
 -13   3   4    2.80    1.32
 -13   3   4    1.57    2.05
  13   3  -4   -0.27    1.22
  13   3  -4    1.00    1.75
 -13  -3   4   -1.46    2.66
 -13  -3   4    3.79    2.27
 -13  -3   4    5.49    4.33
  13   3  -3    1.70    1.34
 -13   3   3    4.53    1.89
  13   3  -3    3.38    1.67
 -13   3   3    3.58    1.34
 -13   3   3    2.78    0.81
 -13  -3   3   -0.58    2.52
 -13  -3   3   -1.99    3.90
 -13  -3   3    1.59    2.00
  13   3  -2    6.29    4.65
  13   3  -2    7.40    1.38
 -13   3   2   12.29    0.99
  13   3  -2   11.18    1.80
 -13   3   2   11.96    2.41
 -13  -3   2    9.49    2.56
 -13  -3   2    7.59    1.96
 -13  -3   2    6.86    4.02
 -13   3   1    4.62    0.96
  13   3  -1    6.44    1.75
  13   3  -1   14.32    4.26
  13   3  -1    4.96    1.32
 -13   3   1    5.83    1.65
 -13  -3   1    8.00    2.58
 -13  -3   1    2.47    3.90
 -13  -3   1    7.35    2.07
 -13   3   0   -0.92    0.95
  13   3   0   -5.68    3.77
 -13   3   0    1.46    1.70
  13   3   0    0.24    1.26
  13   3   0   -0.09    1.82
 -13  -3   0   -0.98    3.12
 -13  -3   0    1.48    3.89
 -13  -3   0    3.92    1.93
 -13   3  -1    3.84    1.83
  13   3   1    5.27    1.44
 -13   3  -1    2.63    1.03
  13   3   1    6.07    1.88
 -13  -3  -1    2.02    2.14
 -13  -3  -1    4.66    3.94
 -13  -3  -1    3.31    3.18
 -13   3  -2    0.52    2.20
  13   3   2    3.09    1.90
  13   3   2    1.98    1.33
 -13   3  -2   -0.11    1.13
 -13  -3  -2   -2.58    3.86
 -13  -3  -2    1.10    2.69
 -13  -3  -2   -4.01    2.25
 -13   3  -3    6.42    1.28
  13   3   3    5.42    2.11
 -13   3  -3    5.04    2.77
 -13  -3  -3    7.04    4.10
 -13  -3  -3    2.58    2.26
 -13  -3  -3    1.76    2.99
 -13   4   2    1.38    1.79
 -13   4   2    1.08    0.99
 -13  -4   2    5.04    2.41
 -13  -4   2    2.78    4.72
 -13   4   1   -0.32    1.08
 -13   4   1   -2.34    1.89
 -13  -4   1    0.23    2.39
 -13  -4   1    3.63    4.71
  14   0  -9   -1.46    1.21
 -14   0   9   -2.18    2.94
  14   0  -9   -0.02    1.30
  14   0  -8    4.55    1.27
 -14   0   8    3.90    2.27
 -14   0   8    4.87    2.75
  14   0  -8    5.46    1.12
  14   0  -7   -1.96    1.16
  14   0  -7   -1.86    0.95
 -14   0   7   -0.94    2.50
 -14   0   7   -2.03    1.81
 -14   0   6    0.20    3.99
  14   0  -6    4.16    0.94
 -14   0   6    5.74    2.74
  14   0  -6    4.59    1.20
 -14   0   6    6.63    1.72
  14   0  -5   -0.90    1.12
 -14   0   5   -2.36    2.14
  14   0  -5   -0.66    0.89
 -14   0   5   -1.00    1.57
 -14   0   5    1.62    3.50
  14   0  -4    0.50    1.16
 -14   0   4    0.98    3.19
 -14   0   4    0.52    1.51
  14   0  -4   -0.51    0.86
 -14   0   3   -0.45    1.47
 -14   0   3    0.08    0.77
  14   0  -3   -0.82    1.16
 -14   0   3    4.97    3.11
  14   0  -3   -1.00    0.88
 -14   0   2   17.45    1.35
  14   0  -2   15.36    1.45
 -14   0   2   15.59    1.64
 -14   0   2   16.04    3.17
  14   0  -2   19.65    1.98
 -14   0   1   -0.34    0.78
 -14   0   1    2.34    2.67
  14   0  -1   -0.53    0.92
  14   0  -1   -1.67    1.26
 -14   0   1    0.14    1.53
 -14   0   0   58.70    1.90
  14   0   0   53.85    2.09
  14   0   0   57.37    2.58
 -14   0   0   54.85    3.00
 -14   0   0   51.13    4.51
  14   0   1    0.32    1.13
 -14   0  -1    0.38    1.75
  14   0   1   -0.63    3.04
 -14   0  -1   -1.50    2.63
 -14   0  -1   -0.31    0.87
  14   0   1   -0.62    1.47
  14   0   2  135.46    3.94
  14   0   2  132.64    3.35
 -14   0  -2  128.59    4.50
 -14   0  -2  128.66    5.35
  14   0   2  114.93    5.94
 -14   0  -2  134.95    3.22
 -14   0  -3    1.18    1.02
 -14   0  -3    3.21    2.68
  14   0   3   -3.09    3.36
  14   0   3    1.09    1.29
  14   0   3    2.35    1.78
 -14   0  -3    1.25    2.14
 -14   0  -4   34.47    2.03
  14   0   4   30.86    4.11
  14   0   4   28.49    2.59
  14   0   4   34.85    3.38
 -14   0  -4   25.35    2.95
 -14   0  -4   31.60    3.28
 -14   0  -5   -1.41    2.95
  14   0   5    0.43    1.83
  14   0   5   -2.54    4.01
 -14   0  -5    0.63    1.28
  14   0   5    1.79    2.27
 -14   1   8    2.82    1.89
  14   1  -8    6.81    1.34
 -14   1   8    3.59    2.67
  14   1  -8    4.69    1.54
 -14  -1   8    4.77    5.33
 -14  -1   8    5.93    3.11
 -14   1   7   36.77    2.97
  14   1  -7   42.11    2.03
  14   1  -7   40.89    3.04
 -14   1   7   43.82    2.97
 -14  -1   7   40.49    3.34
 -14  -1   7   45.09    5.38
 -14  -1   7   42.19    3.79
 -14   1   6    2.33    1.52
 -14   1   6   -1.89    2.17
  14   1  -6    0.47    1.37
  14   1  -6    2.32    1.09
 -14  -1   6    0.57    2.53
 -14  -1   6    1.81    4.37
 -14  -1   6    2.48    1.95
  14   1  -5   22.10    2.21
 -14   1   5   21.04    1.62
 -14   1   5   22.32    3.98
 -14  -1   5   19.02    1.95
 -14  -1   5   21.28    2.72
 -14  -1   5   24.86    4.39
 -14   1   4    1.03    0.81
 -14   1   4    1.85    1.35
  14   1  -4    1.53    1.01
 -14   1   4    2.49    3.22
  14   1  -4   -0.73    1.34
 -14  -1   4   -1.59    1.64
 -14  -1   4    0.25    3.35
  14  -1  -4    1.06    0.78
 -14  -1   4   -1.19    2.55
  14   1  -3   35.25    1.77
 -14   1   3   40.31    1.57
 -14   1   3   37.40    3.54
  14   1  -3   40.23    2.35
 -14   1   3   35.56    2.35
 -14  -1   3   37.08    2.81
  14  -1  -3   35.27    1.49
 -14  -1   3   41.45    3.85
 -14  -1   3   33.66    3.92
 -14   1   2   18.73    2.99
  14   1  -2   17.72    1.65
 -14   1   2   18.06    1.65
  14   1  -2   20.25    1.59
 -14   1   2   20.09    1.39
 -14  -1   2   13.27    3.29
  14  -1  -2   19.55    1.37
 -14  -1   2   18.51    1.89
  14  -1  -2   20.10    1.77
 -14  -1   2   17.45    1.41
 -14   1   1  212.26    4.23
  14   1  -1  205.88    4.39
  14   1  -1  193.15    7.39
 -14   1   1  196.41    6.03
 -14   1   1  201.26    4.92
  14   1  -1  206.67    4.83
  14  -1  -1  206.12    4.48
 -14  -1   1  183.89    6.81
 -14  -1   1  211.28    4.25
 -14  -1   1  202.27    5.10
  14  -1  -1  196.58    4.21
  14   1   0   -1.20    1.44
  14   1   0   -0.79    1.08
 -14   1   0   -1.92    1.59
  14   1   0    2.55    3.33
 -14   1   0    0.93    0.84
 -14   1   0    1.58    2.23
 -14  -1   0    1.02    2.89
 -14  -1   0    0.16    0.88
  14  -1   0    0.81    0.92
  14  -1   0    2.10    1.30
 -14  -1   0    0.29    1.67
 -14   1  -1   50.97    3.20
  14   1   1   54.17    3.38
 -14   1  -1   52.22    1.89
  14   1   1   44.97    4.20
  14   1   1   49.05    2.24
 -14   1  -1   48.65    3.86
  14  -1   1   54.45    2.62
  14  -1   1   48.82    1.99
 -14  -1  -1   49.66    3.84
 -14  -1  -1   48.01    3.36
  14   1   2   -2.85    3.83
  14   1   2    4.99    1.72
 -14   1  -2    1.42    2.10
 -14   1  -2   -0.82    2.01
 -14   1  -2    1.62    1.02
  14   1   2   -0.28    1.21
 -14  -1  -2    1.85    2.09
  14  -1   2    2.14    1.11
 -14  -1  -2   -0.37    3.23
  14  -1   2   -0.25    1.52
  14  -1   2    1.49    2.89
 -14  -1  -2    0.52    0.94
  14   1   3   -0.93    1.40
  14   1   3    2.49    1.87
 -14   1  -3   -3.72    2.22
 -14   1  -3    1.13    1.11
  14   1   3    1.10    3.78
 -14   1  -3   -2.29    2.31
 -14  -1  -3   -0.23    2.35
  14  -1   3   -1.01    3.13
  14  -1   3   -0.09    1.74
 -14  -1  -3   -1.36    0.98
  14  -1   3    1.46    1.27
 -14  -1  -3   -2.48    3.13
  14   1   4    3.12    2.14
  14   1   4   -3.29    4.35
 -14   1  -4   -0.44    2.59
  14   1   4    1.92    1.46
 -14   1  -4    1.01    1.19
 -14   1  -4    4.42    2.37
 -14  -1  -4    0.09    3.46
  14  -1   4    3.39    3.24
 -14  -1  -4    3.03    1.16
 -14  -1  -4    2.69    2.82
  14  -1   4    1.17    1.35
  14  -1   4    1.51    1.94
 -14   1  -5    4.14    2.47
  14   1   5   -3.30    2.29
  14   1   5    1.09    4.67
 -14   1  -5    1.41    1.35
 -14  -1  -5   -0.28    1.18
  14  -1   5   -3.04    3.74
 -14  -1  -5    0.53    3.44
  14  -1   5    0.76    1.62
  14  -1   5   -0.60    2.21
  14   2  -7    5.75    1.75
  14   2  -7    7.25    1.31
 -14   2   7    5.29    1.79
 -14   2   7    6.69    2.54
 -14  -2   7    1.15    4.90
 -14  -2   7    5.14    2.98
 -14   2   6   14.55    1.72
  14   2  -6   13.00    1.48
 -14   2   6   13.93    2.50
  14   2  -6   12.04    1.85
 -14  -2   6    5.35    4.56
 -14  -2   6    9.48    2.18
 -14  -2   6   16.39    3.14
  14   2  -5   -0.25    1.61
 -14   2   5    0.47    0.82
 -14   2   5    0.68    1.45
  14   2  -5    0.24    1.24
 -14  -2   5   -6.19    4.07
 -14  -2   5    1.53    2.60
 -14  -2   5    0.09    2.28
  14   2  -4    0.31    1.56
  14   2  -4    1.77    1.15
 -14   2   4   -1.95    3.23
 -14   2   4    0.76    0.81
 -14   2   4    0.91    1.35
 -14  -2   4    2.78    4.51
 -14  -2   4    1.41    2.69
 -14  -2   4    2.15    2.06
 -14   2   3   17.50    1.42
  14   2  -3   13.62    1.71
  14   2  -3   12.69    1.25
 -14   2   3   16.95    1.58
 -14   2   3   15.47    3.10
 -14  -2   3   11.43    3.84
 -14  -2   3   12.60    2.65
 -14  -2   3   13.80    2.01
  14   2  -2    2.02    1.62
  14   2  -2    1.48    1.11
 -14   2   2    2.08    0.84
 -14   2   2    5.03    2.62
 -14   2   2    3.35    1.35
 -14  -2   2   -1.26    1.85
 -14  -2   2   -1.48    2.35
 -14  -2   2    1.57    3.59
  14   2  -1   17.45    1.80
 -14   2   1   21.24    1.49
 -14   2   1   17.41    1.73
  14   2  -1   18.15    1.78
  14   2  -1   20.97    4.50
 -14   2   1   20.17    2.46
 -14  -2   1   17.65    2.20
 -14  -2   1   18.65    3.76
 -14  -2   1   23.53    2.89
 -14   2   0    1.00    1.55
  14   2   0   -1.27    1.17
 -14   2   0   -0.32    0.91
  14   2   0   -0.04    1.54
  14   2   0   -3.57    4.15
 -14  -2   0    0.81    3.41
  14  -2   0    0.86    0.86
 -14  -2   0   -0.86    1.90
 -14   2  -1   25.37    2.26
  14   2   1   28.77    4.36
  14   2   1   22.72    2.05
  14   2   1   22.09    2.15
 -14   2  -1   23.38    1.71
 -14  -2  -1   23.62    4.36
  14  -2   1   24.45    2.19
  14  -2   1   23.21    1.87
 -14  -2  -1   23.70    1.63
 -14  -2  -1   19.78    2.22
  14   2   2    5.64    1.54
 -14   2  -2    4.25    1.10
  14   2   2    7.07    4.47
  14   2   2    1.72    1.84
 -14   2  -2    5.32    2.15
 -14  -2  -2   -0.87    3.76
  14  -2   2    5.29    1.62
  14  -2   2    4.63    1.15
 -14  -2  -2    3.18    2.45
 -14  -2  -2    3.22    1.05
  14   2   3    3.67    2.09
 -14   2  -3    5.23    2.64
  14   2   3    4.50    1.38
 -14   2  -3    4.60    1.20
  14   2   3   -2.44    4.32
  14  -2   3    7.29    1.80
 -14  -2  -3    6.26    2.39
  14  -2   3    5.03    1.34
 -14  -2  -3    5.43    1.10
 -14  -2  -3    2.89    3.73
  14   2   4   -1.93    2.20
 -14   2  -4    1.38    1.33
 -14  -2  -4    1.91    4.05
 -14  -2  -4   -1.04    2.62
  14  -2   4    1.44    1.49
 -14  -2  -4    1.27    1.11
  14   3  -6   -0.92    1.93
 -14   3   6   -2.49    2.56
 -14   3   6   -0.38    1.57
 -14  -3   6    0.89    3.07
 -14  -3   6   -2.89    5.16
 -14   3   5   -1.42    1.58
  14   3  -5    1.00    1.99
 -14   3   5    0.38    0.85
 -14   3   5    3.41    2.52
 -14  -3   5    2.34    2.85
 -14  -3   5    0.40    4.60
  14   3  -4   12.18    2.08
 -14   3   4   15.72    1.45
 -14   3   4   10.07    2.39
 -14   3   4   13.67    1.70
 -14  -3   4   11.46    2.46
 -14  -3   4    8.11    4.48
 -14  -3   4   14.92    3.00
 -14   3   3   10.54    0.99
  14   3  -3    9.49    1.21
 -14   3   3    9.11    2.06
 -14   3   3   14.30    3.13
  14   3  -3    8.56    1.91
 -14   3   3    7.46    1.55
 -14  -3   3    7.21    4.36
 -14  -3   3   10.20    2.93
 -14  -3   3   10.53    2.47
 -14   3   2   77.10    2.24
  14   3  -2   73.27    2.61
 -14   3   2   75.82    3.13
  14   3  -2   76.80    3.57
 -14   3   2   73.36    4.31
 -14  -3   2   90.49    4.97
 -14  -3   2   74.84    7.19
 -14  -3   2   73.27    4.04
 -14   3   1    0.32    0.99
  14   3  -1   -0.19    1.81
 -14   3   1   -1.90    1.73
  14   3  -1   -1.02    1.29
 -14  -3   1   -4.35    4.13
 -14  -3   1   -1.32    2.70
 -14  -3   1   -2.25    2.18
 -14   3   0    4.41    1.96
  14   3   0    0.17    1.88
  14   3   0    0.97    1.20
 -14   3   0    1.07    1.03
 -14  -3   0   -0.03    2.10
 -14  -3   0    2.35    2.79
 -14  -3   0    1.28    4.19
  14   3   1   12.40    2.08
 -14   3  -1   12.99    1.29
 -14   3  -1   11.20    2.26
 -14  -3  -1   11.03    2.47
 -14  -3  -1   14.27    4.49
 -14  -3  -1   12.36    3.04
 -14   3  -2   -1.08    2.47
  14   3   2    0.38    2.11
 -14   3  -2    2.47    1.22
 -14  -3  -2   -0.58    4.20
 -14  -3  -2    1.09    2.96
 -14  -3  -2    2.90    2.58
 -15   0   8    1.27    2.93
  15   0  -8    0.21    1.32
 -15   0   8   -1.22    2.28
  15   0  -8   -0.12    1.14
  15   0  -7    0.23    1.29
 -15   0   7   -0.79    2.77
 -15   0   7   -1.18    2.24
  15   0  -7    1.55    1.07
 -15   0   7   -0.83    4.87
 -15   0   6   36.55    3.12
 -15   0   6   35.48    9.05
  15   0  -6   43.04    1.86
 -15   0   6   36.14    3.03
  15   0  -6   42.05    2.26
  15   0  -5    0.04    1.25
 -15   0   5   -5.10    3.95
 -15   0   5   -3.57    4.25
  15   0  -5    0.68    0.98
 -15   0   5   -0.75    1.71
 -15   0   4   32.79    3.92
  15   0  -4   38.94    1.83
  15   0  -4   41.69    2.22
 -15   0   4   32.38    2.90
 -15   0   3   -0.92    0.84
  15   0  -3   -1.44    0.97
 -15   0   3   -0.28    3.29
  15   0  -3   -0.96    1.25
 -15   0   3   -3.87    1.65
  15   0  -2   63.25    2.17
 -15   0   2   58.88    5.40
 -15   0   2   63.36    3.08
  15   0  -2   64.85    2.61
 -15   0   2   67.44    2.01
  15   0  -1   -0.56    1.35
 -15   0   1   -3.59    2.89
 -15   0   1    1.10    0.88
 -15   0   1   -0.59    1.71
  15   0  -1   -0.21    1.03
 -15   0   0   42.36    3.19
 -15   0   0   41.42    3.44
  15   0   0   52.67    2.63
 -15   0  -1    1.60    0.97
  15   0   1    2.17    1.58
  15   0   1   -1.71    3.43
 -15   0  -1   -1.82    2.82
 -15   0  -1   -3.22    1.86
  15   0   1    0.05    1.17
 -15   0  -2    1.28    2.88
  15   0   2    3.67    1.80
  15   0   2   -0.49    3.50
  15   0   2    2.71    1.31
 -15   0  -2   -1.48    1.03
 -15   0  -2    2.05    2.45
  15   0   3   -0.76    1.95
  15   0   3    1.66    1.48
 -15   0  -3   -1.21    1.13
 -15   0  -3    0.84    2.96
  15   0   3   -4.19    3.65
 -15   0  -3    1.60    2.62
  15   0   4    3.33    2.18
 -15   0  -4    5.78    1.31
 -15   0  -4    2.53    3.07
  15   0   4    1.54    1.58
  15   0   4    1.87    4.29
  15   0   5   -1.16    2.42
 -15   0  -5   -4.31    3.27
  15   0   5   -5.68    4.67
 -15   0  -5   -1.26    1.34
  15   1  -8    1.04    1.36
  15   1  -8    0.82    1.60
 -15   1   8    4.22    2.23
 -15   1   8    3.36    2.84
 -15  -1   8    1.41    3.30
 -15  -1   8    2.49    5.44
 -15   1   7   -0.54    2.56
  15   1  -7    0.99    1.27
  15   1  -7   -0.04    1.46
 -15   1   7    0.67    1.93
 -15  -1   7    0.44    1.65
 -15  -1   7    5.04    3.03
 -15  -1   7    3.67    4.91
  15   1  -6    1.48    1.55
 -15   1   6    2.83    2.44
  15   1  -6    0.66    1.14
 -15   1   6   -0.94    1.67
 -15  -1   6    2.72    2.78
 -15  -1   6    0.03    2.27
 -15  -1   6    0.44    4.38
  15   1  -5   18.00    1.31
 -15   1   5   17.45    1.74
  15   1  -5   17.62    1.91
 -15   1   5   15.46    4.20
 -15  -1   5   13.27    6.67
 -15  -1   5   14.20    2.22
 -15  -1   5   15.92    2.77
 -15   1   4   10.13    0.98
 -15   1   4    9.77    1.66
 -15   1   4   11.36    3.68
  15   1  -4    8.71    1.51
  15   1  -4    9.45    1.16
 -15  -1   4    9.51    2.62
  15  -1  -4   10.00    0.93
  15  -1  -4   11.39    1.13
 -15  -1   4    7.96    3.95
 -15  -1   4    9.69    1.89
  15   1  -3   -0.13    1.09
 -15   1   3   -0.49    0.84
 -15   1   3    0.41    3.09
  15   1  -3    1.27    1.43
 -15   1   3    0.79    1.49
 -15  -1   3    1.67    1.83
 -15  -1   3   -2.54    3.57
  15  -1  -3    1.64    0.85
 -15  -1   3    4.43    2.55
  15  -1  -3    1.88    1.08
 -15   1   2    5.84    2.97
  15   1  -2    5.07    1.46
 -15   1   2    4.88    1.54
 -15   1   2    6.49    0.92
  15   1  -2    6.10    1.18
 -15  -1   2    7.41    3.44
  15  -1  -2    6.03    1.24
 -15  -1   2    0.52    1.76
  15  -1  -2    6.26    0.95
 -15  -1   2    4.06    0.93
 -15   1   1    4.72    1.62
 -15   1   1   -0.82    2.66
  15   1  -1   -0.34    1.13
  15   1  -1    1.02    1.73
 -15   1   1    1.53    0.90
 -15  -1   1    2.08    1.82
  15  -1  -1    0.17    1.26
 -15  -1   1    7.60    3.22
  15  -1  -1    1.68    0.90
 -15  -1   1    1.12    0.93
  15   1   0   15.80    4.15
  15   1   0   19.06    1.94
 -15   1   0   15.26    1.99
  15   1   0   16.80    1.98
 -15   1   0   15.63    2.80
 -15   1   0   17.83    1.62
 -15  -1   0   16.76    2.09
  15  -1   0   18.60    1.61
  15  -1   0   17.72    1.68
 -15  -1   0   19.65    3.60
 -15  -1   0   18.63    1.58
  15   1   1    6.90    1.36
  15   1   1   17.80    4.21
 -15   1  -1    9.37    2.51
 -15   1  -1   11.40    2.13
 -15   1  -1   10.88    1.14
  15   1   1   12.18    1.88
  15  -1   1    7.30    1.62
 -15  -1  -1    2.52    3.39
 -15  -1  -1    9.49    1.11
 -15  -1  -1    8.15    2.20
  15  -1   1    9.57    1.23
 -15   1  -2    1.40    2.35
  15   1   2   -3.11    1.45
  15   1   2    3.00    1.99
 -15   1  -2    0.32    2.31
 -15   1  -2    2.13    1.07
  15   1   2   -0.43    4.06
  15  -1   2    0.70    1.21
  15  -1   2   -0.63    1.61
 -15  -1  -2    1.01    3.34
 -15  -1  -2   -1.05    1.06
 -15  -1  -2    2.41    2.64
  15   1   3   -1.17    2.04
 -15   1  -3    2.40    2.44
  15   1   3    5.46    4.72
 -15   1  -3   -1.08    2.72
  15   1   3   -1.13    1.60
 -15   1  -3   -0.65    1.19
 -15  -1  -3    3.20    3.49
  15  -1   3   -2.29    3.51
  15  -1   3    1.56    1.84
 -15  -1  -3   -0.15    2.61
 -15  -1  -3    1.89    1.08
  15  -1   3    0.95    1.35
 -15   1  -4    4.31    1.40
 -15   1  -4    3.64    2.56
  15   1   4    6.06    2.27
  15   1   4    5.50    4.80
  15  -1   4    5.52    3.75
 -15  -1  -4   -3.63    3.80
  15  -1   4    5.45    1.68
  15  -1   4    2.86    2.21
 -15  -1  -4    2.69    1.29
 -15   2   7    6.57    1.93
  15   2  -7   -0.43    1.80
 -15   2   7   -1.56    2.66
 -15  -2   7   -2.05    3.16
 -15  -2   7   -4.23    5.57
 -15   2   6   54.32    3.03
  15   2  -6   56.59    3.17
  15   2  -6   53.51    2.38
 -15  -2   6   51.80    5.82
 -15  -2   6   56.07    5.34
 -15   2   5   -0.08    1.67
  15   2  -5    0.53    1.39
 -15   2   5    0.24    0.91
  15   2  -5    0.62    1.72
 -15  -2   5    1.17    2.03
 -15  -2   5    1.85    4.65
 -15  -2   5    0.73    2.95
  15   2  -4   33.91    2.91
 -15   2   4   33.97    1.65
 -15   2   4   35.85    4.05
  15   2  -4   31.93    2.26
 -15   2   4   29.46    2.60
 -15  -2   4   32.56    3.31
 -15  -2   4   29.24    4.67
 -15  -2   4   29.06    2.74
  15   2  -3    6.25    1.37
  15   2  -3    6.21    1.78
 -15   2   3    6.74    1.55
 -15   2   3    8.55    3.12
 -15   2   3    8.09    0.99
 -15  -2   3    7.38    2.31
 -15  -2   3    8.02    2.93
 -15  -2   3    5.96    4.28
 -15   2   2   13.34    1.78
  15   2  -2   21.18    2.01
 -15   2   2   17.62    1.54
  15   2  -2   16.12    1.46
 -15   2   2   14.02    3.03
 -15  -2   2   16.08    2.37
 -15  -2   2   12.92    2.89
 -15  -2   2   17.70    4.11
 -15   2   1   85.87    4.51
 -15   2   1   86.05    3.42
 -15   2   1   89.74    2.44
  15   2  -1   81.03    2.89
  15   2  -1   94.48    3.62
  15   2  -1   85.09    7.65
 -15  -2   1   85.44    4.16
 -15  -2   1   90.40    5.20
 -15  -2   1   79.47    6.48
 -15   2   0   29.80    2.46
  15   2   0   27.60    2.40
  15   2   0   32.11    4.72
  15   2   0   25.46    2.20
 -15   2   0   30.20    2.06
 -15   2   0   27.14    2.27
 -15  -2   0   24.20    4.35
 -15  -2   0   24.52    2.66
  15  -2   0   31.14    2.09
  15  -2   0   31.20    1.68
  15   2   1   13.58    1.65
 -15   2  -1   16.36    1.31
  15   2   1   17.89    2.08
 -15   2  -1   17.79    2.28
  15   2   1   17.25    4.52
 -15  -2  -1   16.33    3.97
  15  -2   1   16.20    1.65
 -15  -2  -1   12.05    2.58
 -15  -2  -1   17.31    1.75
  15  -2   1   19.22    1.76
  15   2   2    9.59    5.06
  15   2   2    4.57    2.08
 -15   2  -2    7.52    1.24
  15   2   2    6.10    1.54
 -15   2  -2    5.36    2.63
 -15  -2  -2   13.32    4.25
 -15  -2  -2    6.46    1.19
  15  -2   2    7.69    1.75
 -15  -2  -2    6.17    2.83
  15  -2   2    6.93    1.26
 -15   2  -3    2.63    2.07
 -15   2  -3   -2.02    1.24
  15   2   3   -0.48    2.16
 -15  -2  -3    0.85    2.43
  15  -2   3   -0.02    1.94
  15  -2   3   -1.37    1.46
 -15  -2  -3    1.96    1.12
 -15  -2  -3    5.86    4.16
 -15   3   5    3.51    2.65
 -15  -3   5   -0.43    5.22
  15   3  -4    3.74    2.00
 -15   3   4    1.57    0.95
 -15   3   4    4.00    3.65
 -15   3   4    2.23    1.75
 -15  -3   4   -1.54    4.99
 -15  -3   4    2.38    3.22
 -15   3   3   20.31    3.23
 -15   3   3   18.87    1.65
  15   3  -3   21.31    2.24
 -15   3   3   18.74    1.92
 -15  -3   3   26.43    3.28
 -15  -3   3   13.42    4.86
 -15  -3   3   17.80    2.48
 -15   3   2    7.93    1.87
 -15   3   2    8.31    1.10
  15   3  -2    7.40    2.06
 -15  -3   2    0.64    4.61
 -15  -3   2    7.14    2.99
 -15  -3   2    6.51    2.30
 -15   3   1    4.24    2.00
  15   3  -1    4.29    2.03
 -15   3   1    6.30    1.14
 -15  -3   1    5.00    3.04
 -15  -3   1    7.35    4.42
 -15  -3   1   -1.35    2.51
 -15   3   0   14.91    2.37
 -15   3   0   14.85    1.35
  15   3   0   12.87    2.20
 -15  -3   0   12.94    4.60
 -15  -3   0   13.84    3.12
 -15  -3   0   11.01    2.73
 -15   3  -1    4.06    2.45
  15   3   1    7.01    2.27
 -15   3  -1    7.92    1.25
 -15  -3  -1    9.25    4.60
 -15  -3  -1    4.93    3.06
 -15  -3  -1    0.27    2.69
 -16   0   7    3.08    5.24
 -16   0   7   -0.72    2.91
  16   0  -7   -0.28    1.37
 -16   0   7    1.14    2.41
  16   0  -7    0.50    1.16
 -16   0   6    1.48    2.77
 -16   0   6   -1.43    2.24
 -16   0   6    2.70    4.55
  16   0  -6    0.10    1.11
  16   0  -6   -1.33    1.34
  16   0  -5   -1.24    1.12
 -16   0   5   -0.10    1.95
 -16   0   5    1.72    2.76
 -16   0   5    1.41    4.26
  16   0  -5   -2.29    1.34
  16   0  -4   46.64    2.46
 -16   0   4   43.43    3.26
 -16   0   4   42.28    4.41
  16   0  -4   40.41    2.03
  16   0  -3    0.32    1.11
 -16   0   3   -0.14    3.63
 -16   0   3   -0.15    1.83
 -16   0   3   -1.17    0.95
  16   0  -3   -0.44    1.35
 -16   0   2    5.08    3.42
 -16   0   2    1.16    0.91
  16   0  -2    3.37    1.10
 -16   0   2    0.27    1.79
  16   0  -2    2.38    1.41
  16   0  -1   -1.26    1.46
 -16   0   1   -0.48    1.85
 -16   0   1   -3.92    3.26
  16   0  -1    0.17    1.16
 -16   0   1    2.07    0.96
 -16   0   0   -1.63    3.19
  16   0   0    6.10    1.66
 -16   0   0    8.15    2.16
 -16   0   0    6.43    1.04
  16   0   0    6.02    1.28
 -16   0  -1   -0.65    1.11
  16   0   1    0.91    1.29
  16   0   1    0.41    1.73
 -16   0  -1    0.09    2.33
  16   0   1   -4.55    3.82
 -16   0  -1    0.69    3.06
  16   0   2    0.36    1.87
  16   0   2    0.23    1.46
 -16   0  -2    1.47    3.13
 -16   0  -2   -0.16    1.13
  16   0   2   -1.15    4.03
 -16   0  -2   -2.15    2.57
  16   0   3   -0.23    1.62
 -16   0  -3   -0.79    1.22
  16   0   3    0.00    2.10
 -16   0  -3   -3.30    3.14
  16   0   3   -2.94    4.20
 -16   0  -4   -0.18    1.38
  16   0   4   -2.39    2.36
  16   0   4   -1.91    4.69
 -16   0  -4   -1.57    3.33
 -16   1   7   19.35    2.30
  16   1  -7   12.90    1.82
 -16   1   7   15.57    2.98
  16   1  -7   14.23    1.50
 -16  -1   7   16.84    3.48
 -16  -1   7   14.39    5.47
 -16   1   6    0.15    1.97
 -16   1   6    3.73    2.66
  16   1  -6    3.46    1.64
  16   1  -6    0.45    1.26
 -16  -1   6    0.83    4.94
 -16  -1   6    2.08    3.05
 -16  -1   6   -0.17    1.73
 -16   1   5   37.19    4.43
 -16   1   5   32.59    2.99
  16   1  -5   32.75    2.00
  16   1  -5   38.63    2.69
 -16  -1   5   39.94    3.93
 -16  -1   5   36.80    4.85
 -16  -1   5   34.46    3.42
 -16   1   4   -2.53    1.66
  16   1  -4    2.37    1.55
  16   1  -4   -1.15    1.19
 -16   1   4   -0.27    3.48
 -16   1   4   -0.64    1.06
 -16  -1   4    3.28    2.71
 -16  -1   4    0.34    4.68
  16  -1  -4    2.00    0.91
 -16  -1   4    3.84    2.28
  16  -1  -4    1.63    1.16
  16   1  -3   32.97    2.60
 -16   1   3   32.26    1.84
 -16   1   3   31.47    2.94
 -16   1   3   30.76    3.88
  16   1  -3   33.18    2.05
  16  -1  -3   33.98    2.10
 -16  -1   3   30.29    4.35
  16  -1  -3   30.40    2.01
 -16  -1   3   34.35    3.52
 -16  -1   3   33.56    3.18
 -16   1   2   11.68    3.33
  16   1  -2    5.77    1.66
 -16   1   2   11.65    1.65
  16   1  -2    7.90    1.34
 -16   1   2    8.21    1.90
 -16  -1   2    9.29    1.12
  16  -1  -2   10.38    1.41
 -16  -1   2    7.84    2.27
 -16  -1   2   12.52    3.79
  16  -1  -2   10.01    1.04
 -16   1   1    7.00    1.94
 -16   1   1    9.91    1.15
 -16   1   1    7.02    3.19
  16   1  -1    8.95    1.34
  16   1  -1   14.22    1.80
 -16  -1   1    6.75    2.20
  16  -1  -1    8.42    1.09
 -16  -1   1    9.03    3.67
  16  -1  -1   10.86    1.51
 -16  -1   1   10.34    1.13
  16   1   0   19.30    4.72
 -16   1   0   13.24    2.30
  16   1   0   11.99    1.53
 -16   1   0   13.02    1.20
  16   1   0   14.61    2.01
 -16   1   0   14.72    2.94
 -16  -1   0   12.28    2.48
 -16  -1   0   17.49    3.79
  16  -1   0   12.72    1.70
 -16  -1   0   14.15    1.25
  16  -1   0   13.63    1.25
  16   1   1    9.38    4.39
 -16   1  -1    4.15    2.50
  16   1   1   -0.98    1.85
 -16   1  -1   -0.60    1.03
 -16   1  -1   -2.95    2.58
  16   1   1    2.17    1.50
  16  -1   1    0.85    1.18
 -16  -1  -1   -5.18    3.42
 -16  -1  -1    0.08    1.05
  16  -1   1    6.30    1.71
 -16  -1  -1   -0.48    2.54
 -16   1  -2   -0.29    2.62
  16   1   2   -1.38    2.06
 -16   1  -2    1.58    1.18
  16   1   2   -3.47    4.54
 -16   1  -2    1.10    2.60
  16   1   2   -1.62    1.46
  16  -1   2    4.50    1.37
 -16  -1  -2    1.16    1.15
 -16  -1  -2    1.71    3.81
 -16  -1  -2   -1.42    2.17
  16   1   3    0.36    2.29
  16   1   3   -2.85    4.75
 -16   1  -3    1.01    2.61
 -16   1  -3    0.78    1.27
  16  -1   3   -0.44    4.01
  16  -1   3    1.40    2.07
 -16  -1  -3   -1.92    3.66
 -16  -1  -3   -1.49    1.21
  16  -1   3    2.42    1.50
  16   2  -6    2.77    1.91
 -16   2   6    1.63    1.92
 -16  -2   6    2.26    5.18
 -16  -2   6    2.95    3.36
 -16   2   5   -4.94    4.01
  16   2  -5   -2.38    1.45
 -16   2   5   -0.85    1.00
 -16   2   5   -2.61    1.84
  16   2  -5    0.94    1.81
 -16  -2   5   -1.85    3.22
 -16  -2   5   -4.67    4.79
 -16   2   4   12.26    3.96
 -16   2   4   11.26    1.08
  16   2  -4    7.97    1.39
  16   2  -4   11.13    2.02
 -16   2   4   11.49    1.92
 -16  -2   4   16.61    3.28
 -16  -2   4   12.19    2.66
 -16  -2   4   15.09    4.40
 -16   2   3   -0.70    0.95
  16   2  -3    0.34    1.84
 -16   2   3   -0.81    1.72
 -16   2   3    1.60    3.34
  16   2  -3    1.30    1.38
 -16  -2   3   -4.15    2.84
 -16  -2   3   -0.14    4.07
 -16  -2   3    0.27    2.25
 -16   2   2    2.10    1.01
  16   2  -2    5.28    1.99
  16   2  -2    3.39    1.39
 -16   2   2    3.34    1.87
 -16   2   2    0.78    2.94
 -16  -2   2    6.72    4.16
 -16  -2   2    2.81    2.94
 -16  -2   2    4.39    2.46
 -16   2   1    4.36    1.97
 -16   2   1    5.46    2.65
  16   2  -1   -0.08    1.90
  16   2  -1    0.33    1.38
 -16   2   1    1.50    1.16
  16   2  -1   -1.35    5.18
 -16  -2   1    5.25    4.07
 -16  -2   1   -1.13    2.43
 -16  -2   1    5.25    3.04
 -16   2   0    2.57    1.08
  16   2   0    0.80    1.35
 -16   2   0    2.94    2.15
  16   2   0    1.38    2.06
 -16   2   0    1.83    2.25
  16  -2   0    0.60    1.35
 -16  -2   0    3.43    4.18
 -16  -2   0    4.22    2.40
  16   2   1    8.16    2.11
 -16   2  -1    4.30    1.22
 -16   2  -1    6.56    2.74
 -16  -2  -1    0.15    4.29
  16  -2   1    5.90    1.21
  16  -2   1    5.52    1.62
 -16  -2  -1    3.90    1.18
 -16  -2  -1    4.10    2.16
 -16   2  -2   -2.37    2.08
 -16   2  -2    0.68    1.29
  16   2   2   -1.64    2.28
 -16  -2  -2    0.97    1.21
  16  -2   2    1.12    1.37
  16  -2   2    0.30    1.87
 -16  -2  -2    5.39    4.47
  16   3  -2   -2.92    2.12
 -16   3   2    5.14    2.19
 -16   3   2    0.71    1.39
 -16  -3   2  -11.39    4.85
 -16  -3   2    3.54    3.34
 -17   0   7    2.50    5.78
  17   0  -7    0.77    1.49
  17   0  -7    0.22    1.29
 -17   0   7   -3.58    3.15
  17   0  -6   -0.09    1.24
  17   0  -6   -0.72    1.48
 -17   0   6    1.23    3.06
 -17   0   6    2.38    2.20
 -17   0   6   -0.74    4.88
  17   0  -5   -0.83    1.24
 -17   0   5   -1.05    2.50
  17   0  -5   -0.95    1.46
 -17   0   5    2.04    4.59
 -17   0   5   -0.61    2.89
  17   0  -4    2.48    1.50
 -17   0   4    0.56    2.31
 -17   0   4    5.17    4.16
  17   0  -4    4.11    1.21
 -17   0   3   -0.54    1.01
  17   0  -3   -0.82    1.21
 -17   0   3   -1.32    3.80
 -17   0   3    3.20    2.31
  17   0  -3   -2.09    1.49
 -17   0   2   23.71    2.59
  17   0  -2   24.67    2.07
  17   0  -2   29.31    2.57
 -17   0   2   24.89    4.14
 -17   0   2   26.21    1.81
 -17   0   1   -1.08    1.06
  17   0  -1   -2.91    1.28
 -17   0   1   -0.35    2.34
 -17   0   1   -1.55    3.53
  17   0   0    1.65    1.30
 -17   0   0    0.74    3.23
  17   0   0    1.65    1.76
 -17   0   0    4.57    1.13
 -17   0   0   -2.86    2.52
  17   0   1    1.78    1.90
 -17   0  -1    1.47    1.94
 -17   0  -1   -0.37    1.15
  17   0   1   -0.21    1.39
 -17   0  -1    3.55    3.54
  17   0   2   -3.45    4.68
  17   0   2    0.25    1.65
 -17   0  -2   -3.78    3.27
 -17   0  -2    1.10    1.26
  17   0   2    1.30    2.04
 -17   0  -3   -1.06    1.35
  17   0   3    1.92    2.38
  17   0   3   -5.28    4.86
 -17   0  -3    1.23    3.60
 -17   1   6   16.13    3.05
 -17   1   6   13.63    4.74
  17   1  -6    9.79    1.50
 -17   1   6   11.76    2.44
  17   1  -6   10.61    1.83
 -17  -1   6   10.23    3.44
 -17  -1   6   16.49    5.31
 -17   1   5    1.64    4.13
  17   1  -5   -0.68    1.36
 -17   1   5   -1.08    2.07
  17   1  -5   -0.17    1.70
 -17  -1   5    0.23    3.03
 -17  -1   5    1.35    4.89
  17   1  -4   -0.42    1.25
 -17   1   4   -0.30    0.99
  17   1  -4    3.21    1.72
 -17   1   4   -5.58    3.98
 -17   1   4   -1.67    1.96
 -17  -1   4   -0.84    3.02
  17  -1  -4   -0.72    1.57
  17  -1  -4    0.13    1.21
 -17  -1   4    2.66    4.43
 -17  -1   4   -0.73    1.81
 -17   1   3    0.79    0.99
  17   1  -3    0.76    1.32
 -17   1   3    0.76    3.73
 -17   1   3   -0.25    1.94
  17   1  -3    1.98    1.70
 -17  -1   3    4.17    2.99
 -17  -1   3   -2.35    4.16
  17  -1  -3    0.02    1.00
  17  -1  -3    4.37    1.34
 -17  -1   3    2.37    2.27
 -17   1   2    2.26    3.46
 -17   1   2    3.27    1.03
  17   1  -2    2.70    1.49
 -17   1   2    0.07    2.15
  17   1  -2    3.94    1.80
  17  -1  -2    0.95    1.41
 -17  -1   2    2.15    1.09
 -17  -1   2    3.63    2.39
  17  -1  -2    2.88    1.05
 -17  -1   2   -3.91    4.55
 -17   1   1    6.25    1.16
 -17   1   1    3.44    3.26
  17   1  -1    3.98    1.91
 -17   1   1    4.12    2.47
  17   1  -1    5.09    1.59
 -17  -1   1    1.59    2.43
  17  -1  -1    5.54    1.60
  17  -1  -1    4.42    1.14
 -17  -1   1    5.20    1.16
 -17  -1   1   13.77    8.15
 -17   1   0    2.14    1.18
 -17   1   0    1.67    2.59
  17   1   0    3.44    1.66
  17   1   0   -5.57    4.94
  17   1   0    3.61    2.01
 -17  -1   0    3.53    1.18
 -17  -1   0    2.31    6.94
  17  -1   0    3.62    1.24
 -17  -1   0    0.63    1.94
  17  -1   0    3.09    1.72
 -17   1  -1   -0.38    2.35
 -17   1  -1    1.62    1.26
  17   1   1   -4.23    5.09
  17   1   1    0.25    2.08
 -17   1  -1   -2.34    2.95
  17   1   1    0.17    1.27
  17  -1   1    0.83    1.93
 -17  -1  -1   -0.28    3.91
  17  -1   1    1.40    1.33
 -17  -1  -1    1.02    1.19
 -17   1  -2    1.61    1.25
  17   1   2    5.82    5.02
 -17   1  -2    5.97    2.97
  17   1   2    4.42    2.29
  17  -1   2    3.01    2.05
  17  -1   2    2.42    1.47
 -17  -1  -2    1.68    3.70
 -17  -1  -2    3.71    1.31
  17   2  -5    5.13    2.09
 -17   2   5    0.66    4.51
 -17   2   5    2.21    1.09
 -17   2   5    3.21    2.13
 -17  -2   5   -0.06    5.11
 -17  -2   5    0.82    3.45
 -17   2   4    0.50    1.05
 -17   2   4   -3.46    4.10
 -17   2   4    5.71    2.14
  17   2  -4   -0.59    2.00
 -17  -2   4    1.80    3.44
 -17  -2   4   -0.69    4.73
  17   2  -3   24.15    2.31
 -17   2   3   25.67    2.37
 -17   2   3   31.45    4.07
 -17   2   3   27.67    1.83
 -17  -2   3   24.81    3.64
 -17  -2   3   25.99    4.92
  17   2  -2   17.07    2.24
 -17   2   2   21.52    3.41
 -17   2   2   15.44    2.29
 -17   2   2   23.52    1.89
 -17  -2   2   13.08    4.63
 -17  -2   2   14.86    3.49
 -17   2   1    0.99    1.10
  17   2  -1   -0.15    2.10
 -17   2   1   -0.21    2.31
 -17   2   1    1.17    2.74
 -17  -2   1    0.03    4.35
 -17  -2   1    2.44    3.26
 -17   2   0    9.91    2.54
 -17   2   0    7.82    1.24
 -17   2   0    4.13    2.83
  17   2   0    8.45    2.27
 -17  -2   0   11.71    4.57
 -17   2  -1   21.71    2.10
 -17   2  -1   14.60    2.42
  17   2   1   20.21    2.53
 -17  -2  -1   18.14    1.51
  17  -2   1   16.95    1.50
 -17  -2  -1   16.14    5.02
  17  -2   1   16.85    1.92
  18   0  -5    0.65    1.34
 -18   0   5   -0.77    4.76
  18   0  -5   -0.22    1.64
 -18   0   5    6.27    3.24
 -18   0   4   34.61    3.36
  18   0  -4   37.48    2.77
  18   0  -4   32.88    2.28
 -18   0   4   39.17    5.13
 -18   0   3    1.08    4.76
 -18   0   3   -1.62    2.14
 -18   0   3    0.40    1.20
  18   0  -3    1.64    2.93
  18   0  -3    2.39    1.36
 -18   0   2   15.36    1.38
  18   0  -2   15.47    1.57
  18   0  -2   14.26    1.96
 -18   0   2   15.92    2.14
 -18   0   2    8.09    4.12
 -18   0   1   -0.55    2.32
 -18   0   1    8.25    3.95
 -18   0   1   -0.57    1.22
  18   0  -1    0.11    1.45
  18   0  -1    2.86    1.80
  18   0   0    2.66    1.55
 -18   0   0    8.91    3.99
 -18   0   0    3.57    1.26
  18   0   0    2.26    1.94
  18   0   1    0.11    2.09
 -18   0  -1   -1.06    1.24
 -18   0  -1    0.53    3.73
  18   0   1   -1.34    1.64
  18   1  -5   20.44    2.09
 -18   1   5   26.99    4.89
  18   1  -5   20.12    1.75
 -18   1   5   14.82    2.78
 -18  -1   5   20.23    5.57
 -18  -1   5   22.89    3.75
  18   1  -4    8.95    1.68
 -18   1   4   13.72    1.27
 -18   1   4    7.24    4.46
 -18   1   4    9.87    2.71
  18   1  -4   13.64    1.99
 -18  -1   4    5.35    4.90
  18  -1  -4    7.89    1.16
 -18  -1   4    9.96    3.31
  18  -1  -4   10.55    1.47
 -18   1   3   11.33    2.65
  18   1  -3    7.65    1.60
  18   1  -3    9.16    1.97
 -18   1   3   14.38    4.04
 -18   1   3    9.08    1.17
 -18  -1   3   10.65    3.55
  18  -1  -3    8.93    1.21
 -18  -1   3   14.33    4.75
  18   1  -2    8.13    1.70
 -18   1   2    9.15    1.24
 -18   1   2    7.42    2.67
  18   1  -2    9.24    1.99
 -18   1   2    6.70    3.82
 -18  -1   2    8.48    1.30
 -18  -1   2    2.50    4.52
  18  -1  -2    6.01    1.25
  18  -1  -2    7.75    1.64
  18   1  -1   66.63    3.58
 -18   1   1   50.04    4.32
  18   1  -1   53.08    2.62
 -18   1   1   62.41    2.34
 -18   1   1   48.33    4.20
 -18  -1   1   51.48    4.96
  18  -1  -1   58.40    3.05
  18  -1  -1   51.80    2.37
 -18  -1   1   56.40    2.43
 -18   1   0    0.19    1.30
 -18   1   0    3.46    3.31
  18   1   0    2.13    2.17
 -18  -1   0    2.09    1.25
 -18  -1   0   -2.53    4.16
  18  -1   0    0.21    1.37
  18  -1   0    1.13    1.90
 -18   1  -1    1.95    3.35
  18   1   1    5.08    2.32
  18   1   1   17.90    6.07
 -18   1  -1    5.31    1.38
 -18  -1  -1    8.52    4.19
  18  -1   1    7.10    1.55
 -18  -1  -1    6.10    1.43
  18  -1   1    3.85    2.06
 -19   0   3   -2.17    1.26
 -19   0   3    3.81    4.39
  19   0  -3   -1.17    1.53
  19   0  -3    2.37    1.85
 -19   0   2   16.03    4.78
 -19   0   2   28.54    2.22
  19   0  -2   26.33    2.54
  19   0  -2   21.53    2.16
 -19   0   1    1.32    1.31
  19   0  -1    1.74    1.65
  19   0  -1    0.28    1.96


 _exptl_absorpt_process_details 'SADABS 2014/5'
 _exptl_absorpt_correction_type   multi-scan
 _exptl_absorpt_correction_T_max  0.7450
 _exptl_absorpt_correction_T_min  0.7191
 _exptl_special_details
)
 The following wavelength and cell were deduced by SADABS from the
 direction cosines etc. They are given here for emergency use only:
 CELL 0.71097    9.871    4.793   16.907   89.983  101.445   90.030
)

_computing_structure_solution     'SHELXT 2014/4 (Sheldrick, 2014)'
;
_shelx_hkl_checksum              88878
loop_
_space_group_symop_operation_xyz
'x, y, z'
'-x, y+1/2, -z+1/2'
'-x, -y, -z'
'x, -y-1/2, z-1/2'
loop_
_atom_site_label
_atom_site_type_symbol
_atom_site_fract_x
_atom_site_fract_y
_atom_site_fract_z
_atom_site_U_iso_or_equiv
_atom_site_adp_type
_atom_site_occupancy
_atom_site_site_symmetry_order
_atom_site_calc_flag
_atom_site_refinement_flags_posn
_atom_site_refinement_flags_adp
_atom_site_refinement_flags_occupancy
_atom_site_disorder_assembly
_atom_site_disorder_group
N1 N 0.59228(17) 0.4427(6) 0.1444(2) 0.0471(7) Uani 1 1 d . . . . .
H1 H 0.609(2) 0.319(8) 0.090(4) 0.071 Uiso 1 1 d . U . . .
H2 H 0.595(2) 0.609(9) 0.102(4) 0.071 Uiso 1 1 d . U . . .
H3 H 0.542(2) 0.441(8) 0.148(4) 0.071 Uiso 1 1 d . U . . .
O1 O 0.56552(12) 0.8146(4) 0.33166(19) 0.0563(7) Uani 1 1 d . . . . .
O2 O 0.62366(16) 0.5512(5) 0.50816(19) 0.0684(9) Uani 1 1 d . . . . .
C1 C 0.60636(16) 0.6109(5) 0.3828(2) 0.0399(7) Uani 1 1 d . . . . .
C2 C 0.6443(4) 0.4208(12) 0.2821(6) 0.0369(12) Uani 0.795(4) 1 d . . P A 1
H21 H 0.648617 0.226935 0.314085 0.044 Uiso 0.795(4) 1 calc R U P A 1
C3 C 0.7285(3) 0.5465(12) 0.2832(5) 0.0637(12) Uani 0.795(4) 1 d . . P A 1
H31 H 0.721914 0.738615 0.252400 0.076 Uiso 0.795(4) 1 calc R U P A 1
H32 H 0.758794 0.547573 0.377432 0.076 Uiso 0.795(4) 1 calc R U P A 1
C4 C 0.7757(4) 0.3972(18) 0.1959(8) 0.124(3) Uani 0.795(4) 1 d . . P A 1
H41 H 0.743886 0.385593 0.103021 0.149 Uiso 0.795(4) 1 calc R U P A 1
H42 H 0.785126 0.208292 0.230469 0.149 Uiso 0.795(4) 1 calc R U P A 1
S1 S 0.86952(14) 0.5502(8) 0.1881(4) 0.1803(15) Uani 0.795(4) 1 d . . P A 1
C5 C 0.9197(10) 0.462(4) 0.3326(17) 0.245(7) Uiso 0.795(4) 1 d . . P A 1
H51 H 0.973609 0.532756 0.343027 0.368 Uiso 0.795(4) 1 calc R U P A 1
H52 H 0.894912 0.536573 0.404148 0.368 Uiso 0.795(4) 1 calc R U P A 1
H53 H 0.921250 0.262150 0.339125 0.368 Uiso 0.795(4) 1 calc R U P A 1
C2B C 0.6318(18) 0.460(6) 0.305(3) 0.0369(12) Uani 0.205(4) 1 d . . P A 2
H22B H 0.613985 0.279966 0.334872 0.044 Uiso 0.205(4) 1 calc R U P A 2
C3B C 0.7224(12) 0.379(5) 0.294(2) 0.072(5) Uiso 0.205(4) 1 d . . P A 2
H33B H 0.748489 0.276667 0.375044 0.087 Uiso 0.205(4) 1 calc R U P A 2
H34B H 0.722400 0.262978 0.213056 0.087 Uiso 0.205(4) 1 calc R U P A 2
C4B C 0.7671(17) 0.656(6) 0.281(3) 0.107(8) Uiso 0.205(4) 1 d . . P A 2
H43B H 0.750229 0.790561 0.343098 0.128 Uiso 0.205(4) 1 calc R U P A 2
H44B H 0.750402 0.725408 0.188091 0.128 Uiso 0.205(4) 1 calc R U P A 2
S1B S 0.8810(6) 0.634(4) 0.3226(16) 0.1803(15) Uani 0.205(4) 1 d . . P A 2
C5B C 0.896(4) 0.217(14) 0.425(7) 0.26(3) Uiso 0.205(4) 1 d . . P A 2
H54B H 0.951943 0.175130 0.452478 0.391 Uiso 0.205(4) 1 calc R U P A 2
H55B H 0.871165 0.219990 0.504488 0.391 Uiso 0.205(4) 1 calc R U P A 2
H56B H 0.870006 0.077902 0.361272 0.391 Uiso 0.205(4) 1 calc R U P A 2
loop_
_atom_site_aniso_label
_atom_site_aniso_U_11
_atom_site_aniso_U_22
_atom_site_aniso_U_33
_atom_site_aniso_U_23
_atom_site_aniso_U_13
_atom_site_aniso_U_12
N1 0.0636(16) 0.0454(14) 0.0344(13) -0.0066(10) 0.0146(11) -0.0052(11)
O1 0.0712(14) 0.0455(13) 0.0543(13) -0.0015(9) 0.0177(10) 0.0119(10)
O2 0.119(2) 0.0539(14) 0.0336(13) 0.0010(8) 0.0184(11) 0.0014(12)
C1 0.0556(16) 0.0320(13) 0.0349(14) -0.0026(10) 0.0157(11) -0.0080(11)
C2 0.054(3) 0.032(2) 0.030(3) -0.0026(17) 0.0211(15) 0.0109(17)
C3 0.054(3) 0.062(3) 0.075(3) 0.000(2) 0.014(2) -0.002(2)
C4 0.094(4) 0.139(6) 0.155(6) -0.043(5) 0.064(4) -0.005(4)
S1 0.1022(16) 0.235(3) 0.223(3) -0.014(3) 0.081(2) -0.0360(16)
C2B 0.054(3) 0.032(2) 0.030(3) -0.0026(17) 0.0211(15) 0.0109(17)
S1B 0.1022(16) 0.235(3) 0.223(3) -0.014(3) 0.081(2) -0.0360(16)
loop_
_atom_type_symbol
_atom_type_description
_atom_type_scat_dispersion_real
_atom_type_scat_dispersion_imag
_atom_type_scat_source
C C 0.0033 0.0016 'International Tables Vol C Tables 4.2.6.8 and 6.1.1.4'
H H 0.0000 0.0000 'International Tables Vol C Tables 4.2.6.8 and 6.1.1.4'
N N 0.0061 0.0033 'International Tables Vol C Tables 4.2.6.8 and 6.1.1.4'
O O 0.0106 0.0060 'International Tables Vol C Tables 4.2.6.8 and 6.1.1.4'
S S 0.1246 0.1234 'International Tables Vol C Tables 4.2.6.8 and 6.1.1.4'
loop_
_geom_angle_atom_site_label_1
_geom_angle_atom_site_label_2
_geom_angle_atom_site_label_3
_geom_angle
C2 N1 H1 108(2)
C2B N1 H1 121(2)
C2 N1 H2 114(2)
C2B N1 H2 111(2)
H1 N1 H2 105(3)
C2 N1 H3 112(2)
C2B N1 H3 101(3)
H1 N1 H3 117(3)
H2 N1 H3 100(3)
C2B C1 O1 117.0(15)
C2B C1 O2 117.2(15)
O1 C1 O2 125.8(2)
O1 C1 C2 117.4(3)
O2 C1 C2 116.6(3)
N1 C2 C3 111.2(4)
N1 C2 C1 107.4(4)
C3 C2 C1 105.1(4)
N1 C2 H21 111.0
C3 C2 H21 111.0
C1 C2 H21 111.0
C4 C3 C2 114.4(5)
C4 C3 H31 108.7
C2 C3 H31 108.7
C4 C3 H32 108.7
C2 C3 H32 108.7
H31 C3 H32 107.6
C3 C4 S1 114.9(5)
C3 C4 H41 108.5
S1 C4 H41 108.5
C3 C4 H42 108.5
S1 C4 H42 108.5
H41 C4 H42 107.5
C5 S1 C4 100.2(7)
S1 C5 H51 109.5
S1 C5 H52 109.5
H51 C5 H52 109.5
S1 C5 H53 109.5
H51 C5 H53 109.5
H52 C5 H53 109.5
C1 C2B N1 122(2)
C1 C2B C3B 131(3)
N1 C2B C3B 98.0(14)
C1 C2B H22B 99.4
N1 C2B H22B 99.4
C3B C2B H22B 99.4
C4B C3B C2B 107(2)
C4B C3B H33B 110.4
C2B C3B H33B 110.4
C4B C3B H34B 110.4
C2B C3B H34B 110.4
H33B C3B H34B 108.6
C3B C4B S1B 115.4(19)
C3B C4B H43B 108.4
S1B C4B H43B 108.4
C3B C4B H44B 108.4
S1B C4B H44B 108.4
H43B C4B H44B 107.5
C4B S1B C5B 99.4(19)
S1B C5B H54B 109.5
S1B C5B H55B 109.5
H54B C5B H55B 109.5
S1B C5B H56B 109.5
H54B C5B H56B 109.5
H55B C5B H56B 109.5
loop_
_geom_bond_atom_site_label_1
_geom_bond_atom_site_label_2
_geom_bond_distance
N1 C2 1.471(7)
N1 C2B 1.59(3)
N1 H1 0.88(4)
N1 H2 0.91(4)
N1 H3 0.86(4)
O1 C1 1.245(3)
O2 C1 1.249(3)
C1 C2B 1.20(2)
C1 C2 1.577(4)
C2 C3 1.545(8)
C2 H21 0.9800
C3 C4 1.473(8)
C3 H31 0.9700
C3 H32 0.9700
C4 S1 1.764(7)
C4 H41 0.9700
C4 H42 0.9700
S1 C5 1.569(16)
C5 H51 0.9600
C5 H52 0.9600
C5 H53 0.9600
C2B C3B 1.61(3)
C2B H22B 0.9800
C3B C4B 1.54(4)
C3B H33B 0.9700
C3B H34B 0.9700
C4B S1B 1.89(3)
C4B H43B 0.9700
C4B H44B 0.9700
S1B C5B 2.23(7)
C5B H54B 0.9600
C5B H55B 0.9600
C5B H56B 0.9600
loop_
_geom_torsion_atom_site_label_1
_geom_torsion_atom_site_label_2
_geom_torsion_atom_site_label_3
_geom_torsion_atom_site_label_4
_geom_torsion
O1 C1 C2 N1 -27.5(5)
O2 C1 C2 N1 156.2(3)
O1 C1 C2 C3 90.9(4)
O2 C1 C2 C3 -85.4(4)
N1 C2 C3 C4 -64.8(6)
C1 C2 C3 C4 179.3(5)
C2 C3 C4 S1 176.4(5)
C3 C4 S1 C5 75.9(10)
O1 C1 C2B N1 -22(3)
O2 C1 C2B N1 158.5(16)
O1 C1 C2B C3B 119(3)
O2 C1 C2B C3B -61(3)
C1 C2B C3B C4B -55(4)
N1 C2B C3B C4B 93(2)
C2B C3B C4B S1B 161.6(18)
C3B C4B S1B C5B -14(3)
