#------------------------------------------------------------------------------
#$Date: 2017-04-05 12:31:53 +0300 (Wed, 05 Apr 2017) $
#$Revision: 195017 $
#$URL: file:///home/coder/svn-repositories/cod/cif/7/22/77/7227720.cif $
#------------------------------------------------------------------------------
#
# This file is available in the Crystallography Open Database (COD),
# http://www.crystallography.net/
#
# All data on this site have been placed in the public domain by the
# contributors.
#
data_7227720
loop_
_publ_author_name
'Shemchuk, Oleksii'
'Braga, Dario'
'Maini, Lucia'
'Grepioni, Fabrizia'
_publ_section_title
;
 Anhydrous ionic co-crystals of cyanuric acid with LiCl and NaCl
;
_journal_issue                   10
_journal_name_full               CrystEngComm
_journal_page_first              1366
_journal_paper_doi               10.1039/C7CE00037E
_journal_volume                  19
_journal_year                    2017
_chemical_formula_moiety         'C3 H3 Cl1 Li1 N3  O3'
_chemical_formula_sum            'C3 H3 Cl Li N3 O3'
_chemical_formula_weight         171.47
_space_group_IT_number           160
_symmetry_cell_setting           hexagonal
_symmetry_space_group_name_Hall  'R 3 -2"'
_symmetry_space_group_name_H-M   'R 3 m :H'
_audit_update_record
;
2016-12-28 deposited with the CCDC.
2017-02-20 downloaded from the CCDC.
;
_cell_angle_alpha                90
_cell_angle_beta                 90
_cell_angle_gamma                120
_cell_formula_units_Z            3
_cell_length_a                   7.7079(1)
_cell_length_b                   7.7079(1)
_cell_length_c                   9.4483(3)
_cell_measurement_temperature    298
_cell_volume                     486.135(18)
_diffrn_ambient_temperature      298
_diffrn_measurement_device_type  'SLS-MS powder diffractometer @ PSI'
_diffrn_radiation_probe          x-ray
_diffrn_radiation_type           Synchrotron
_diffrn_radiation_wavelength     0.775311(2)
_exptl_crystal_density_diffrn    1.762
_pd_char_colour                  white
_pd_meas_2theta_range_inc        0.0036
_pd_meas_2theta_range_max        70.4988
_pd_meas_2theta_range_min        6.5988
_pd_meas_number_of_points        17751
_pd_meas_scan_method             step
_pd_proc_ls_prof_R_factor        0.0463
_pd_proc_ls_prof_wR_expected     0.0031
_pd_proc_ls_prof_wR_factor       0.0489
_pd_spec_mounting                capillary
_pd_spec_mount_mode              transmission
_pd_spec_shape                   cylinder
_refine_ls_goodness_of_fit_all   15.81849
_refine_ls_number_parameters     0.000000
_refine_ls_R_I_factor            0.0725
_refine_ls_shift/su_max          0.0702223282
_cod_data_source_file            c7ce00037e2.cif
_cod_data_source_block           CA_LiCl
_cod_depositor_comments
;
The following automatic conversions were performed:

'_symmetry_cell_setting' value 'Hexagonal' changed to 'hexagonal'
according to
/usr/data/users/saulius/crontab/automatic-downloads/rss-feeds/RSC/lib/dictionaries/cif_core.dic
dictionary named 'cif_core.dic' version 2.4.2 from 2011-04-26.

Automatic conversion script
Id: cif_fix_values 4268 2015-11-12 08:31:59Z antanas 

 Adding full bibliography for 7227720--7227721.cif.
;
_cod_original_cell_volume        486.13(15)
_cod_original_sg_symbol_H-M      R3m
_cod_original_formula_sum        'C3 H3 Cl1 Li1 N3  O3'
_cod_database_code               7227720
loop_
_symmetry_equiv_pos_as_xyz
'x, y, z '
'-x+y, y, z '
'-y, -x, z '
'-y, x-y, z '
'-x+y, -x, z '
'x, x-y, z '
'x-1/3, y+1/3, z+1/3 '
'-x+y-1/3, y+1/3, z+1/3 '
'-y-1/3, -x+1/3, z+1/3 '
'-y-1/3, x-y+1/3, z+1/3 '
'-x+y-1/3, -x+1/3, z+1/3 '
'x-1/3, x-y+1/3, z+1/3 '
'x+1/3, y-1/3, z-1/3 '
'-x+y+1/3, y-1/3, z-1/3 '
'-y+1/3, -x-1/3, z-1/3 '
'-y+1/3, x-y-1/3, z-1/3 '
'-x+y+1/3, -x-1/3, z-1/3 '
'x+1/3, x-y-1/3, z-1/3 '
loop_
_atom_site_label
_atom_site_type_symbol
_atom_site_symmetry_multiplicity
_atom_site_fract_x
_atom_site_fract_y
_atom_site_fract_z
_atom_site_occupancy
_atom_site_B_iso_or_equiv
O1 O 9 -0.1960(2) -0.3919(4) 0.2896(3) 1 2.95994
N1 N 9 0.09906(15) -0.09906(15) 0.2896(3) 1 2.95994
H1 H 9 0.16613(15) -0.16613(15) 0.2896(3) 1 3.551928
C1 C 9 -0.10544(15) -0.2109(3) 0.2896(3) 1 2.95994
Li1 Li 3 -0.3333333 -0.6666667 0.2268(2) 1 3.98535
Cl1 Cl 3 -0.3333333 -0.6666667 -0.0278(2) 1 2.48972
loop_
_pd_proc_point_id
_pd_meas_2theta_scan
_pd_proc_intensity_total
_pd_calc_intensity_total
_pd_proc_ls_weight
1 6.59880 753.27548 743.91743 0.18337
2 6.60240 753.10633 745.97417 0.18301
3 6.60600 752.94046 744.45975 0.18318
4 6.60960 752.77789 743.93671 0.18348
5 6.61320 752.61864 741.81022 0.18412
6 6.61680 752.46273 739.46685 0.18506
7 6.62040 752.31017 745.74689 0.18306
8 6.62400 752.16099 743.46700 0.18367
9 6.62760 752.01519 742.34078 0.18431
10 6.63120 751.87279 742.83245 0.18385
11 6.63480 751.73383 744.67822 0.18363
12 6.63840 751.59831 743.20312 0.18364
13 6.64200 751.46626 744.66575 0.18373
14 6.64560 751.33769 745.10907 0.18331
15 6.64920 751.21263 746.53948 0.18299
16 6.65280 751.09110 744.08641 0.18375
17 6.65640 750.97312 742.75350 0.18419
18 6.66000 750.85871 742.27466 0.18428
19 6.66360 750.74790 748.02389 0.18275
20 6.66720 750.64071 749.35704 0.18230
21 6.67080 750.53717 747.74109 0.18295
22 6.67440 750.43730 747.19880 0.18287
23 6.67800 750.34112 744.85144 0.18336
24 6.68160 750.24867 743.30195 0.18363
25 6.68520 750.15996 743.97145 0.18353
26 6.68880 750.07504 745.22211 0.18312
27 6.69240 749.99392 747.21685 0.18290
28 6.69600 749.91664 748.25296 0.18264
29 6.69960 749.84322 745.60791 0.18325
30 6.70320 749.77370 742.66752 0.18388
31 6.70680 749.70811 748.69086 0.18283
32 6.71040 749.64649 745.82483 0.18332
33 6.71400 749.58885 742.68684 0.18411
34 6.71760 749.53525 748.75458 0.18249
35 6.72120 749.48571 746.23544 0.18316
36 6.72480 749.44028 745.26378 0.18346
37 6.72840 749.39898 745.23256 0.18316
38 6.73200 749.36186 745.19971 0.18362
39 6.73560 749.32896 742.06663 0.18439
40 6.73920 749.30514 743.45323 0.18403
41 6.74280 749.33350 744.17849 0.18375
42 6.74640 749.32139 747.43912 0.18277
43 6.75000 749.30643 747.65740 0.18288
44 6.75360 749.29590 749.99562 0.18241
45 6.75720 749.28985 751.22249 0.18176
46 6.76080 749.28834 749.08835 0.18239
47 6.76440 749.29142 746.41775 0.18288
48 6.76800 749.29912 748.66492 0.18269
49 6.77160 749.31151 748.08851 0.18246
50 6.77520 749.32864 748.61027 0.18248
51 6.77880 749.35056 750.99374 0.18172
52 6.78240 749.37733 749.38931 0.18231
53 6.78600 749.40901 749.96051 0.18253
54 6.78960 749.44565 747.36759 0.18285
55 6.79320 749.48732 746.84018 0.18307
56 6.79680 749.53408 748.79835 0.18248
57 6.80040 749.58599 746.08864 0.18322
58 6.80400 749.64313 746.49153 0.18297
59 6.80760 749.70555 745.43254 0.18316
60 6.81120 749.77334 749.72376 0.18224
61 6.81480 749.84656 752.06917 0.18203
62 6.81840 749.92528 751.12203 0.18206
63 6.82200 750.00959 751.41740 0.18193
64 6.82560 750.09956 752.88022 0.18145
65 6.82920 750.19528 751.47211 0.18185
66 6.83280 750.29682 753.01732 0.18173
67 6.83640 750.40428 751.05755 0.18188
68 6.84000 750.51774 749.73271 0.18220
69 6.84360 750.63730 752.31170 0.18143
70 6.84720 750.76305 751.54360 0.18186
71 6.85080 750.89508 753.27399 0.18132
72 6.85440 751.03350 751.44672 0.18154
73 6.85800 751.17841 755.50480 0.18083
74 6.86160 751.32991 753.37340 0.18108
75 6.86520 751.48812 754.88116 0.18137
76 6.86880 751.65315 751.19452 0.18184
77 6.87240 751.82511 754.75909 0.18125
78 6.87600 752.00413 757.93180 0.18038
79 6.87960 752.19033 757.13517 0.18056
80 6.88320 752.38384 755.11131 0.18085
81 6.88680 752.58478 751.61564 0.18141
82 6.89040 752.79331 750.10010 0.18214
83 6.89400 753.00955 751.98290 0.18177
84 6.89760 753.23365 755.69174 0.18106
85 6.90120 753.46576 752.87382 0.18136
86 6.90480 753.70604 756.16322 0.18065
87 6.90840 753.95465 753.20631 0.18123
88 6.91200 754.21175 752.57684 0.18183
89 6.91560 754.47751 756.87246 0.18059
90 6.91920 754.75211 751.18157 0.18183
91 6.92280 755.03573 752.61743 0.18134
92 6.92640 755.32857 751.97828 0.18176
93 6.93000 755.63081 756.16263 0.18052
94 6.93360 755.94266 752.74212 0.18129
95 6.93720 756.26432 752.69311 0.18132
96 6.94080 756.59602 756.67331 0.18057
97 6.94440 756.93797 758.29398 0.18021
98 6.94800 757.29041 754.22433 0.18135
99 6.95160 757.65358 757.03908 0.18039
100 6.95520 758.02772 756.92401 0.18090
101 6.95880 758.41309 758.03776 0.18026
102 6.96240 758.80996 756.66906 0.18055
103 6.96600 759.21861 758.90900 0.17984
104 6.96960 759.63932 758.67484 0.17979
105 6.97320 760.07238 762.54171 0.17919
106 6.97680 760.51811 757.11083 0.18053
107 6.98040 760.97682 756.41426 0.18077
108 6.98400 761.44885 754.63446 0.18096
109 6.98760 761.93454 757.99742 0.18017
110 6.99120 762.43424 760.96716 0.17987
111 6.99480 762.94833 762.42926 0.17942
112 6.99840 763.47718 762.15473 0.17935
113 7.00200 764.02121 762.13120 0.17907
114 7.00560 764.58082 758.04796 0.18018
115 7.00920 765.15644 758.42439 0.18024
116 7.01280 765.74854 763.56533 0.17895
117 7.01640 766.35756 760.51048 0.17961
118 7.02000 766.98400 759.10149 0.18000
119 7.02360 767.62837 761.00425 0.17964
120 7.02720 768.29118 765.85877 0.17845
121 7.03080 768.97299 763.29281 0.17917
122 7.03440 769.67437 764.80797 0.17903
123 7.03800 770.39591 764.94523 0.17883
124 7.04160 771.13824 767.02039 0.17813
125 7.04520 771.90199 763.65641 0.17877
126 7.04880 772.68785 763.60874 0.17876
127 7.05240 773.49651 769.14623 0.17757
128 7.05600 774.32871 764.08562 0.17893
129 7.05960 775.18522 766.32776 0.17830
130 7.06320 776.06683 764.60212 0.17873
131 7.06680 776.97439 767.67002 0.17782
132 7.07040 777.90877 765.37834 0.17887
133 7.07400 778.87088 764.87129 0.17890
134 7.07760 779.86167 767.82343 0.17804
135 7.08120 780.88216 768.43391 0.17781
136 7.08480 781.93338 767.88984 0.17790
137 7.08840 783.01643 765.44376 0.17868
138 7.09200 784.13247 768.51180 0.17791
139 7.09560 785.28270 769.13195 0.17751
140 7.09920 786.46838 772.80810 0.17698
141 7.10280 787.69083 774.80987 0.17635
142 7.10640 788.95146 775.30103 0.17641
143 7.11000 790.25171 772.95652 0.17659
144 7.11360 791.59312 774.91291 0.17668
145 7.11720 792.97732 774.46122 0.17675
146 7.12080 794.40598 772.56248 0.17708
147 7.12440 795.88091 771.71922 0.17689
148 7.12800 797.40396 779.51729 0.17514
149 7.13160 798.97714 781.43992 0.17484
150 7.13520 800.60251 776.43870 0.17606
151 7.13880 802.28227 775.31667 0.17641
152 7.14240 804.01875 781.46685 0.17477
153 7.14600 805.81438 785.01753 0.17408
154 7.14960 807.67176 778.77434 0.17550
155 7.15320 809.59361 780.61376 0.17542
156 7.15680 811.58281 784.40956 0.17425
157 7.16040 813.64243 785.50498 0.17407
158 7.16400 815.77569 791.10109 0.17258
159 7.16760 817.98601 788.68194 0.17340
160 7.17120 820.27702 788.96289 0.17330
161 7.17480 822.65257 791.08390 0.17254
162 7.17840 825.11674 790.94435 0.17284
163 7.18200 827.67388 792.07213 0.17251
164 7.18560 830.32858 795.38832 0.17189
165 7.18920 833.08576 798.71247 0.17098
166 7.19280 835.95063 798.87919 0.17105
167 7.19640 838.92875 801.55116 0.17082
168 7.20000 842.02604 801.17875 0.17063
169 7.20360 845.24883 803.33981 0.16998
170 7.20720 848.60387 808.36898 0.16881
171 7.21080 852.09837 807.78109 0.16918
172 7.21440 855.74005 811.86759 0.16835
173 7.21800 859.53716 816.82266 0.16729
174 7.22160 863.49856 816.67982 0.16725
175 7.22520 867.63373 822.90468 0.16591
176 7.22880 871.95287 828.58491 0.16492
177 7.23240 876.46692 827.39071 0.16529
178 7.23600 881.18766 828.41181 0.16510
179 7.23960 886.12777 833.66796 0.16390
180 7.24320 891.30090 837.04322 0.16303
181 7.24680 896.72182 841.81464 0.16230
182 7.25040 902.40644 848.17484 0.16102
183 7.25400 908.37200 850.69225 0.16039
184 7.25760 914.63714 860.86807 0.15862
185 7.26120 921.22208 864.71701 0.15797
186 7.26480 928.14878 870.88133 0.15712
187 7.26840 935.44108 879.56496 0.15533
188 7.27200 943.12494 883.26213 0.15464
189 7.27560 951.22865 893.05169 0.15311
190 7.27920 959.78308 901.23966 0.15164
191 7.28280 968.82195 913.17417 0.14933
192 7.28640 978.38219 927.76442 0.14706
193 7.29000 988.50427 935.39547 0.14589
194 7.29360 999.23262 948.58862 0.14397
195 7.29720 1010.61611 957.54210 0.14256
196 7.30080 1022.70856 972.61853 0.14035
197 7.30440 1035.56936 988.14061 0.13808
198 7.30800 1049.26421 1006.53950 0.13553
199 7.31160 1063.86585 1025.96972 0.13314
200 7.31520 1079.45506 1044.05711 0.13084
201 7.31880 1096.12174 1068.45928 0.12786
202 7.32240 1113.96618 1088.23372 0.12524
203 7.32600 1133.10059 1115.36759 0.12243
204 7.32960 1153.65098 1146.75903 0.11903
205 7.33320 1175.75936 1176.73547 0.11591
206 7.33680 1199.58657 1210.37694 0.11273
207 7.34040 1225.31572 1252.36573 0.10899
208 7.34400 1253.15665 1292.16422 0.10566
209 7.34760 1283.35152 1338.85600 0.10202
210 7.35120 1316.18205 1390.69439 0.09798
211 7.35480 1351.97877 1445.90155 0.09443
212 7.35840 1391.13283 1500.94139 0.09092
213 7.36200 1434.11089 1565.46166 0.08239
214 7.36560 1481.47368 1642.90591 0.07482
215 7.36920 1533.89870 1726.78538 0.07623
216 7.37280 1592.20724 1815.93230 0.06541
217 7.37640 1657.39571 1915.35383 0.05930
218 7.38000 1730.67078 2029.31277 0.04975
219 7.38360 1813.48690 2150.96860 0.05081
220 7.38720 1907.58432 2291.61605 0.04053
221 7.39080 2015.02476 2439.93629 0.03941
222 7.39440 2138.22081 2602.32625 0.03393
223 7.39800 2279.95488 2795.39380 0.03037
224 7.40160 2443.38255 2992.13679 0.02661
225 7.40520 2632.01529 3222.79587 0.02216
226 7.40880 2849.67703 3474.74453 0.02090
227 7.41240 3100.42884 3755.31217 0.01727
228 7.41600 3388.45395 4062.02254 0.01495
229 7.41960 3717.89168 4407.51760 0.01352
230 7.42320 4092.60065 4780.00819 0.01199
231 7.42680 4515.81794 5190.28411 0.01005
232 7.43040 4989.66045 5636.36300 0.00942
233 7.43400 5514.39090 6114.31775 0.00835
234 7.43760 6087.35319 6625.50147 0.00732
235 7.44120 6701.49749 7134.74217 0.00748
236 7.44480 7343.51248 7641.35997 0.00709
237 7.44840 7991.82701 8126.89384 0.00773
238 7.45200 8615.17358 8551.46903 0.00815
239 7.45560 9172.91935 8898.48739 0.00918
240 7.45920 9618.58419 9151.18256 0.01131
241 7.46280 9907.25801 9276.50564 0.01432
242 7.46640 10005.68968 9259.85178 0.01423
243 7.47000 9901.47109 9101.30601 0.01101
244 7.47360 9606.95092 8779.45160 0.00858
245 7.47720 9155.67617 8369.31230 0.00760
246 7.48080 8593.14761 7867.65901 0.00666
247 7.48440 7966.37804 7316.19991 0.00715
248 7.48800 7316.21790 6761.90083 0.00722
249 7.49160 6673.83050 6216.51874 0.00792
250 7.49520 6060.49625 5724.07701 0.00904
251 7.49880 5489.18669 5268.83026 0.01053
252 7.50240 4966.64469 4861.21757 0.01137
253 7.50600 4495.28257 4465.17382 0.01290
254 7.50960 4074.65803 4123.61558 0.01548
255 7.51320 3702.52829 3816.78244 0.01769
256 7.51680 3375.57178 3532.82535 0.01859
257 7.52040 3089.87615 3273.79198 0.02141
258 7.52400 2841.27113 3040.11550 0.02524
259 7.52760 2625.55932 2833.46879 0.02793
260 7.53120 2438.67786 2640.90214 0.03189
261 7.53480 2276.80981 2473.40569 0.03910
262 7.53840 2136.45674 2323.21227 0.04281
263 7.54200 2014.47979 2188.09693 0.04289
264 7.54560 1908.11509 2062.27578 0.05493
265 7.54920 1814.96894 1951.04547 0.05390
266 7.55280 1732.99784 1849.69721 0.07124
267 7.55640 1660.47830 1754.68289 0.07267
268 7.56000 1595.97079 1672.11737 0.07740
269 7.56360 1538.28159 1606.89343 0.08436
270 7.56720 1486.42517 1533.56139 0.08533
271 7.57080 1439.58930 1468.85966 0.09278
272 7.57440 1397.10386 1409.80007 0.09658
273 7.57800 1358.41407 1359.52262 0.10011
274 7.58160 1323.05801 1311.18046 0.10387
275 7.58520 1290.64834 1271.16919 0.10723
276 7.58880 1260.85756 1235.84286 0.11025
277 7.59240 1233.40637 1199.59040 0.11350
278 7.59600 1208.05456 1166.18349 0.11680
279 7.59960 1184.59390 1141.54593 0.11932
280 7.60320 1162.84258 1116.32170 0.12184
281 7.60680 1142.64087 1086.34532 0.12515
282 7.61040 1123.84767 1064.02585 0.12796
283 7.61400 1106.33777 1042.58594 0.13051
284 7.61760 1089.99963 1025.25244 0.13284
285 7.62120 1074.73354 1009.28723 0.13482
286 7.62480 1060.45012 997.18081 0.13641
287 7.62840 1047.06905 984.29148 0.13816
288 7.63200 1034.51797 968.83075 0.14035
289 7.63560 1022.73154 951.38875 0.14305
290 7.63920 1011.65067 940.93151 0.14451
291 7.64280 1001.22182 932.98388 0.14590
292 7.64640 991.39636 922.28287 0.14771
293 7.65000 982.13008 913.90118 0.14923
294 7.65360 973.38270 907.72745 0.14995
295 7.65720 965.11747 899.54691 0.15135
296 7.66080 957.30082 894.08282 0.15219
297 7.66440 949.90202 884.89710 0.15407
298 7.66800 942.89291 875.60299 0.15568
299 7.67160 936.24764 873.24615 0.15586
300 7.67520 929.94246 866.90261 0.15704
301 7.67880 923.95551 863.70669 0.15776
302 7.68240 918.26666 859.99106 0.15818
303 7.68600 912.85733 857.69723 0.15850
304 7.68960 907.71036 850.88913 0.15994
305 7.69320 902.80987 847.47222 0.16068
306 7.69680 898.14118 844.68608 0.16122
307 7.70040 893.69067 841.01142 0.16199
308 7.70400 889.44570 838.18356 0.16237
309 7.70760 885.39455 837.17314 0.16255
310 7.71120 881.52629 835.87897 0.16268
311 7.71480 877.83077 835.14210 0.16302
312 7.71840 874.29853 830.05063 0.16389
313 7.72200 870.92074 830.16916 0.16401
314 7.72560 867.68917 825.16760 0.16513
315 7.72920 864.59613 823.14962 0.16569
316 7.73280 861.63442 818.60160 0.16657
317 7.73640 858.79730 818.96453 0.16615
318 7.74000 856.07848 818.09087 0.16645
319 7.74360 853.47203 815.76621 0.16709
320 7.74720 850.97241 816.70979 0.16712
321 7.75080 848.57442 816.51048 0.16694
322 7.75440 846.27316 818.32037 0.16631
323 7.75800 844.06402 810.87628 0.16801
324 7.76160 841.94268 808.99552 0.16825
325 7.76520 839.90507 811.63362 0.16749
326 7.76880 837.94733 810.54171 0.16786
327 7.77240 836.06584 811.28748 0.16775
328 7.77600 834.25719 809.49647 0.16825
329 7.77960 832.51815 807.95991 0.16856
330 7.78320 830.84566 808.13720 0.16848
331 7.78680 829.23684 806.36967 0.16868
332 7.79040 827.68896 806.91446 0.16869
333 7.79400 826.19945 806.00622 0.16884
334 7.79760 824.76585 807.21997 0.16870
335 7.80120 823.38585 805.39446 0.16900
336 7.80480 822.05724 807.18996 0.16889
337 7.80840 820.77794 804.84616 0.16951
338 7.81200 819.54598 808.72045 0.16873
339 7.81560 818.35947 805.70441 0.16906
340 7.81920 817.21663 805.41994 0.16894
341 7.82280 816.11575 807.63936 0.16893
342 7.82640 815.05523 807.71618 0.16888
343 7.83000 814.03352 803.99807 0.16969
344 7.83360 813.04915 803.84099 0.16933
345 7.83720 812.10075 804.87723 0.16928
346 7.84080 811.18696 798.42978 0.17067
347 7.84440 810.30654 801.16926 0.16974
348 7.84800 809.45826 805.82419 0.16885
349 7.85160 808.64098 802.73652 0.16967
350 7.85520 807.85359 802.35877 0.16967
351 7.85880 807.09505 801.75429 0.16999
352 7.86240 806.36434 799.18759 0.17033
353 7.86600 805.66050 800.51426 0.17008
354 7.86960 804.98262 804.31264 0.16929
355 7.87320 804.32981 800.22102 0.17010
356 7.87680 803.70124 798.53805 0.17060
357 7.88040 803.09610 799.86545 0.17028
358 7.88400 802.51362 798.06886 0.17073
359 7.88760 801.95305 799.24813 0.17070
360 7.89120 801.41369 794.12841 0.17196
361 7.89480 800.89486 797.48078 0.17096
362 7.89840 800.39591 800.10017 0.17030
363 7.90200 799.91620 801.28600 0.17008
364 7.90560 799.45515 802.56716 0.16998
365 7.90920 799.01217 796.79063 0.17113
366 7.91280 798.58671 797.23662 0.17090
367 7.91640 798.17824 800.69760 0.17012
368 7.92000 797.78625 800.23405 0.17039
369 7.92360 797.41024 798.88767 0.17035
370 7.92720 797.04974 799.28356 0.17010
371 7.93080 796.70430 799.53511 0.17044
372 7.93440 796.37348 798.86163 0.17051
373 7.93800 796.05685 800.24395 0.17034
374 7.94160 795.75401 798.90087 0.17059
375 7.94520 795.46458 799.63843 0.17030
376 7.94880 795.18817 798.04624 0.17091
377 7.95240 794.92442 796.08363 0.17110
378 7.95600 794.67298 797.76001 0.17079
379 7.95960 794.43351 798.46552 0.17065
380 7.96320 794.20569 799.70300 0.17059
381 7.96680 793.98920 801.18420 0.17008
382 7.97040 793.78375 799.57736 0.17083
383 7.97400 793.58903 802.18259 0.17006
384 7.97760 793.40476 802.06480 0.16990
385 7.98120 793.23068 804.43957 0.16959
386 7.98480 793.06651 806.41848 0.16919
387 7.98840 792.91201 802.59465 0.17003
388 7.99200 792.76693 806.78159 0.16904
389 7.99560 792.63103 810.48849 0.16822
390 7.99920 792.50407 808.16291 0.16881
391 8.00280 792.38584 810.01196 0.16815
392 8.00640 792.27612 809.75900 0.16795
393 8.01000 792.17470 806.12862 0.16908
394 8.01360 792.08139 802.65427 0.16984
395 8.01720 791.99598 803.33437 0.16963
396 8.02080 791.91828 805.81231 0.16927
397 8.02440 791.84812 804.66639 0.16939
398 8.02800 791.78531 801.48234 0.17025
399 8.03160 791.72968 802.39698 0.17000
400 8.03520 791.68107 802.65155 0.16983
401 8.03880 791.63931 800.78659 0.17045
402 8.04240 791.60425 798.81343 0.17083
403 8.04600 791.57574 799.68070 0.17054
404 8.04960 791.55362 799.93892 0.17062
405 8.05320 791.53776 801.40523 0.17035
406 8.05680 791.52802 803.57219 0.16960
407 8.06040 791.52425 801.90416 0.17017
408 8.06400 791.52634 805.00035 0.16970
409 8.06760 791.53415 801.95382 0.17012
410 8.07120 791.54756 798.16709 0.17114
411 8.07480 791.56644 799.14986 0.17055
412 8.07840 791.59070 799.04562 0.17080
413 8.08200 791.62020 803.62473 0.16956
414 8.08560 791.65484 804.32275 0.16914
415 8.08920 791.69451 803.97713 0.16958
416 8.09280 791.73911 804.28357 0.16967
417 8.09640 791.78854 805.44378 0.16922
418 8.10000 791.84270 802.85418 0.16984
419 8.10360 791.90150 801.31770 0.17015
420 8.10720 791.96483 802.31110 0.17015
421 8.11080 792.03261 801.15400 0.17053
422 8.11440 792.10476 803.29676 0.16990
423 8.11800 792.18118 804.37265 0.16978
424 8.12160 792.26179 804.88398 0.16962
425 8.12520 792.34652 804.28226 0.16945
426 8.12880 792.43527 803.09574 0.16987
427 8.13240 792.52798 806.81952 0.16923
428 8.13600 792.62457 808.26379 0.16893
429 8.13960 792.72497 806.19737 0.16939
430 8.14320 792.82909 804.37676 0.16992
431 8.14680 792.93688 804.64523 0.16971
432 8.15040 793.04827 803.62086 0.17005
433 8.15400 793.16319 807.83656 0.16892
434 8.15760 793.28157 806.85604 0.16909
435 8.16120 793.40336 806.86286 0.16918
436 8.16480 793.52849 803.19606 0.16952
437 8.16840 793.65689 806.56188 0.16909
438 8.17200 793.78852 808.55345 0.16887
439 8.17560 793.92331 805.55921 0.16928
440 8.17920 794.06122 805.52204 0.16933
441 8.18280 794.20217 804.12420 0.16969
442 8.18640 794.34613 810.80764 0.16842
443 8.19000 794.49304 806.23288 0.16971
444 8.19360 794.64285 805.84033 0.16946
445 8.19720 794.79070 804.88748 0.16988
446 8.20080 794.89392 807.55761 0.16912
447 8.20440 795.04547 809.00505 0.16865
448 8.20800 795.20701 805.51212 0.16934
449 8.21160 795.37120 806.62450 0.16942
450 8.21520 795.53800 808.45855 0.16893
451 8.21880 795.70736 806.74547 0.16942
452 8.22240 795.87925 806.66815 0.16951
453 8.22600 796.05361 809.53706 0.16888
454 8.22960 796.23042 807.17194 0.16940
455 8.23320 796.40964 809.86686 0.16857
456 8.23680 796.59121 810.86900 0.16837
457 8.24040 796.77512 812.27728 0.16806
458 8.24400 796.96131 809.96482 0.16848
459 8.24760 797.14976 807.37349 0.16886
460 8.25120 797.34042 811.40851 0.16830
461 8.25480 797.53327 810.31626 0.16837
462 8.25840 797.72826 810.54274 0.16825
463 8.26200 797.92537 809.42771 0.16865
464 8.26560 798.12457 810.65644 0.16848
465 8.26920 798.32581 810.73826 0.16886
466 8.27280 798.52908 810.73433 0.16865
467 8.27640 798.73433 810.10838 0.16882
468 8.28000 798.94155 810.96549 0.16863
469 8.28360 799.15069 811.74648 0.16813
470 8.28720 799.36174 811.32377 0.16818
471 8.29080 799.57466 810.92506 0.16844
472 8.29440 799.78942 814.70593 0.16771
473 8.29800 800.00600 816.22364 0.16731
474 8.30160 800.22438 811.89107 0.16859
475 8.30520 800.44452 814.02438 0.16784
476 8.30880 800.66640 816.25477 0.16745
477 8.31240 800.88999 812.38776 0.16820
478 8.31600 801.11527 812.61093 0.16798
479 8.31960 801.34222 812.82256 0.16793
480 8.32320 801.57081 809.85478 0.16854
481 8.32680 801.80102 814.01064 0.16758
482 8.33040 802.03282 816.48100 0.16718
483 8.33400 802.26620 813.31451 0.16780
484 8.33760 802.50113 813.10390 0.16772
485 8.34120 802.73759 815.32595 0.16731
486 8.34480 802.97555 816.27467 0.16719
487 8.34840 803.21501 816.80694 0.16743
488 8.35200 803.45592 816.68643 0.16740
489 8.35560 803.69829 817.72711 0.16724
490 8.35920 803.94208 818.03271 0.16723
491 8.36280 804.18728 815.77852 0.16727
492 8.36640 804.43387 817.75333 0.16670
493 8.37000 804.68182 814.60486 0.16766
494 8.37360 804.93113 816.32271 0.16732
495 8.37720 805.18177 818.78038 0.16685
496 8.38080 805.43372 819.13930 0.16689
497 8.38440 805.68697 819.85035 0.16673
498 8.38800 805.94150 819.56500 0.16654
499 8.39160 806.19729 817.24193 0.16718
500 8.39520 806.45433 817.07613 0.16703
501 8.39880 806.71259 816.79200 0.16707
502 8.40240 806.97207 819.03706 0.16669
503 8.40600 807.23275 822.60091 0.16577
504 8.40960 807.49461 821.63660 0.16614
505 8.41320 807.75763 820.60995 0.16624
506 8.41680 808.02181 821.86838 0.16590
507 8.42040 808.28712 822.10526 0.16588
508 8.42400 808.55355 823.46034 0.16569
509 8.42760 808.82109 822.43947 0.16626
510 8.43120 809.08972 822.62589 0.16617
511 8.43480 809.35942 819.78402 0.16670
512 8.43840 809.63020 816.05412 0.16764
513 8.44200 809.90202 820.22666 0.16632
514 8.44560 810.17488 824.47801 0.16534
515 8.44920 810.44876 821.39230 0.16612
516 8.45280 810.72366 821.31467 0.16633
517 8.45640 810.99955 822.66637 0.16602
518 8.46000 811.27643 823.28792 0.16604
519 8.46360 811.55428 822.81526 0.16594
520 8.46720 811.83310 822.63343 0.16608
521 8.47080 812.11286 819.96817 0.16660
522 8.47440 812.39356 818.16569 0.16688
523 8.47800 812.67518 825.62786 0.16533
524 8.48160 812.95771 822.88943 0.16579
525 8.48520 813.24115 823.96929 0.16561
526 8.48880 813.52548 829.66507 0.16436
527 8.49240 813.81068 823.30204 0.16569
528 8.49600 814.09676 825.57272 0.16511
529 8.49960 814.38369 821.57781 0.16600
530 8.50320 814.67147 823.28686 0.16572
531 8.50680 814.96008 828.67171 0.16488
532 8.51040 815.24952 827.14737 0.16527
533 8.51400 815.53978 829.07207 0.16480
534 8.51760 815.83084 829.88427 0.16473
535 8.52120 816.12269 824.24066 0.16553
536 8.52480 816.41533 826.97823 0.16484
537 8.52840 816.70875 830.70768 0.16430
538 8.53200 817.00293 828.92535 0.16471
539 8.53560 817.29787 825.33089 0.16541
540 8.53920 817.59356 826.97631 0.16502
541 8.54280 817.88998 825.79424 0.16544
542 8.54640 818.18713 828.30328 0.16479
543 8.55000 818.48500 826.09296 0.16535
544 8.55360 818.78358 828.28273 0.16477
545 8.55720 819.08286 827.82031 0.16498
546 8.56080 819.38284 830.21292 0.16432
547 8.56440 819.68350 830.25578 0.16440
548 8.56800 819.98483 828.69920 0.16451
549 8.57160 820.28683 829.02877 0.16443
550 8.57520 820.58949 828.70717 0.16459
551 8.57880 820.89281 829.33868 0.16429
552 8.58240 821.19676 827.41233 0.16481
553 8.58600 821.50135 832.63957 0.16396
554 8.58960 821.73397 831.65659 0.16427
555 8.59320 819.87414 828.66542 0.16486
556 8.59680 815.84373 833.04500 0.16408
557 8.60040 816.19242 830.63212 0.16429
558 8.60400 816.54131 829.66727 0.16420
559 8.60760 816.89040 828.10816 0.16463
560 8.61120 817.23968 829.02391 0.16464
561 8.61480 817.58916 832.52433 0.16388
562 8.61840 817.93883 834.03178 0.16351
563 8.62200 818.28869 831.71826 0.16395
564 8.62560 818.63873 832.89582 0.16384
565 8.62920 818.98896 835.91649 0.16330
566 8.63280 819.33937 834.33492 0.16362
567 8.63640 819.68995 833.13047 0.16375
568 8.64000 820.04071 835.82328 0.16308
569 8.64360 820.39165 830.90177 0.16407
570 8.64720 820.74276 834.35294 0.16333
571 8.65080 821.09403 833.35445 0.16350
572 8.65440 821.44547 838.49911 0.16249
573 8.65800 821.79707 838.92029 0.16244
574 8.66160 822.14884 838.91657 0.16230
575 8.66520 822.50076 840.87301 0.16228
576 8.66880 822.85284 841.70888 0.16213
577 8.67240 823.20507 836.26375 0.16324
578 8.67600 823.55746 838.30880 0.16295
579 8.67960 823.90999 838.14697 0.16278
580 8.68320 824.26267 838.86445 0.16226
581 8.68680 824.61549 841.04447 0.16192
582 8.69040 824.96845 841.93174 0.16200
583 8.69400 825.32155 840.74580 0.16221
584 8.69760 825.67479 839.49306 0.16236
585 8.70120 826.02816 842.26852 0.16186
586 8.70480 826.38166 840.81067 0.16208
587 8.70840 826.73529 839.89989 0.16252
588 8.71200 827.08904 842.42136 0.16189
589 8.71560 827.44292 844.25369 0.16149
590 8.71920 827.79693 842.55147 0.16169
591 8.72280 828.15105 844.79574 0.16142
592 8.72640 828.50528 843.91878 0.16151
593 8.73000 828.85963 841.19228 0.16200
594 8.73360 829.21410 839.28302 0.16228
595 8.73720 829.56867 838.67704 0.16237
596 8.74080 829.92335 839.93529 0.16212
597 8.74440 830.27813 844.00073 0.16144
598 8.74800 830.63302 846.00090 0.16123
599 8.75160 830.98801 845.85041 0.16109
600 8.75520 831.34309 845.12819 0.16145
601 8.75880 831.69827 844.93147 0.16150
602 8.76240 832.05354 841.71613 0.16173
603 8.76600 832.40890 843.23896 0.16145
604 8.76960 832.76435 843.79347 0.16158
605 8.77320 833.11988 842.72086 0.16181
606 8.77680 833.47550 843.81115 0.16147
607 8.78040 833.83120 847.58171 0.16070
608 8.78400 834.18698 841.76437 0.16188
609 8.78760 834.54283 841.75446 0.16199
610 8.79120 834.89876 846.36235 0.16106
611 8.79480 835.25475 847.37178 0.16087
612 8.79840 835.61082 847.40058 0.16076
613 8.80200 835.96696 848.77338 0.16043
614 8.80560 836.32315 850.34763 0.16018
615 8.80920 836.67941 848.34047 0.16037
616 8.81280 837.03573 847.32555 0.16064
617 8.81640 837.39211 847.26512 0.16080
618 8.82000 837.74855 846.31286 0.16081
619 8.82360 838.10503 850.94898 0.16002
620 8.82720 838.46157 848.68764 0.16061
621 8.83080 838.81815 847.62623 0.16068
622 8.83440 839.17478 850.93423 0.16020
623 8.83800 839.53146 846.60940 0.16111
624 8.84160 839.88817 848.88709 0.16041
625 8.84520 840.24493 852.76531 0.15951
626 8.84880 840.60172 854.28840 0.15945
627 8.85240 840.95855 853.56437 0.15959
628 8.85600 841.31541 849.44729 0.16031
629 8.85960 841.67230 850.29638 0.16018
630 8.86320 842.02921 850.94776 0.16000
631 8.86680 842.38616 850.78741 0.16019
632 8.87040 842.74312 856.10382 0.15902
633 8.87400 843.10011 852.41814 0.15992
634 8.87760 843.45712 849.88583 0.16027
635 8.88120 843.81414 856.60513 0.15897
636 8.88480 844.17117 857.90950 0.15854
637 8.88840 844.52822 851.81911 0.15963
638 8.89200 844.88528 852.23287 0.15960
639 8.89560 845.24235 853.94090 0.15950
640 8.89920 845.59942 851.17085 0.15977
641 8.90280 845.95650 853.73506 0.15934
642 8.90640 846.31358 853.90762 0.15957
643 8.91000 846.67065 855.72383 0.15897
644 8.91360 847.02772 857.30746 0.15899
645 8.91720 847.38479 860.69521 0.15825
646 8.92080 847.74185 857.98099 0.15875
647 8.92440 848.09890 857.74669 0.15855
648 8.92800 848.45594 856.49642 0.15885
649 8.93160 848.81296 854.07518 0.15945
650 8.93520 849.16997 857.09624 0.15884
651 8.93880 849.52696 857.56072 0.15873
652 8.94240 849.88393 858.84190 0.15858
653 8.94600 850.24087 855.98158 0.15917
654 8.94960 850.59779 855.65142 0.15919
655 8.95320 850.95469 859.60102 0.15832
656 8.95680 851.31155 858.89270 0.15847
657 8.96040 851.66839 861.18715 0.15802
658 8.96400 852.02519 862.71406 0.15771
659 8.96760 852.38195 858.84491 0.15825
660 8.97120 852.73868 858.53498 0.15837
661 8.97480 853.09536 860.34341 0.15811
662 8.97840 853.45201 857.29122 0.15863
663 8.98200 853.80861 863.00614 0.15759
664 8.98560 854.16516 861.10407 0.15807
665 8.98920 854.52167 860.49671 0.15822
666 8.99280 854.87812 860.98603 0.15816
667 8.99640 855.23453 865.23580 0.15742
668 9.00000 855.59088 860.78411 0.15813
669 9.00360 855.94717 866.91063 0.15690
670 9.00720 856.30340 865.91019 0.15702
671 9.01080 856.65958 865.62504 0.15711
672 9.01440 857.01569 863.41023 0.15760
673 9.01800 857.37173 867.50871 0.15685
674 9.02160 857.72771 866.41530 0.15715
675 9.02520 858.08362 866.10861 0.15729
676 9.02880 858.43946 865.62416 0.15731
677 9.03240 858.79522 866.32125 0.15711
678 9.03600 859.15091 869.84294 0.15638
679 9.03960 859.50653 869.64321 0.15652
680 9.04320 859.86206 868.16215 0.15668
681 9.04680 860.21751 869.74815 0.15631
682 9.05040 860.57288 868.56377 0.15635
683 9.05400 860.92817 870.39736 0.15621
684 9.05760 861.28336 868.80723 0.15649
685 9.06120 861.63847 861.77635 0.15776
686 9.06480 861.99349 868.85013 0.15671
687 9.06840 862.34841 871.87633 0.15609
688 9.07200 862.70324 870.46216 0.15653
689 9.07560 863.05797 875.02873 0.15556
690 9.07920 863.41260 875.58923 0.15560
691 9.08280 863.76713 875.90559 0.15518
692 9.08640 864.12156 873.57864 0.15549
693 9.09000 864.47588 871.43624 0.15595
694 9.09360 864.83010 874.83504 0.15543
695 9.09720 865.18420 871.47915 0.15606
696 9.10080 865.53820 876.02969 0.15538
697 9.10440 865.89208 875.24685 0.15554
698 9.10800 866.24584 872.52398 0.15599
699 9.11160 866.59949 871.61958 0.15605
700 9.11520 866.95302 873.60860 0.15564
701 9.11880 867.30643 872.75176 0.15577
702 9.12240 867.65972 875.79337 0.15534
703 9.12600 868.01288 876.68366 0.15497
704 9.12960 868.36592 872.98117 0.15553
705 9.13320 868.71882 875.25447 0.15513
706 9.13680 869.07160 879.77200 0.15467
707 9.14040 869.42425 881.94474 0.15407
708 9.14400 869.77676 883.29913 0.15397
709 9.14760 870.12913 885.79988 0.15377
710 9.15120 870.48137 891.96253 0.15262
711 9.15480 870.83346 891.33606 0.15281
712 9.15840 871.18542 891.93702 0.15265
713 9.16200 871.53723 896.50125 0.15176
714 9.16560 871.88889 895.95478 0.15149
715 9.16920 872.24041 894.38651 0.15194
716 9.17280 872.59178 898.89933 0.15120
717 9.17640 872.94299 890.22797 0.15281
718 9.18000 873.29406 887.54741 0.15340
719 9.18360 873.64497 885.04605 0.15371
720 9.18720 873.99572 884.51279 0.15383
721 9.19080 874.34631 881.59401 0.15423
722 9.19440 874.69674 881.73703 0.15410
723 9.19800 875.04701 883.47503 0.15382
724 9.20160 875.39712 882.04632 0.15405
725 9.20520 875.74706 883.85660 0.15373
726 9.20880 876.09683 882.19163 0.15387
727 9.21240 876.44644 882.64951 0.15382
728 9.21600 876.79587 881.68610 0.15409
729 9.21960 877.14512 887.70438 0.15307
730 9.22320 877.49421 886.98561 0.15330
731 9.22680 877.84311 886.49539 0.15344
732 9.23040 878.19184 883.69160 0.15390
733 9.23400 878.54039 881.64893 0.15439
734 9.23760 878.88875 885.54594 0.15359
735 9.24120 879.23693 884.52638 0.15367
736 9.24480 879.58493 882.30817 0.15394
737 9.24840 879.93274 888.53303 0.15295
738 9.25200 880.28035 886.79160 0.15332
739 9.25560 880.62778 883.12406 0.15398
740 9.25920 880.98593 883.09467 0.15421
741 9.26280 884.25807 888.23023 0.15329
742 9.26640 886.54264 890.06890 0.15288
743 9.27000 886.91642 884.68312 0.15371
744 9.27360 887.29023 884.05525 0.15370
745 9.27720 887.66406 885.23121 0.15349
746 9.28080 888.03793 884.84164 0.15358
747 9.28440 888.41182 887.50003 0.15311
748 9.28800 888.78575 885.91824 0.15337
749 9.29160 889.15971 887.48295 0.15293
750 9.29520 889.53370 893.76044 0.15205
751 9.29880 889.90772 887.63383 0.15300
752 9.30240 890.28178 889.37314 0.15291
753 9.30600 890.65588 890.14073 0.15267
754 9.30960 891.03001 889.81891 0.15285
755 9.31320 891.40418 889.64026 0.15294
756 9.31680 891.77839 890.80571 0.15269
757 9.32040 892.15264 889.74140 0.15287
758 9.32400 892.52693 888.41781 0.15293
759 9.32760 892.90127 892.41247 0.15236
760 9.33120 893.27565 894.67750 0.15183
761 9.33480 893.65008 893.31603 0.15225
762 9.33840 894.02456 891.59149 0.15262
763 9.34200 894.39909 893.01259 0.15247
764 9.34560 894.77366 892.09879 0.15256
765 9.34920 895.14830 894.87587 0.15196
766 9.35280 895.52298 891.97600 0.15233
767 9.35640 895.89773 896.73158 0.15157
768 9.36000 896.27253 896.18519 0.15159
769 9.36360 896.64740 894.68110 0.15188
770 9.36720 897.02233 893.06951 0.15211
771 9.37080 897.39732 898.93171 0.15104
772 9.37440 897.77238 898.27660 0.15123
773 9.37800 898.14751 896.13963 0.15169
774 9.38160 898.52271 897.55033 0.15153
775 9.38520 898.89798 899.05354 0.15126
776 9.38880 899.27333 898.02147 0.15147
777 9.39240 899.64876 894.09220 0.15240
778 9.39600 900.02427 894.40778 0.15213
779 9.39960 900.39986 896.69057 0.15177
780 9.40320 900.77555 899.10931 0.15115
781 9.40680 901.15132 894.16235 0.15200
782 9.41040 901.52718 895.93139 0.15177
783 9.41400 901.90313 899.64762 0.15110
784 9.41760 902.27919 901.49745 0.15092
785 9.42120 902.65535 900.76721 0.15104
786 9.42480 903.03160 901.15376 0.15116
787 9.42840 903.40797 899.95229 0.15117
788 9.43200 903.78445 900.01692 0.15100
789 9.43560 904.16104 902.92632 0.15050
790 9.43920 904.53775 902.73073 0.15059
791 9.44280 904.91458 902.01590 0.15074
792 9.44640 905.29153 903.40619 0.15062
793 9.45000 905.66861 902.21491 0.15066
794 9.45360 906.04582 902.65137 0.15073
795 9.45720 906.42317 901.64443 0.15079
796 9.46080 906.80066 902.98685 0.15075
797 9.46440 907.17829 905.78887 0.14969
798 9.46800 907.55607 902.82197 0.15047
799 9.47160 907.93400 903.58739 0.15058
800 9.47520 908.31209 908.44255 0.14985
801 9.47880 908.69033 908.26433 0.14966
802 9.48240 909.06875 903.07710 0.15044
803 9.48600 909.44733 902.47037 0.15049
804 9.48960 909.82609 901.87067 0.15070
805 9.49320 910.20502 901.66373 0.15073
806 9.49680 910.58415 907.47615 0.14987
807 9.50040 910.96346 908.56823 0.14980
808 9.50400 911.34296 909.07501 0.14967
809 9.50760 911.72267 905.90114 0.15018
810 9.51120 912.10258 909.76916 0.14934
811 9.51480 912.48270 909.21052 0.14934
812 9.51840 912.86304 911.36219 0.14914
813 9.52200 913.24360 908.48543 0.14966
814 9.52560 913.62439 910.31347 0.14950
815 9.52920 914.00542 912.94932 0.14892
816 9.53280 914.38668 909.82677 0.14946
817 9.53640 914.76820 907.77641 0.14984
818 9.54000 915.14996 911.45651 0.14935
819 9.54360 915.53199 913.80901 0.14837
820 9.54720 915.91428 910.91863 0.14894
821 9.55080 916.29685 908.59927 0.14971
822 9.55440 916.67970 913.02778 0.14903
823 9.55800 917.06284 915.89044 0.14860
824 9.56160 917.44627 916.26900 0.14830
825 9.56520 917.83001 912.32345 0.14886
826 9.56880 918.21405 915.15993 0.14850
827 9.57240 918.59842 917.10984 0.14801
828 9.57600 918.98311 919.46291 0.14786
829 9.57960 919.36814 915.90066 0.14853
830 9.58320 919.75351 913.98455 0.14887
831 9.58680 920.13924 912.39455 0.14905
832 9.59040 920.52532 914.83360 0.14879
833 9.59400 920.91178 915.79321 0.14849
834 9.59760 921.29861 916.96469 0.14849
835 9.60120 921.68584 915.76722 0.14850
836 9.60480 922.07346 914.44122 0.14872
837 9.60840 922.46149 916.04338 0.14839
838 9.61200 922.84993 920.72216 0.14766
839 9.61560 923.23881 921.48921 0.14767
840 9.61920 923.62813 918.90080 0.14809
841 9.62280 924.01789 914.68157 0.14832
842 9.62640 924.40812 914.99720 0.14840
843 9.63000 924.79881 918.93918 0.14779
844 9.63360 925.18999 921.48901 0.14791
845 9.63720 925.58167 921.22576 0.14761
846 9.64080 925.97385 920.17193 0.14788
847 9.64440 926.36655 919.11771 0.14774
848 9.64800 926.75978 921.51748 0.14732
849 9.65160 927.15356 925.77722 0.14672
850 9.65520 927.54789 921.91493 0.14741
851 9.65880 927.94279 923.03885 0.14761
852 9.66240 928.33828 927.16040 0.14669
853 9.66600 928.73436 925.10603 0.14721
854 9.66960 929.13106 924.00415 0.14731
855 9.67320 929.52838 922.45490 0.14753
856 9.67680 929.92635 926.25427 0.14706
857 9.68040 930.32497 928.70862 0.14654
858 9.68400 930.72426 926.37929 0.14677
859 9.68760 931.12424 925.44919 0.14699
860 9.69120 931.52493 929.01551 0.14649
861 9.69480 931.92634 926.67645 0.14706
862 9.69840 932.32848 923.89338 0.14731
863 9.70200 932.73138 923.73011 0.14709
864 9.70560 933.13505 924.60615 0.14663
865 9.70920 933.53952 924.29330 0.14694
866 9.71280 933.94479 927.45944 0.14677
867 9.71640 934.35089 927.87489 0.14669
868 9.72000 934.75784 930.09699 0.14614
869 9.72360 935.16566 932.04674 0.14594
870 9.72720 935.57437 931.17118 0.14592
871 9.73080 935.98398 932.30220 0.14583
872 9.73440 936.39453 929.67999 0.14619
873 9.73800 936.80603 928.86205 0.14657
874 9.74160 937.21850 933.32374 0.14586
875 9.74520 937.63197 927.32037 0.14683
876 9.74880 938.04646 930.13845 0.14656
877 9.75240 938.46199 930.93124 0.14613
878 9.75600 938.87860 934.55519 0.14589
879 9.75960 939.29629 935.91243 0.14548
880 9.76320 939.71511 934.25504 0.14566
881 9.76680 940.13507 934.64887 0.14563
882 9.77040 940.55620 938.40784 0.14506
883 9.77400 940.97854 936.97824 0.14558
884 9.77760 941.40210 937.43530 0.14512
885 9.78120 941.82692 936.39563 0.14525
886 9.78480 942.25302 937.73864 0.14454
887 9.78840 942.68044 935.01020 0.14505
888 9.79200 943.18960 935.26808 0.14553
889 9.79560 943.90758 937.16932 0.14529
890 9.79920 944.34280 941.05644 0.14455
891 9.80280 944.77952 938.12640 0.14493
892 9.80640 945.21778 939.08008 0.14477
893 9.81000 945.65761 938.68207 0.14479
894 9.81360 946.09905 936.75014 0.14508
895 9.81720 946.54213 939.82511 0.14480
896 9.82080 946.98689 942.56383 0.14446
897 9.82440 947.43339 944.99923 0.14407
898 9.82800 947.88164 944.54661 0.14425
899 9.83160 948.33170 945.96885 0.14405
900 9.83520 948.78362 945.19448 0.14420
901 9.83880 949.23742 949.05999 0.14363
902 9.84240 949.69317 951.12298 0.14303
903 9.84600 950.15090 956.99206 0.14231
904 9.84960 950.61066 956.75718 0.14230
905 9.85320 951.61561 955.59701 0.14273
906 9.85680 962.88318 956.10953 0.14243
907 9.86040 963.57617 950.61797 0.14338
908 9.86400 964.16281 948.55421 0.14290
909 9.86760 964.75357 948.46390 0.14315
910 9.87120 965.34853 944.66462 0.14399
911 9.87480 965.94779 948.15730 0.14383
912 9.87840 966.55145 949.58799 0.14339
913 9.88200 967.15961 950.21995 0.14328
914 9.88560 967.77236 949.24061 0.14321
915 9.88920 968.53294 949.22846 0.14316
916 9.89280 969.98699 949.12165 0.14307
917 9.89640 970.62389 951.13360 0.14304
918 9.90000 971.26598 951.24589 0.14317
919 9.90360 971.91338 950.18226 0.14318
920 9.90720 972.56621 950.49565 0.14329
921 9.91080 973.22460 954.07371 0.14290
922 9.91440 973.88868 951.95184 0.14319
923 9.91800 974.55859 950.48888 0.14333
924 9.92160 975.23447 953.24575 0.14284
925 9.92520 975.91645 948.45002 0.14349
926 9.92880 976.60469 948.88903 0.14363
927 9.93240 977.29934 949.13259 0.14362
928 9.93600 978.00055 950.82095 0.14328
929 9.93960 978.70848 955.98412 0.14261
930 9.94320 979.42329 956.22878 0.14196
931 9.94680 980.14516 954.41358 0.14228
932 9.95040 980.87426 951.96894 0.14278
933 9.95400 981.61077 957.56808 0.14244
934 9.95760 982.35486 955.98191 0.14264
935 9.96120 983.10675 956.57933 0.14237
936 9.96480 983.86660 953.89411 0.14264
937 9.96840 984.63464 956.56305 0.14199
938 9.97200 985.41107 955.80433 0.14220
939 9.97560 986.19610 958.96150 0.14182
940 9.97920 986.98995 957.71085 0.14237
941 9.98280 987.79285 962.28966 0.14130
942 9.98640 988.60504 961.20560 0.14164
943 9.99000 989.42675 965.59145 0.14112
944 9.99360 990.25824 963.10188 0.14143
945 9.99720 991.09977 961.31198 0.14194
946 10.00080 991.95159 960.72390 0.14170
947 10.00440 992.81399 965.35954 0.14107
948 10.00800 993.68724 965.57116 0.14093
949 10.01160 994.57164 966.20840 0.14108
950 10.01520 995.46749 962.41147 0.14156
951 10.01880 996.37510 960.13134 0.14194
952 10.02240 997.29479 966.95940 0.14053
953 10.02600 998.22691 966.98343 0.14043
954 10.02960 999.17178 970.28814 0.13985
955 10.03320 1000.12976 968.41153 0.14065
956 10.03680 1001.10123 965.02885 0.14124
957 10.04040 1002.08656 966.43736 0.14096
958 10.04400 1003.08615 964.83759 0.14101
959 10.04760 1004.10040 966.51377 0.14062
960 10.05120 1005.12973 969.30919 0.14000
961 10.05480 1006.17458 972.42352 0.13977
962 10.05840 1007.23540 969.20460 0.14051
963 10.06200 1008.31266 966.85970 0.14086
964 10.06560 1009.40683 973.88776 0.13957
965 10.06920 1010.51843 973.44098 0.13998
966 10.07280 1011.64797 974.51572 0.13967
967 10.07640 1012.79598 972.67715 0.14025
968 10.08000 1013.96304 973.91177 0.13983
969 10.08360 1015.14971 975.30970 0.13948
970 10.08720 1016.35660 976.25354 0.13934
971 10.09080 1017.58433 977.16566 0.13917
972 10.09440 1018.83355 977.33744 0.13936
973 10.09800 1020.10492 975.52276 0.13934
974 10.10160 1021.39916 977.39158 0.13929
975 10.10520 1022.71697 981.77230 0.13864
976 10.10880 1024.05913 978.59263 0.13886
977 10.11240 1025.42640 978.25718 0.13914
978 10.11600 1026.81960 979.93847 0.13916
979 10.11960 1028.23958 986.27863 0.13814
980 10.12320 1029.68722 990.70740 0.13735
981 10.12680 1031.16344 985.91540 0.13778
982 10.13040 1032.66919 986.05686 0.13770
983 10.13400 1034.20547 986.46754 0.13768
984 10.13760 1035.77330 988.22795 0.13766
985 10.14120 1037.37378 985.07472 0.13818
986 10.14480 1039.00802 990.06240 0.13737
987 10.14840 1040.67720 988.12925 0.13771
988 10.15200 1042.38253 984.82851 0.13837
989 10.15560 1044.12531 991.92138 0.13749
990 10.15920 1045.90686 992.37559 0.13731
991 10.16280 1047.72857 995.67790 0.13653
992 10.16640 1049.59189 994.69912 0.13672
993 10.17000 1051.49835 996.83609 0.13655
994 10.17360 1053.44954 998.02287 0.13641
995 10.17720 1055.44712 997.36651 0.13635
996 10.18080 1057.49281 1000.69638 0.13605
997 10.18440 1059.58846 1000.16271 0.13628
998 10.18800 1061.73595 1001.64170 0.13581
999 10.19160 1063.93729 1003.18935 0.13563
1000 10.19520 1066.19457 1002.58510 0.13602
1001 10.19880 1068.50999 1007.24720 0.13522
1002 10.20240 1070.88584 1008.12013 0.13491
1003 10.20600 1073.32454 1006.32982 0.13512
1004 10.20960 1075.82862 1009.40144 0.13453
1005 10.21320 1078.40076 1011.22622 0.13443
1006 10.21680 1081.04374 1013.47720 0.13419
1007 10.22040 1083.76052 1011.12444 0.13476
1008 10.22400 1086.55419 1015.48965 0.13381
1009 10.22760 1089.42801 1013.78495 0.13413
1010 10.23120 1092.38541 1017.78074 0.13369
1011 10.23480 1095.43001 1022.09469 0.13328
1012 10.23840 1098.56562 1026.02790 0.13270
1013 10.24200 1101.79627 1030.31021 0.13209
1014 10.24560 1105.12620 1027.44974 0.13229
1015 10.24920 1108.55989 1030.27451 0.13205
1016 10.25280 1112.10209 1031.30069 0.13204
1017 10.25640 1115.75779 1035.96091 0.13117
1018 10.26000 1119.53229 1033.81707 0.13161
1019 10.26360 1123.43122 1036.93682 0.13129
1020 10.26720 1127.46049 1043.16849 0.13054
1021 10.27080 1131.62643 1048.96568 0.12953
1022 10.27440 1135.93569 1051.36467 0.12965
1023 10.27800 1140.39539 1053.74734 0.12923
1024 10.28160 1145.01304 1051.65681 0.12923
1025 10.28520 1149.79665 1055.58766 0.12880
1026 10.28880 1154.75474 1056.88126 0.12861
1027 10.29240 1159.89638 1062.34025 0.12788
1028 10.29600 1165.23122 1070.60096 0.12697
1029 10.29960 1170.76956 1076.19032 0.12634
1030 10.30320 1176.52238 1078.27996 0.12613
1031 10.30680 1182.50144 1082.41356 0.12540
1032 10.31040 1188.71926 1086.84332 0.12517
1033 10.31400 1195.18927 1087.47041 0.12501
1034 10.31760 1201.92583 1092.80418 0.12463
1035 10.32120 1208.94436 1102.66414 0.12320
1036 10.32480 1216.26137 1109.36939 0.12259
1037 10.32840 1223.89461 1117.27662 0.12160
1038 10.33200 1231.86315 1119.31709 0.12155
1039 10.33560 1240.18751 1130.84243 0.12017
1040 10.33920 1248.88980 1134.79258 0.11971
1041 10.34280 1257.99386 1142.42559 0.11914
1042 10.34640 1267.52543 1155.73562 0.11782
1043 10.35000 1277.51232 1158.14331 0.11736
1044 10.35360 1287.98462 1172.05296 0.11613
1045 10.35720 1298.97495 1175.63889 0.11592
1046 10.36080 1310.51869 1191.24942 0.11406
1047 10.36440 1322.65425 1207.67473 0.11253
1048 10.36800 1335.42344 1219.91579 0.11140
1049 10.37160 1348.87176 1227.45202 0.11060
1050 10.37520 1363.04887 1246.28102 0.10904
1051 10.37880 1378.00901 1259.76656 0.10790
1052 10.38240 1393.81151 1278.28331 0.10634
1053 10.38600 1410.52141 1300.43395 0.10440
1054 10.38960 1428.21008 1322.79658 0.10257
1055 10.39320 1446.95602 1339.15143 0.10150
1056 10.39680 1466.84572 1360.33319 0.09992
1057 10.40040 1487.97466 1387.48129 0.09795
1058 10.40400 1510.44849 1415.56199 0.09586
1059 10.40760 1534.38434 1440.67711 0.09428
1060 10.41120 1559.91247 1468.06746 0.09262
1061 10.41480 1587.17809 1502.05149 0.09050
1062 10.41840 1616.34357 1539.91433 0.08820
1063 10.42200 1647.59109 1580.57707 0.08604
1064 10.42560 1681.12577 1626.08190 0.08379
1065 10.42920 1717.17948 1668.71147 0.08135
1066 10.43280 1756.01536 1719.76304 0.07910
1067 10.43640 1797.93339 1772.18609 0.07680
1068 10.44000 1843.27705 1830.11929 0.07232
1069 10.44360 1892.44137 1895.33993 0.07160
1070 10.44720 1945.88264 1960.24986 0.06928
1071 10.45080 2004.13009 2031.10904 0.06623
1072 10.45440 2067.79978 2111.69347 0.06172
1073 10.45800 2137.61113 2199.95355 0.05963
1074 10.46160 2214.40624 2298.63356 0.05422
1075 10.46520 2299.17268 2406.81380 0.04952
1076 10.46880 2393.06976 2521.05471 0.04518
1077 10.47240 2497.45898 2652.63355 0.03815
1078 10.47600 2613.93911 2791.48685 0.03619
1079 10.47960 2744.38703 2947.34191 0.03109
1080 10.48320 2891.00567 3120.36584 0.02768
1081 10.48680 3056.38179 3314.53158 0.02740
1082 10.49040 3243.55658 3518.79513 0.02233
1083 10.49400 3456.11274 3777.71888 0.01913
1084 10.49760 3698.27837 4078.20652 0.01536
1085 10.50120 3975.04035 4412.30081 0.01498
1086 10.50480 4292.24604 4772.04251 0.01223
1087 10.50840 4656.66688 5182.41625 0.01117
1088 10.51200 5076.04590 5645.71533 0.00887
1089 10.51560 5559.32960 6177.11505 0.00768
1090 10.51920 6117.57091 6791.28907 0.00623
1091 10.52280 6765.96610 7528.29476 0.00489
1092 10.52640 7526.46232 8413.64805 0.00373
1093 10.53000 8428.77318 9513.26869 0.00270
1094 10.53360 9507.70286 10955.50020 0.00185
1095 10.53720 10797.07194 12583.80131 0.00147
1096 10.54080 12322.28160 14732.50916 0.00108
1097 10.54440 14092.78108 17108.65164 0.00092
1098 10.54800 16094.03724 19602.29460 0.00083
1099 10.55160 18277.47392 22102.32785 0.00079
1100 10.55520 20546.45000 24485.95453 0.00080
1101 10.55880 22738.50143 26622.13049 0.00089
1102 10.56240 24613.65851 28218.36529 0.00134
1103 10.56600 25876.38121 28888.26840 0.00298
1104 10.56960 26261.35730 28403.67409 0.00148
1105 10.57320 25660.17181 26834.99696 0.00087
1106 10.57680 24189.08001 24351.96290 0.00068
1107 10.58040 22127.61575 21222.83491 0.00062
1108 10.58400 19788.22855 17981.62763 0.00074
1109 10.58760 17422.49306 15092.89389 0.00096
1110 10.59120 15195.74829 12865.82973 0.00135
1111 10.59480 13200.64021 11173.42981 0.00188
1112 10.59840 11478.53425 9895.13947 0.00269
1113 10.60200 10036.40405 8924.08455 0.00359
1114 10.60560 8858.04647 8138.38800 0.00448
1115 10.60920 7911.38808 7488.20263 0.00545
1116 10.61280 7153.69926 6914.46521 0.00624
1117 10.61640 6536.67891 6447.71720 0.00751
1118 10.62000 6013.38963 5955.24709 0.00666
1119 10.62360 5546.87553 5510.72581 0.00766
1120 10.62720 5116.28898 5073.86535 0.00815
1121 10.63080 4715.92430 4669.47921 0.00914
1122 10.63440 4348.29115 4300.52458 0.01084
1123 10.63800 4016.99284 3961.75575 0.01158
1124 10.64160 3723.19904 3680.27964 0.01481
1125 10.64520 3465.34305 3433.26809 0.01533
1126 10.64880 3240.13584 3211.51227 0.01938
1127 10.65240 3043.61485 3022.65296 0.02136
1128 10.65600 2871.82269 2865.13824 0.02597
1129 10.65960 2721.14299 2723.05962 0.02686
1130 10.66320 2588.42056 2584.10284 0.03375
1131 10.66680 2470.96986 2473.49981 0.03729
1132 10.67040 2366.53475 2370.19124 0.03795
1133 10.67400 2273.23186 2272.83919 0.04491
1134 10.67760 2189.49264 2191.14094 0.04662
1135 10.68120 2114.01038 2104.39360 0.04833
1136 10.68480 2045.69419 2037.22103 0.05031
1137 10.68840 1983.63032 1973.74774 0.05228
1138 10.69200 1927.04989 1905.49582 0.05459
1139 10.69560 1875.30271 1850.96421 0.05374
1140 10.69920 1827.83587 1802.77460 0.04697
1141 10.70280 1784.17655 1756.61473 0.04829
1142 10.70640 1743.91806 1709.96332 0.04946
1143 10.71000 1706.70872 1668.30167 0.05077
1144 10.71360 1672.24276 1624.46606 0.05217
1145 10.71720 1640.25306 1590.33267 0.05334
1146 10.72080 1610.50517 1559.77505 0.05433
1147 10.72440 1582.79246 1532.18182 0.06232
1148 10.72800 1556.93212 1506.84304 0.06894
1149 10.73160 1532.76180 1477.16547 0.06984
1150 10.73520 1510.13686 1449.26121 0.07073
1151 10.73880 1488.92803 1425.08369 0.07168
1152 10.74240 1469.01949 1403.99725 0.07268
1153 10.74600 1450.30712 1385.91327 0.07376
1154 10.74960 1432.69713 1363.33486 0.07465
1155 10.75320 1416.10485 1343.27398 0.07601
1156 10.75680 1400.45361 1327.21941 0.07698
1157 10.76040 1385.67392 1312.53881 0.07772
1158 10.76400 1371.70259 1297.80753 0.07891
1159 10.76760 1358.48212 1285.54955 0.08013
1160 10.77120 1345.96004 1269.81411 0.08191
1161 10.77480 1334.08839 1263.19713 0.08188
1162 10.77840 1322.82330 1245.39798 0.06799
1163 10.78200 1312.12455 1240.02658 0.06827
1164 10.78560 1301.95518 1233.11647 0.06856
1165 10.78920 1292.28125 1216.40424 0.06950
1166 10.79280 1283.07146 1206.61649 0.07016
1167 10.79640 1274.29697 1201.38110 0.07048
1168 10.80000 1265.93114 1194.73735 0.07092
1169 10.80360 1257.94936 1185.17405 0.07685
1170 10.80720 1250.32883 1179.13619 0.08820
1171 10.81080 1243.04841 1166.43678 0.08841
1172 10.81440 1236.08851 1164.39419 0.08809
1173 10.81800 1229.43090 1164.06965 0.08763
1174 10.82160 1223.05867 1154.54376 0.08827
1175 10.82520 1216.95603 1144.85089 0.08904
1176 10.82880 1211.10829 1143.25062 0.08906
1177 10.83240 1205.50175 1139.45261 0.08927
1178 10.83600 1200.12361 1132.34117 0.09026
1179 10.83960 1194.96191 1129.52210 0.09018
1180 10.84320 1190.00546 1128.24241 0.09071
1181 10.84680 1185.24378 1118.20515 0.09179
1182 10.85040 1180.66706 1116.66037 0.09293
1183 10.85400 1176.26608 1113.23766 0.09401
1184 10.85760 1172.03220 1110.61054 0.07864
1185 10.86120 1167.95731 1109.35096 0.07632
1186 10.86480 1164.03377 1110.65757 0.07616
1187 10.86840 1160.25439 1101.96973 0.07673
1188 10.87200 1156.61242 1104.30822 0.07660
1189 10.87560 1153.10148 1093.70782 0.07736
1190 10.87920 1149.71557 1088.83648 0.07767
1191 10.88280 1146.44902 1087.76445 0.08053
1192 10.88640 1143.29647 1089.50353 0.09570
1193 10.89000 1140.25287 1090.78219 0.09464
1194 10.89360 1137.31344 1086.53842 0.09439
1195 10.89720 1134.47365 1085.93631 0.09394
1196 10.90080 1131.72923 1086.43973 0.09378
1197 10.90440 1129.07612 1079.88193 0.09433
1198 10.90800 1126.51048 1077.92328 0.09441
1199 10.91160 1124.02866 1075.67851 0.09453
1200 10.91520 1121.62722 1072.15853 0.09505
1201 10.91880 1119.30286 1070.71132 0.09529
1202 10.92240 1117.05247 1064.78550 0.09592
1203 10.92600 1114.87309 1066.81281 0.09611
1204 10.92960 1112.76191 1069.20825 0.09650
1205 10.93320 1110.71624 1066.21408 0.09782
1206 10.93680 1108.73354 1067.44697 0.08835
1207 10.94040 1106.81138 1064.81199 0.07941
1208 10.94400 1104.94745 1063.67976 0.07948
1209 10.94760 1103.13954 1059.94167 0.07961
1210 10.95120 1101.38555 1057.86691 0.08003
1211 10.95480 1099.68347 1063.40331 0.07948
1212 10.95840 1098.03141 1063.63455 0.07960
1213 10.96200 1096.42751 1057.73250 0.08000
1214 10.96560 1094.87006 1054.31418 0.09812
1215 10.96920 1093.35736 1056.17374 0.09778
1216 10.97280 1091.88784 1054.77882 0.09734
1217 10.97640 1090.45997 1055.11310 0.09662
1218 10.98000 1089.07229 1056.49198 0.09642
1219 10.98360 1087.63854 1056.52878 0.09632
1220 10.98720 1085.52837 1050.12631 0.09684
1221 10.99080 1084.24986 1049.50221 0.09676
1222 10.99440 1083.00628 1050.57673 0.09692
1223 10.99800 1081.79646 1056.56990 0.09644
1224 11.00160 1080.61927 1055.88674 0.09662
1225 11.00520 1079.47363 1055.58632 0.09690
1226 11.00880 1078.35850 1049.61279 0.09811
1227 11.01240 1077.27289 1048.09581 0.09918
1228 11.01600 1076.21584 1047.12957 0.09429
1229 11.01960 1075.18642 1050.04929 0.08046
1230 11.02320 1074.18377 1051.44160 0.08027
1231 11.02680 1073.20703 1048.18797 0.08049
1232 11.03040 1072.25539 1043.47284 0.08114
1233 11.03400 1071.32805 1048.36537 0.08065
1234 11.03760 1070.42428 1049.62392 0.08064
1235 11.04120 1069.54334 1043.09082 0.08115
1236 11.04480 1068.68453 1049.56101 0.09458
1237 11.04840 1067.84718 1047.62795 0.09888
1238 11.05200 1067.03065 1044.08285 0.09840
1239 11.05560 1066.23431 1044.20736 0.09776
1240 11.05920 1065.54887 1041.97993 0.09768
1241 11.06280 1065.02054 1039.73910 0.09791
1242 11.06640 1064.28443 1039.05803 0.09776
1243 11.07000 1063.56628 1043.46777 0.09741
1244 11.07360 1062.86557 1041.98856 0.09751
1245 11.07720 1062.18181 1042.09178 0.09783
1246 11.08080 1061.51449 1037.14731 0.09822
1247 11.08440 1060.86317 1034.16440 0.09895
1248 11.08800 1060.22739 1043.17895 0.09837
1249 11.09160 1059.60672 1043.80400 0.09933
1250 11.09520 1059.00073 1037.07199 0.09986
1251 11.09880 1058.40902 1035.30025 0.08164
1252 11.10240 1057.83120 1035.71294 0.08143
1253 11.10600 1057.26689 1035.19435 0.08153
1254 11.10960 1056.71573 1041.06982 0.08126
1255 11.11320 1056.17735 1042.48886 0.08104
1256 11.11680 1055.65142 1041.77287 0.08118
1257 11.12040 1055.13761 1040.15237 0.08122
1258 11.12400 1054.63559 1035.94678 0.08910
1259 11.12760 1054.14505 1034.66621 0.10020
1260 11.13120 1053.66571 1040.94484 0.09880
1261 11.13480 1053.19725 1037.60274 0.09836
1262 11.13840 1052.73941 1030.53448 0.09866
1263 11.14200 1052.29190 1039.63098 0.09766
1264 11.14560 1051.85448 1040.67761 0.09738
1265 11.14920 1051.42687 1035.80308 0.09786
1266 11.15280 1051.00883 1030.15178 0.09830
1267 11.15640 1050.60013 1030.81619 0.09846
1268 11.16000 1050.20053 1035.72387 0.09774
1269 11.16360 1049.80980 1036.99186 0.09771
1270 11.16720 1049.42772 1035.46037 0.09770
1271 11.17080 1049.05409 1037.74263 0.09763
1272 11.17440 1048.68870 1032.90706 0.09812
1273 11.17800 1048.33134 1028.07525 0.09852
1274 11.18160 1047.98182 1031.06138 0.09808
1275 11.18520 1047.63997 1032.62943 0.09788
1276 11.18880 1047.30558 1035.16492 0.09790
1277 11.19240 1046.97849 1033.28073 0.09817
1278 11.19600 1046.65853 1033.28937 0.09803
1279 11.19960 1046.34552 1032.53471 0.09810
1280 11.20320 1046.03932 1031.25089 0.10167
1281 11.20680 1045.73975 1034.56883 0.11688
1282 11.21040 1045.44666 1039.26722 0.11527
1283 11.21400 1045.15992 1034.87912 0.11520
1284 11.21760 1044.87937 1030.52543 0.11496
1285 11.22120 1044.60488 1031.79142 0.11483
1286 11.22480 1044.33630 1033.53831 0.11427
1287 11.22840 1044.07352 1033.30631 0.11442
1288 11.23200 1043.81639 1033.18269 0.11424
1289 11.23560 1043.56480 1033.65897 0.11437
1290 11.23920 1043.31862 1031.93959 0.11445
1291 11.24280 1043.07773 1032.18403 0.11446
1292 11.24640 1042.84204 1033.72264 0.11419
1293 11.25000 1042.61141 1035.40997 0.11404
1294 11.25360 1042.34823 1033.23504 0.11432
1295 11.25720 1041.80185 1032.12555 0.11443
1296 11.26080 1041.58934 1033.33751 0.11417
1297 11.26440 1041.38144 1031.95491 0.11421
1298 11.26800 1041.17804 1034.74541 0.11411
1299 11.27160 1040.97907 1033.94093 0.11437
1300 11.27520 1040.78443 1034.14100 0.11417
1301 11.27880 1040.59403 1029.33187 0.11471
1302 11.28240 1039.86645 1033.82553 0.11435
1303 11.28600 1029.14505 1034.40270 0.13197
1304 11.28960 1028.80662 1033.73690 0.13245
1305 11.29320 1028.74387 1033.81786 0.13175
1306 11.29680 1028.68332 1037.52898 0.13066
1307 11.30040 1028.62492 1035.66935 0.13060
1308 11.30400 1028.56863 1032.77584 0.13084
1309 11.30760 1028.51442 1034.06324 0.13047
1310 11.31120 1028.46226 1027.05429 0.13143
1311 11.31480 1028.41210 1034.59243 0.13046
1312 11.31840 1028.36391 1036.30955 0.13027
1313 11.32200 1028.31765 1036.90208 0.13016
1314 11.32560 1028.27331 1035.04106 0.13040
1315 11.32920 1028.23085 1035.49472 0.13026
1316 11.33280 1028.19023 1031.79620 0.13082
1317 11.33640 1028.15144 1030.23630 0.13105
1318 11.34000 1028.11444 1029.75231 0.13095
1319 11.34360 1028.07921 1032.37020 0.13041
1320 11.34720 1028.04573 1036.64035 0.13013
1321 11.35080 1027.95258 1033.98788 0.13066
1322 11.35440 1027.04394 1033.00953 0.13065
1323 11.35800 1027.00179 1030.51582 0.13091
1324 11.36160 1026.98433 1027.23560 0.13150
1325 11.36520 1026.96838 1031.60922 0.13103
1326 11.36880 1026.95393 1034.33858 0.13063
1327 11.37240 1026.94097 1035.95523 0.13056
1328 11.37600 1026.92947 1035.27963 0.13043
1329 11.37960 1026.91944 1034.84014 0.13034
1330 11.38320 1026.91087 1034.22107 0.13038
1331 11.38680 1026.90374 1031.79601 0.13064
1332 11.39040 1026.89805 1035.02596 0.13035
1333 11.39400 1026.89380 1035.14217 0.13040
1334 11.39760 1026.89097 1033.56463 0.13055
1335 11.40120 1026.88958 1033.01056 0.13064
1336 11.40480 1026.88960 1036.57078 0.13018
1337 11.40840 1026.89106 1035.66580 0.13018
1338 11.41200 1026.89394 1035.26293 0.13030
1339 11.41560 1026.89825 1035.42471 0.13043
1340 11.41920 1026.90400 1036.93335 0.13012
1341 11.42280 1026.91119 1041.11998 0.12940
1342 11.42640 1026.91982 1040.65562 0.12960
1343 11.43000 1026.92992 1037.01854 0.13029
1344 11.43360 1026.94148 1038.75296 0.13005
1345 11.43720 1026.95453 1041.79779 0.12957
1346 11.44080 1026.96907 1045.29775 0.12909
1347 11.44440 1026.98513 1045.65951 0.12927
1348 11.44800 1027.00273 1048.48513 0.12886
1349 11.45160 1027.02188 1047.63859 0.12914
1350 11.45520 1027.04261 1051.55800 0.12842
1351 11.45880 1027.06494 1042.74412 0.12941
1352 11.46240 1027.08891 1039.66195 0.12973
1353 11.46600 1027.11455 1040.65736 0.12954
1354 11.46960 1027.14189 1043.48602 0.12930
1355 11.47320 1027.17097 1040.82628 0.12956
1356 11.47680 1027.20182 1036.73221 0.13018
1357 11.48040 1027.23451 1038.83268 0.12972
1358 11.48400 1027.26906 1037.46413 0.13008
1359 11.48760 1027.30554 1037.24191 0.12986
1360 11.49120 1027.34400 1036.42471 0.13007
1361 11.49480 1027.38449 1036.16673 0.13031
1362 11.49840 1027.42710 1034.76122 0.13044
1363 11.50200 1027.47188 1038.23642 0.12972
1364 11.50560 1027.51891 1038.37508 0.12973
1365 11.50920 1027.56827 1035.34040 0.13033
1366 11.51280 1027.62006 1038.83723 0.13002
1367 11.51640 1027.67435 1040.58798 0.12955
1368 11.52000 1027.73127 1039.03921 0.12982
1369 11.52360 1027.79090 1040.52460 0.12972
1370 11.52720 1027.85338 1039.26453 0.13002
1371 11.53080 1027.91883 1038.94274 0.13015
1372 11.53440 1027.98738 1038.15037 0.13029
1373 11.53800 1028.05918 1039.20001 0.12975
1374 11.54160 1028.13438 1041.62956 0.12956
1375 11.54520 1028.21317 1037.95347 0.12980
1376 11.54880 1028.29571 1040.66614 0.12951
1377 11.55240 1028.38221 1040.28396 0.12957
1378 11.55600 1028.47288 1040.46616 0.12967
1379 11.55960 1028.56795 1039.94090 0.12967
1380 11.56320 1028.66767 1039.38171 0.12971
1381 11.56680 1028.77231 1041.83848 0.12939
1382 11.57040 1028.88217 1041.21598 0.12938
1383 11.57400 1028.99755 1041.85646 0.12965
1384 11.57760 1029.11880 1040.39364 0.12969
1385 11.58120 1029.24631 1041.63865 0.12934
1386 11.58480 1029.38046 1042.43291 0.12925
1387 11.58840 1029.52171 1043.17271 0.12932
1388 11.59200 1029.67054 1042.04697 0.12978
1389 11.59560 1029.82747 1042.82600 0.12927
1390 11.59920 1029.99309 1043.30371 0.12930
1391 11.60280 1030.16801 1042.97057 0.12945
1392 11.60640 1030.35293 1045.98554 0.12911
1393 11.61000 1030.54861 1045.65487 0.12930
1394 11.61360 1030.75589 1048.60691 0.12900
1395 11.61720 1030.97568 1045.96322 0.12907
1396 11.62080 1031.20899 1041.79767 0.12944
1397 11.62440 1031.45694 1038.73776 0.12981
1398 11.62800 1031.72078 1045.10210 0.12893
1399 11.63160 1032.00188 1047.66579 0.12879
1400 11.63520 1032.30176 1054.90469 0.12791
1401 11.63880 1032.62214 1060.03155 0.12728
1402 11.64240 1032.96492 1061.65553 0.12699
1403 11.64600 1033.33223 1052.64554 0.12806
1404 11.64960 1033.72644 1050.45643 0.12832
1405 11.65320 1034.15026 1053.85675 0.12799
1406 11.65680 1034.60671 1048.45078 0.12874
1407 11.66040 1035.09922 1048.03380 0.12853
1408 11.66400 1035.63166 1046.53448 0.12881
1409 11.66760 1036.20846 1048.40613 0.12863
1410 11.67120 1036.83466 1043.70883 0.12957
1411 11.67480 1037.51602 1045.13365 0.12909
1412 11.67840 1038.25917 1042.65469 0.12928
1413 11.68200 1039.07173 1044.80567 0.12918
1414 11.68560 1039.96254 1051.43994 0.12839
1415 11.68920 1040.94187 1051.24281 0.12852
1416 11.69280 1042.02165 1051.86401 0.12854
1417 11.69640 1043.21591 1045.12981 0.12912
1418 11.70000 1044.54112 1045.33791 0.12896
1419 11.70360 1046.01677 1048.44194 0.12848
1420 11.70720 1047.66601 1050.85680 0.12814
1421 11.71080 1049.51649 1053.02219 0.12804
1422 11.71440 1051.60145 1052.23576 0.12825
1423 11.71800 1053.96105 1049.25036 0.12853
1424 11.72160 1056.64411 1054.08610 0.12788
1425 11.72520 1059.71038 1053.55995 0.12793
1426 11.72880 1063.23332 1057.17075 0.12750
1427 11.73240 1067.30378 1058.22539 0.12747
1428 11.73600 1072.03453 1056.80206 0.12758
1429 11.73960 1077.56589 1061.07319 0.12704
1430 11.74320 1084.07263 1063.54223 0.12660
1431 11.74680 1091.77200 1068.91924 0.12616
1432 11.75040 1100.93247 1077.82307 0.12527
1433 11.75400 1111.88211 1083.68033 0.12460
1434 11.75760 1125.01326 1097.90607 0.12275
1435 11.76120 1140.77700 1118.85996 0.12060
1436 11.76480 1159.65346 1141.33862 0.11827
1437 11.76840 1182.07256 1169.42537 0.11551
1438 11.77200 1208.24361 1198.95962 0.11266
1439 11.77560 1237.84317 1222.63018 0.11036
1440 11.77920 1269.54369 1248.54118 0.10783
1441 11.78280 1300.51124 1278.03539 0.10544
1442 11.78640 1326.29595 1301.01724 0.10344
1443 11.79000 1341.74821 1309.72990 0.10288
1444 11.79360 1343.09593 1306.57107 0.10311
1445 11.79720 1329.98273 1293.31058 0.10428
1446 11.80080 1305.68231 1270.63527 0.10613
1447 11.80440 1275.27678 1230.74331 0.10953
1448 11.80800 1243.45184 1192.18447 0.11313
1449 11.81160 1213.34639 1155.37925 0.11670
1450 11.81520 1186.52424 1130.07527 0.11938
1451 11.81880 1163.44884 1110.33915 0.12142
1452 11.82240 1143.97746 1099.43394 0.12248
1453 11.82600 1127.70305 1086.88987 0.12401
1454 11.82960 1114.14632 1081.94307 0.12478
1455 11.83320 1102.84764 1075.13478 0.12555
1456 11.83680 1093.40327 1075.10945 0.12539
1457 11.84040 1085.47380 1071.74021 0.12589
1458 11.84400 1078.78067 1067.07787 0.12645
1459 11.84760 1073.09815 1068.19166 0.12641
1460 11.85120 1068.24451 1068.38418 0.12639
1461 11.85480 1064.07379 1065.75143 0.12654
1462 11.85840 1060.46877 1068.28512 0.12608
1463 11.86200 1057.32414 1066.88490 0.12622
1464 11.86560 1051.66933 1066.38243 0.12632
1465 11.86920 1047.37695 1065.84548 0.12626
1466 11.87280 1045.28020 1070.66794 0.12596
1467 11.87640 1043.42414 1065.66203 0.12651
1468 11.88000 1041.77441 1061.97588 0.12713
1469 11.88360 1040.30243 1064.37159 0.12663
1470 11.88720 1038.98433 1068.07043 0.12639
1471 11.89080 1037.80000 1069.25089 0.12615
1472 11.89440 1036.73247 1065.41462 0.12666
1473 11.89800 1035.76731 1068.28053 0.12621
1474 11.90160 1034.89223 1064.32545 0.12648
1475 11.90520 1034.09668 1062.85472 0.12683
1476 11.90880 1033.37158 1068.19090 0.12626
1477 11.91240 1032.70909 1067.11506 0.12666
1478 11.91600 1032.10242 1070.77026 0.12589
1479 11.91960 1031.54564 1069.08920 0.12617
1480 11.92320 1031.03360 1065.71076 0.12662
1481 11.92680 1030.56176 1068.93650 0.12633
1482 11.93040 1030.12614 1068.28392 0.12640
1483 11.93400 1029.72323 1066.51397 0.12658
1484 11.93760 1029.34993 1072.05400 0.12572
1485 11.94120 1029.00348 1073.64515 0.12554
1486 11.94480 1028.68144 1069.42011 0.12602
1487 11.94840 1028.38163 1073.25118 0.12549
1488 11.95200 1028.10209 1073.10691 0.12570
1489 11.95560 1027.84108 1069.98448 0.12603
1490 11.95920 1027.59704 1070.52236 0.12612
1491 11.96280 1027.36855 1072.54053 0.12567
1492 11.96640 1027.15434 1071.17173 0.12591
1493 11.97000 1026.95325 1077.44556 0.12530
1494 11.97360 1026.76426 1077.03813 0.12518
1495 11.97720 1026.58641 1074.12183 0.12544
1496 11.98080 1026.41884 1076.43843 0.12505
1497 11.98440 1026.26078 1076.06666 0.12523
1498 11.98800 1026.11151 1073.62547 0.12563
1499 11.99160 1025.97038 1076.59865 0.12549
1500 11.99520 1025.83680 1079.09039 0.12506
1501 11.99880 1025.71021 1076.38164 0.12529
1502 12.00240 1025.59013 1077.12277 0.12539
1503 12.00600 1025.47608 1080.15782 0.12500
1504 12.00960 1025.36764 1077.55806 0.12539
1505 12.01320 1025.26442 1078.28265 0.12518
1506 12.01680 1025.16607 1079.19297 0.12491
1507 12.02040 1025.07224 1080.68901 0.12480
1508 12.02400 1024.98262 1080.69484 0.12476
1509 12.02760 1024.89694 1083.98660 0.12426
1510 12.03120 1024.81492 1081.83390 0.12474
1511 12.03480 1024.73632 1085.09554 0.12426
1512 12.03840 1024.66090 1084.68983 0.12454
1513 12.04200 1024.58845 1086.78176 0.12402
1514 12.04560 1024.51878 1083.82557 0.12451
1515 12.04920 1024.45169 1083.11067 0.12469
1516 12.05280 1024.38701 1087.14706 0.12411
1517 12.05640 1024.32458 1086.69746 0.12390
1518 12.06000 1024.26424 1086.18155 0.12413
1519 12.06360 1024.20585 1091.09654 0.12339
1520 12.06720 1024.14927 1088.79957 0.12384
1521 12.07080 1024.09438 1087.89362 0.12417
1522 12.07440 1024.04105 1091.98003 0.12357
1523 12.07800 1023.98918 1093.98573 0.12337
1524 12.08160 1023.93866 1092.13093 0.12364
1525 12.08520 1023.88938 1090.13917 0.12390
1526 12.08880 1023.84125 1089.74047 0.12393
1527 12.09240 1023.79419 1095.92900 0.12328
1528 12.09600 1023.74809 1098.59278 0.12281
1529 12.09960 1023.70290 1094.36018 0.12332
1530 12.10320 1023.65852 1099.23118 0.12276
1531 12.10680 1023.61488 1099.71587 0.12243
1532 12.11040 1023.57191 1099.71640 0.12275
1533 12.11400 1023.52955 1104.05386 0.12218
1534 12.11760 1023.48774 1104.52477 0.12229
1535 12.12120 1023.44640 1097.89905 0.12291
1536 12.12480 1023.40549 1102.68163 0.12234
1537 12.12840 1023.36494 1103.45692 0.12248
1538 12.13200 1023.32470 1108.24723 0.12177
1539 12.13560 1023.28473 1113.50445 0.12104
1540 12.13920 1023.24496 1110.87219 0.12131
1541 12.14280 1023.20536 1113.01328 0.12094
1542 12.14640 1023.16587 1109.84061 0.12152
1543 12.15000 1023.12646 1115.96147 0.12101
1544 12.15360 1023.08707 1115.20210 0.12106
1545 12.15720 1041.16078 1115.65041 0.12101
1546 12.16080 1075.87686 1119.02086 0.12076
1547 12.16440 1076.32043 1122.12789 0.12027
1548 12.16800 1076.77052 1122.74956 0.12035
1549 12.17160 1077.22722 1121.67188 0.12036
1550 12.17520 1077.69060 1118.87352 0.12068
1551 12.17880 1078.16076 1125.42492 0.11984
1552 12.18240 1078.63780 1125.41756 0.11991
1553 12.18600 1079.12182 1123.20845 0.11988
1554 12.18960 1079.61292 1130.36476 0.11936
1555 12.19320 1080.11121 1132.92431 0.11915
1556 12.19680 1080.61679 1127.57824 0.11973
1557 12.20040 1081.12979 1130.75648 0.11935
1558 12.20400 1081.65125 1130.33215 0.11924
1559 12.20760 1082.18491 1128.20404 0.11972
1560 12.21120 1082.72094 1128.54171 0.11964
1561 12.21480 1083.26489 1127.64549 0.11945
1562 12.21840 1083.81689 1127.58313 0.11960
1563 12.22200 1084.37708 1127.78978 0.11944
1564 12.22560 1084.94560 1134.52306 0.11886
1565 12.22920 1085.52260 1131.31502 0.11927
1566 12.23280 1086.10823 1131.29497 0.11938
1567 12.23640 1086.70266 1132.06982 0.11918
1568 12.24000 1087.30604 1132.08515 0.11932
1569 12.24360 1087.91854 1134.62337 0.11897
1570 12.24720 1088.54033 1138.89709 0.11861
1571 12.25080 1089.17159 1139.96142 0.11851
1572 12.25440 1089.81250 1138.95968 0.11855
1573 12.25800 1090.46324 1139.28519 0.11852
1574 12.26160 1091.12405 1141.51153 0.11833
1575 12.26520 1091.83750 1140.67810 0.11818
1576 12.26880 1092.54060 1140.83863 0.11817
1577 12.27240 1093.23332 1137.59502 0.11874
1578 12.27600 1093.93690 1141.54236 0.11823
1579 12.27960 1094.65156 1142.15325 0.11826
1580 12.28320 1095.37755 1144.86556 0.11778
1581 12.28680 1096.11509 1150.80652 0.11736
1582 12.29040 1096.86442 1149.44099 0.11753
1583 12.29400 1097.62580 1151.06040 0.11712
1584 12.29760 1098.39948 1154.66485 0.11674
1585 12.30120 1099.18572 1155.34625 0.11682
1586 12.30480 1099.98480 1159.17462 0.11630
1587 12.30840 1100.79699 1159.94689 0.11638
1588 12.31200 1101.62258 1157.01494 0.11666
1589 12.31560 1102.46187 1158.74937 0.11650
1590 12.31920 1103.31517 1158.20219 0.11667
1591 12.32280 1104.18277 1161.01106 0.11630
1592 12.32640 1105.06502 1157.52406 0.11669
1593 12.33000 1105.96223 1159.70619 0.11648
1594 12.33360 1106.87476 1162.06211 0.11627
1595 12.33720 1107.80295 1167.09034 0.11567
1596 12.34080 1108.74717 1167.18720 0.11581
1597 12.34440 1109.70779 1169.28451 0.11538
1598 12.34800 1110.68520 1172.46149 0.11502
1599 12.35160 1111.67979 1173.27233 0.11513
1600 12.35520 1112.69197 1166.71605 0.11568
1601 12.35880 1113.72217 1172.38766 0.11524
1602 12.36240 1114.77082 1179.00633 0.11443
1603 12.36600 1115.83837 1179.80195 0.11449
1604 12.36960 1116.92528 1180.61179 0.11444
1605 12.37320 1118.03202 1181.96417 0.11405
1606 12.37680 1119.15909 1183.29325 0.11394
1607 12.38040 1120.30700 1185.08863 0.11390
1608 12.38400 1121.47627 1188.57139 0.11346
1609 12.38760 1122.66744 1184.14544 0.11389
1610 12.39120 1123.88107 1190.81978 0.11349
1611 12.39480 1125.11774 1191.66221 0.11322
1612 12.39840 1126.37803 1188.19884 0.11370
1613 12.40200 1127.66257 1186.12435 0.11391
1614 12.40560 1128.97199 1192.65144 0.11327
1615 12.40920 1130.30694 1193.80949 0.11318
1616 12.41280 1131.66810 1197.56199 0.11289
1617 12.41640 1133.05618 1194.49088 0.11316
1618 12.42000 1134.47189 1193.73884 0.11325
1619 12.42360 1135.91599 1200.28715 0.11256
1620 12.42720 1137.38925 1200.35990 0.11234
1621 12.43080 1138.89248 1203.15798 0.11230
1622 12.43440 1140.42649 1207.43617 0.11176
1623 12.43800 1141.99216 1203.30872 0.11228
1624 12.44160 1143.59037 1206.54062 0.11182
1625 12.44520 1145.22204 1210.83264 0.11154
1626 12.44880 1146.88812 1209.54899 0.11171
1627 12.45240 1148.58961 1212.11059 0.11130
1628 12.45600 1150.32752 1216.90572 0.11076
1629 12.45960 1152.10291 1216.47938 0.11098
1630 12.46320 1153.91689 1215.35922 0.11108
1631 12.46680 1155.77060 1217.98441 0.11084
1632 12.47040 1157.66522 1220.71499 0.11064
1633 12.47400 1159.60197 1219.28976 0.11073
1634 12.47760 1161.58214 1224.15243 0.11035
1635 12.48120 1163.60704 1227.07064 0.11011
1636 12.48480 1165.67805 1230.49854 0.10979
1637 12.48840 1167.79660 1231.42265 0.10968
1638 12.49200 1169.96416 1232.78220 0.10960
1639 12.49560 1172.18229 1230.73716 0.10989
1640 12.49920 1174.45257 1233.23227 0.10964
1641 12.50280 1176.77668 1240.21098 0.10904
1642 12.50640 1179.15636 1244.43430 0.10847
1643 12.51000 1181.59339 1246.80589 0.10838
1644 12.51360 1184.08967 1244.29816 0.10861
1645 12.51720 1186.64715 1251.31767 0.10791
1646 12.52080 1189.26785 1247.30502 0.10824
1647 12.52440 1191.86298 1250.94409 0.10790
1648 12.52800 1194.39249 1252.55806 0.10784
1649 12.53160 1197.21905 1256.08327 0.10746
1650 12.53520 1200.11784 1251.49719 0.10779
1651 12.53880 1203.09137 1251.84975 0.10783
1652 12.54240 1206.14226 1256.26711 0.10754
1653 12.54600 1209.27326 1256.78104 0.10750
1654 12.54960 1212.48721 1259.22520 0.10726
1655 12.55320 1215.78710 1257.26090 0.10742
1656 12.55680 1219.17606 1262.88629 0.10700
1657 12.56040 1222.65734 1262.36247 0.10706
1658 12.56400 1226.23437 1261.76744 0.10708
1659 12.56760 1229.91071 1264.59276 0.10682
1660 12.57120 1233.69011 1265.57731 0.10678
1661 12.57480 1237.57650 1272.93730 0.10616
1662 12.57840 1241.57396 1274.38258 0.10611
1663 12.58200 1245.68683 1277.22080 0.10596
1664 12.58560 1249.91960 1280.58398 0.10542
1665 12.58920 1254.27702 1281.42354 0.10545
1666 12.59280 1258.76407 1281.70416 0.10546
1667 12.59640 1263.38598 1286.05824 0.10508
1668 12.60000 1268.14823 1286.63644 0.10502
1669 12.60360 1273.05660 1286.50462 0.10503
1670 12.60720 1278.11717 1291.58517 0.10461
1671 12.61080 1283.33633 1295.40469 0.10436
1672 12.61440 1288.72081 1301.75387 0.10373
1673 12.61800 1294.27771 1306.75341 0.10335
1674 12.62160 1300.01450 1314.39140 0.10291
1675 12.62520 1305.93906 1312.35954 0.10303
1676 12.62880 1312.05973 1311.95932 0.10291
1677 12.63240 1318.38528 1317.57534 0.10261
1678 12.63600 1324.92501 1323.67336 0.10204
1679 12.63960 1331.68873 1323.38067 0.10215
1680 12.64320 1338.68683 1324.47929 0.10195
1681 12.64680 1345.93029 1331.63466 0.10146
1682 12.65040 1353.43078 1332.56451 0.10135
1683 12.65400 1361.20062 1339.26854 0.10101
1684 12.65760 1369.25291 1344.78607 0.10055
1685 12.66120 1377.60155 1352.43754 0.10007
1686 12.66480 1386.26130 1354.61802 0.09977
1687 12.66840 1395.24784 1357.59292 0.09948
1688 12.67200 1404.57788 1364.12357 0.09908
1689 12.67560 1414.26917 1368.38268 0.09872
1690 12.67920 1424.34065 1376.70723 0.09825
1691 12.68280 1434.81250 1381.79397 0.09779
1692 12.68640 1445.70627 1392.13634 0.09709
1693 12.69000 1457.04495 1394.70688 0.09697
1694 12.69360 1468.85315 1399.35774 0.09663
1695 12.69720 1481.15716 1409.06672 0.09586
1696 12.70080 1493.98518 1414.09009 0.09561
1697 12.70440 1507.36739 1424.63570 0.09501
1698 12.70800 1521.33621 1432.22154 0.09433
1699 12.71160 1535.92642 1434.65468 0.09429
1700 12.71520 1551.17545 1451.92412 0.09310
1701 12.71880 1567.12354 1461.31043 0.09249
1702 12.72240 1583.81407 1468.43945 0.09203
1703 12.72600 1601.29380 1482.63797 0.09111
1704 12.72960 1619.61321 1494.25475 0.09047
1705 12.73320 1638.82689 1505.01333 0.08982
1706 12.73680 1658.99387 1520.91824 0.08892
1707 12.74040 1680.17813 1530.72509 0.08835
1708 12.74400 1702.44906 1547.50022 0.08741
1709 12.74760 1725.88204 1563.08319 0.08642
1710 12.75120 1750.55905 1583.96775 0.08527
1711 12.75480 1776.56934 1599.85860 0.08448
1712 12.75840 1804.01030 1625.92121 0.08314
1713 12.76200 1832.98825 1642.09878 0.08236
1714 12.76560 1863.61955 1670.18099 0.08091
1715 12.76920 1896.03165 1692.20280 0.07994
1716 12.77280 1930.36446 1719.87989 0.07855
1717 12.77640 1966.77180 1751.15061 0.07716
1718 12.78000 2005.42312 1783.22456 0.07578
1719 12.78360 2046.50543 1818.00056 0.07448
1720 12.78720 2090.22554 1851.27127 0.07295
1721 12.79080 2136.81268 1890.86291 0.07153
1722 12.79440 2186.52143 1941.08531 0.06961
1723 12.79800 2239.63527 1988.14507 0.06797
1724 12.80160 2296.47056 2046.21315 0.06604
1725 12.80520 2357.38130 2101.35663 0.06431
1726 12.80880 2422.76461 2169.47434 0.06225
1727 12.81240 2493.06727 2242.68245 0.06025
1728 12.81600 2568.79333 2326.10135 0.05680
1729 12.81960 2650.51312 2411.92541 0.05373
1730 12.82320 2738.87398 2506.75836 0.04614
1731 12.82680 2834.61297 2617.07054 0.04595
1732 12.83040 2938.57213 2735.44448 0.03845
1733 12.83400 3051.71654 2882.55528 0.03567
1734 12.83760 3175.15632 3032.93263 0.03724
1735 12.84120 3310.17344 3197.33522 0.02984
1736 12.84480 3458.25424 3389.71094 0.02591
1737 12.84840 3621.13012 3606.67005 0.02303
1738 12.85200 3800.82904 3850.75269 0.01958
1739 12.85560 3999.74248 4116.21306 0.01736
1740 12.85920 4220.71535 4414.78134 0.01485
1741 12.86280 4467.17056 4768.29053 0.01250
1742 12.86640 4743.28699 5148.26158 0.01118
1743 12.87000 5054.25889 5586.01272 0.00909
1744 12.87360 5406.67710 6087.89801 0.00784
1745 12.87720 5809.08528 6657.72971 0.00656
1746 12.88080 6272.77507 7313.00075 0.00531
1747 12.88440 6812.88452 8062.90339 0.00445
1748 12.88800 7449.84523 8935.29984 0.00361
1749 12.89160 8211.17354 9945.42692 0.00301
1750 12.89520 9133.51092 11136.46225 0.00237
1751 12.89880 10264.68751 12524.54647 0.00195
1752 12.90240 11665.42513 14178.88897 0.00154
1753 12.90600 13410.14578 16190.60974 0.00119
1754 12.90960 15586.25532 18676.95113 0.00092
1755 12.91320 18291.26985 21750.32952 0.00069
1756 12.91680 21627.24107 25671.52778 0.00049
1757 12.92040 25692.01068 30606.59609 0.00036
1758 12.92400 30566.62726 36775.29250 0.00026
1759 12.92760 36297.39741 44314.38332 0.00020
1760 12.93120 42869.20271 52969.37984 0.00016
1761 12.93480 50164.45638 62304.24776 0.00014
1762 12.93840 57902.72836 71631.33083 0.00013
1763 12.94200 65568.19143 80549.10509 0.00013
1764 12.94560 72366.63061 88239.96943 0.00015
1765 12.94920 77301.13269 94305.50960 0.00019
1766 12.95280 79445.81006 97729.66431 0.00037
1767 12.95640 78341.24113 97425.53528 0.00034
1768 12.96000 74233.89892 93167.39445 0.00017
1769 12.96360 67944.36424 85406.33348 0.00012
1770 12.96720 60485.85805 74858.36221 0.00010
1771 12.97080 52732.39954 62813.53961 0.00011
1772 12.97440 45285.38783 51197.03810 0.00013
1773 12.97800 38490.88496 41162.44069 0.00018
1774 12.98160 32509.84337 33337.39418 0.00026
1775 12.98520 27384.11948 27469.63073 0.00039
1776 12.98880 23083.09933 23014.19178 0.00056
1777 12.99240 19534.06966 19550.86445 0.00080
1778 12.99600 16642.51982 16824.38033 0.00111
1779 12.99960 14306.52072 14613.89290 0.00146
1780 13.00320 12426.93445 12819.34386 0.00192
1781 13.00680 10914.53499 11338.34763 0.00245
1782 13.01040 9695.71276 10113.18074 0.00299
1783 13.01400 8697.80736 9052.56361 0.00367
1784 13.01760 7874.76734 8174.29808 0.00456
1785 13.02120 7187.18254 7430.23039 0.00572
1786 13.02480 6605.15452 6770.67268 0.00635
1787 13.02840 6106.32504 6208.26317 0.00811
1788 13.03200 5674.06761 5722.33541 0.00931
1789 13.03560 5295.97435 5297.84503 0.01082
1790 13.03920 4962.67639 4921.42203 0.01284
1791 13.04280 4666.97279 4593.53242 0.01463
1792 13.04640 4403.21255 4296.72610 0.01681
1793 13.05000 4166.86761 4031.42757 0.01820
1794 13.05360 3954.24121 3801.02604 0.02349
1795 13.05720 3762.26810 3594.75108 0.02437
1796 13.06080 3588.37548 3413.40609 0.02638
1797 13.06440 3430.38346 3243.73416 0.03010
1798 13.06800 3286.43147 3093.58351 0.03596
1799 13.07160 3154.92221 2964.74229 0.03976
1800 13.07520 3034.47762 2841.78928 0.04196
1801 13.07880 2923.90366 2732.35982 0.04937
1802 13.08240 2822.16195 2626.45929 0.04379
1803 13.08600 2728.34577 2522.76053 0.05202
1804 13.08960 2641.66102 2437.04459 0.05548
1805 13.09320 2561.40986 2368.92787 0.05702
1806 13.09680 2486.97713 2296.61150 0.05773
1807 13.10040 2417.81893 2229.24867 0.06055
1808 13.10400 2353.45302 2181.10528 0.06191
1809 13.10760 2293.45063 2119.09586 0.06368
1810 13.11120 2237.42956 2065.95463 0.06546
1811 13.11480 2185.04825 2019.02389 0.06690
1812 13.11840 2136.00072 1974.58097 0.06840
1813 13.12200 2090.01225 1939.24782 0.06955
1814 13.12560 2046.83563 1901.96001 0.07097
1815 13.12920 2006.24795 1860.39189 0.07262
1816 13.13280 1968.04777 1838.21727 0.07352
1817 13.13640 1932.05272 1799.39775 0.07504
1818 13.14000 1898.09742 1775.13864 0.07612
1819 13.14360 1866.03155 1748.09124 0.07727
1820 13.14720 1835.71832 1718.79445 0.07846
1821 13.15080 1807.03300 1695.64136 0.07963
1822 13.15440 1779.86167 1679.85675 0.08043
1823 13.15800 1754.10017 1653.09692 0.08171
1824 13.16160 1729.65306 1636.87912 0.08252
1825 13.16520 1706.43280 1617.40033 0.08346
1826 13.16880 1684.35900 1601.27701 0.08437
1827 13.17240 1663.35768 1585.10040 0.08527
1828 13.17600 1643.36071 1567.39467 0.08623
1829 13.17960 1624.30527 1553.83516 0.08689
1830 13.18320 1606.13334 1541.14531 0.08760
1831 13.18680 1588.79128 1525.81718 0.08844
1832 13.19040 1572.22946 1514.72491 0.08927
1833 13.19400 1556.40186 1504.81812 0.08974
1834 13.19760 1541.26581 1487.96746 0.09086
1835 13.20120 1526.78169 1479.47884 0.09122
1836 13.20480 1512.91264 1472.52551 0.09167
1837 13.20840 1499.62438 1458.18778 0.09268
1838 13.21200 1486.88498 1446.82241 0.09342
1839 13.21560 1474.66464 1440.40110 0.09381
1840 13.21920 1462.93559 1429.26514 0.09447
1841 13.22280 1451.67184 1423.62064 0.09489
1842 13.22640 1440.84913 1419.55011 0.09503
1843 13.23000 1430.44473 1408.89853 0.09576
1844 13.23360 1420.43736 1398.72480 0.09658
1845 13.23720 1410.80707 1392.35937 0.09697
1846 13.24080 1401.53515 1386.28937 0.09744
1847 13.24440 1392.60402 1381.01098 0.09773
1848 13.24800 1383.99718 1373.99934 0.09823
1849 13.25160 1375.69909 1368.16555 0.09869
1850 13.25520 1367.69514 1363.96533 0.09906
1851 13.25880 1359.97157 1352.62699 0.09976
1852 13.26240 1352.51541 1352.14903 0.09981
1853 13.26600 1345.31443 1342.72692 0.10056
1854 13.26960 1338.35710 1337.48735 0.10096
1855 13.27320 1331.63251 1330.17920 0.10158
1856 13.27680 1325.13036 1328.04691 0.10169
1857 13.28040 1318.84093 1320.31862 0.10231
1858 13.28400 1312.75499 1321.32675 0.10205
1859 13.28760 1306.86383 1316.43963 0.10263
1860 13.29120 1301.15918 1306.59309 0.10337
1861 13.29480 1295.63322 1301.63724 0.10375
1862 13.29840 1290.27852 1301.42494 0.10372
1863 13.30200 1285.08805 1297.09308 0.10412
1864 13.30560 1280.05510 1290.75674 0.10448
1865 13.30920 1275.17334 1286.25879 0.10488
1866 13.31280 1270.43672 1283.22618 0.10520
1867 13.31640 1265.83950 1284.62017 0.10510
1868 13.32000 1261.37623 1277.75968 0.10557
1869 13.32360 1257.04171 1277.41713 0.10567
1870 13.32720 1252.83098 1271.97834 0.10600
1871 13.33080 1248.73934 1270.95019 0.10620
1872 13.33440 1244.76229 1266.46241 0.10650
1873 13.33800 1240.89555 1264.50579 0.10680
1874 13.34160 1237.13503 1262.03377 0.10686
1875 13.34520 1233.47683 1260.25743 0.10707
1876 13.34880 1229.91721 1252.42950 0.10772
1877 13.35240 1226.45264 1251.84094 0.10788
1878 13.35600 1223.07970 1249.09769 0.10805
1879 13.35960 1219.79514 1247.51858 0.10820
1880 13.36320 1216.59587 1247.36808 0.10806
1881 13.36680 1213.47889 1244.13915 0.10839
1882 13.37040 1210.44137 1243.95976 0.10850
1883 13.37400 1207.48058 1240.81117 0.10880
1884 13.37760 1204.59391 1235.21155 0.10921
1885 13.38120 1201.77886 1234.63067 0.10932
1886 13.38480 1199.03302 1236.41976 0.10902
1887 13.38840 1196.35411 1235.85400 0.10909
1888 13.39200 1193.73991 1236.64069 0.10911
1889 13.39560 1191.18831 1232.16588 0.10957
1890 13.39920 1188.69728 1227.47298 0.10989
1891 13.40280 1186.26487 1230.26460 0.10965
1892 13.40640 1183.88919 1233.79532 0.10930
1893 13.41000 1181.56847 1238.21006 0.10891
1894 13.41360 1179.30095 1236.10597 0.10916
1895 13.41720 1177.08498 1241.16578 0.10877
1896 13.42080 1174.91897 1243.57726 0.10848
1897 13.42440 1172.80136 1247.64937 0.10803
1898 13.42800 1170.73069 1253.93239 0.10758
1899 13.43160 1168.70551 1255.29005 0.10762
1900 13.43520 1166.72448 1256.46707 0.10739
1901 13.43880 1164.78625 1259.71093 0.10717
1902 13.44240 1162.88956 1252.64775 0.10745
1903 13.44600 1161.03318 1242.36524 0.10849
1904 13.44960 1159.21592 1234.95585 0.10913
1905 13.45320 1157.43665 1225.63485 0.11018
1906 13.45680 1155.69427 1218.24104 0.11068
1907 13.46040 1153.98771 1212.25322 0.11125
1908 13.46400 1152.31596 1205.23808 0.11180
1909 13.46760 1150.67802 1205.60276 0.11181
1910 13.47120 1149.07294 1199.30177 0.11241
1911 13.47480 1147.49979 1190.70720 0.11330
1912 13.47840 1145.95770 1185.60347 0.11372
1913 13.48200 1144.44579 1181.34199 0.11416
1914 13.48560 1142.96324 1181.02681 0.11421
1915 13.48920 1141.50924 1176.26936 0.11462
1916 13.49280 1140.08303 1174.97023 0.11474
1917 13.49640 1138.68384 1174.14125 0.11493
1918 13.50000 1137.31095 1172.38982 0.11493
1919 13.50360 1135.96367 1167.12554 0.11550
1920 13.50720 1134.64130 1162.81138 0.11595
1921 13.51080 1133.34320 1167.75466 0.11562
1922 13.51440 1132.06872 1163.29619 0.11590
1923 13.51800 1130.81726 1162.68711 0.11601
1924 13.52160 1129.58820 1161.85955 0.11595
1925 13.52520 1128.38098 1161.80739 0.11586
1926 13.52880 1127.19504 1157.63228 0.11638
1927 13.53240 1126.02982 1156.71700 0.11653
1928 13.53600 1124.88481 1156.17519 0.11668
1929 13.53960 1123.75950 1156.36652 0.11656
1930 13.54320 1122.65339 1155.43158 0.11656
1931 13.54680 1121.56600 1150.25620 0.11710
1932 13.55040 1120.49686 1152.10229 0.11694
1933 13.55400 1119.44553 1146.92059 0.11750
1934 13.55760 1118.41157 1151.11529 0.11714
1935 13.56120 1117.39456 1148.68437 0.11736
1936 13.56480 1116.39407 1142.87146 0.11805
1937 13.56840 1115.40972 1143.04791 0.11783
1938 13.57200 1114.44111 1145.69516 0.11762
1939 13.57560 1113.48787 1145.40227 0.11769
1940 13.57920 1112.54962 1141.44844 0.11806
1941 13.58280 1111.62602 1139.71683 0.11827
1942 13.58640 1110.71672 1139.39031 0.11832
1943 13.59000 1109.82138 1136.67212 0.11867
1944 13.59360 1108.93967 1142.51760 0.11813
1945 13.59720 1108.07129 1134.28357 0.11888
1946 13.60080 1107.21592 1134.88068 0.11888
1947 13.60440 1106.37325 1132.38377 0.11868
1948 13.60800 1105.54301 1129.68060 0.11910
1949 13.61160 1104.72491 1129.95593 0.11921
1950 13.61520 1103.91866 1132.09827 0.11910
1951 13.61880 1103.12401 1132.27890 0.11901
1952 13.62240 1102.34070 1133.78634 0.11875
1953 13.62600 1101.56846 1131.08931 0.11907
1954 13.62960 1100.80705 1128.28351 0.11935
1955 13.63320 1100.05624 1130.25897 0.11908
1956 13.63680 1099.31578 1126.21368 0.11964
1957 13.64040 1098.58546 1123.87332 0.11988
1958 13.64400 1097.86504 1120.31562 0.12035
1959 13.64760 1097.15432 1119.36348 0.12029
1960 13.65120 1096.45309 1122.25949 0.11996
1961 13.65480 1095.76113 1122.96836 0.12001
1962 13.65840 1095.07825 1121.42399 0.12010
1963 13.66200 1094.40427 1119.57284 0.12044
1964 13.66560 1093.73897 1120.07522 0.12031
1965 13.66920 1093.08213 1119.93007 0.12043
1966 13.67280 1092.42760 1119.98213 0.12041
1967 13.67640 1091.78722 1114.82786 0.12101
1968 13.68000 1091.15499 1116.98891 0.12077
1969 13.68360 1090.53058 1113.95030 0.12074
1970 13.68720 1089.91384 1113.56375 0.12064
1971 13.69080 1089.30460 1109.99118 0.12129
1972 13.69440 1088.70272 1110.52743 0.12147
1973 13.69800 1088.10803 1108.51913 0.12159
1974 13.70160 1087.52041 1110.88039 0.12129
1975 13.70520 1086.93970 1111.55902 0.12116
1976 13.70880 1086.36576 1109.68330 0.12144
1977 13.71240 1085.79847 1113.36104 0.12084
1978 13.71600 1085.23769 1107.66908 0.12162
1979 13.71960 1084.68329 1105.41009 0.12184
1980 13.72320 1084.13515 1112.00854 0.12117
1981 13.72680 1083.59314 1113.57122 0.12091
1982 13.73040 1083.04883 1109.22330 0.12129
1983 13.73400 1082.46408 1107.95857 0.12157
1984 13.73760 1081.94039 1110.75260 0.12124
1985 13.74120 1081.42237 1104.67367 0.12193
1986 13.74480 1080.90992 1104.17342 0.12210
1987 13.74840 1072.97535 1104.95862 0.12200
1988 13.75200 1027.83350 1101.15842 0.12251
1989 13.75560 1027.80295 1101.92409 0.12236
1990 13.75920 1027.77134 1094.93190 0.12326
1991 13.76280 1027.73868 1100.87047 0.12226
1992 13.76640 1027.70500 1099.42183 0.12220
1993 13.77000 1027.67030 1095.53991 0.12286
1994 13.77360 1027.63460 1096.90993 0.12280
1995 13.77720 1027.59793 1096.93468 0.12298
1996 13.78080 1027.56028 1093.93964 0.12316
1997 13.78440 1027.52169 1092.42744 0.12325
1998 13.78800 1027.48216 1092.69095 0.12333
1999 13.79160 1027.44171 1094.63965 0.12291
2000 13.79520 1027.40036 1091.10519 0.12341
2001 13.79880 1027.35813 1090.39809 0.12360
2002 13.80240 1027.31502 1084.32925 0.12428
2003 13.80600 1027.27106 1082.22518 0.12447
2004 13.80960 1027.22626 1089.98983 0.12340
2005 13.81320 1027.18063 1087.65581 0.12385
2006 13.81680 1027.13420 1089.83805 0.12370
2007 13.82040 1027.08699 1085.44190 0.12408
2008 13.82400 1027.03899 1083.56713 0.12441
2009 13.82760 1026.99024 1089.63996 0.12370
2010 13.83120 1026.94075 1086.22148 0.12416
2011 13.83480 1026.89053 1084.49960 0.12445
2012 13.83840 1026.83961 1087.11310 0.12408
2013 13.84200 1026.78800 1085.32405 0.12410
2014 13.84560 1026.73571 1088.94366 0.12330
2015 13.84920 1026.68276 1085.26694 0.12402
2016 13.85280 1026.62918 1082.66016 0.12433
2017 13.85640 1026.57497 1080.71123 0.12478
2018 13.86000 1026.52016 1079.25377 0.12490
2019 13.86360 1026.46476 1082.39697 0.12433
2020 13.86720 1026.40879 1081.65478 0.12461
2021 13.87080 1026.35228 1078.61582 0.12471
2022 13.87440 1026.29522 1075.40511 0.12524
2023 13.87800 1026.23766 1076.93188 0.12510
2024 13.88160 1026.17960 1074.43719 0.12543
2025 13.88520 1026.12106 1073.14399 0.12561
2026 13.88880 1026.06206 1075.96229 0.12505
2027 13.89240 1026.00262 1073.81742 0.12542
2028 13.89600 1025.94277 1072.96219 0.12582
2029 13.89960 1025.88251 1073.68115 0.12540
2030 13.90320 1025.82188 1072.55469 0.12570
2031 13.90680 1025.76088 1067.31672 0.12623
2032 13.91040 1025.69955 1069.31819 0.12616
2033 13.91400 1025.63789 1068.60752 0.12623
2034 13.91760 1025.57594 1065.70114 0.12665
2035 13.92120 1025.51372 1066.81822 0.12624
2036 13.92480 1025.45123 1067.78163 0.12575
2037 13.92840 1025.38852 1068.90030 0.12569
2038 13.93200 1025.32560 1069.15346 0.12597
2039 13.93560 1025.26248 1064.92598 0.12659
2040 13.93920 1025.19920 1066.18006 0.12630
2041 13.94280 1025.13578 1068.38125 0.12590
2042 13.94640 1025.07224 1064.62454 0.12645
2043 13.95000 1025.00861 1061.92440 0.12671
2044 13.95360 1024.94490 1064.37812 0.12645
2045 13.95720 1024.88115 1058.52847 0.12738
2046 13.96080 1024.81738 1062.28228 0.12690
2047 13.96440 1024.75361 1059.62448 0.12725
2048 13.96800 1024.68987 1061.10223 0.12682
2049 13.97160 1024.62618 1066.48684 0.12615
2050 13.97520 1024.56258 1059.69332 0.12732
2051 13.97880 1024.49909 1060.85976 0.12686
2052 13.98240 1024.43574 1057.41027 0.12748
2053 13.98600 1024.37255 1058.41537 0.12731
2054 13.98960 1024.30955 1060.02469 0.12722
2055 13.99320 1024.24678 1054.41265 0.12789
2056 13.99680 1024.18425 1052.99736 0.12804
2057 14.00040 1024.12201 1056.62124 0.12758
2058 14.00400 1024.06008 1056.78801 0.12710
2059 14.00760 1023.99849 1054.01025 0.12760
2060 14.01120 1023.93727 1054.24659 0.12780
2061 14.01480 1023.87646 1052.05936 0.12809
2062 14.01840 1023.81609 1056.82508 0.12753
2063 14.02200 1023.75619 1057.04611 0.12737
2064 14.02560 1023.69679 1051.77797 0.12796
2065 14.02920 1023.63793 1052.63555 0.12794
2066 14.03280 1023.57964 1054.22547 0.12766
2067 14.03640 1023.52197 1052.18382 0.12809
2068 14.04000 1023.46493 1049.90441 0.12853
2069 14.04360 1023.40858 1047.63341 0.12871
2070 14.04720 1023.35295 1048.56938 0.12848
2071 14.05080 1023.29808 1050.16364 0.12815
2072 14.05440 1023.24399 1047.31768 0.12881
2073 14.05800 1023.19075 1051.14515 0.12811
2074 14.06160 1023.13838 1049.28389 0.12838
2075 14.06520 1023.08693 1046.97141 0.12872
2076 14.06880 1023.03643 1050.36529 0.12834
2077 14.07240 1022.98694 1048.34531 0.12849
2078 14.07600 1022.93849 1046.91705 0.12881
2079 14.07960 1022.89113 1047.42296 0.12869
2080 14.08320 1022.84490 1048.27423 0.12833
2081 14.08680 1022.79985 1045.99060 0.12846
2082 14.09040 1022.75603 1044.62560 0.12908
2083 14.09400 1022.71348 1042.35573 0.12916
2084 14.09760 1022.67225 1043.69769 0.12923
2085 14.10120 1022.63239 1043.37171 0.12919
2086 14.10480 1022.59395 1043.72068 0.12900
2087 14.10840 1022.55699 1045.32700 0.12882
2088 14.11200 1022.52156 1046.73682 0.12870
2089 14.11560 1022.48770 1045.90568 0.12890
2090 14.11920 1022.45548 1042.47411 0.12943
2091 14.12280 1022.42495 1039.80855 0.12977
2092 14.12640 1022.39617 1039.37365 0.12961
2093 14.13000 1022.36919 1041.25105 0.12938
2094 14.13360 1022.34407 1041.22535 0.12940
2095 14.13720 1022.32088 1041.76640 0.12939
2096 14.14080 1022.29968 1042.57571 0.12924
2097 14.14440 1022.28053 1044.28898 0.12901
2098 14.14800 1022.26349 1040.48680 0.12956
2099 14.15160 1022.24863 1037.72788 0.12982
2100 14.15520 1022.23601 1042.26206 0.12940
2101 14.15880 1022.22571 1039.07558 0.12988
2102 14.16240 1022.21780 1038.88886 0.12962
2103 14.16600 1022.21234 1038.33787 0.12949
2104 14.16960 1022.20941 1038.05193 0.12985
2105 14.17320 1022.20908 1039.17499 0.12973
2106 14.17680 1022.21143 1038.75945 0.12980
2107 14.18040 1022.21654 1038.30342 0.12994
2108 14.18400 1022.22449 1035.90446 0.13015
2109 14.18760 1022.23535 1032.35017 0.13055
2110 14.19120 1022.24922 1037.81599 0.12988
2111 14.19480 1022.26617 1039.30084 0.12977
2112 14.19840 1022.28629 1035.58574 0.13035
2113 14.20200 1022.30967 1035.80821 0.13038
2114 14.20560 1022.33641 1038.20754 0.12986
2115 14.20920 1022.36658 1038.22891 0.12973
2116 14.21280 1022.40030 1034.71712 0.13012
2117 14.21640 1022.43765 1034.44461 0.13024
2118 14.22000 1022.47874 1035.23337 0.13016
2119 14.22360 1022.52366 1031.99986 0.13056
2120 14.22720 1022.57252 1033.90920 0.13034
2121 14.23080 1022.62543 1037.12278 0.12989
2122 14.23440 1022.68250 1036.55694 0.13008
2123 14.23800 1025.51349 1034.58580 0.13040
2124 14.24160 1029.61816 1032.73719 0.13043
2125 14.24520 1029.75577 1032.20763 0.13046
2126 14.24880 1029.89900 1032.26476 0.13066
2127 14.25240 1030.04799 1033.16699 0.13058
2128 14.25600 1030.20289 1034.86872 0.13038
2129 14.25960 1030.36386 1034.37920 0.13046
2130 14.26320 1030.53103 1034.57880 0.13042
2131 14.26680 1030.70457 1033.53407 0.13046
2132 14.27040 1030.88464 1033.88407 0.13051
2133 14.27400 1031.07141 1035.12961 0.13032
2134 14.27760 1031.26504 1032.01465 0.13084
2135 14.28120 1031.46570 1029.95679 0.13114
2136 14.28480 1031.67358 1034.18698 0.13039
2137 14.28840 1031.88885 1033.57630 0.13041
2138 14.29200 1032.11171 1031.83675 0.13034
2139 14.29560 1032.34234 1028.76805 0.13099
2140 14.29920 1032.58094 1030.81767 0.13057
2141 14.30280 1032.82772 1033.96824 0.13030
2142 14.30640 1033.62106 1031.17457 0.13061
2143 14.31000 1036.99286 1029.28592 0.13095
2144 14.31360 1037.30147 1031.63386 0.13071
2145 14.31720 1037.61966 1039.66991 0.12976
2146 14.32080 1037.94766 1033.32675 0.13046
2147 14.32440 1038.28572 1030.36192 0.13077
2148 14.32800 1038.63409 1031.80931 0.13072
2149 14.33160 1038.99304 1034.52912 0.13046
2150 14.33520 1039.36282 1029.92663 0.13087
2151 14.33880 1039.74373 1027.30232 0.13136
2152 14.34240 1040.13604 1031.66515 0.13077
2153 14.34600 1040.54004 1028.60864 0.13115
2154 14.34960 1040.95602 1032.41374 0.13070
2155 14.35320 1041.38431 1031.45817 0.13084
2156 14.35680 1041.82521 1036.63838 0.13032
2157 14.36040 1042.27906 1033.12762 0.13083
2158 14.36400 1042.74618 1034.48444 0.13040
2159 14.36760 1043.22691 1037.59022 0.12993
2160 14.37120 1043.72163 1037.21812 0.12977
2161 14.37480 1044.23068 1033.93188 0.13018
2162 14.37840 1044.75445 1034.45950 0.13023
2163 14.38200 1045.29332 1030.90854 0.13077
2164 14.38560 1045.84769 1032.95150 0.13051
2165 14.38920 1046.41798 1031.51856 0.13070
2166 14.39280 1047.00459 1035.20294 0.13025
2167 14.39640 1047.60798 1036.39458 0.13014
2168 14.40000 1048.22859 1036.05576 0.13008
2169 14.40360 1048.86689 1040.02264 0.12948
2170 14.40720 1049.52334 1040.99282 0.12951
2171 14.41080 1050.19845 1039.14399 0.12988
2172 14.41440 1050.89272 1042.29013 0.12936
2173 14.41800 1051.60668 1046.47695 0.12883
2174 14.42160 1052.34087 1051.07798 0.12844
2175 14.42520 1053.09584 1054.49236 0.12796
2176 14.42880 1053.87217 1058.92540 0.12752
2177 14.43240 1054.67046 1068.89000 0.12634
2178 14.43600 1055.49133 1076.97093 0.12539
2179 14.43960 1056.33540 1091.25305 0.12377
2180 14.44320 1057.20334 1099.00596 0.12275
2181 14.44680 1058.09582 1112.42620 0.12126
2182 14.45040 1059.01355 1125.27108 0.11972
2183 14.45400 1059.95724 1130.88565 0.11897
2184 14.45760 1060.92766 1141.56258 0.11785
2185 14.46120 1061.92557 1144.75859 0.11778
2186 14.46480 1062.95177 1145.61559 0.11760
2187 14.46840 1064.00711 1138.09076 0.11850
2188 14.47200 1065.09243 1119.53009 0.12029
2189 14.47560 1066.20864 1103.47217 0.12223
2190 14.47920 1067.35664 1084.79190 0.12422
2191 14.48280 1068.53740 1074.42173 0.12539
2192 14.48640 1069.75191 1066.72620 0.12630
2193 14.49000 1071.00119 1063.99650 0.12677
2194 14.49360 1072.28631 1060.77491 0.12714
2195 14.49720 1073.60837 1056.82247 0.12762
2196 14.50080 1074.96852 1059.03778 0.12741
2197 14.50440 1076.36794 1056.92071 0.12774
2198 14.50800 1077.80786 1055.99237 0.12776
2199 14.51160 1079.28957 1053.94464 0.12821
2200 14.51520 1080.81440 1053.50404 0.12814
2201 14.51880 1082.38372 1057.62315 0.12777
2202 14.52240 1083.99897 1059.71499 0.12726
2203 14.52600 1085.66165 1059.26547 0.12729
2204 14.52960 1087.37330 1059.58387 0.12724
2205 14.53320 1089.13553 1058.00233 0.12718
2206 14.53680 1090.95003 1062.99951 0.12653
2207 14.54040 1092.81853 1071.32384 0.12577
2208 14.54400 1094.74287 1066.79623 0.12640
2209 14.54760 1096.72492 1067.84030 0.12619
2210 14.55120 1098.76666 1070.08863 0.12585
2211 14.55480 1100.87015 1073.35795 0.12562
2212 14.55840 1103.03752 1074.80588 0.12544
2213 14.56200 1105.27102 1073.69763 0.12550
2214 14.56560 1107.57297 1075.45919 0.12532
2215 14.56920 1109.94580 1078.84423 0.12501
2216 14.57280 1112.39205 1086.06597 0.12411
2217 14.57640 1114.91436 1085.92413 0.12416
2218 14.58000 1117.51552 1088.23059 0.12406
2219 14.58360 1120.19840 1087.22821 0.12427
2220 14.58720 1122.96604 1086.61915 0.12420
2221 14.59080 1125.82159 1090.91474 0.12379
2222 14.59440 1128.76837 1098.85799 0.12282
2223 14.59800 1131.80983 1104.46613 0.12225
2224 14.60160 1134.94961 1107.62410 0.12172
2225 14.60520 1138.19151 1110.63177 0.12132
2226 14.60880 1141.53949 1110.87139 0.12145
2227 14.61240 1144.99774 1113.23505 0.12095
2228 14.61600 1148.57064 1119.24543 0.12029
2229 14.61960 1152.26277 1125.19586 0.11971
2230 14.62320 1156.07896 1128.76060 0.11951
2231 14.62680 1160.02427 1136.14072 0.11869
2232 14.63040 1164.10402 1136.20390 0.11845
2233 14.63400 1168.32381 1140.73935 0.11827
2234 14.63760 1172.68953 1142.37544 0.11810
2235 14.64120 1177.20735 1149.22109 0.11725
2236 14.64480 1181.88380 1157.28123 0.11645
2237 14.64840 1186.72574 1163.75666 0.11587
2238 14.65200 1191.74041 1171.02350 0.11510
2239 14.65560 1196.93544 1175.11457 0.11476
2240 14.65920 1202.31887 1179.13349 0.11437
2241 14.66280 1207.89920 1187.40012 0.11370
2242 14.66640 1213.68541 1195.60551 0.11288
2243 14.67000 1219.68697 1205.94127 0.11196
2244 14.67360 1225.91392 1210.04249 0.11152
2245 14.67720 1232.37685 1216.51872 0.11092
2246 14.68080 1239.08700 1228.04920 0.10967
2247 14.68440 1246.05626 1239.25443 0.10869
2248 14.68800 1253.29723 1250.49520 0.10778
2249 14.69160 1260.82330 1254.53770 0.10737
2250 14.69520 1268.64865 1266.64071 0.10616
2251 14.69880 1276.78836 1273.97845 0.10571
2252 14.70240 1285.25844 1284.13178 0.10489
2253 14.70600 1294.07594 1298.11952 0.10377
2254 14.70960 1303.25897 1310.75072 0.10259
2255 14.71320 1312.82687 1324.30942 0.10162
2256 14.71680 1322.80021 1334.58403 0.10107
2257 14.72040 1333.20097 1350.98095 0.09967
2258 14.72400 1344.05259 1367.80591 0.09854
2259 14.72760 1355.38015 1371.85119 0.09819
2260 14.73120 1367.21045 1398.04024 0.09645
2261 14.73480 1379.57221 1419.89242 0.09493
2262 14.73840 1392.49620 1432.17665 0.09410
2263 14.74200 1406.01543 1448.01614 0.09316
2264 14.74560 1420.16539 1471.71168 0.09167
2265 14.74920 1434.98420 1488.31859 0.09069
2266 14.75280 1450.51295 1511.30857 0.08925
2267 14.75640 1466.79591 1533.32582 0.08796
2268 14.76000 1483.88088 1559.88395 0.08638
2269 14.76360 1501.81953 1581.38396 0.08510
2270 14.76720 1520.66780 1612.95850 0.08358
2271 14.77080 1540.48632 1635.50530 0.08227
2272 14.77440 1561.34092 1662.58943 0.08097
2273 14.77800 1583.30315 1690.54594 0.07960
2274 14.78160 1606.45092 1726.37397 0.07800
2275 14.78520 1630.86915 1759.35455 0.07658
2276 14.78880 1656.65055 1796.13982 0.07487
2277 14.79240 1683.89645 1836.23818 0.07330
2278 14.79600 1712.71773 1864.13586 0.07234
2279 14.79960 1743.23584 1908.27276 0.07056
2280 14.80320 1775.58391 1949.74747 0.06906
2281 14.80680 1809.90806 1994.45171 0.06748
2282 14.81040 1846.36866 2042.67348 0.06592
2283 14.81400 1885.14188 2090.20666 0.06442
2284 14.81760 1926.42123 2138.40062 0.06293
2285 14.82120 1970.41936 2196.40363 0.06132
2286 14.82480 2017.36987 2258.28048 0.05967
2287 14.82840 2067.52932 2317.82554 0.05817
2288 14.83200 2121.18071 2379.67755 0.05665
2289 14.83560 2179.19130 2448.41919 0.05343
2290 14.83920 2240.78567 2524.07010 0.05335
2291 14.84280 2306.88662 2591.16005 0.05187
2292 14.84640 2377.90446 2667.60820 0.05047
2293 14.85000 2454.28405 2748.66669 0.04580
2294 14.85360 2536.51155 2845.08982 0.04246
2295 14.85720 2625.11769 2926.78562 0.04452
2296 14.86080 2720.68123 3024.31450 0.03998
2297 14.86440 2823.83265 3135.55400 0.04163
2298 14.86800 2935.25794 3236.20043 0.03993
2299 14.87160 3055.70255 3354.06999 0.03639
2300 14.87520 3185.97544 3479.51017 0.03498
2301 14.87880 3326.95311 3596.94401 0.03309
2302 14.88240 3479.58364 3733.13371 0.03121
2303 14.88600 3644.89041 3875.34407 0.02870
2304 14.88960 3823.97564 4030.54967 0.02704
2305 14.89320 4018.02332 4188.53430 0.02512
2306 14.89680 4228.30176 4354.20840 0.02163
2307 14.90040 4456.18933 4526.65816 0.02123
2308 14.90400 4703.91352 4720.41172 0.01963
2309 14.90760 4971.38596 4920.28050 0.01945
2310 14.91120 5261.02232 5120.74607 0.01715
2311 14.91480 5574.57431 5352.96490 0.01582
2312 14.91840 5913.88646 5603.18452 0.01409
2313 14.92200 6280.94630 5889.65350 0.01260
2314 14.92560 6677.92934 6190.54978 0.01105
2315 14.92920 7107.26828 6550.79419 0.00969
2316 14.93280 7571.74773 6979.99384 0.00779
2317 14.93640 8074.60880 7511.17934 0.00595
2318 14.94000 8619.60569 8164.43181 0.00507
2319 14.94360 9210.86510 8903.37281 0.00420
2320 14.94720 9852.22405 9756.28582 0.00375
2321 14.95080 10545.43583 10677.09948 0.00338
2322 14.95440 11286.28804 11639.83895 0.00334
2323 14.95800 12057.60492 12576.62034 0.00323
2324 14.96160 12819.26626 13445.73495 0.00356
2325 14.96520 13499.30040 14166.28956 0.00389
2326 14.96880 13996.61655 14679.69800 0.00604
2327 14.97240 14207.67967 14881.67086 0.00837
2328 14.97600 14073.29185 14736.38485 0.00677
2329 14.97960 13613.60874 14234.43600 0.00408
2330 14.98320 12919.07094 13366.10262 0.00290
2331 14.98680 12105.71788 12266.97416 0.00257
2332 14.99040 11272.80596 11079.17323 0.00268
2333 14.99400 10485.43886 9957.11427 0.00307
2334 14.99760 9777.76551 9007.60552 0.00406
2335 15.00120 9163.55069 8290.20884 0.00562
2336 15.00480 8645.81454 7806.66743 0.00899
2337 15.00840 8223.15562 7571.21892 0.01597
2338 15.01200 7893.12229 7493.58985 0.01761
2339 15.01560 7653.49981 7538.29560 0.01662
2340 15.01920 7502.03131 7659.74120 0.01604
2341 15.02280 7434.59477 7811.95801 0.01408
2342 15.02640 7441.54339 7992.13815 0.01248
2343 15.03000 7502.22466 8165.06464 0.01596
2344 15.03360 7579.38677 8259.99310 0.01617
2345 15.03720 7620.53806 8236.88786 0.01627
2346 15.04080 7562.56092 8101.32766 0.01205
2347 15.04440 7361.89252 7766.58180 0.00850
2348 15.04800 7016.97340 7263.31363 0.00685
2349 15.05160 6565.00216 6587.62765 0.00560
2350 15.05520 6061.95255 5825.52158 0.00600
2351 15.05880 5558.30713 5103.62302 0.00709
2352 15.06240 5087.05672 4475.87490 0.00892
2353 15.06600 4663.88891 3990.22168 0.01276
2354 15.06960 4292.58633 3631.26762 0.01608
2355 15.07320 3970.46505 3354.56103 0.02182
2356 15.07680 3692.09282 3141.96782 0.02671
2357 15.08040 3451.36345 2972.87550 0.03307
2358 15.08400 3242.48324 2828.18108 0.03741
2359 15.08760 3060.35245 2702.04809 0.04130
2360 15.09120 2900.64852 2595.02518 0.04539
2361 15.09480 2759.77863 2491.50454 0.05212
2362 15.09840 2634.78529 2412.74764 0.05578
2363 15.10200 2523.24332 2326.40087 0.05213
2364 15.10560 2423.16442 2251.65044 0.05982
2365 15.10920 2332.91474 2191.35720 0.06133
2366 15.11280 2251.14625 2126.93305 0.06319
2367 15.11640 2176.74097 2068.22824 0.06509
2368 15.12000 2108.76618 2007.19068 0.06709
2369 15.12360 2046.43879 1948.18317 0.06904
2370 15.12720 1989.09709 1900.90787 0.07076
2371 15.13080 1936.17844 1860.30759 0.07234
2372 15.13440 1887.20152 1819.24735 0.07400
2373 15.13800 1841.75227 1778.13526 0.07566
2374 15.14160 1799.47254 1742.88583 0.07714
2375 15.14520 1760.05106 1710.94372 0.07869
2376 15.14880 1723.21597 1667.55050 0.08073
2377 15.15240 1688.72884 1631.47311 0.08258
2378 15.15600 1656.37965 1593.78701 0.08441
2379 15.15960 1626.11968 1565.39658 0.08609
2380 15.16320 1597.65526 1537.89792 0.08761
2381 15.16680 1570.68918 1513.25694 0.08900
2382 15.17040 1545.23260 1491.17210 0.09024
2383 15.17400 1521.16791 1466.33092 0.09190
2384 15.17760 1498.38934 1441.84873 0.09351
2385 15.18120 1476.80152 1419.34584 0.09487
2386 15.18480 1456.31819 1394.35429 0.09666
2387 15.18840 1436.86113 1377.56135 0.09770
2388 15.19200 1418.35926 1355.42032 0.09913
2389 15.19560 1400.74780 1339.77385 0.10051
2390 15.19920 1383.96762 1321.54841 0.10193
2391 15.20280 1367.96459 1302.85790 0.10330
2392 15.20640 1352.68910 1287.98464 0.10447
2393 15.21000 1338.09557 1273.33952 0.10575
2394 15.21360 1324.14204 1257.87885 0.10708
2395 15.21720 1310.78987 1243.36354 0.10832
2396 15.22080 1298.00333 1232.20946 0.10916
2397 15.22440 1285.74942 1219.32559 0.11045
2398 15.22800 1273.99755 1202.55857 0.11211
2399 15.23160 1262.71937 1196.01924 0.11266
2400 15.23520 1251.88854 1183.37577 0.11385
2401 15.23880 1241.48058 1170.56991 0.11509
2402 15.24240 1231.47268 1157.30724 0.11657
2403 15.24600 1221.84360 1150.46853 0.11708
2404 15.24960 1212.57350 1141.94355 0.11796
2405 15.25320 1203.64386 1131.32392 0.11909
2406 15.25680 1195.03737 1125.85384 0.11987
2407 15.26040 1186.73779 1117.25488 0.12059
2408 15.26400 1178.72995 1105.14340 0.12193
2409 15.26760 1170.99959 1105.61624 0.12180
2410 15.27120 1163.53334 1095.38251 0.12280
2411 15.27480 1156.31864 1086.17860 0.12390
2412 15.27840 1149.34365 1076.37259 0.12520
2413 15.28200 1142.59727 1073.11019 0.12546
2414 15.28560 1136.06902 1070.56010 0.12573
2415 15.28920 1129.74904 1062.44256 0.12653
2416 15.29280 1123.62799 1052.90553 0.12803
2417 15.29640 1117.69711 1050.26124 0.12817
2418 15.30000 1111.94808 1045.18547 0.12878
2419 15.30360 1106.37306 1042.21211 0.12921
2420 15.30720 1100.96462 1036.26097 0.13009
2421 15.31080 1095.71573 1025.21526 0.13143
2422 15.31440 1090.61974 1026.02599 0.13122
2423 15.31800 1085.67035 1015.04533 0.13277
2424 15.32160 1080.86157 1011.11353 0.13342
2425 15.32520 1076.18773 1008.97777 0.13356
2426 15.32880 1071.64343 1005.91223 0.13375
2427 15.33240 1067.22358 1005.00297 0.13414
2428 15.33600 1062.92329 999.48256 0.13499
2429 15.33960 1058.73794 994.84486 0.13549
2430 15.34320 1054.66315 992.96325 0.13583
2431 15.34680 1050.69471 991.91418 0.13593
2432 15.35040 1046.82864 989.67451 0.13617
2433 15.35400 1043.06114 985.15260 0.13675
2434 15.35760 1039.38859 979.94541 0.13753
2435 15.36120 1035.80752 975.65050 0.13799
2436 15.36480 1032.31466 972.54047 0.13839
2437 15.36840 1028.90685 967.57407 0.13898
2438 15.37200 1025.58108 964.90691 0.13947
2439 15.37560 1022.33448 958.66201 0.14042
2440 15.37920 1019.16432 962.72410 0.13971
2441 15.38280 1016.06797 957.74122 0.14066
2442 15.38640 1013.04291 954.61709 0.14100
2443 15.39000 1010.08676 954.94247 0.14107
2444 15.39360 1007.19721 952.74921 0.14128
2445 15.39720 1004.37206 952.14701 0.14147
2446 15.40080 1001.60920 946.93467 0.14241
2447 15.40440 998.90662 943.53112 0.14277
2448 15.40800 996.26237 943.99551 0.14267
2449 15.41160 993.67461 942.96756 0.14277
2450 15.41520 991.14154 940.77038 0.14350
2451 15.41880 988.66147 942.74424 0.14290
2452 15.42240 986.23275 935.58092 0.14432
2453 15.42600 983.85380 934.43725 0.14430
2454 15.42960 981.52313 934.51028 0.14422
2455 15.43320 979.23926 932.31015 0.14439
2456 15.43680 977.00081 925.94877 0.14554
2457 15.44040 974.80644 922.53774 0.14594
2458 15.44400 972.65485 925.16079 0.14545
2459 15.44760 970.54480 924.68803 0.14551
2460 15.45120 968.47510 926.15306 0.14538
2461 15.45480 966.44461 923.54234 0.14573
2462 15.45840 964.45221 922.41178 0.14596
2463 15.46200 962.49685 920.21088 0.14637
2464 15.46560 960.57750 916.04553 0.14704
2465 15.46920 958.69317 914.66741 0.14714
2466 15.47280 956.84292 910.70988 0.14791
2467 15.47640 955.02583 909.23544 0.14813
2468 15.48000 953.24101 910.19045 0.14811
2469 15.48360 951.48763 912.61919 0.14762
2470 15.48720 949.76485 910.35483 0.14783
2471 15.49080 948.07189 911.27663 0.14773
2472 15.49440 946.40800 906.54789 0.14882
2473 15.49800 944.77243 903.19833 0.14930
2474 15.50160 943.16448 902.67798 0.14943
2475 15.50520 941.58346 902.19813 0.14972
2476 15.50880 940.02873 905.67454 0.14885
2477 15.51240 938.49965 898.73017 0.15003
2478 15.51600 936.99560 900.87697 0.14985
2479 15.51960 935.51599 899.80988 0.15031
2480 15.52320 934.06026 900.45622 0.15038
2481 15.52680 932.62786 894.27272 0.15207
2482 15.53040 931.21826 897.27771 0.15246
2483 15.53400 929.83095 895.40411 0.14167
2484 15.53760 928.46543 888.94743 0.13241
2485 15.54120 927.12125 887.30622 0.13286
2486 15.54480 925.79793 889.73802 0.13237
2487 15.54840 924.49504 889.17493 0.13248
2488 15.55200 923.21217 888.24938 0.13253
2489 15.55560 921.94889 886.62365 0.13290
2490 15.55920 920.70482 886.28772 0.13289
2491 15.56280 919.47959 889.49066 0.13259
2492 15.56640 918.27282 884.42341 0.13307
2493 15.57000 917.08418 887.68168 0.13271
2494 15.57360 915.91334 886.23001 0.13314
2495 15.57720 914.75996 883.17150 0.13363
2496 15.58080 913.62375 883.03578 0.13362
2497 15.58440 912.50442 882.20582 0.13394
2498 15.58800 911.40169 883.11560 0.13370
2499 15.59160 910.31528 882.78323 0.13361
2500 15.59520 909.24496 876.99167 0.13470
2501 15.59880 908.19047 879.02140 0.13465
2502 15.60240 907.15160 882.59652 0.13425
2503 15.60600 906.12813 879.13458 0.13541
2504 15.60960 905.11985 876.71050 0.13664
2505 15.61320 904.12659 876.03567 0.13048
2506 15.61680 903.14817 871.84467 0.11569
2507 15.62040 902.18442 874.23227 0.11559
2508 15.62400 901.23519 875.12338 0.11535
2509 15.62760 900.30037 875.09616 0.11529
2510 15.63120 899.37982 873.22143 0.11555
2511 15.63480 898.47343 872.53545 0.11564
2512 15.63840 897.58113 878.94120 0.11486
2513 15.64200 896.70283 872.59543 0.11570
2514 15.64560 895.83848 874.53145 0.11547
2515 15.64920 894.98803 871.66572 0.11566
2516 15.65280 894.15146 869.64761 0.11630
2517 15.65640 893.32876 869.32971 0.11631
2518 15.66000 892.51995 869.27372 0.11634
2519 15.66360 891.72505 869.66306 0.11646
2520 15.66720 890.94413 867.88964 0.11665
2521 15.67080 890.17726 867.00866 0.11664
2522 15.67440 889.42454 871.83299 0.11613
2523 15.67800 888.68611 869.19075 0.11677
2524 15.68160 887.96212 866.40771 0.11718
2525 15.68520 887.25275 862.80629 0.11832
2526 15.68880 886.55824 866.08321 0.11862
2527 15.69240 885.87884 865.49433 0.11651
2528 15.69600 885.21485 861.86033 0.09748
2529 15.69960 884.56661 865.42997 0.09718
2530 15.70320 883.93452 871.03922 0.09660
2531 15.70680 883.28004 869.14225 0.09665
2532 15.71040 876.19599 861.74315 0.09751
2533 15.71400 875.48627 859.91286 0.09772
2534 15.71760 874.98793 862.41846 0.09736
2535 15.72120 874.50765 860.69463 0.09769
2536 15.72480 874.04626 858.47855 0.10927
2537 15.72840 873.60468 856.86947 0.12053
2538 15.73200 873.18394 858.69166 0.11920
2539 15.73560 872.78518 856.87718 0.11918
2540 15.73920 872.40971 858.60411 0.11845
2541 15.74280 872.05897 857.27669 0.11870
2542 15.74640 871.73460 858.45043 0.11815
2543 15.75000 871.43844 859.50173 0.11777
2544 15.75360 871.17256 857.29958 0.11815
2545 15.75720 870.93931 855.84293 0.11858
2546 15.76080 870.74135 858.83906 0.11827
2547 15.76440 870.58168 866.81107 0.11770
2548 15.76800 870.46375 860.50533 0.11939
2549 15.77160 870.39144 860.60693 0.12028
2550 15.77520 870.36899 858.46341 0.09945
2551 15.77880 867.50223 858.10518 0.09815
2552 15.78240 866.91940 852.74233 0.09888
2553 15.78600 867.11609 854.24168 0.09844
2554 15.78960 867.38814 852.20159 0.09876
2555 15.79320 867.74474 853.61168 0.09852
2556 15.79680 868.19663 852.41634 0.09872
2557 15.80040 868.75854 851.18935 0.09879
2558 15.80400 869.53249 852.20747 0.10501
2559 15.80760 870.35541 859.15589 0.12037
2560 15.81120 871.33939 855.85674 0.11990
2561 15.81480 872.50934 854.87015 0.11949
2562 15.81840 873.89522 856.73110 0.11897
2563 15.82200 875.53325 857.77506 0.11855
2564 15.82560 877.46750 864.03638 0.11762
2565 15.82920 879.75189 860.28294 0.11775
2566 15.83280 882.45274 858.51618 0.11823
2567 15.83640 885.65206 863.39131 0.11755
2568 15.84000 889.45157 862.69342 0.11788
2569 15.84360 893.97778 862.38694 0.11823
2570 15.84720 899.38803 867.63503 0.11836
2571 15.85080 905.87753 869.68394 0.11904
2572 15.85440 913.68688 877.38876 0.10207
2573 15.85800 923.10893 885.53216 0.09508
2574 15.86160 934.49182 899.54382 0.09381
2575 15.86520 948.23187 913.88108 0.09203
2576 15.86880 964.74326 933.02110 0.09015
2577 15.87240 984.38087 957.99703 0.08784
2578 15.87600 1007.27910 987.60049 0.08519
2579 15.87960 1033.06419 1022.96626 0.08220
2580 15.88320 1060.43482 1055.96097 0.08152
2581 15.88680 1086.74738 1080.16000 0.09598
2582 15.89040 1108.00368 1108.17941 0.09268
2583 15.89400 1119.77592 1124.15004 0.09087
2584 15.89760 1119.07154 1137.57827 0.08956
2585 15.90120 1105.97427 1143.13210 0.08901
2586 15.90480 1083.59537 1129.58013 0.08994
2587 15.90840 1056.38161 1100.70372 0.09218
2588 15.91200 1028.27747 1065.76801 0.09523
2589 15.91560 1001.85418 1016.06124 0.10004
2590 15.91920 978.35551 971.42266 0.10469
2591 15.92280 958.12036 941.55019 0.10827
2592 15.92640 940.99735 914.00866 0.11224
2593 15.93000 926.62549 895.30247 0.11548
2594 15.93360 914.59008 881.06372 0.10941
2595 15.93720 904.49670 871.62303 0.09692
2596 15.94080 895.99993 868.29226 0.09756
2597 15.94440 888.80966 860.58584 0.09820
2598 15.94800 882.68773 855.08572 0.09862
2599 15.95160 877.44358 852.26524 0.09914
2600 15.95520 872.99459 851.20245 0.09926
2601 15.95880 869.06272 851.30433 0.09916
2602 15.96240 865.62469 848.85561 0.09933
2603 15.96600 862.59938 848.39360 0.12034
2604 15.96960 859.92116 844.32172 0.12230
2605 15.97320 857.53665 843.18898 0.12146
2606 15.97680 855.40222 842.73387 0.12132
2607 15.98040 853.48201 843.34146 0.12099
2608 15.98400 851.74633 845.39947 0.12063
2609 15.98760 850.17048 844.16524 0.12043
2610 15.99120 848.73381 836.37818 0.12158
2611 15.99480 847.41893 838.31355 0.12149
2612 15.99840 846.21115 840.24579 0.12155
2613 16.00200 845.09799 839.98350 0.12158
2614 16.00560 844.06879 840.70692 0.12218
2615 16.00920 843.11444 839.74517 0.12310
2616 16.01280 842.22708 841.66368 0.11984
2617 16.01640 841.39993 838.91283 0.10098
2618 16.02000 840.62712 840.17687 0.10105
2619 16.02360 839.90354 838.30876 0.10118
2620 16.02720 839.22474 836.12375 0.10123
2621 16.03080 838.58683 836.77026 0.10124
2622 16.03440 837.98638 836.94945 0.10135
2623 16.03800 837.42038 838.98292 0.10090
2624 16.04160 836.88620 839.04664 0.10092
2625 16.04520 836.38147 837.55126 0.11717
2626 16.04880 835.90413 834.99326 0.12416
2627 16.05240 835.45235 833.29318 0.12349
2628 16.05600 835.02447 834.11149 0.12283
2629 16.05960 834.61905 830.35106 0.12319
2630 16.06320 834.23478 833.74172 0.12239
2631 16.06680 833.87051 833.30904 0.12228
2632 16.07040 833.52521 833.95092 0.12204
2633 16.07400 833.19794 834.62473 0.12230
2634 16.07760 832.89888 834.08281 0.12246
2635 16.08120 832.61208 834.00602 0.12277
2636 16.08480 832.33448 840.45908 0.12213
2637 16.08840 832.07209 834.81406 0.12396
2638 16.09200 831.82440 834.20345 0.12478
2639 16.09560 831.59092 833.51331 0.10377
2640 16.09920 831.37125 835.06173 0.10168
2641 16.10280 831.16500 838.90067 0.10119
2642 16.10640 830.97184 832.53214 0.10168
2643 16.11000 830.79150 829.54657 0.10226
2644 16.11360 830.62370 829.81634 0.10231
2645 16.11720 830.46824 832.07539 0.10194
2646 16.12080 830.32491 834.48126 0.10152
2647 16.12440 830.19355 835.86187 0.10941
2648 16.12800 830.07403 832.52494 0.12497
2649 16.13160 829.96623 837.65635 0.12303
2650 16.13520 829.87005 834.48819 0.12282
2651 16.13880 829.78544 830.69490 0.12308
2652 16.14240 829.71233 831.41479 0.12287
2653 16.14600 829.65070 831.44638 0.12247
2654 16.14960 829.60053 831.03808 0.12222
2655 16.15320 829.56183 834.51795 0.12186
2656 16.15680 829.53460 830.78094 0.12250
2657 16.16040 829.51890 829.63991 0.12259
2658 16.16400 829.51477 830.92658 0.12235
2659 16.16760 829.52226 834.73363 0.12185
2660 16.17120 829.54146 828.57009 0.12263
2661 16.17480 829.57247 828.06761 0.12271
2662 16.17840 829.61537 826.14861 0.12308
2663 16.18200 829.67030 827.94870 0.12287
2664 16.18560 829.73738 832.74700 0.12198
2665 16.18920 829.81676 831.42899 0.12212
2666 16.19280 829.90858 833.25861 0.12208
2667 16.19640 830.01303 830.20231 0.12236
2668 16.20000 830.13027 829.99301 0.12248
2669 16.20360 830.26050 831.42195 0.12508
2670 16.20720 830.40393 833.03822 0.14547
2671 16.21080 830.56078 833.31101 0.14413
2672 16.21440 830.73127 832.20146 0.14370
2673 16.21800 830.91565 832.37256 0.14311
2674 16.22160 831.11418 828.63471 0.14374
2675 16.22520 831.32714 828.91098 0.14331
2676 16.22880 831.55479 829.81925 0.14276
2677 16.23240 831.79744 831.17887 0.14260
2678 16.23600 832.05541 827.76091 0.14329
2679 16.23960 832.32903 825.77093 0.14360
2680 16.24320 832.61862 830.90745 0.14260
2681 16.24680 832.92456 831.39036 0.14261
2682 16.25040 833.24721 833.24242 0.14225
2683 16.25400 833.58697 831.20231 0.14258
2684 16.25760 833.94425 834.43585 0.14211
2685 16.26120 834.31947 830.50545 0.14275
2686 16.26480 834.71307 827.93799 0.14320
2687 16.26840 835.12551 832.44970 0.14217
2688 16.27200 835.55728 833.83988 0.14221
2689 16.27560 836.00889 832.00521 0.14241
2690 16.27920 836.48085 834.35593 0.14197
2691 16.28280 836.97371 834.76224 0.14178
2692 16.28640 837.48804 836.45115 0.16227
2693 16.29000 838.02443 835.11835 0.16440
2694 16.29360 838.58350 834.70498 0.16363
2695 16.29720 839.16590 831.81934 0.16361
2696 16.30080 839.77229 836.18243 0.16270
2697 16.30440 840.40338 833.55921 0.16293
2698 16.30800 841.05990 833.51322 0.16242
2699 16.31160 841.74259 835.01911 0.16222
2700 16.31520 842.45227 838.56972 0.16164
2701 16.31880 843.18975 837.49709 0.16188
2702 16.32240 843.95590 837.40451 0.16179
2703 16.32600 844.75162 836.33248 0.16199
2704 16.32960 845.57784 838.35212 0.16158
2705 16.33320 846.43555 839.63063 0.16132
2706 16.33680 847.32577 842.35461 0.16088
2707 16.34040 848.24957 842.02753 0.16086
2708 16.34400 849.20807 839.72348 0.16137
2709 16.34760 850.20243 842.88568 0.16048
2710 16.35120 851.23388 845.10826 0.16022
2711 16.35480 852.30369 846.79424 0.15999
2712 16.35840 853.41318 847.16519 0.15973
2713 16.36200 854.56377 849.00004 0.15940
2714 16.36560 855.75691 846.40035 0.15985
2715 16.36920 856.99412 853.25902 0.15881
2716 16.37280 858.27701 854.56501 0.15855
2717 16.37640 859.60725 850.63839 0.15921
2718 16.38000 860.98662 856.13264 0.15830
2719 16.38360 862.41693 858.49767 0.15788
2720 16.38720 863.90014 860.53859 0.15726
2721 16.39080 865.43827 862.14074 0.15693
2722 16.39440 867.03345 867.09104 0.15631
2723 16.39800 868.68792 867.60162 0.15615
2724 16.40160 870.40402 868.00412 0.15614
2725 16.40520 872.18422 865.13895 0.15653
2726 16.40880 874.03113 869.03870 0.15586
2727 16.41240 875.94747 872.51271 0.15524
2728 16.41600 877.93613 873.20734 0.15521
2729 16.41960 880.00012 873.21498 0.15510
2730 16.42320 882.14264 874.16171 0.15497
2731 16.42680 884.36706 873.03316 0.15502
2732 16.43040 886.67691 875.91841 0.15453
2733 16.43400 889.07595 877.87195 0.15447
2734 16.43760 891.56812 882.47421 0.15344
2735 16.44120 894.15760 886.79986 0.15255
2736 16.44480 896.84881 888.79628 0.15224
2737 16.44840 899.64639 891.43704 0.15207
2738 16.45200 902.55531 889.23159 0.15239
2739 16.45560 905.58077 894.25527 0.15147
2740 16.45920 908.72832 897.48660 0.15084
2741 16.46280 912.00382 901.34811 0.15038
2742 16.46640 915.41352 907.00940 0.14941
2743 16.47000 918.96401 910.61355 0.14853
2744 16.47360 922.66231 913.93145 0.14822
2745 16.47720 926.51589 916.90594 0.14782
2746 16.48080 930.53268 925.05246 0.14653
2747 16.48440 934.72113 929.95268 0.14576
2748 16.48800 939.09025 932.42278 0.14528
2749 16.49160 943.64960 936.71210 0.14461
2750 16.49520 948.40943 942.40360 0.14382
2751 16.49880 953.38066 952.69384 0.14229
2752 16.50240 958.57496 963.22863 0.14065
2753 16.50600 964.00480 963.29853 0.14057
2754 16.50960 969.68354 970.58120 0.13939
2755 16.51320 975.62548 977.71704 0.13870
2756 16.51680 981.84597 989.31567 0.13698
2757 16.52040 988.36145 995.36250 0.13597
2758 16.52400 995.18962 1002.38502 0.13501
2759 16.52760 1002.34949 1011.99161 0.13388
2760 16.53120 1009.86154 1019.63140 0.13289
2761 16.53480 1017.74783 1032.03435 0.13136
2762 16.53840 1026.03217 1046.46628 0.12929
2763 16.54200 1034.74030 1059.00100 0.12798
2764 16.54560 1043.90005 1072.57871 0.12640
2765 16.54920 1053.54157 1079.72826 0.12526
2766 16.55280 1063.69760 1096.43307 0.12345
2767 16.55640 1074.40369 1104.45752 0.12258
2768 16.56000 1085.69856 1123.56346 0.12061
2769 16.56360 1097.62441 1138.65728 0.11893
2770 16.56720 1110.22735 1157.28952 0.11705
2771 16.57080 1123.55783 1177.46440 0.11497
2772 16.57440 1137.67117 1192.85201 0.11358
2773 16.57800 1152.62811 1216.23369 0.11138
2774 16.58160 1168.49552 1243.51099 0.10884
2775 16.58520 1185.34712 1267.23026 0.10681
2776 16.58880 1203.26431 1288.29541 0.10491
2777 16.59240 1222.33719 1317.44543 0.10278
2778 16.59600 1242.66556 1344.08640 0.10072
2779 16.59960 1264.36019 1374.33966 0.09833
2780 16.60320 1287.54415 1408.50837 0.09605
2781 16.60680 1312.35433 1438.39629 0.09400
2782 16.61040 1338.94310 1475.45016 0.09172
2783 16.61400 1367.48016 1519.32870 0.08906
2784 16.61760 1398.15459 1563.04443 0.08650
2785 16.62120 1431.17711 1600.46810 0.08453
2786 16.62480 1466.78250 1655.82384 0.08180
2787 16.62840 1505.23228 1696.94148 0.07965
2788 16.63200 1546.68122 1754.74513 0.07705
2789 16.63560 1591.58608 1816.23721 0.07441
2790 16.63920 1640.45334 1878.96038 0.07199
2791 16.64280 1693.53999 1948.83993 0.06939
2792 16.64640 1751.28904 2019.53270 0.06588
2793 16.65000 1814.19001 2096.12416 0.06237
2794 16.65360 1882.78158 2186.70736 0.05839
2795 16.65720 1957.65210 2279.14192 0.04857
2796 16.66080 2039.43588 2378.15176 0.05241
2797 16.66440 2128.80060 2486.28885 0.04419
2798 16.66800 2226.41796 2610.65599 0.04045
2799 16.67160 2332.90580 2749.91616 0.03637
2800 16.67520 2448.72906 2890.50135 0.03507
2801 16.67880 2574.06132 3037.80930 0.03259
2802 16.68240 2708.65484 3194.80309 0.03007
2803 16.68600 2851.84341 3364.47845 0.02873
2804 16.68960 3002.82026 3535.33113 0.02623
2805 16.69320 3161.13998 3712.83910 0.02615
2806 16.69680 3327.06399 3898.18971 0.02203
2807 16.70040 3501.36814 4083.50347 0.02262
2808 16.70400 3684.71394 4263.11009 0.02331
2809 16.70760 3877.03021 4460.69637 0.01993
2810 16.71120 4077.17474 4666.39784 0.01955
2811 16.71480 4282.83429 4878.04443 0.01945
2812 16.71840 4490.52773 5088.29946 0.01960
2813 16.72200 4695.64517 5296.81040 0.01758
2814 16.72560 4892.53490 5504.73180 0.01759
2815 16.72920 5074.68610 5681.12377 0.01979
2816 16.73280 5235.05555 5840.07865 0.02074
2817 16.73640 5366.55971 5960.83907 0.02133
2818 16.74000 5462.70872 6045.30150 0.02227
2819 16.74360 5518.30440 6065.54549 0.02218
2820 16.74720 5530.07839 6044.49863 0.02226
2821 16.75080 5497.13171 5955.73735 0.01990
2822 16.75440 5421.06683 5814.57001 0.01934
2823 16.75800 5305.77547 5642.20334 0.01839
2824 16.76160 5156.93235 5422.21277 0.01735
2825 16.76520 4981.31387 5189.09668 0.01610
2826 16.76880 4786.08580 4941.28753 0.01785
2827 16.77240 4578.18341 4704.43826 0.01778
2828 16.77600 4363.85857 4470.29574 0.01946
2829 16.77960 4148.41425 4241.39315 0.01976
2830 16.78320 3936.10551 4022.99617 0.02187
2831 16.78680 3730.16417 3822.45579 0.02497
2832 16.79040 3532.89952 3647.21658 0.02730
2833 16.79400 3345.83272 3474.95355 0.02955
2834 16.79760 3169.83326 3310.94225 0.03115
2835 16.80120 3005.23751 3160.17720 0.03311
2836 16.80480 2851.94471 3006.56086 0.03613
2837 16.80840 2709.50623 2878.67243 0.03766
2838 16.81200 2577.24203 2750.19735 0.04570
2839 16.81560 2454.40432 2635.90420 0.04834
2840 16.81920 2340.34351 2530.63886 0.05049
2841 16.82280 2234.58102 2428.19184 0.05192
2842 16.82640 2136.75455 2332.05195 0.05302
2843 16.83000 2046.51162 2239.88259 0.05570
2844 16.83360 1963.44305 2146.42499 0.06138
2845 16.83720 1887.07717 2063.49499 0.06342
2846 16.84080 1816.90661 1982.68289 0.06720
2847 16.84440 1752.41875 1906.45446 0.06652
2848 16.84800 1693.11765 1836.72097 0.07198
2849 16.85160 1638.53643 1774.35330 0.07611
2850 16.85520 1588.24284 1711.28627 0.07895
2851 16.85880 1541.84079 1655.52304 0.08157
2852 16.86240 1498.96958 1604.80717 0.08422
2853 16.86600 1459.30220 1559.72890 0.08673
2854 16.86960 1422.54307 1513.94725 0.08928
2855 16.87320 1388.42557 1470.39145 0.09203
2856 16.87680 1356.70962 1437.23636 0.09405
2857 16.88040 1327.17930 1401.48356 0.09650
2858 16.88400 1299.64057 1365.74925 0.09910
2859 16.88760 1273.91913 1332.80289 0.10151
2860 16.89120 1249.85845 1298.99931 0.10409
2861 16.89480 1227.31788 1275.43994 0.10607
2862 16.89840 1206.17104 1247.33791 0.10841
2863 16.90200 1186.30424 1224.28913 0.11040
2864 16.90560 1167.61509 1202.51381 0.11230
2865 16.90920 1150.01127 1180.21844 0.11448
2866 16.91280 1133.40941 1159.88050 0.11662
2867 16.91640 1117.73408 1145.26223 0.11817
2868 16.92000 1102.89936 1120.30019 0.12048
2869 16.92360 1083.69256 1103.46272 0.12242
2870 16.92720 1070.27666 1089.72900 0.12404
2871 16.93080 1057.70305 1067.01743 0.12667
2872 16.93440 1045.77054 1053.46016 0.12831
2873 16.93800 1034.43609 1040.96672 0.12987
2874 16.94160 1023.66028 1026.90600 0.13162
2875 16.94520 1013.40689 1014.86526 0.13331
2876 16.94880 1003.64258 1004.96020 0.13453
2877 16.95240 994.33667 991.37124 0.13648
2878 16.95600 985.46079 981.09359 0.13783
2879 16.95960 976.98878 970.10133 0.13933
2880 16.96320 968.89637 959.29385 0.14107
2881 16.96680 961.16112 951.16010 0.14231
2882 16.97040 953.76219 941.18650 0.14382
2883 16.97400 946.68021 928.80064 0.14564
2884 16.97760 939.89720 923.44912 0.14650
2885 16.98120 933.39638 917.73296 0.14743
2886 16.98480 927.16217 910.75246 0.14843
2887 16.98840 921.18000 907.36642 0.14899
2888 16.99200 915.43627 896.77371 0.15088
2889 16.99560 909.91830 891.41860 0.15184
2890 16.99920 904.61421 886.01556 0.15250
2891 17.00280 899.51289 881.26999 0.15325
2892 17.00640 894.60393 874.30513 0.15465
2893 17.01000 889.87758 867.80244 0.15576
2894 17.01360 885.32469 860.49045 0.15700
2895 17.01720 880.93667 858.19334 0.15759
2896 17.02080 876.70543 852.62090 0.15854
2897 17.02440 872.62341 848.42678 0.15961
2898 17.02800 868.68346 847.93223 0.15961
2899 17.03160 864.87885 844.57594 0.16027
2900 17.03520 861.20327 841.22446 0.16089
2901 17.03880 857.65073 836.45258 0.16179
2902 17.04240 854.21562 834.29550 0.16221
2903 17.04600 850.89261 828.37728 0.16345
2904 17.04960 847.67669 824.21481 0.16417
2905 17.05320 844.56312 819.07585 0.16522
2906 17.05680 841.54741 818.46032 0.16523
2907 17.06040 838.62532 820.42024 0.16501
2908 17.06400 835.79283 811.44704 0.16656
2909 17.06760 833.04614 807.78207 0.16732
2910 17.07120 830.38164 799.99827 0.16895
2911 17.07480 827.79592 801.41985 0.16865
2912 17.07840 825.28572 800.60460 0.16888
2913 17.08200 822.84797 799.29039 0.16891
2914 17.08560 820.47975 797.33039 0.16970
2915 17.08920 818.17828 791.33029 0.17094
2916 17.09280 815.94091 790.42916 0.17099
2917 17.09640 813.76514 791.72715 0.17089
2918 17.10000 811.64856 787.72306 0.17159
2919 17.10360 809.58892 781.67459 0.17318
2920 17.10720 807.58403 782.91749 0.17281
2921 17.11080 805.63183 784.38062 0.17264
2922 17.11440 803.73036 778.99242 0.17389
2923 17.11800 801.87773 777.02654 0.17420
2924 17.12160 800.07216 781.04761 0.17329
2925 17.12520 798.31193 776.45484 0.17418
2926 17.12880 796.59541 774.77105 0.17464
2927 17.13240 794.92103 778.88409 0.17371
2928 17.13600 793.28732 772.03473 0.17504
2929 17.13960 791.69284 773.48862 0.17487
2930 17.14320 790.13623 768.77163 0.17583
2931 17.14680 788.61619 767.54563 0.17608
2932 17.15040 787.13146 767.62620 0.17612
2933 17.15400 785.68085 767.71091 0.17600
2934 17.15760 784.26322 764.43834 0.17699
2935 17.16120 782.87747 763.92190 0.17681
2936 17.16480 781.52254 760.17489 0.17786
2937 17.16840 780.19743 760.81860 0.17781
2938 17.17200 778.90118 757.09061 0.17851
2939 17.17560 777.63284 758.53068 0.17835
2940 17.17920 776.39154 757.11619 0.17854
2941 17.18280 775.17642 757.48191 0.17864
2942 17.18640 773.98665 759.24263 0.17815
2943 17.19000 772.82145 759.68014 0.17814
2944 17.19360 771.68006 756.86105 0.17895
2945 17.19720 770.56174 755.49875 0.17924
2946 17.20080 769.46581 752.61812 0.17987
2947 17.20440 768.39157 752.61727 0.17978
2948 17.20800 767.33840 751.38010 0.18004
2949 17.21160 766.30565 749.94553 0.18059
2950 17.21520 765.29273 748.98530 0.18045
2951 17.21880 764.29907 749.07901 0.18056
2952 17.22240 763.32409 746.64844 0.18105
2953 17.22600 762.36728 746.12700 0.18105
2954 17.22960 761.42810 746.89434 0.18106
2955 17.23320 760.50606 745.11147 0.18136
2956 17.23680 759.60067 740.74186 0.18272
2957 17.24040 758.71148 742.45955 0.18203
2958 17.24400 757.83804 741.42439 0.18222
2959 17.24760 756.97991 739.38083 0.18300
2960 17.25120 756.13667 745.39197 0.18154
2961 17.25480 755.30793 743.74957 0.18188
2962 17.25840 754.49329 738.57628 0.18322
2963 17.26200 753.69238 734.15683 0.18434
2964 17.26560 752.90484 736.44291 0.18376
2965 17.26920 752.13031 740.80963 0.18258
2966 17.27280 751.36845 737.76550 0.18358
2967 17.27640 750.61895 735.24577 0.18419
2968 17.28000 749.88147 735.08473 0.18409
2969 17.28360 749.15572 734.31992 0.18443
2970 17.28720 748.44140 728.43485 0.18582
2971 17.29080 747.73822 733.50993 0.18480
2972 17.29440 747.04590 732.45518 0.18479
2973 17.29800 746.36418 732.86943 0.18462
2974 17.30160 745.69279 732.91030 0.18464
2975 17.30520 745.03148 730.11435 0.18505
2976 17.30880 744.38001 730.70807 0.18518
2977 17.31240 743.73814 730.78244 0.18499
2978 17.31600 743.10565 730.36488 0.18519
2979 17.31960 742.48230 730.42218 0.18528
2980 17.32320 741.86789 728.63057 0.18528
2981 17.32680 741.26220 726.29178 0.18620
2982 17.33040 740.66503 726.61675 0.18607
2983 17.33400 740.07620 727.63340 0.18587
2984 17.33760 739.49550 728.48674 0.18577
2985 17.34120 738.92275 726.89011 0.18624
2986 17.34480 738.35777 723.41211 0.18717
2987 17.34840 737.80039 724.97455 0.18664
2988 17.35200 737.25044 723.17750 0.18722
2989 17.35560 736.70776 723.56581 0.18723
2990 17.35920 736.17218 722.00810 0.18742
2991 17.36280 735.64355 728.12886 0.18599
2992 17.36640 736.87116 723.10185 0.18716
2993 17.37000 738.46674 723.64622 0.18746
2994 17.37360 738.00645 724.92045 0.18680
2995 17.37720 737.53290 728.25894 0.18572
2996 17.38080 737.06592 725.84761 0.18648
2997 17.38440 736.60537 726.93452 0.18604
2998 17.38800 736.15113 722.08137 0.18740
2999 17.39160 735.70308 719.82061 0.18772
3000 17.39520 735.26112 719.04538 0.18798
3001 17.39880 734.82512 719.59944 0.18823
3002 17.40240 734.39498 720.17095 0.18742
3003 17.40600 733.97060 716.30806 0.18878
3004 17.40960 733.55187 718.43671 0.18827
3005 17.41320 733.13869 719.36155 0.18795
3006 17.41680 732.73098 720.09637 0.18787
3007 17.42040 732.32863 721.67090 0.18744
3008 17.42400 731.93155 719.65290 0.18817
3009 17.42760 731.52868 718.10790 0.18833
3010 17.43120 731.07326 715.76009 0.18899
3011 17.43480 730.69226 715.76512 0.18915
3012 17.43840 730.31619 715.09107 0.18917
3013 17.44200 729.94497 716.41510 0.18903
3014 17.44560 729.57852 716.22846 0.18885
3015 17.44920 729.21678 720.71231 0.18806
3016 17.45280 728.85967 720.11571 0.18808
3017 17.45640 728.50712 717.78012 0.18843
3018 17.46000 728.15907 722.18661 0.18751
3019 17.46360 727.81545 718.72993 0.18829
3020 17.46720 727.47619 714.89814 0.18925
3021 17.47080 727.14125 716.31227 0.18875
3022 17.47440 726.81055 715.90501 0.18872
3023 17.47800 726.48404 716.60844 0.18882
3024 17.48160 726.16167 717.01098 0.18841
3025 17.48520 725.84338 714.03576 0.18927
3026 17.48880 725.52913 714.14587 0.18943
3027 17.49240 725.21885 712.05812 0.18987
3028 17.49600 724.91250 712.60125 0.18981
3029 17.49960 724.61004 715.35434 0.18910
3030 17.50320 724.31142 714.93763 0.18933
3031 17.50680 724.01659 712.00789 0.18989
3032 17.51040 723.72552 712.48289 0.18977
3033 17.51400 723.43816 714.92956 0.18937
3034 17.51760 723.15447 712.37118 0.18997
3035 17.52120 722.87441 711.72857 0.19030
3036 17.52480 722.59795 712.29915 0.18987
3037 17.52840 722.32505 712.52117 0.19017
3038 17.53200 722.05569 710.63667 0.19071
3039 17.53560 721.78981 708.21018 0.19098
3040 17.53920 721.52741 710.31215 0.19065
3041 17.54280 721.26843 711.42006 0.19024
3042 17.54640 721.01286 711.79919 0.18999
3043 17.55000 720.76066 713.29056 0.18958
3044 17.55360 720.49482 712.72348 0.18944
3045 17.55720 720.24894 709.43704 0.19047
3046 17.56080 720.00690 708.16328 0.19082
3047 17.56440 719.76814 711.88613 0.18986
3048 17.56800 719.53263 710.66512 0.19037
3049 17.57160 719.30036 711.03507 0.19004
3050 17.57520 719.07132 708.95501 0.19077
3051 17.57880 718.84547 709.03331 0.19073
3052 17.58240 718.62281 710.57514 0.19039
3053 17.58600 718.40333 709.36995 0.19063
3054 17.58960 718.18700 715.29901 0.18909
3055 17.59320 717.97382 713.18542 0.18971
3056 17.59680 717.76378 718.35878 0.18834
3057 17.60040 717.55688 719.95400 0.18802
3058 17.60400 717.35310 726.08919 0.18628
3059 17.60760 717.15245 731.23346 0.18503
3060 17.61120 716.95492 740.17848 0.18307
3061 17.61480 716.76051 747.22284 0.18104
3062 17.61840 716.56923 746.69148 0.18130
3063 17.62200 716.38108 747.97191 0.18088
3064 17.62560 716.19604 753.75725 0.17916
3065 17.62920 716.01411 753.86164 0.17925
3066 17.63280 715.83524 755.71453 0.17851
3067 17.63640 715.65936 756.75559 0.17841
3068 17.64000 715.48638 756.69413 0.17863
3069 17.64360 715.31623 748.68641 0.18044
3070 17.64720 715.14887 737.97943 0.18321
3071 17.65080 714.98435 732.38760 0.18452
3072 17.65440 715.36908 725.58371 0.18636
3073 17.65800 715.28074 719.73512 0.18784
3074 17.66160 715.13132 715.72352 0.18883
3075 17.66520 714.98512 711.71150 0.18993
3076 17.66880 714.84217 708.79894 0.19058
3077 17.67240 714.70248 710.39905 0.19025
3078 17.67600 714.56607 710.84050 0.19027
3079 17.67960 714.43294 709.38869 0.19063
3080 17.68320 714.30309 705.43272 0.19175
3081 17.68680 714.17654 705.29644 0.19171
3082 17.69040 714.05330 704.56486 0.19228
3083 17.69400 713.93339 705.05725 0.19188
3084 17.69760 713.81682 701.69546 0.19287
3085 17.70120 713.70361 702.30635 0.19265
3086 17.70480 713.59379 703.37479 0.19204
3087 17.70840 713.48737 703.92776 0.19203
3088 17.71200 713.38439 703.40996 0.19190
3089 17.71560 713.28487 704.90364 0.19137
3090 17.71920 713.18884 704.72566 0.19177
3091 17.72280 713.09633 704.31543 0.19170
3092 17.72640 713.00737 699.63818 0.19291
3093 17.73000 712.92201 704.67404 0.19172
3094 17.73360 712.84027 703.82635 0.19181
3095 17.73720 712.76220 700.80002 0.19287
3096 17.74080 712.68783 702.70549 0.19208
3097 17.74440 712.61722 703.14538 0.19221
3098 17.74800 712.55039 707.46861 0.19085
3099 17.75160 712.48741 701.85672 0.19230
3100 17.75520 712.42831 703.00943 0.19222
3101 17.75880 712.37316 699.64694 0.19322
3102 17.76240 712.32199 698.80647 0.19345
3103 17.76600 712.27487 701.99606 0.19259
3104 17.76960 712.23186 698.12599 0.19404
3105 17.77320 712.19301 702.32584 0.19267
3106 17.77680 712.15839 703.35190 0.19234
3107 17.78040 712.12806 703.49597 0.19231
3108 17.78400 712.10209 706.96626 0.19102
3109 17.78760 712.08054 703.09364 0.19205
3110 17.79120 712.06350 704.56266 0.19147
3111 17.79480 712.05104 703.42101 0.19152
3112 17.79840 712.04323 703.47481 0.19174
3113 17.80200 712.04016 705.56103 0.19116
3114 17.80560 712.04191 703.11126 0.19179
3115 17.80920 712.04858 704.41452 0.19178
3116 17.81280 712.06025 703.32716 0.19184
3117 17.81640 712.07701 704.19456 0.19186
3118 17.82000 712.09897 703.62932 0.19182
3119 17.82360 712.12624 701.78324 0.19262
3120 17.82720 712.15891 707.84812 0.19080
3121 17.83080 712.19709 702.41773 0.19225
3122 17.83440 712.24091 701.48292 0.19252
3123 17.83800 712.29048 700.26464 0.19292
3124 17.84160 712.34592 703.30209 0.19219
3125 17.84520 712.40737 700.47685 0.19295
3126 17.84880 712.47496 701.84045 0.19279
3127 17.85240 712.54882 700.12441 0.19322
3128 17.85600 712.62911 700.92032 0.19284
3129 17.85960 712.71596 703.48397 0.19213
3130 17.86320 712.80954 708.72061 0.19050
3131 17.86680 712.91001 705.51355 0.19122
3132 17.87040 713.01754 702.97317 0.19182
3133 17.87400 713.13230 705.78421 0.19086
3134 17.87760 713.25447 710.50990 0.18961
3135 17.88120 713.38425 710.62478 0.18980
3136 17.88480 713.52182 710.36903 0.18976
3137 17.88840 713.66739 713.91315 0.18912
3138 17.89200 713.82118 712.79713 0.18914
3139 17.89560 713.98341 712.47688 0.18960
3140 17.89920 714.15430 716.12827 0.18849
3141 17.90280 714.33410 715.49621 0.18880
3142 17.90640 714.52305 716.29295 0.18846
3143 17.91000 714.72142 719.14524 0.18780
3144 17.91360 714.92947 717.02334 0.18835
3145 17.91720 715.14749 714.99760 0.18908
3146 17.92080 715.37577 717.11893 0.18853
3147 17.92440 715.61461 712.36376 0.18968
3148 17.92800 715.86434 713.56267 0.18941
3149 17.93160 716.12528 711.55357 0.18997
3150 17.93520 716.39778 711.69980 0.18978
3151 17.93880 716.68221 713.81093 0.18926
3152 17.94240 716.97895 714.96097 0.18888
3153 17.94600 717.28838 714.06760 0.18884
3154 17.94960 717.61092 712.16987 0.18930
3155 17.95320 717.94699 711.44732 0.18943
3156 17.95680 718.29706 713.35400 0.18879
3157 17.96040 718.66158 711.04389 0.18962
3158 17.96400 719.04105 710.86524 0.18968
3159 17.96760 719.43599 711.62569 0.18971
3160 17.97120 719.84693 709.92317 0.18999
3161 17.97480 720.27443 713.73967 0.18907
3162 17.97840 720.71908 710.79498 0.18992
3163 17.98200 721.18151 711.72212 0.18961
3164 17.98560 721.66236 715.44736 0.18871
3165 17.98920 722.16230 717.18703 0.18809
3166 17.99280 722.68206 718.12027 0.18788
3167 17.99640 723.22237 719.34728 0.18769
3168 18.00000 723.78403 717.22409 0.18840
3169 18.00360 724.36785 716.89804 0.18836
3170 18.00720 724.97470 716.66213 0.18843
3171 18.01080 725.60550 717.44154 0.18850
3172 18.01440 726.26120 719.39936 0.18772
3173 18.01800 726.94280 722.38271 0.18694
3174 18.02160 727.65137 726.37031 0.18591
3175 18.02520 728.38803 727.76360 0.18521
3176 18.02880 729.15394 721.30935 0.18685
3177 18.03240 729.95036 726.76191 0.18543
3178 18.03600 730.77859 729.34502 0.18458
3179 18.03960 731.64001 732.29411 0.18405
3180 18.04320 732.53609 731.51151 0.18440
3181 18.04680 733.46836 731.71541 0.18442
3182 18.05040 734.43846 732.08158 0.18432
3183 18.05400 735.44811 734.11296 0.18382
3184 18.05760 736.49915 736.40974 0.18344
3185 18.06120 737.59349 737.02840 0.18311
3186 18.06480 738.73320 736.67534 0.18324
3187 18.06840 739.92046 739.25277 0.18258
3188 18.07200 741.15757 739.09875 0.18275
3189 18.07560 742.44698 740.59087 0.18246
3190 18.07920 743.79132 746.04861 0.18127
3191 18.08280 745.19334 748.93623 0.18037
3192 18.08640 746.65601 752.13519 0.17961
3193 18.09000 748.18247 755.19784 0.17896
3194 18.09360 749.77608 755.07815 0.17887
3195 18.09720 751.44043 761.04427 0.17743
3196 18.10080 753.17933 763.97925 0.17677
3197 18.10440 754.99687 762.55828 0.17689
3198 18.10800 756.89744 767.23814 0.17574
3199 18.11160 758.88571 768.62555 0.17524
3200 18.11520 760.96670 771.18100 0.17472
3201 18.11880 763.14581 776.98559 0.17345
3202 18.12240 765.42880 779.79459 0.17303
3203 18.12600 767.82190 782.30802 0.17237
3204 18.12960 770.33179 789.41779 0.17095
3205 18.13320 772.96568 794.34567 0.16990
3206 18.13680 775.73132 800.04243 0.16890
3207 18.14040 778.63708 799.56204 0.16883
3208 18.14400 781.69202 805.81723 0.16752
3209 18.14760 784.90592 809.12613 0.16683
3210 18.15120 788.28937 816.10096 0.16554
3211 18.15480 791.85386 818.79326 0.16501
3212 18.15840 795.61184 824.80408 0.16394
3213 18.16200 799.57685 830.32069 0.16277
3214 18.16560 803.76363 837.60755 0.16128
3215 18.16920 808.18822 845.67069 0.15965
3216 18.17280 812.86811 856.11882 0.15780
3217 18.17640 817.82243 862.01279 0.15670
3218 18.18000 823.07207 866.35012 0.15587
3219 18.18360 828.63995 877.11971 0.15389
3220 18.18720 834.55119 888.58367 0.15176
3221 18.19080 840.83341 899.89810 0.14972
3222 18.19440 847.51699 907.26884 0.14852
3223 18.19800 854.63547 921.58476 0.14616
3224 18.20160 862.22585 930.00213 0.14509
3225 18.20520 870.32911 940.53842 0.14346
3226 18.20880 878.99070 957.10765 0.14092
3227 18.21240 888.26110 968.00047 0.13941
3228 18.21600 898.19652 981.57626 0.13768
3229 18.21960 908.85973 997.88635 0.13524
3230 18.22320 920.32094 1013.08601 0.13325
3231 18.22680 932.65892 1031.66187 0.13088
3232 18.23040 945.96228 1052.09845 0.12838
3233 18.23400 960.33104 1067.07608 0.12661
3234 18.23760 975.87847 1089.25372 0.12414
3235 18.24120 992.73343 1110.57575 0.12170
3236 18.24480 1011.04323 1135.89400 0.11896
3237 18.24840 1030.97722 1155.08959 0.11684
3238 18.25200 1052.73150 1176.59157 0.11475
3239 18.25560 1076.53490 1211.57106 0.11138
3240 18.25920 1102.65690 1245.63024 0.10830
3241 18.26280 1131.41791 1277.64632 0.10564
3242 18.26640 1163.20261 1309.85657 0.10292
3243 18.27000 1198.47711 1349.61749 0.09987
3244 18.27360 1237.81042 1390.64370 0.09688
3245 18.27720 1281.90084 1433.44188 0.09394
3246 18.28080 1331.60713 1484.82126 0.09077
3247 18.28440 1387.98391 1544.52820 0.08738
3248 18.28800 1452.31982 1614.63960 0.08351
3249 18.29160 1526.17575 1690.28339 0.07268
3250 18.29520 1611.41951 1775.04695 0.07182
3251 18.29880 1710.25210 1866.85963 0.05890
3252 18.30240 1825.21966 1980.97043 0.05185
3253 18.30600 1959.20453 2116.17313 0.04356
3254 18.30960 2115.38742 2278.01779 0.03663
3255 18.31320 2297.16983 2469.36073 0.02960
3256 18.31680 2508.03980 2691.97328 0.02438
3257 18.32040 2751.35154 2957.51146 0.01993
3258 18.32400 3029.96692 3274.14695 0.01631
3259 18.32760 3345.67373 3629.89800 0.01404
3260 18.33120 3698.25814 4035.75733 0.01259
3261 18.33480 4084.09600 4454.21809 0.01196
3262 18.33840 4494.21031 4885.72868 0.01121
3263 18.34200 4912.04100 5282.35562 0.01230
3264 18.34560 5311.79708 5650.29859 0.01263
3265 18.34920 5659.06578 5924.29578 0.01614
3266 18.35280 5915.59013 6106.77505 0.02154
3267 18.35640 6048.58868 6168.28284 0.02175
3268 18.36000 6041.52611 6100.08932 0.02091
3269 18.36360 5900.51578 5877.20407 0.01400
3270 18.36720 5652.19549 5546.76043 0.01134
3271 18.37080 5334.41850 5138.87023 0.01085
3272 18.37440 4985.20369 4713.72458 0.01149
3273 18.37800 4634.70123 4320.04251 0.01265
3274 18.38160 4301.54923 3967.88547 0.01542
3275 18.38520 3992.68860 3684.15979 0.02087
3276 18.38880 3705.67461 3454.79390 0.02253
3277 18.39240 3433.25144 3227.21842 0.02486
3278 18.39600 3169.24419 3021.55938 0.02743
3279 18.39960 2912.82859 2816.82526 0.02776
3280 18.40320 2668.46286 2610.08134 0.02801
3281 18.40680 2442.42262 2395.77099 0.03078
3282 18.41040 2239.39242 2196.30645 0.03371
3283 18.41400 2061.15293 2019.06392 0.04230
3284 18.41760 1907.04760 1871.69725 0.05373
3285 18.42120 1774.76662 1757.09766 0.06701
3286 18.42480 1661.55972 1657.08638 0.07026
3287 18.42840 1564.57169 1577.64944 0.07837
3288 18.43200 1481.18390 1507.74881 0.08940
3289 18.43560 1409.12560 1443.84267 0.09345
3290 18.43920 1346.49043 1390.57065 0.09692
3291 18.44280 1291.70777 1337.87580 0.10102
3292 18.44640 1243.49696 1293.96155 0.10440
3293 18.45000 1200.81845 1257.97613 0.10723
3294 18.45360 1162.82861 1219.40049 0.11072
3295 18.45720 1128.07267 1195.78484 0.11289
3296 18.46080 1094.83708 1160.00012 0.11631
3297 18.46440 1067.28081 1134.40885 0.11894
3298 18.46800 1042.31695 1108.63389 0.12159
3299 18.47160 1019.62354 1085.22703 0.12446
3300 18.47520 998.92883 1063.33074 0.12708
3301 18.47880 980.00180 1043.98792 0.12939
3302 18.48240 962.64463 1019.27163 0.13252
3303 18.48600 946.68695 1004.22533 0.13436
3304 18.48960 931.98122 994.85250 0.13558
3305 18.49320 918.39902 979.48398 0.13766
3306 18.49680 905.82812 956.46030 0.14108
3307 18.50040 894.17003 943.32065 0.14313
3308 18.50400 883.33801 932.99590 0.14468
3309 18.50760 873.25542 921.42884 0.14639
3310 18.51120 863.85433 909.54718 0.14823
3311 18.51480 855.07432 900.67267 0.14974
3312 18.51840 846.86156 890.57194 0.15149
3313 18.52200 839.16791 878.87153 0.15374
3314 18.52560 831.95024 866.08618 0.15613
3315 18.52920 825.16982 861.07890 0.15667
3316 18.53280 818.79176 852.62991 0.15833
3317 18.53640 812.78460 847.23145 0.15937
3318 18.54000 807.11988 839.10375 0.16065
3319 18.54360 801.77183 829.03560 0.16261
3320 18.54720 796.71705 824.79786 0.16341
3321 18.55080 791.93428 816.53736 0.16524
3322 18.55440 787.40412 810.09923 0.16669
3323 18.55800 783.10891 807.13478 0.16726
3324 18.56160 779.03246 805.30410 0.16753
3325 18.56520 775.16000 799.47580 0.16872
3326 18.56880 771.47796 791.87358 0.17038
3327 18.57240 767.97388 786.73481 0.17146
3328 18.57600 764.63631 784.78497 0.17184
3329 18.57960 761.45472 779.72028 0.17306
3330 18.58320 758.41937 776.52918 0.17373
3331 18.58680 755.52130 771.64654 0.17481
3332 18.59040 752.75221 768.92652 0.17532
3333 18.59400 750.10443 765.67127 0.17603
3334 18.59760 747.57085 761.66775 0.17706
3335 18.60120 745.14487 756.81545 0.17827
3336 18.60480 742.82036 755.74568 0.17888
3337 18.60840 740.59163 755.01840 0.17870
3338 18.61200 738.45338 752.64433 0.17923
3339 18.61560 736.40068 749.44308 0.18023
3340 18.61920 734.42892 742.96678 0.18153
3341 18.62280 732.53381 739.89925 0.18220
3342 18.62640 730.71133 738.89868 0.18248
3343 18.63000 728.95773 736.75362 0.18312
3344 18.63360 727.26949 732.28069 0.18447
3345 18.63720 725.64333 731.33696 0.18471
3346 18.64080 724.07616 733.13593 0.18401
3347 18.64440 722.48435 731.36667 0.18450
3348 18.64800 720.54426 730.65697 0.18466
3349 18.65160 719.13949 726.10606 0.18566
3350 18.65520 717.78313 726.53362 0.18558
3351 18.65880 716.47292 722.30311 0.18681
3352 18.66240 715.20672 721.63868 0.18692
3353 18.66600 713.98253 720.84013 0.18715
3354 18.66960 712.79845 719.97282 0.18719
3355 18.67320 711.65269 721.12124 0.18678
3356 18.67680 710.54357 716.15763 0.18842
3357 18.68040 709.46949 717.74156 0.18784
3358 18.68400 708.42894 715.77458 0.18890
3359 18.68760 707.42049 716.59552 0.18839
3360 18.69120 706.44280 712.99820 0.18909
3361 18.69480 705.49457 709.77056 0.19020
3362 18.69840 704.57461 710.29813 0.18971
3363 18.70200 703.68175 708.20600 0.19025
3364 18.70560 702.81490 707.32496 0.19060
3365 18.70920 701.97303 704.53409 0.19130
3366 18.71280 701.15515 706.33413 0.19105
3367 18.71640 700.36033 706.78927 0.19100
3368 18.72000 699.58767 705.36570 0.19106
3369 18.72360 698.83633 703.76880 0.19145
3370 18.72720 698.10550 700.33680 0.19259
3371 18.73080 697.39442 701.76726 0.19218
3372 18.73440 696.70234 702.78868 0.19182
3373 18.73800 696.02859 703.07043 0.19185
3374 18.74160 695.37248 702.41828 0.19190
3375 18.74520 694.73339 700.26778 0.19249
3376 18.74880 694.11072 696.14193 0.19346
3377 18.75240 693.50388 697.18037 0.19320
3378 18.75600 692.91232 695.66311 0.19371
3379 18.75960 692.33553 692.85223 0.19457
3380 18.76320 691.77299 699.31580 0.19316
3381 18.76680 691.22422 696.13975 0.19408
3382 18.77040 690.68876 693.57189 0.19436
3383 18.77400 690.16619 692.23785 0.19494
3384 18.77760 689.65606 692.66282 0.19451
3385 18.78120 689.15798 695.95386 0.19351
3386 18.78480 688.67157 694.69877 0.19401
3387 18.78840 688.19645 691.46619 0.19475
3388 18.79200 687.73228 692.23397 0.19479
3389 18.79560 687.27870 689.10859 0.19578
3390 18.79920 686.83540 690.87332 0.19500
3391 18.80280 686.40207 691.21765 0.19476
3392 18.80640 685.97841 694.60106 0.19399
3393 18.81000 685.56412 689.77997 0.19547
3394 18.81360 685.15894 687.68736 0.19606
3395 18.81720 684.76261 686.82881 0.19635
3396 18.82080 684.37487 688.11740 0.19590
3397 18.82440 683.99547 693.73738 0.19412
3398 18.82800 683.62419 689.85154 0.19519
3399 18.83160 683.26080 687.54673 0.19583
3400 18.83520 682.90510 686.52051 0.19628
3401 18.83880 682.55687 687.58397 0.19608
3402 18.84240 682.21592 686.19021 0.19660
3403 18.84600 681.88205 686.47658 0.19670
3404 18.84960 681.55510 684.11194 0.19721
3405 18.85320 681.23489 685.33931 0.19671
3406 18.85680 680.92125 686.87409 0.19622
3407 18.86040 680.61402 683.86143 0.19699
3408 18.86400 680.31305 685.47497 0.19660
3409 18.86760 680.01820 682.81491 0.19719
3410 18.87120 679.72933 684.33729 0.19682
3411 18.87480 679.44630 686.48017 0.19656
3412 18.87840 679.34893 685.26147 0.19659
3413 18.88200 680.28342 685.68412 0.19625
3414 18.88560 680.02148 683.14595 0.19713
3415 18.88920 679.76495 682.78376 0.19751
3416 18.89280 679.51371 683.10891 0.19740
3417 18.89640 679.26768 681.80037 0.19775
3418 18.90000 679.02677 682.02560 0.19778
3419 18.90360 678.79088 684.11256 0.19689
3420 18.90720 678.55994 681.25527 0.19770
3421 18.91080 678.33389 681.20850 0.19764
3422 18.91440 678.11264 681.93283 0.19771
3423 18.91800 677.89615 682.15392 0.19759
3424 18.92160 677.68436 679.90543 0.19834
3425 18.92520 677.47721 681.78358 0.19800
3426 18.92880 677.27467 681.64105 0.19791
3427 18.93240 677.07671 683.60935 0.19726
3428 18.93600 676.88329 681.64980 0.19787
3429 18.93960 676.69440 681.96524 0.19758
3430 18.94320 676.51001 680.09151 0.19830
3431 18.94680 676.33014 679.87948 0.19811
3432 18.95040 676.15477 679.60709 0.19819
3433 18.95400 675.98393 679.11185 0.19866
3434 18.95760 675.81764 679.55860 0.19832
3435 18.96120 675.65592 679.67508 0.19795
3436 18.96480 675.49883 680.12285 0.19795
3437 18.96840 675.34642 681.73342 0.19796
3438 18.97200 675.19876 683.14343 0.19752
3439 18.97560 675.05594 680.05328 0.19840
3440 18.97920 674.91806 679.49000 0.19869
3441 18.98280 674.78523 680.33273 0.19812
3442 18.98640 674.65761 679.11720 0.19847
3443 18.99000 674.53535 678.18754 0.19871
3444 18.99360 674.41864 679.26376 0.19858
3445 18.99720 674.30769 679.17858 0.19852
3446 19.00080 674.20274 679.88743 0.19840
3447 19.00440 674.10409 677.90257 0.19911
3448 19.00800 674.01205 678.48526 0.19896
3449 19.01160 673.92699 675.20011 0.19989
3450 19.01520 673.84932 676.38876 0.19959
3451 19.01880 673.77953 674.95148 0.19973
3452 19.02240 673.71816 676.01224 0.19951
3453 19.02600 673.66583 674.93221 0.19972
3454 19.02960 673.62327 678.50396 0.19844
3455 19.03320 673.59128 678.40376 0.19876
3456 19.03680 673.57083 675.41029 0.19963
3457 19.04040 673.56299 673.40213 0.19979
3458 19.04400 673.56902 674.86924 0.19930
3459 19.04760 673.59039 676.69211 0.19926
3460 19.05120 673.62880 678.81074 0.19885
3461 19.05480 673.68622 676.73743 0.19944
3462 19.05840 673.76498 678.05689 0.19912
3463 19.06200 673.86780 680.79886 0.19809
3464 19.06560 673.99790 675.32458 0.19966
3465 19.06920 674.15911 678.42770 0.19874
3466 19.07280 674.35598 679.26755 0.19845
3467 19.07640 674.59396 678.24536 0.19879
3468 19.08000 674.87962 678.27018 0.19881
3469 19.08360 675.26251 679.04973 0.19875
3470 19.08720 675.69110 679.95866 0.19847
3471 19.09080 676.17565 681.04259 0.19809
3472 19.09440 676.75217 681.69739 0.19799
3473 19.09800 677.43885 675.89590 0.19963
3474 19.10160 678.25827 679.99947 0.19838
3475 19.10520 679.23849 679.64795 0.19838
3476 19.10880 680.41431 678.68362 0.19867
3477 19.11240 681.82881 682.09295 0.19771
3478 19.11600 683.53473 687.19342 0.19635
3479 19.11960 685.59574 684.86109 0.19665
3480 19.12320 688.08634 689.69369 0.19503
3481 19.12680 691.08896 691.96835 0.19473
3482 19.13040 694.68488 697.52839 0.19361
3483 19.13400 698.38932 698.55738 0.19340
3484 19.13760 703.22691 700.89695 0.19271
3485 19.14120 708.64035 702.32448 0.19202
3486 19.14480 714.20758 704.79539 0.19134
3487 19.14840 719.28525 701.54075 0.19238
3488 19.15200 723.00230 700.46018 0.19251
3489 19.15560 724.51798 697.25057 0.19357
3490 19.15920 723.43049 693.68067 0.19438
3491 19.16280 719.99798 692.28784 0.19481
3492 19.16640 714.99112 685.66849 0.19672
3493 19.17000 709.30600 682.26612 0.19794
3494 19.17360 703.65150 682.44376 0.19780
3495 19.17720 698.44837 680.14466 0.19846
3496 19.18080 693.87615 676.60929 0.19958
3497 19.18440 689.96269 674.23910 0.20009
3498 19.18800 686.65913 676.24166 0.19944
3499 19.19160 683.88712 676.79995 0.19939
3500 19.19520 681.56243 676.49129 0.19969
3501 19.19880 679.60876 677.61712 0.19881
3502 19.20240 677.95983 673.16195 0.20001
3503 19.20600 676.56040 672.48199 0.20024
3504 19.20960 675.36526 673.25418 0.20043
3505 19.21320 674.33778 672.66905 0.20090
3506 19.21680 673.44845 673.78498 0.20052
3507 19.22040 672.67351 673.01427 0.20058
3508 19.22400 671.99383 670.17352 0.20113
3509 19.22760 671.39392 673.13821 0.20051
3510 19.23120 670.86126 671.46892 0.20085
3511 19.23480 670.38561 670.85076 0.20131
3512 19.23840 669.95859 670.90830 0.20117
3513 19.24200 669.57328 673.19970 0.20051
3514 19.24560 669.22395 673.85409 0.20013
3515 19.24920 668.90581 671.47507 0.20111
3516 19.25280 668.61486 672.59258 0.20080
3517 19.25640 668.34769 670.15286 0.20138
3518 19.26000 668.10144 671.18692 0.20104
3519 19.26360 667.87366 670.40196 0.20130
3520 19.26720 667.66225 667.94382 0.20166
3521 19.27080 667.46543 668.64388 0.20175
3522 19.27440 667.28163 672.20488 0.20075
3523 19.27800 667.10952 671.19546 0.20084
3524 19.28160 666.94792 669.61669 0.20094
3525 19.28520 666.79581 672.95218 0.20008
3526 19.28880 666.65231 672.22577 0.20057
3527 19.29240 666.51662 669.34623 0.20188
3528 19.29600 666.38805 672.79387 0.20081
3529 19.29960 666.26600 672.89325 0.20062
3530 19.30320 666.14993 672.53623 0.20049
3531 19.30680 666.03934 673.26837 0.20035
3532 19.31040 665.93382 670.61500 0.20117
3533 19.31400 665.83298 669.86047 0.20159
3534 19.31760 665.73648 670.04452 0.20138
3535 19.32120 665.64400 671.25107 0.20095
3536 19.32480 665.55528 673.33584 0.20014
3537 19.32840 665.47006 671.41477 0.20087
3538 19.33200 665.38812 670.95197 0.20133
3539 19.33560 665.30925 671.03391 0.20121
3540 19.33920 665.23326 668.91201 0.20177
3541 19.34280 665.16000 669.20978 0.20174
3542 19.34640 664.42561 670.03219 0.20111
3543 19.35000 662.13845 672.37152 0.20042
3544 19.35360 661.14290 669.66952 0.20128
3545 19.35720 661.10648 669.97111 0.20123
3546 19.36080 661.07184 670.04297 0.20092
3547 19.36440 661.03889 669.65815 0.20100
3548 19.36800 661.00754 671.72763 0.20054
3549 19.37160 660.97770 671.28195 0.20119
3550 19.37520 660.94932 671.61999 0.20104
3551 19.37880 660.92231 673.52637 0.20040
3552 19.38240 660.89663 671.10599 0.20095
3553 19.38600 660.87221 669.36724 0.20146
3554 19.38960 660.84900 668.97482 0.20173
3555 19.39320 660.82695 668.71544 0.20181
3556 19.39680 660.80603 670.00193 0.20137
3557 19.40040 660.78618 668.16297 0.20191
3558 19.40400 660.76738 669.73003 0.20122
3559 19.40760 660.74958 669.57134 0.20121
3560 19.41120 660.73276 670.57713 0.20127
3561 19.41480 660.71688 668.70637 0.20181
3562 19.41840 660.70192 669.26412 0.20167
3563 19.42200 660.68786 671.20628 0.20107
3564 19.42560 660.67467 667.36154 0.20191
3565 19.42920 660.66233 669.84280 0.20119
3566 19.43280 660.65082 669.51247 0.20133
3567 19.43640 660.64012 670.47367 0.20131
3568 19.44000 660.63022 669.89256 0.20114
3569 19.44360 660.62111 671.94933 0.20034
3570 19.44720 660.61276 672.42563 0.20043
3571 19.45080 660.60517 671.44874 0.20106
3572 19.45440 660.59833 671.73050 0.20103
3573 19.45800 660.59222 672.77337 0.20053
3574 19.46160 660.92999 670.46066 0.20113
3575 19.46520 660.98006 668.90767 0.20162
3576 19.46880 660.97706 669.91887 0.20154
3577 19.47240 660.97477 667.98450 0.20185
3578 19.47600 660.97320 671.47035 0.20085
3579 19.47960 660.97232 672.58632 0.20047
3580 19.48320 660.97216 672.50831 0.20040
3581 19.48680 660.97269 668.62665 0.20145
3582 19.49040 660.97393 669.74017 0.20141
3583 19.49400 660.97587 672.40571 0.20076
3584 19.49760 660.97851 671.90148 0.20093
3585 19.50120 660.98187 671.72437 0.20096
3586 19.50480 660.98593 669.54802 0.20138
3587 19.50840 660.99070 671.55847 0.20066
3588 19.51200 660.99620 673.20712 0.20020
3589 19.51560 661.00242 672.16703 0.20072
3590 19.51920 661.00938 671.15649 0.20078
3591 19.52280 661.01708 670.34525 0.20091
3592 19.52640 661.02553 671.91491 0.20047
3593 19.53000 661.03474 671.20058 0.20093
3594 19.53360 661.04473 676.08764 0.19965
3595 19.53720 661.05550 676.61419 0.19948
3596 19.54080 661.06708 675.71953 0.19953
3597 19.54440 661.07948 678.36662 0.19877
3598 19.54800 661.09271 678.71407 0.19884
3599 19.55160 661.10680 676.21209 0.19924
3600 19.55520 661.12177 678.68796 0.19857
3601 19.55880 661.13763 679.85787 0.19831
3602 19.56240 661.15442 680.37140 0.19808
3603 19.56600 661.17216 679.06829 0.19830
3604 19.56960 661.19087 677.32997 0.19905
3605 19.57320 661.21060 679.39185 0.19873
3606 19.57680 661.23137 676.32425 0.19962
3607 19.58040 661.25322 674.59907 0.20015
3608 19.58400 661.27618 670.10427 0.20120
3609 19.58760 661.30031 669.74825 0.20127
3610 19.59120 661.32565 669.81734 0.20114
3611 19.59480 661.35225 668.05441 0.20185
3612 19.59840 661.38016 669.74887 0.20126
3613 19.60200 661.40944 672.17024 0.20041
3614 19.60560 661.44016 667.32496 0.20180
3615 19.60920 661.47238 667.49976 0.20173
3616 19.61280 661.50618 666.66517 0.20233
3617 19.61640 661.54164 666.57270 0.20226
3618 19.62000 661.57885 666.58596 0.20203
3619 19.62360 661.61791 667.19252 0.20199
3620 19.62720 661.65893 670.12672 0.20116
3621 19.63080 661.70201 672.23057 0.20027
3622 19.63440 661.74730 668.30124 0.20132
3623 19.63800 661.79491 669.42426 0.20133
3624 19.64160 661.84502 667.93993 0.20171
3625 19.64520 661.89777 663.19166 0.20298
3626 19.64880 661.95337 664.05566 0.20279
3627 19.65240 662.01201 667.32501 0.20221
3628 19.65600 662.07391 669.42249 0.20158
3629 19.65960 662.13933 669.57982 0.20149
3630 19.66320 662.20854 666.82974 0.20218
3631 19.66680 662.28183 666.34663 0.20220
3632 19.67040 662.35957 668.88383 0.20151
3633 19.67400 662.44211 667.71159 0.20179
3634 19.67760 662.52989 668.56345 0.20166
3635 19.68120 662.62338 668.04134 0.20175
3636 19.68480 662.72311 669.66510 0.20117
3637 19.68840 662.82969 670.62173 0.20086
3638 19.69200 662.94379 666.85135 0.20210
3639 19.69560 663.06618 667.16095 0.20194
3640 19.69920 663.32036 666.45632 0.20196
3641 19.70280 663.67024 669.19129 0.20123
3642 19.70640 663.82408 667.26732 0.20204
3643 19.71000 663.99051 666.94249 0.20207
3644 19.71360 664.17105 663.47418 0.20280
3645 19.71720 664.36741 666.46698 0.20228
3646 19.72080 664.58160 668.98573 0.20146
3647 19.72440 664.81597 667.89083 0.20152
3648 19.72800 665.07325 668.25833 0.20140
3649 19.73160 665.35664 669.35979 0.20162
3650 19.73520 665.66994 669.78089 0.20150
3651 19.73880 666.01763 669.00058 0.20158
3652 19.74240 666.40508 666.15588 0.20235
3653 19.74600 666.83870 669.16689 0.20137
3654 19.74960 667.32624 667.56556 0.20185
3655 19.75320 667.87709 665.68378 0.20222
3656 19.75680 668.50271 667.99341 0.20182
3657 19.76040 669.21717 668.27081 0.20161
3658 19.76400 670.03779 666.32622 0.20227
3659 19.76760 670.98604 667.31854 0.20190
3660 19.77120 672.08854 667.56562 0.20188
3661 19.77480 673.37837 666.98629 0.20206
3662 19.77840 674.89652 665.17275 0.20236
3663 19.78200 676.69357 669.17775 0.20126
3664 19.78560 678.83121 668.90237 0.20144
3665 19.78920 681.38327 665.71670 0.20245
3666 19.79280 684.43490 668.74369 0.20135
3667 19.79640 688.07779 669.49364 0.20110
3668 19.80000 692.39680 673.04148 0.20023
3669 19.80360 697.44100 674.59851 0.19966
3670 19.80720 703.16971 675.89592 0.19914
3671 19.81080 709.36828 675.73615 0.19945
3672 19.81440 715.55091 677.53582 0.19921
3673 19.81800 720.91793 680.93213 0.19805
3674 19.82160 724.48373 680.37364 0.19808
3675 19.82520 725.43373 679.72472 0.19818
3676 19.82880 723.54006 680.73504 0.19798
3677 19.83240 719.29472 680.84457 0.19749
3678 19.83600 713.63246 681.48433 0.19761
3679 19.83960 707.50025 676.08148 0.19934
3680 19.84320 701.58294 671.57557 0.20064
3681 19.84680 696.25473 670.96039 0.20085
3682 19.85040 691.65489 672.75663 0.20042
3683 19.85400 687.78475 672.05969 0.20064
3684 19.85760 684.58054 672.39913 0.20040
3685 19.86120 681.95664 672.27950 0.20027
3686 19.86480 679.82705 668.40078 0.20166
3687 19.86840 678.11373 669.52143 0.20125
3688 19.87200 676.74754 671.87235 0.20057
3689 19.87560 675.66481 672.54082 0.20022
3690 19.87920 674.80176 676.02821 0.19939
3691 19.88280 674.08980 676.62099 0.19901
3692 19.88640 673.45681 677.75724 0.19866
3693 19.89000 672.83872 679.44392 0.19825
3694 19.89360 672.19732 680.88173 0.19810
3695 19.89720 671.48014 684.65217 0.19702
3696 19.90080 670.80621 693.08581 0.19448
3697 19.90440 670.17215 700.31023 0.19234
3698 19.90800 669.59701 705.41022 0.19124
3699 19.91160 669.09370 713.40471 0.18864
3700 19.91520 668.66332 720.28923 0.18692
3701 19.91880 668.29834 727.46930 0.18535
3702 19.92240 667.98537 740.23688 0.18222
3703 19.92600 667.70800 738.93219 0.18227
3704 19.92960 667.45075 742.05461 0.18165
3705 19.93320 667.20358 746.53776 0.18071
3706 19.93680 666.96418 745.67006 0.18071
3707 19.94040 666.73615 743.12188 0.18109
3708 19.94400 666.52486 733.03838 0.18375
3709 19.94760 666.33431 721.94135 0.18679
3710 19.95120 666.16600 714.03921 0.18890
3711 19.95480 666.01948 705.41113 0.19087
3712 19.95840 665.89309 692.94129 0.19451
3713 19.96200 665.78475 689.12024 0.19551
3714 19.96560 665.69231 683.75689 0.19701
3715 19.96920 665.61377 681.54840 0.19763
3716 19.97280 665.54738 679.85557 0.19830
3717 19.97640 665.49162 674.29036 0.19991
3718 19.98000 665.44520 672.45114 0.20043
3719 19.98360 665.40702 671.68885 0.20049
3720 19.98720 665.37618 670.50889 0.20120
3721 19.99080 665.35186 668.80392 0.20147
3722 19.99440 665.33342 670.14690 0.20096
3723 19.99800 665.32027 671.65444 0.20075
3724 20.00160 665.31192 667.95040 0.20197
3725 20.00520 665.30795 668.48413 0.20157
3726 20.00880 665.30798 669.09126 0.20142
3727 20.01240 665.31169 669.20313 0.20158
3728 20.01600 665.31880 667.13943 0.20218
3729 20.01960 665.32905 669.12069 0.20120
3730 20.02320 665.34222 669.58793 0.20105
3731 20.02680 665.35812 667.48724 0.20198
3732 20.03040 665.37657 667.40942 0.20217
3733 20.03400 665.39742 666.74497 0.20224
3734 20.03760 665.42051 666.39078 0.20233
3735 20.04120 665.44572 667.69666 0.20180
3736 20.04480 665.47294 667.98539 0.20178
3737 20.04840 665.50206 669.40956 0.20124
3738 20.05200 665.53298 670.35772 0.20113
3739 20.05560 665.56564 669.24307 0.20145
3740 20.05920 665.59993 667.86316 0.20197
3741 20.06280 665.63580 668.29127 0.20166
3742 20.06640 665.67317 669.95861 0.20131
3743 20.07000 665.71200 670.79196 0.20102
3744 20.07360 665.75222 668.88440 0.20134
3745 20.07720 665.79378 670.09477 0.20122
3746 20.08080 665.83665 670.16777 0.20130
3747 20.08440 665.88077 665.73856 0.20250
3748 20.08800 665.92612 665.34751 0.20256
3749 20.09160 665.97265 668.44461 0.20183
3750 20.09520 666.02033 666.97580 0.20230
3751 20.09880 666.06913 666.91324 0.20206
3752 20.10240 666.11903 668.39923 0.20143
3753 20.10600 666.17000 667.66767 0.20191
3754 20.10960 666.22202 666.65625 0.20246
3755 20.11320 666.27507 667.13856 0.20234
3756 20.11680 666.32913 667.70061 0.20200
3757 20.12040 666.38417 668.30547 0.20181
3758 20.12400 666.44019 669.43571 0.20146
3759 20.12760 666.49717 669.31848 0.20143
3760 20.13120 666.62633 668.34453 0.20179
3761 20.13480 669.71930 669.05819 0.20146
3762 20.13840 669.79957 671.39525 0.20084
3763 20.14200 669.88095 669.07386 0.20132
3764 20.14560 669.96343 668.51091 0.20163
3765 20.14920 670.04703 666.60517 0.20234
3766 20.15280 670.13172 667.47574 0.20190
3767 20.15640 670.21751 668.96472 0.20150
3768 20.16000 670.30439 668.41973 0.20180
3769 20.16360 670.39237 669.19478 0.20152
3770 20.16720 670.48143 668.61297 0.20165
3771 20.17080 670.57158 667.89110 0.20215
3772 20.17440 670.66283 671.27311 0.20119
3773 20.17800 670.75516 669.56936 0.20146
3774 20.18160 670.84859 669.49559 0.20126
3775 20.18520 670.94311 670.16666 0.20124
3776 20.18880 671.03873 671.87252 0.20091
3777 20.19240 671.13545 671.47125 0.20113
3778 20.19600 671.23327 668.97938 0.20183
3779 20.19960 671.33220 667.67515 0.20213
3780 20.20320 671.43224 669.46482 0.20144
3781 20.20680 671.53340 666.90389 0.20218
3782 20.21040 671.63568 666.84162 0.20235
3783 20.21400 671.73909 669.32441 0.20141
3784 20.21760 671.84364 665.95309 0.20248
3785 20.22120 671.94934 668.18274 0.20174
3786 20.22480 672.05618 668.34682 0.20172
3787 20.22840 672.16418 665.19009 0.20300
3788 20.23200 672.27335 667.58688 0.20200
3789 20.23560 672.38369 667.51190 0.20202
3790 20.23920 672.49522 668.58222 0.20186
3791 20.24280 672.60794 672.54229 0.20060
3792 20.24640 672.72187 664.85956 0.20294
3793 20.25000 672.83701 666.05670 0.20286
3794 20.25360 672.95338 669.40661 0.20205
3795 20.25720 673.07098 668.90303 0.20192
3796 20.26080 673.18984 668.58938 0.20173
3797 20.26440 673.30995 668.02599 0.20209
3798 20.26800 673.43133 668.83503 0.20204
3799 20.27160 673.55400 670.04917 0.20162
3800 20.27520 673.67797 670.67447 0.19067
3801 20.27880 673.80325 669.93880 0.17634
3802 20.28240 673.92986 672.20020 0.17550
3803 20.28600 674.05781 669.58036 0.18371
3804 20.28960 674.18711 669.25742 0.20172
3805 20.29320 674.31778 670.25858 0.20123
3806 20.29680 674.44984 669.31671 0.20156
3807 20.30040 674.58330 667.27118 0.20212
3808 20.30400 674.71818 666.39419 0.20239
3809 20.30760 674.85449 667.52976 0.20216
3810 20.31120 674.99225 673.86833 0.20026
3811 20.31480 675.13149 671.67321 0.20081
3812 20.31840 675.27221 673.71496 0.20038
3813 20.32200 675.41444 670.97083 0.20112
3814 20.32560 675.55820 670.97316 0.20111
3815 20.32920 675.70350 670.05791 0.20147
3816 20.33280 675.85036 670.93745 0.20171
3817 20.33640 675.99882 671.86032 0.20119
3818 20.34000 676.14888 673.48075 0.20042
3819 20.34360 676.30056 671.14792 0.20118
3820 20.34720 676.45390 671.61916 0.20111
3821 20.35080 676.60892 671.38277 0.20125
3822 20.35440 676.76562 671.82075 0.19601
3823 20.35800 676.92405 669.28434 0.17654
3824 20.36160 677.08422 674.87026 0.17487
3825 20.36520 677.24616 675.70733 0.17655
3826 20.36880 677.40989 675.49509 0.19973
3827 20.37240 677.57545 674.23830 0.20001
3828 20.37600 677.74285 673.05492 0.20044
3829 20.37960 677.91212 675.04633 0.19994
3830 20.38320 678.08329 675.48438 0.19970
3831 20.38680 678.25639 673.71212 0.20023
3832 20.39040 678.43146 673.29025 0.20057
3833 20.39400 678.72033 672.49992 0.20051
3834 20.39760 679.22197 675.24282 0.19983
3835 20.40120 679.40734 677.45276 0.19912
3836 20.40480 679.59485 676.02186 0.19951
3837 20.40840 679.78454 674.59957 0.20005
3838 20.41200 679.97645 675.43101 0.20015
3839 20.41560 680.17059 676.80915 0.19956
3840 20.41920 680.36703 676.18545 0.19950
3841 20.42280 680.56578 678.12053 0.19906
3842 20.42640 680.76689 679.26410 0.19882
3843 20.43000 680.97040 676.74915 0.19958
3844 20.43360 681.17634 677.94415 0.19842
3845 20.43720 681.38477 679.99866 0.17372
3846 20.44080 681.59571 678.44243 0.17395
3847 20.44440 681.80921 677.62267 0.17410
3848 20.44800 682.02532 679.34004 0.19612
3849 20.45160 682.24408 682.38639 0.19767
3850 20.45520 682.46553 686.63941 0.19617
3851 20.45880 682.68973 684.09707 0.19718
3852 20.46240 682.91671 685.72264 0.19666
3853 20.46600 683.14654 685.18632 0.19679
3854 20.46960 683.37925 693.52223 0.19466
3855 20.47320 683.61491 697.26635 0.19359
3856 20.47680 683.85356 702.35350 0.19203
3857 20.48040 684.09525 708.46092 0.19046
3858 20.48400 684.34005 712.96301 0.18918
3859 20.48760 684.58801 715.99786 0.18843
3860 20.49120 684.83919 724.84757 0.18633
3861 20.49480 685.09364 726.52893 0.18564
3862 20.49840 685.35144 732.07687 0.18419
3863 20.50200 685.61263 737.34912 0.18300
3864 20.50560 685.87729 738.77007 0.18289
3865 20.50920 686.14548 737.69271 0.18312
3866 20.51280 686.41727 731.53618 0.18471
3867 20.51640 686.69273 722.90468 0.16766
3868 20.52000 686.97192 714.78139 0.16578
3869 20.52360 687.25493 705.51452 0.16836
3870 20.52720 687.54183 701.76111 0.18684
3871 20.53080 687.83269 696.61209 0.19681
3872 20.53440 688.12759 691.17865 0.18537
3873 20.53800 688.42661 691.02370 0.17073
3874 20.54160 688.72984 691.56079 0.17066
3875 20.54520 689.03736 691.13636 0.17067
3876 20.54880 689.34926 687.29749 0.17178
3877 20.55240 689.66562 687.37854 0.17185
3878 20.55600 689.98655 683.75760 0.17267
3879 20.55960 690.31213 684.54632 0.17238
3880 20.56320 690.64246 686.04760 0.17191
3881 20.56680 690.91707 684.75353 0.17250
3882 20.57040 691.25572 684.55618 0.17254
3883 20.57400 691.60151 682.91628 0.17290
3884 20.57760 691.95246 690.88921 0.17074
3885 20.58120 692.30869 685.44808 0.17233
3886 20.58480 692.67029 688.47020 0.17176
3887 20.58840 693.03741 689.29902 0.17148
3888 20.59200 693.90184 688.01620 0.17174
3889 20.59560 694.94860 688.34974 0.15665
3890 20.59920 695.34433 686.37750 0.14805
3891 20.60280 695.74623 691.32284 0.14726
3892 20.60640 696.15445 689.24429 0.16029
3893 20.61000 696.56914 689.52981 0.17399
3894 20.61360 696.99043 691.12545 0.16730
3895 20.61720 697.41847 687.65636 0.14704
3896 20.62080 697.85344 691.24790 0.14648
3897 20.62440 698.29548 695.87721 0.14534
3898 20.62800 698.74476 693.21378 0.14593
3899 20.63160 699.20025 692.56499 0.14626
3900 20.63520 699.66300 690.91531 0.14648
3901 20.63880 700.13508 691.25752 0.14638
3902 20.64240 700.61512 693.82279 0.14577
3903 20.64600 701.10330 697.41441 0.14514
3904 20.64960 701.59983 695.26066 0.14557
3905 20.65320 702.10491 693.10017 0.14611
3906 20.65680 702.61875 695.96270 0.14517
3907 20.66040 703.14157 698.25479 0.14499
3908 20.66400 703.67360 697.01629 0.14551
3909 20.66760 704.21506 696.14154 0.14561
3910 20.67120 704.76587 695.61940 0.14556
3911 20.67480 705.32667 696.98864 0.13875
3912 20.67840 705.89791 698.64021 0.12135
3913 20.68200 706.47959 700.08536 0.12130
3914 20.68560 707.07198 696.41985 0.12601
3915 20.68920 707.67537 700.38803 0.14694
3916 20.69280 708.29003 703.13725 0.14536
3917 20.69640 708.91628 702.98336 0.11976
3918 20.70000 709.55443 705.47357 0.11948
3919 20.70360 710.20479 704.81912 0.11952
3920 20.70720 710.86769 705.02011 0.11945
3921 20.71080 711.54349 702.30149 0.12009
3922 20.71440 712.23253 701.93471 0.12007
3923 20.71800 712.93518 705.10453 0.11940
3924 20.72160 713.65183 706.96902 0.11911
3925 20.72520 714.38287 710.76356 0.11859
3926 20.72880 715.12870 712.27628 0.13385
3927 20.73240 715.88975 708.39928 0.14613
3928 20.73600 716.66646 708.80603 0.14439
3929 20.73960 717.45928 707.71505 0.14402
3930 20.74320 718.26869 711.54349 0.14312
3931 20.74680 719.09517 711.70797 0.14274
3932 20.75040 719.93923 708.67011 0.14296
3933 20.75400 720.80139 712.03210 0.14102
3934 20.75760 721.68221 715.07716 0.11843
3935 20.76120 722.58225 716.81613 0.11825
3936 20.76480 723.50209 719.45765 0.11828
3937 20.76840 724.44235 720.84983 0.14046
3938 20.77200 725.40367 716.95049 0.14454
3939 20.77560 726.38670 716.63088 0.12073
3940 20.77920 727.39214 723.50776 0.11636
3941 20.78280 728.42069 718.36193 0.11732
3942 20.78640 729.47310 722.63919 0.11660
3943 20.79000 730.55015 727.09545 0.11597
3944 20.79360 731.65263 724.98551 0.11626
3945 20.79720 732.78139 722.80357 0.11663
3946 20.80080 733.93730 724.68772 0.11626
3947 20.80440 735.68592 732.76829 0.11502
3948 20.80800 736.90524 733.19866 0.12395
3949 20.81160 738.15061 731.45119 0.14170
3950 20.81520 739.42702 735.96816 0.13919
3951 20.81880 740.73556 741.89378 0.13728
3952 20.82240 742.07734 740.74248 0.13728
3953 20.82600 743.45355 740.84064 0.13717
3954 20.82960 744.86539 740.57731 0.13687
3955 20.83320 746.31417 739.48776 0.13718
3956 20.83680 747.80121 741.22445 0.11835
3957 20.84040 749.32792 745.39437 0.11353
3958 20.84400 750.89576 745.98365 0.11389
3959 20.84760 752.50627 746.71862 0.12980
3960 20.85120 754.16105 750.34523 0.13778
3961 20.85480 755.86179 752.33689 0.12054
3962 20.85840 757.61026 751.24304 0.11206
3963 20.86200 759.40829 762.68490 0.11040
3964 20.86560 761.25784 761.00806 0.11068
3965 20.86920 763.16093 757.25026 0.11118
3966 20.87280 765.11971 758.64891 0.11107
3967 20.87640 767.13643 765.13262 0.11024
3968 20.88000 769.21343 765.17963 0.11004
3969 20.88360 771.35321 766.83760 0.10980
3970 20.88720 773.55838 772.39329 0.11316
3971 20.89080 775.74718 776.87539 0.13360
3972 20.89440 778.08283 783.85123 0.13083
3973 20.89800 780.50152 780.85126 0.13039
3974 20.90160 782.99750 783.62467 0.12973
3975 20.90520 785.57418 783.04071 0.12962
3976 20.90880 788.23513 783.55099 0.12932
3977 20.91240 790.98415 787.52428 0.12891
3978 20.91600 793.82523 795.28028 0.12750
3979 20.91960 796.76261 800.57257 0.12674
3980 20.92320 799.80077 804.27393 0.12645
3981 20.92680 802.94445 802.46847 0.12731
3982 20.93040 806.21126 808.19698 0.12734
3983 20.93400 809.71643 811.77053 0.12002
3984 20.93760 813.20848 815.44518 0.10333
3985 20.94120 816.82809 820.09393 0.10276
3986 20.94480 820.58167 825.93078 0.10212
3987 20.94840 824.47603 832.82026 0.10115
3988 20.95200 828.51842 829.24728 0.10153
3989 20.95560 832.71657 836.07931 0.10085
3990 20.95920 837.07875 840.50775 0.10030
3991 20.96280 841.61377 847.17921 0.09940
3992 20.96640 846.33106 854.54321 0.09868
3993 20.97000 851.24073 861.25482 0.11984
3994 20.97360 856.35360 870.45831 0.11808
3995 20.97720 861.68130 874.18740 0.11661
3996 20.98080 867.23629 881.13963 0.11533
3997 20.98440 873.03203 883.73467 0.11495
3998 20.98800 879.08298 894.73352 0.11337
3999 20.99160 885.40476 896.62752 0.11321
4000 20.99520 892.01424 905.36699 0.11201
4001 20.99880 898.92969 909.82915 0.11152
4002 21.00240 906.17089 919.96083 0.11051
4003 21.00600 913.75932 930.69574 0.10982
4004 21.00960 921.71837 941.63370 0.10902
4005 21.01320 930.07349 951.91886 0.10676
4006 21.01680 938.85248 958.65893 0.08793
4007 21.02040 948.08574 968.11845 0.08704
4008 21.02400 957.80662 974.10788 0.08657
4009 21.02760 968.05175 980.52325 0.08601
4010 21.03120 978.86148 996.37724 0.08461
4011 21.03480 990.28039 1002.87249 0.08417
4012 21.03840 1002.35785 1018.23042 0.08293
4013 21.04200 1015.14872 1034.46779 0.08148
4014 21.04560 1028.71418 1045.78335 0.08067
4015 21.04920 1043.12270 1060.44524 0.09350
4016 21.05280 1058.45125 1071.63077 0.09627
4017 21.05640 1074.78675 1084.93843 0.09415
4018 21.06000 1092.22782 1101.87631 0.09236
4019 21.06360 1110.91608 1109.59898 0.09158
4020 21.06720 1131.03003 1132.33197 0.08963
4021 21.07080 1152.53509 1146.34566 0.08855
4022 21.07440 1175.71110 1168.34013 0.08689
4023 21.07800 1200.76185 1193.51096 0.08505
4024 21.08160 1227.92763 1211.08044 0.08394
4025 21.08520 1257.49332 1235.39487 0.08268
4026 21.08880 1289.79804 1265.06516 0.08106
4027 21.09240 1325.24638 1290.09213 0.08032
4028 21.09600 1364.32038 1326.22495 0.06571
4029 21.09960 1407.83576 1358.35510 0.06208
4030 21.10320 1456.55886 1395.46820 0.06041
4031 21.10680 1510.30534 1448.15542 0.05830
4032 21.11040 1570.46049 1503.60825 0.05603
4033 21.11400 1637.75804 1574.62265 0.04835
4034 21.11760 1712.64299 1648.77320 0.04237
4035 21.12120 1794.86355 1734.44883 0.04634
4036 21.12480 1882.86571 1813.27073 0.03990
4037 21.12840 1973.16384 1898.72098 0.04729
4038 21.13200 2060.23097 1977.98392 0.04337
4039 21.13560 2137.70228 2053.70225 0.04945
4040 21.13920 2201.04473 2125.00954 0.04787
4041 21.14280 2250.17660 2184.78062 0.04645
4042 21.14640 2289.78830 2228.03621 0.04546
4043 21.15000 2327.06350 2254.58871 0.04498
4044 21.15360 2368.85106 2279.53324 0.04441
4045 21.15720 2420.13386 2295.95854 0.04402
4046 21.16080 2483.93874 2308.83749 0.04374
4047 21.16440 2561.92556 2336.10775 0.04327
4048 21.16800 2655.02693 2395.73418 0.04150
4049 21.17160 2763.89851 2486.86911 0.03588
4050 21.17520 2889.16955 2597.15857 0.03195
4051 21.17880 3031.55094 2741.66639 0.02484
4052 21.18240 3191.85368 2915.64062 0.02303
4053 21.18600 3370.94795 3117.84051 0.01671
4054 21.18960 3569.67095 3369.42860 0.01535
4055 21.19320 3788.67231 3650.02805 0.01318
4056 21.19680 4028.16674 3994.34083 0.00995
4057 21.20040 4287.54614 4371.41798 0.00970
4058 21.20400 4564.79210 4758.40233 0.00892
4059 21.20760 4855.65730 5167.26898 0.00884
4060 21.21120 5152.62617 5527.53752 0.00922
4061 21.21480 5443.66021 5899.07734 0.01054
4062 21.21840 5711.93450 6210.12628 0.01208
4063 21.22200 5936.23184 6447.28178 0.01564
4064 21.22560 6093.68483 6546.28747 0.01798
4065 21.22920 6164.54541 6545.10361 0.01799
4066 21.23280 6137.68133 6388.94383 0.01397
4067 21.23640 6014.26359 6118.16895 0.01086
4068 21.24000 5807.57108 5734.43132 0.00877
4069 21.24360 5539.00504 5286.70590 0.00874
4070 21.24720 5232.49610 4845.00881 0.00924
4071 21.25080 4909.80647 4418.25177 0.01026
4072 21.25440 4587.98956 4038.78896 0.01271
4073 21.25800 4278.86679 3717.17782 0.01450
4074 21.26160 3989.71605 3442.36746 0.01785
4075 21.26520 3724.39680 3219.93209 0.02232
4076 21.26880 3484.44161 3027.26249 0.02516
4077 21.27240 3269.92537 2867.39264 0.02903
4078 21.27600 3080.08935 2734.21336 0.03740
4079 21.27960 2913.76463 2638.17230 0.04173
4080 21.28320 2769.65332 2550.86811 0.04618
4081 21.28680 2646.51663 2508.10780 0.04701
4082 21.29040 2543.30414 2480.43752 0.05493
4083 21.29400 2459.24516 2460.92497 0.05541
4084 21.29760 2393.91075 2455.67543 0.05521
4085 21.30120 2347.24250 2467.14369 0.05481
4086 21.30480 2319.52724 2484.90043 0.05429
4087 21.30840 2311.26895 2501.42091 0.05393
4088 21.31200 2322.86682 2513.01937 0.05372
4089 21.31560 2353.95539 2519.13151 0.05350
4090 21.31920 2402.24418 2511.40722 0.05361
4091 21.32280 2461.84231 2482.28634 0.05422
4092 21.32640 2521.60560 2436.22423 0.05530
4093 21.33000 2565.05731 2368.79064 0.05553
4094 21.33360 2573.97690 2287.67608 0.05885
4095 21.33720 2535.72952 2217.98651 0.06077
4096 21.34080 2449.87499 2142.12992 0.05713
4097 21.34440 2328.23956 2068.84922 0.06519
4098 21.34800 2188.37270 2009.35947 0.06711
4099 21.35160 2046.15612 1945.32602 0.06644
4100 21.35520 1912.11198 1868.13762 0.06908
4101 21.35880 1791.41288 1781.95739 0.06501
4102 21.36240 1685.50592 1687.28084 0.06776
4103 21.36600 1593.77885 1595.98564 0.07490
4104 21.36960 1514.71550 1503.89995 0.07277
4105 21.37320 1446.55033 1416.44576 0.08836
4106 21.37680 1387.58592 1346.24947 0.10001
4107 21.38040 1336.32025 1287.77337 0.10456
4108 21.38400 1291.49370 1243.31112 0.10827
4109 21.38760 1255.66524 1211.35008 0.11126
4110 21.39120 1220.71049 1176.90608 0.11474
4111 21.39480 1189.54496 1144.50833 0.11796
4112 21.39840 1161.59079 1125.23775 0.11977
4113 21.40200 1136.37617 1107.28997 0.12174
4114 21.40560 1113.51451 1091.50480 0.12368
4115 21.40920 1092.68754 1077.08595 0.12523
4116 21.41280 1073.63169 1057.34335 0.12742
4117 21.41640 1056.12726 1040.91862 0.12963
4118 21.42000 1039.98987 1028.19283 0.13119
4119 21.42360 1025.06377 1018.19233 0.13244
4120 21.42720 1011.21647 1004.51455 0.13432
4121 21.43080 998.33460 991.63650 0.13593
4122 21.43440 986.32053 982.54104 0.13712
4123 21.43800 975.08975 973.63577 0.13851
4124 21.44160 964.56867 966.20388 0.13946
4125 21.44520 954.69293 956.23642 0.14087
4126 21.44880 945.40596 947.91134 0.14216
4127 21.45240 936.65782 940.61140 0.14321
4128 21.45600 928.40426 929.31265 0.14494
4129 21.45960 920.60587 928.72654 0.14506
4130 21.46320 913.22746 915.40607 0.14711
4131 21.46680 906.23751 910.80037 0.14802
4132 21.47040 899.60764 905.32569 0.14902
4133 21.47400 893.31226 895.01571 0.15075
4134 21.47760 887.32823 888.41007 0.15176
4135 21.48120 881.63454 889.25983 0.15160
4136 21.48480 876.21208 883.72011 0.15277
4137 21.48840 871.04343 874.36967 0.15431
4138 21.49200 866.11265 864.27653 0.15585
4139 21.49560 861.40515 864.17440 0.15595
4140 21.49920 856.90754 860.18163 0.15674
4141 21.50280 852.60749 854.99307 0.15752
4142 21.50640 848.49363 850.35337 0.15856
4143 21.51000 844.55550 849.97867 0.15851
4144 21.51360 840.78338 845.27980 0.15933
4145 21.51720 837.16829 840.05210 0.16038
4146 21.52080 833.70191 834.05752 0.16153
4147 21.52440 830.37648 837.13929 0.16082
4148 21.52800 827.18482 832.72979 0.16178
4149 21.53160 824.12021 826.93324 0.16293
4150 21.53520 821.17641 821.88342 0.16384
4151 21.53880 818.34758 822.07935 0.16392
4152 21.54240 815.62825 821.13051 0.16394
4153 21.54600 813.01335 813.72202 0.16550
4154 21.54960 810.49808 811.15863 0.16614
4155 21.55320 808.07798 805.15512 0.16750
4156 21.55680 805.74885 807.60603 0.16683
4157 21.56040 803.50677 806.72757 0.16692
4158 21.56400 801.34803 803.20335 0.16798
4159 21.56760 799.26918 801.24467 0.16841
4160 21.57120 797.26695 798.82459 0.16871
4161 21.57480 795.33829 792.84096 0.16990
4162 21.57840 793.48031 792.91628 0.17000
4163 21.58200 791.69033 794.29592 0.16955
4164 21.58560 789.96579 791.61766 0.17027
4165 21.58920 788.30431 788.88645 0.17072
4166 21.59280 786.70365 785.38180 0.17161
4167 21.59640 785.16171 786.38191 0.17128
4168 21.60000 783.67653 783.04535 0.17202
4169 21.60360 782.24624 784.56290 0.17150
4170 21.60720 780.86915 779.21647 0.17279
4171 21.61080 779.54363 778.31972 0.17307
4172 21.61440 778.26819 778.19623 0.17302
4173 21.61800 777.04145 777.08240 0.17342
4174 21.62160 775.86213 776.15604 0.17358
4175 21.62520 774.72907 774.23626 0.17383
4176 21.62880 773.64119 770.06722 0.17497
4177 21.63240 772.59753 769.74919 0.17522
4178 21.63600 771.59723 767.89861 0.17560
4179 21.63960 770.63955 767.10208 0.17553
4180 21.64320 769.72384 767.02069 0.17570
4181 21.64680 768.84958 768.41075 0.17559
4182 21.65040 768.01634 767.39497 0.17575
4183 21.65400 767.22386 765.46831 0.17593
4184 21.65760 766.47196 761.03520 0.17714
4185 21.66120 765.76063 762.66269 0.17670
4186 21.66480 765.09002 765.65359 0.17613
4187 21.66840 764.46041 764.12051 0.17632
4188 21.67200 764.78881 762.95573 0.17649
4189 21.67560 764.37211 761.99731 0.17669
4190 21.67920 763.87162 758.90756 0.17751
4191 21.68280 763.41541 756.18565 0.17795
4192 21.68640 763.00496 758.47523 0.17742
4193 21.69000 762.64208 758.35544 0.17752
4194 21.69360 762.32896 757.06508 0.17783
4195 21.69720 762.06824 754.63550 0.17863
4196 21.70080 761.86310 757.30630 0.17793
4197 21.70440 761.71733 757.31571 0.17773
4198 21.70800 761.63546 755.91167 0.17829
4199 21.71160 761.62287 756.23599 0.17838
4200 21.71520 761.69729 754.28315 0.17887
4201 21.71880 761.84414 753.14544 0.17883
4202 21.72240 762.08356 751.47727 0.17944
4203 21.72600 762.42682 749.45759 0.17997
4204 21.72960 762.88733 750.73848 0.17962
4205 21.73320 763.48138 750.21216 0.17945
4206 21.73680 764.22881 755.05337 0.17853
4207 21.74040 765.15391 757.16144 0.17805
4208 21.74400 766.28657 760.67371 0.17714
4209 21.74760 767.66369 757.33046 0.17790
4210 21.75120 769.33099 758.96459 0.17738
4211 21.75480 771.34530 761.90328 0.17667
4212 21.75840 773.77715 761.78865 0.17685
4213 21.76200 776.71402 764.65923 0.17605
4214 21.76560 780.26375 767.39487 0.17535
4215 21.76920 784.55782 769.69441 0.17489
4216 21.77280 789.75340 774.51113 0.17385
4217 21.77640 796.03161 781.18906 0.17269
4218 21.78000 803.58708 791.43376 0.17028
4219 21.78360 812.59964 807.55932 0.16667
4220 21.78720 823.17275 823.73855 0.16353
4221 21.79080 835.21932 833.91211 0.16164
4222 21.79440 848.28399 851.47279 0.15843
4223 21.79800 861.35341 869.01293 0.15494
4224 21.80160 872.70026 883.33265 0.15246
4225 21.80520 880.24448 892.18258 0.15105
4226 21.80880 882.23834 897.35665 0.15012
4227 21.81240 878.16537 904.13348 0.14875
4228 21.81600 869.03936 899.28022 0.14984
4229 21.81960 856.83439 888.76967 0.15166
4230 21.82320 843.57281 874.31759 0.15403
4231 21.82680 830.73095 854.67207 0.15760
4232 21.83040 819.12349 833.08687 0.16143
4233 21.83400 809.05844 816.79987 0.16473
4234 21.83760 800.54274 804.43275 0.16740
4235 21.84120 793.43895 798.52064 0.16855
4236 21.84480 787.55950 792.66395 0.16963
4237 21.84840 782.71480 780.44355 0.17235
4238 21.85200 778.73416 780.92610 0.17235
4239 21.85560 775.47260 773.96843 0.17410
4240 21.85920 772.81094 770.89817 0.17474
4241 21.86280 770.65331 771.11538 0.17456
4242 21.86640 768.92390 770.10337 0.17482
4243 21.87000 767.56372 767.75674 0.17548
4244 21.87360 766.52793 762.56329 0.17678
4245 21.87720 765.78356 763.66900 0.17637
4246 21.88080 765.19641 762.23751 0.17660
4247 21.88440 764.66023 764.94761 0.17624
4248 21.88800 764.69358 764.58974 0.17619
4249 21.89160 764.98299 765.60987 0.17566
4250 21.89520 765.53292 760.93708 0.17690
4251 21.89880 766.36743 762.55400 0.17670
4252 21.90240 767.51724 764.14234 0.17620
4253 21.90600 769.02465 766.24499 0.17587
4254 21.90960 770.94538 778.33098 0.17279
4255 21.91320 773.35015 781.27959 0.17204
4256 21.91680 776.32577 786.59400 0.17105
4257 21.92040 779.97397 795.80176 0.16907
4258 21.92400 784.40536 804.75500 0.16691
4259 21.92760 789.72287 811.19870 0.16562
4260 21.93120 795.98605 823.06783 0.16339
4261 21.93480 803.14452 835.71503 0.16108
4262 21.93840 810.93396 843.10183 0.15967
4263 21.94200 818.75479 847.09755 0.15885
4264 21.94560 825.61468 850.31563 0.15824
4265 21.94920 830.27821 851.13698 0.15826
4266 21.95280 831.70248 849.21639 0.15875
4267 21.95640 829.56035 843.34844 0.15972
4268 21.96000 824.42871 829.34984 0.16219
4269 21.96360 817.46262 815.13382 0.16528
4270 21.96720 809.85727 803.69829 0.16747
4271 21.97080 802.49095 792.92023 0.16954
4272 21.97440 795.85123 786.83631 0.17091
4273 21.97800 790.12418 776.15495 0.17355
4274 21.98160 785.31571 776.42712 0.17337
4275 21.98520 781.34482 774.09051 0.17395
4276 21.98880 778.09982 766.05655 0.17563
4277 21.99240 775.46720 763.96953 0.17600
4278 21.99600 773.34422 766.07839 0.17585
4279 21.99960 771.64297 768.57591 0.17514
4280 22.00320 770.29046 766.51875 0.17524
4281 22.00680 769.22708 763.02922 0.17605
4282 22.01040 768.40459 761.10038 0.17669
4283 22.01400 767.78413 763.89203 0.17613
4284 22.01760 767.33444 761.31253 0.17674
4285 22.02120 767.03032 761.25892 0.17678
4286 22.02480 766.85146 764.79817 0.17585
4287 22.02840 766.78141 765.17856 0.17596
4288 22.03200 766.80679 765.20102 0.17603
4289 22.03560 766.91669 764.53202 0.17616
4290 22.03920 767.10216 768.28944 0.17507
4291 22.04280 767.35583 768.45703 0.17521
4292 22.04640 767.67163 771.14419 0.17456
4293 22.05000 768.04453 771.76768 0.17418
4294 22.05360 768.47037 769.56640 0.17474
4295 22.05720 768.94569 768.04956 0.17533
4296 22.06080 769.46764 768.78184 0.17515
4297 22.06440 770.03386 768.90742 0.17511
4298 22.06800 770.64242 772.92912 0.17411
4299 22.07160 771.29174 773.59914 0.17390
4300 22.07520 771.98055 772.12075 0.17450
4301 22.07880 772.21727 771.06099 0.17473
4302 22.08240 772.33492 772.19702 0.17398
4303 22.08600 773.14797 775.10987 0.17331
4304 22.08960 773.99761 778.39964 0.17269
4305 22.09320 774.88363 778.71840 0.17280
4306 22.09680 775.80593 780.52057 0.17244
4307 22.10040 776.76455 785.02624 0.17140
4308 22.10400 777.75966 783.61471 0.17161
4309 22.10760 778.79152 788.18215 0.17072
4310 22.11120 779.86052 787.22425 0.17109
4311 22.11480 780.96710 787.88819 0.17094
4312 22.11840 782.11184 790.72829 0.16999
4313 22.12200 783.29538 789.01531 0.17056
4314 22.12560 784.51844 792.39772 0.16987
4315 22.12920 785.78184 789.86811 0.17019
4316 22.13280 787.08648 791.69545 0.16976
4317 22.13640 788.43331 792.20361 0.16988
4318 22.14000 789.82341 794.95090 0.16933
4319 22.14360 791.25789 794.44756 0.16965
4320 22.14720 792.73797 797.75308 0.16887
4321 22.15080 794.26496 799.98987 0.16804
4322 22.15440 795.84023 802.83171 0.16782
4323 22.15800 797.46524 803.36428 0.16763
4324 22.16160 799.14156 803.18317 0.16732
4325 22.16520 800.87084 809.27687 0.16610
4326 22.16880 802.65481 807.76217 0.16628
4327 22.17240 804.49532 807.03273 0.16667
4328 22.17600 806.39432 807.16763 0.16681
4329 22.17960 808.35386 811.67478 0.16570
4330 22.18320 810.37610 813.15536 0.16547
4331 22.18680 812.46335 820.51342 0.16406
4332 22.19040 814.61801 821.54820 0.16397
4333 22.19400 816.84262 823.47027 0.16364
4334 22.19760 819.13987 822.43626 0.16363
4335 22.20120 821.51258 821.80533 0.16372
4336 22.20480 823.96375 825.98985 0.16297
4337 22.20840 826.49651 830.21379 0.16190
4338 22.21200 829.11420 836.07460 0.16060
4339 22.21560 831.82031 842.24164 0.15962
4340 22.21920 834.61856 843.16093 0.15947
4341 22.22280 837.51284 842.65892 0.15990
4342 22.22640 840.50730 845.36142 0.15944
4343 22.23000 843.60629 847.32203 0.15869
4344 22.23360 846.81443 851.63871 0.15811
4345 22.23720 850.13660 852.88063 0.15801
4346 22.24080 853.57798 854.46108 0.15743
4347 22.24440 857.14402 861.85601 0.15594
4348 22.24800 860.84053 864.66150 0.15539
4349 22.25160 864.67365 866.71101 0.15521
4350 22.25520 868.64988 872.23178 0.15428
4351 22.25880 872.77614 875.98577 0.15357
4352 22.26240 877.05975 876.61240 0.15349
4353 22.26600 881.50849 879.44400 0.15291
4354 22.26960 886.13065 884.58091 0.15218
4355 22.27320 890.93500 890.68004 0.15131
4356 22.27680 895.93091 893.36739 0.15061
4357 22.28040 901.12831 898.75272 0.14963
4358 22.28400 906.53782 901.94192 0.14937
4359 22.28760 912.17072 906.56604 0.14835
4360 22.29120 918.03905 913.82280 0.14699
4361 22.29480 924.15564 920.57425 0.14608
4362 22.29840 930.53419 921.19367 0.14597
4363 22.30200 937.18935 928.98933 0.14494
4364 22.30560 944.13673 934.99303 0.14408
4365 22.30920 951.39306 942.02938 0.14270
4366 22.31280 958.97622 951.30247 0.14154
4367 22.31640 966.90536 951.43454 0.14170
4368 22.32000 975.20100 958.78232 0.14036
4369 22.32360 983.88511 968.57774 0.13880
4370 22.32720 992.97700 973.59632 0.13808
4371 22.33080 999.43124 989.34538 0.13597
4372 22.33440 1009.44952 998.20489 0.13490
4373 22.33800 1019.93566 1008.90821 0.13333
4374 22.34160 1030.97195 1016.06781 0.13239
4375 22.34520 1042.56819 1023.07624 0.13150
4376 22.34880 1054.76015 1032.84655 0.13027
4377 22.35240 1067.58734 1051.21062 0.12810
4378 22.35600 1081.09242 1065.09087 0.12642
4379 22.35960 1095.32158 1069.72364 0.12566
4380 22.36320 1110.32481 1084.44163 0.12424
4381 22.36680 1126.15632 1101.72043 0.12217
4382 22.37040 1142.87496 1112.87488 0.12072
4383 22.37400 1160.54474 1132.94718 0.11867
4384 22.37760 1179.23532 1149.30913 0.11701
4385 22.38120 1199.02265 1169.16356 0.11513
4386 22.38480 1219.98969 1186.76214 0.11352
4387 22.38840 1242.22719 1210.31548 0.11114
4388 22.39200 1265.83461 1226.01142 0.10974
4389 22.39560 1290.92115 1247.59282 0.10802
4390 22.39920 1317.60701 1277.40272 0.10530
4391 22.40280 1346.02481 1308.86042 0.10267
4392 22.40640 1376.32122 1338.86327 0.10034
4393 22.41000 1408.65900 1366.16912 0.09839
4394 22.41360 1443.21935 1400.83562 0.09610
4395 22.41720 1480.20471 1445.08782 0.09300
4396 22.42080 1519.84209 1483.20885 0.09060
4397 22.42440 1562.38697 1521.55737 0.08841
4398 22.42800 1608.12759 1569.41721 0.08565
4399 22.43160 1657.38950 1617.82723 0.08314
4400 22.43520 1710.53963 1676.09371 0.08028
4401 22.43880 1767.98865 1737.81342 0.07736
4402 22.44240 1830.19015 1801.88465 0.07470
4403 22.44600 1897.63578 1870.38547 0.06634
4404 22.44960 1970.84976 1950.24183 0.06313
4405 22.45320 2050.39489 2038.90060 0.05526
4406 22.45680 2136.91015 2142.51509 0.05426
4407 22.46040 2231.18774 2240.50766 0.05339
4408 22.46400 2334.25597 2352.98417 0.04612
4409 22.46760 2447.40682 2481.52457 0.03928
4410 22.47120 2572.14744 2626.94013 0.03627
4411 22.47480 2710.12050 2779.00565 0.03591
4412 22.47840 2863.04347 2948.15629 0.02856
4413 22.48200 3032.67305 3129.49625 0.02883
4414 22.48560 3220.76971 3336.23370 0.02265
4415 22.48920 3430.18861 3569.19711 0.02116
4416 22.49280 3660.14706 3808.38159 0.01910
4417 22.49640 3912.94963 4076.78866 0.01833
4418 22.50000 4189.07161 4353.03136 0.01687
4419 22.50360 4487.84889 4639.54712 0.01564
4420 22.50720 4806.81781 4935.82061 0.01565
4421 22.51080 5140.84006 5210.62848 0.01533
4422 22.51440 5481.07799 5469.00153 0.01526
4423 22.51800 5814.05342 5720.79078 0.01617
4424 22.52160 6121.27112 5906.82392 0.01937
4425 22.52520 6380.10752 6045.26713 0.01990
4426 22.52880 6566.58866 6104.50268 0.02194
4427 22.53240 6660.01074 6096.06726 0.02195
4428 22.53600 6648.15717 6004.90802 0.02032
4429 22.53960 6530.92190 5844.55843 0.01724
4430 22.54320 6320.49262 5613.24826 0.01446
4431 22.54680 6037.96329 5331.71167 0.01394
4432 22.55040 5708.06926 5031.32277 0.01405
4433 22.55400 5354.17610 4711.24118 0.01348
4434 22.55760 4995.76819 4396.17654 0.01536
4435 22.56120 4646.61075 4114.59682 0.01769
4436 22.56480 4315.65793 3851.44221 0.01908
4437 22.56840 4007.92607 3612.94317 0.02070
4438 22.57200 3725.60508 3384.46751 0.02351
4439 22.57560 3469.00878 3181.71583 0.02641
4440 22.57920 3237.28914 3002.96763 0.03174
4441 22.58280 3028.93266 2834.54243 0.03443
4442 22.58640 2842.08818 2680.02201 0.03747
4443 22.59000 2674.77615 2541.79427 0.04468
4444 22.59360 2525.01866 2422.32960 0.04330
4445 22.59720 2390.91829 2301.01045 0.05063
4446 22.60080 2270.70383 2200.86634 0.05472
4447 22.60440 2162.75451 2103.97175 0.06400
4448 22.60800 2065.60972 2022.21040 0.06325
4449 22.61160 1977.96854 1937.85348 0.06562
4450 22.61520 1898.68163 1862.44614 0.07036
4451 22.61880 1826.73723 1799.08592 0.07468
4452 22.62240 1761.24305 1735.19757 0.07723
4453 22.62600 1701.40730 1676.43437 0.08029
4454 22.62960 1646.52554 1629.91574 0.08247
4455 22.63320 1595.98034 1578.54783 0.08525
4456 22.63680 1549.25295 1526.71219 0.08818
4457 22.64040 1505.93125 1491.78094 0.09031
4458 22.64400 1465.69671 1454.26116 0.09260
4459 22.64760 1428.29317 1416.27687 0.09507
4460 22.65120 1393.49657 1386.44997 0.09713
4461 22.65480 1361.09846 1350.53148 0.09977
4462 22.65840 1330.90190 1314.89271 0.10243
4463 22.66200 1302.72263 1288.43296 0.10452
4464 22.66560 1276.39086 1261.13689 0.10685
4465 22.66920 1251.75191 1238.19705 0.10875
4466 22.67280 1228.66587 1215.31479 0.11087
4467 22.67640 1207.00657 1193.18104 0.11280
4468 22.68000 1186.66030 1179.02081 0.11416
4469 22.68360 1167.52446 1160.99075 0.11611
4470 22.68720 1149.50635 1138.83111 0.11827
4471 22.69080 1132.52208 1124.53041 0.11979
4472 22.69440 1116.49537 1103.72051 0.12195
4473 22.69800 1101.27810 1089.43661 0.12351
4474 22.70160 1086.96620 1075.79739 0.12528
4475 22.70520 1073.42219 1063.74136 0.12675
4476 22.70880 1060.59340 1049.59949 0.12827
4477 22.71240 1048.43164 1036.61847 0.12994
4478 22.71600 1036.89265 1028.69728 0.13098
4479 22.71960 1025.93574 1017.47827 0.13247
4480 22.72320 1015.52349 1006.23945 0.13398
4481 22.72680 1005.62137 994.00795 0.13559
4482 22.73040 996.19753 987.78890 0.13637
4483 22.73400 987.22251 978.94880 0.13783
4484 22.73760 978.66908 969.33059 0.13900
4485 22.74120 970.51199 961.56129 0.14016
4486 22.74480 962.72784 954.53246 0.14138
4487 22.74840 955.66246 946.74584 0.14240
4488 22.75200 948.57164 936.10832 0.14413
4489 22.75560 941.78321 933.23534 0.14441
4490 22.75920 935.28953 926.61722 0.14549
4491 22.76280 929.07433 912.89146 0.14783
4492 22.76640 923.12241 912.93660 0.14775
4493 22.77000 917.41958 907.09649 0.14867
4494 22.77360 911.95260 903.37648 0.14919
4495 22.77720 906.70908 898.78510 0.14997
4496 22.78080 901.67744 891.06779 0.15138
4497 22.78440 896.84683 884.53125 0.15264
4498 22.78800 892.20707 879.27872 0.15330
4499 22.79160 887.74864 873.60374 0.15431
4500 22.79520 883.46257 873.64091 0.15428
4501 22.79880 879.34048 868.76150 0.15532
4502 22.80240 875.37445 863.36295 0.15635
4503 22.80600 871.55707 861.81918 0.15647
4504 22.80960 867.88134 858.95363 0.15692
4505 22.81320 864.34069 853.28498 0.15829
4506 22.81680 860.92890 849.64781 0.15869
4507 22.82040 857.64012 845.43416 0.15958
4508 22.82400 854.46884 841.17942 0.16057
4509 22.82760 851.40985 835.74795 0.16142
4510 22.83120 848.45822 836.91461 0.16121
4511 22.83480 845.60930 837.11217 0.16116
4512 22.83840 842.85868 833.65583 0.16175
4513 22.84200 840.20220 827.16854 0.16320
4514 22.84560 837.63591 822.49747 0.16423
4515 22.84920 835.15606 821.21888 0.16454
4516 22.85280 832.75913 822.42793 0.16414
4517 22.85640 830.44173 819.93217 0.16465
4518 22.86000 828.20069 816.60075 0.16533
4519 22.86360 826.03296 812.74317 0.16631
4520 22.86720 823.93568 809.87020 0.16662
4521 22.87080 821.90610 811.90404 0.16627
4522 22.87440 819.94162 810.32779 0.16633
4523 22.87800 818.03977 808.65801 0.16689
4524 22.88160 816.19818 803.63645 0.16809
4525 22.88520 814.41462 803.02806 0.16811
4526 22.88880 812.68695 797.89817 0.16908
4527 22.89240 811.01312 800.53732 0.16866
4528 22.89600 809.39119 799.44298 0.16884
4529 22.89960 807.81932 795.47461 0.16968
4530 22.90320 806.29573 792.84352 0.17043
4531 22.90680 804.81873 792.89044 0.17045
4532 22.91040 803.38672 789.28616 0.17105
4533 22.91400 801.99814 789.62959 0.17087
4534 22.91760 800.65154 787.34244 0.17143
4535 22.92120 799.34549 788.05190 0.17138
4536 22.92480 798.07867 785.08055 0.17218
4537 22.92840 796.84977 783.96530 0.17233
4538 22.93200 795.65757 782.58204 0.17262
4539 22.93560 794.50090 782.94070 0.17236
4540 22.93920 793.37861 781.67291 0.17275
4541 22.94280 792.28963 781.05800 0.17321
4542 22.94640 791.23292 779.13042 0.17335
4543 22.95000 790.20750 779.27004 0.17339
4544 22.95360 789.21241 780.31532 0.17282
4545 22.95720 788.24673 777.54302 0.17361
4546 22.96080 787.30960 775.48574 0.17427
4547 22.96440 786.42333 776.61586 0.17394
4548 22.96800 785.56386 772.40099 0.17472
4549 22.97160 784.70791 770.27332 0.17519
4550 22.97520 783.87736 771.34667 0.17503
4551 22.97880 783.07150 770.93261 0.17517
4552 22.98240 782.28964 770.07240 0.17552
4553 22.98600 781.53112 767.74295 0.17607
4554 22.98960 780.79532 765.52555 0.17649
4555 22.99320 780.08163 764.50116 0.17672
4556 22.99680 779.38948 766.25359 0.17625
4557 23.00040 778.71830 764.45176 0.17672
4558 23.00400 778.06755 763.31390 0.17708
4559 23.00760 777.43673 764.33772 0.17675
4560 23.01120 776.82534 766.13032 0.17635
4561 23.01480 776.23290 766.97506 0.17600
4562 23.01840 775.65895 759.23454 0.17792
4563 23.02200 775.10306 758.35041 0.17845
4564 23.02560 774.56481 764.87749 0.17683
4565 23.02920 774.04379 763.80308 0.17692
4566 23.03280 773.53961 761.57031 0.17731
4567 23.03640 773.05190 762.79534 0.17697
4568 23.04000 772.58029 760.70557 0.17775
4569 23.04360 772.12445 756.06474 0.17885
4570 23.04720 771.68404 756.73298 0.17853
4571 23.05080 771.25874 757.99899 0.17797
4572 23.05440 770.84825 758.07191 0.17814
4573 23.05800 770.45228 759.83767 0.17775
4574 23.06160 770.07054 759.59299 0.17804
4575 23.06520 769.70277 759.10509 0.17811
4576 23.06880 769.34870 757.62551 0.17839
4577 23.07240 769.00809 753.37600 0.17942
4578 23.07600 768.68071 756.48581 0.17862
4579 23.07960 768.36632 755.71864 0.17881
4580 23.08320 768.06472 755.39920 0.17905
4581 23.08680 767.77569 755.55883 0.17911
4582 23.09040 767.49903 759.66325 0.17800
4583 23.09400 767.23457 757.46234 0.17838
4584 23.09760 767.09881 756.01899 0.17871
4585 23.10120 766.86297 749.61585 0.18053
4586 23.10480 766.63522 750.86252 0.18040
4587 23.10840 766.41901 754.10403 0.17919
4588 23.11200 766.21421 752.58977 0.17963
4589 23.11560 766.02068 754.22390 0.17908
4590 23.11920 765.83829 755.81131 0.17888
4591 23.12280 765.66693 756.15611 0.17889
4592 23.12640 765.50650 756.34313 0.17877
4593 23.13000 765.35689 754.63090 0.17879
4594 23.13360 765.21802 757.82271 0.17829
4595 23.13720 765.08982 753.44355 0.17924
4596 23.14080 765.02282 756.31207 0.17884
4597 23.14440 765.01713 756.23764 0.17882
4598 23.14800 764.92205 755.35006 0.17914
4599 23.15160 764.83743 758.28720 0.17849
4600 23.15520 764.76320 753.36839 0.17957
4601 23.15880 764.69925 760.06761 0.17788
4602 23.16240 764.64542 760.25987 0.17804
4603 23.16600 764.60143 761.32249 0.17792
4604 23.16960 764.56699 761.96161 0.17761
4605 23.17320 764.54180 760.04470 0.17790
4606 23.17680 764.52575 764.17425 0.17696
4607 23.18040 764.51891 762.99532 0.17741
4608 23.18400 764.52153 761.75905 0.17789
4609 23.18760 764.53388 764.76920 0.17675
4610 23.19120 764.55617 763.67396 0.17722
4611 23.19480 764.58853 759.94091 0.17773
4612 23.19840 764.63103 759.09892 0.17818
4613 23.20200 764.68369 753.88838 0.17949
4614 23.20560 764.73743 755.69036 0.17904
4615 23.20920 764.80832 754.60695 0.17901
4616 23.21280 764.89164 753.17631 0.17939
4617 23.21640 764.98516 753.68137 0.17921
4618 23.22000 765.08894 757.30796 0.17863
4619 23.22360 765.20299 758.09645 0.17845
4620 23.22720 765.32739 758.90176 0.17835
4621 23.23080 765.46219 755.31429 0.17925
4622 23.23440 765.60745 754.19094 0.17957
4623 23.23800 765.76327 759.52303 0.17822
4624 23.24160 765.92973 756.10766 0.17910
4625 23.24520 766.10692 757.56617 0.17885
4626 23.24880 766.29496 760.38491 0.17811
4627 23.25240 766.49395 759.30844 0.17812
4628 23.25600 766.70402 757.86460 0.17860
4629 23.25960 766.92531 758.22638 0.17866
4630 23.26320 767.15794 758.60645 0.17863
4631 23.26680 767.40208 757.12233 0.17871
4632 23.27040 767.65788 760.95998 0.17784
4633 23.27400 767.92551 758.78208 0.17835
4634 23.27760 768.20515 760.52887 0.17784
4635 23.28120 768.49698 760.54511 0.17790
4636 23.28480 768.80120 760.31472 0.17802
4637 23.28840 769.10192 760.99410 0.17767
4638 23.29200 769.43172 759.06531 0.17793
4639 23.29560 769.77457 758.33796 0.17816
4640 23.29920 770.13072 762.25780 0.17756
4641 23.30280 770.50041 761.71614 0.17766
4642 23.30640 770.88392 759.99324 0.17808
4643 23.31000 771.28151 760.34146 0.17816
4644 23.31360 771.69350 762.80245 0.17753
4645 23.31720 772.12018 766.48572 0.17667
4646 23.32080 772.56187 767.44754 0.17663
4647 23.32440 773.01891 765.31033 0.17712
4648 23.32800 773.49166 763.01856 0.17753
4649 23.33160 773.98047 764.21988 0.17696
4650 23.33520 774.48574 767.19897 0.17642
4651 23.33880 775.00788 770.73334 0.17579
4652 23.34240 775.54729 770.11566 0.17604
4653 23.34600 776.10442 768.56461 0.17619
4654 23.34960 776.67973 768.06888 0.17605
4655 23.35320 777.27370 770.05178 0.17571
4656 23.35680 777.88684 770.99310 0.17538
4657 23.36040 778.51967 773.16621 0.17495
4658 23.36400 779.17273 772.72634 0.17523
4659 23.36760 779.84661 772.02828 0.17519
4660 23.37120 780.54191 775.08906 0.17431
4661 23.37480 781.25925 777.47186 0.17379
4662 23.37840 781.99929 778.18168 0.17381
4663 23.38200 782.75899 781.60190 0.17320
4664 23.38560 783.54657 778.39344 0.17382
4665 23.38920 784.35901 779.65303 0.17379
4666 23.39280 785.19708 779.73463 0.17365
4667 23.39640 786.06164 781.29945 0.17331
4668 23.40000 786.95353 780.66418 0.17363
4669 23.40360 787.87365 782.82573 0.17302
4670 23.40720 788.82296 788.67478 0.17174
4671 23.41080 789.80245 789.87872 0.17134
4672 23.41440 790.81315 792.57525 0.17076
4673 23.41800 791.85614 795.76370 0.17024
4674 23.42160 792.93259 794.83703 0.17047
4675 23.42520 794.04367 795.35926 0.17023
4676 23.42880 795.19064 796.49376 0.16983
4677 23.43240 796.37483 799.05403 0.16942
4678 23.43600 797.59762 802.31598 0.16867
4679 23.43960 798.86046 806.24937 0.16782
4680 23.44320 800.16487 808.68798 0.16740
4681 23.44680 801.51246 805.89792 0.16792
4682 23.45040 802.90492 809.57578 0.16695
4683 23.45400 804.34402 814.05686 0.16590
4684 23.45760 805.83163 814.24291 0.16597
4685 23.46120 807.36971 814.48962 0.16623
4686 23.46480 808.96034 817.88774 0.16531
4687 23.46840 810.60569 821.43102 0.16505
4688 23.47200 812.30806 824.23557 0.16434
4689 23.47560 814.06989 828.99665 0.16336
4690 23.47920 815.89372 832.43721 0.16283
4691 23.48280 817.78226 829.70767 0.16329
4692 23.48640 819.73837 832.44261 0.16257
4693 23.49000 821.76506 834.95697 0.16203
4694 23.49360 823.86552 841.62846 0.16068
4695 23.49720 826.04313 843.40244 0.16057
4696 23.50080 828.30146 849.84588 0.15942
4697 23.50440 830.64430 851.12322 0.15904
4698 23.50800 833.07565 857.64455 0.15770
4699 23.51160 835.59978 860.35796 0.15731
4700 23.51520 838.22118 861.99000 0.15707
4701 23.51880 840.94466 865.12492 0.15643
4702 23.52240 843.77530 873.63227 0.15499
4703 23.52600 846.71849 877.71351 0.15415
4704 23.52960 849.77999 885.85437 0.15270
4705 23.53320 852.96590 886.66348 0.15243
4706 23.53680 856.28272 889.60639 0.15193
4707 23.54040 859.73736 893.32471 0.15152
4708 23.54400 863.33720 902.05310 0.14994
4709 23.54760 867.09007 908.24288 0.14925
4710 23.55120 871.00432 910.21290 0.14884
4711 23.55480 875.08886 914.43696 0.14809
4712 23.55840 878.66788 923.68296 0.14673
4713 23.56200 882.42910 933.65145 0.14511
4714 23.56560 887.12515 937.24538 0.14442
4715 23.56920 892.09608 945.48915 0.14324
4716 23.57280 897.19307 954.13881 0.14180
4717 23.57640 902.52758 959.78279 0.14120
4718 23.58000 908.11353 966.89156 0.14022
4719 23.58360 913.96581 971.43978 0.13934
4720 23.58720 920.10025 987.67238 0.13702
4721 23.59080 926.53376 993.49999 0.13627
4722 23.59440 933.28434 1000.58973 0.13539
4723 23.59800 940.37120 1010.16368 0.13396
4724 23.60160 947.81477 1021.01173 0.13260
4725 23.60520 955.63684 1028.78495 0.13161
4726 23.60880 963.86060 1033.97224 0.13093
4727 23.61240 972.51077 1048.45080 0.12897
4728 23.61600 981.61361 1061.29056 0.12742
4729 23.61960 991.19712 1071.55538 0.12634
4730 23.62320 1001.29107 1084.08209 0.12487
4731 23.62680 1011.92711 1097.96500 0.12352
4732 23.63040 1023.13896 1105.40348 0.12263
4733 23.63400 1034.96247 1119.25535 0.12091
4734 23.63760 1047.43582 1132.42660 0.11953
4735 23.64120 1060.59969 1146.67187 0.11815
4736 23.64480 1074.49746 1162.34110 0.11647
4737 23.64840 1089.17547 1180.04642 0.11486
4738 23.65200 1104.68332 1196.29219 0.11321
4739 23.65560 1121.07423 1206.98928 0.11219
4740 23.65920 1138.40543 1226.18131 0.11056
4741 23.66280 1156.73866 1246.30559 0.10857
4742 23.66640 1176.14060 1267.15155 0.10676
4743 23.67000 1196.68330 1287.09861 0.10514
4744 23.67360 1218.44416 1310.16392 0.10341
4745 23.67720 1241.50511 1331.29998 0.10172
4746 23.68080 1265.94979 1357.61385 0.09972
4747 23.68440 1288.34507 1382.99568 0.09790
4748 23.68800 1315.66519 1412.85636 0.09577
4749 23.69160 1344.64459 1438.86672 0.09401
4750 23.69520 1375.06847 1467.80046 0.09216
4751 23.69880 1406.71705 1500.25698 0.09020
4752 23.70240 1439.03194 1533.33695 0.08825
4753 23.70600 1471.33541 1562.15963 0.08678
4754 23.70960 1502.82433 1590.55423 0.08528
4755 23.71320 1532.89415 1618.03260 0.08368
4756 23.71680 1561.38770 1645.82912 0.08221
4757 23.72040 1588.58573 1668.78691 0.08115
4758 23.72400 1614.94627 1700.22231 0.07960
4759 23.72760 1640.81865 1718.35497 0.07880
4760 23.73120 1666.30454 1737.73088 0.07797
4761 23.73480 1691.26339 1756.41909 0.07705
4762 23.73840 1715.38187 1775.49596 0.07634
4763 23.74200 1738.24712 1795.11482 0.07540
4764 23.74560 1759.40295 1822.96163 0.07418
4765 23.74920 1778.38902 1835.41046 0.07369
4766 23.75280 1794.76885 1847.57616 0.07328
4767 23.75640 1808.15148 1873.34496 0.07222
4768 23.76000 1818.20928 1885.64093 0.07176
4769 23.76360 1824.69274 1895.63130 0.07138
4770 23.76720 1827.44193 1898.04212 0.07125
4771 23.77080 1826.39402 1897.87895 0.07130
4772 23.77440 1821.58620 1895.01687 0.07136
4773 23.77800 1813.15392 1887.31470 0.07166
4774 23.78160 1801.32442 1865.81269 0.07253
4775 23.78520 1786.40660 1841.98811 0.07359
4776 23.78880 1768.77811 1825.26665 0.07432
4777 23.79240 1748.87105 1807.61295 0.07484
4778 23.79600 1727.15775 1793.98252 0.07540
4779 23.79960 1704.13770 1765.82839 0.07668
4780 23.80320 1680.32641 1743.07739 0.07767
4781 23.80680 1656.24636 1730.12434 0.07818
4782 23.81040 1632.41896 1716.27322 0.07894
4783 23.81400 1609.35475 1701.29348 0.07954
4784 23.81760 1587.53625 1690.39656 0.08016
4785 23.82120 1567.38299 1675.40089 0.08083
4786 23.82480 1549.18352 1662.52425 0.08140
4787 23.82840 1532.97738 1646.87508 0.08211
4788 23.83200 1518.38770 1631.39319 0.08297
4789 23.83560 1504.46378 1609.37025 0.08414
4790 23.83920 1489.69689 1591.83583 0.08501
4791 23.84280 1472.41847 1572.85935 0.08602
4792 23.84640 1451.56758 1551.34532 0.08716
4793 23.85000 1427.35530 1527.30483 0.08861
4794 23.85360 1401.24623 1506.13472 0.08985
4795 23.85720 1375.27651 1485.75103 0.09110
4796 23.86080 1351.29550 1467.35371 0.09225
4797 23.86440 1330.56824 1450.26492 0.09342
4798 23.86800 1313.71189 1434.48260 0.09460
4799 23.87160 1300.73255 1414.33287 0.09573
4800 23.87520 1290.99592 1392.52644 0.09710
4801 23.87880 1283.12382 1373.68485 0.09845
4802 23.88240 1274.98347 1347.19861 0.10048
4803 23.88600 1264.05463 1328.13436 0.10188
4804 23.88960 1248.29817 1303.52609 0.10397
4805 23.89320 1227.10690 1281.04554 0.10563
4806 23.89680 1201.56276 1256.95495 0.10770
4807 23.90040 1173.75802 1236.69260 0.10954
4808 23.90400 1145.79803 1215.49688 0.11138
4809 23.90760 1119.18112 1192.35125 0.11345
4810 23.91120 1094.69463 1166.32821 0.11604
4811 23.91480 1072.59058 1141.11901 0.11865
4812 23.91840 1052.80774 1119.80938 0.12084
4813 23.92200 1035.13853 1095.04191 0.12362
4814 23.92560 1019.32836 1076.10647 0.12568
4815 23.92920 1005.12589 1060.46158 0.12759
4816 23.93280 992.30446 1045.10341 0.12959
4817 23.93640 980.66856 1035.38353 0.13077
4818 23.94000 970.05329 1021.00789 0.13265
4819 23.94360 960.32106 1010.00546 0.13418
4820 23.94720 951.35754 998.30115 0.13596
4821 23.95080 943.06772 992.45207 0.13653
4822 23.95440 935.37239 981.43507 0.13786
4823 23.95800 928.20520 973.06124 0.13887
4824 23.96160 921.51021 964.57847 0.14036
4825 23.96520 915.23997 956.86005 0.14141
4826 23.96880 909.35386 951.73292 0.14230
4827 23.97240 903.81692 944.29629 0.14348
4828 23.97600 898.59878 938.96485 0.14413
4829 23.97960 893.67293 936.71687 0.14464
4830 23.98320 889.01604 929.20328 0.14572
4831 23.98680 884.60747 921.57611 0.14686
4832 23.99040 880.42885 916.51052 0.14767
4833 23.99400 876.46380 910.19626 0.14872
4834 23.99760 872.69757 905.58737 0.14946
4835 24.00120 869.11687 899.36654 0.15055
4836 24.00480 865.70970 893.49275 0.15144
4837 24.00840 862.46514 888.52893 0.15225
4838 24.01200 859.37323 886.71500 0.15270
4839 24.01560 856.42491 884.07424 0.15316
4840 24.01920 853.61184 877.59017 0.15437
4841 24.02280 850.92638 872.86035 0.15519
4842 24.02640 848.36151 870.34239 0.15570
4843 24.03000 845.91074 869.78571 0.15581
4844 24.03360 843.56808 865.52642 0.15630
4845 24.03720 841.32797 860.28454 0.15712
4846 24.04080 839.18528 855.83643 0.15817
4847 24.04440 837.13522 854.08581 0.15858
4848 24.04800 835.17337 849.49420 0.15937
4849 24.05160 833.29558 847.96179 0.15978
4850 24.05520 831.49801 848.17908 0.15950
4851 24.05880 829.77706 847.30958 0.16007
4852 24.06240 828.12937 838.97728 0.16152
4853 24.06600 826.55181 838.91614 0.16156
4854 24.06960 825.04145 838.39452 0.16158
4855 24.07320 823.59554 834.33680 0.16243
4856 24.07680 822.21152 832.96850 0.16261
4857 24.08040 820.88698 833.43230 0.16250
4858 24.08400 819.61967 832.44847 0.16256
4859 24.08760 818.40749 827.51360 0.16342
4860 24.09120 817.24848 827.53275 0.16360
4861 24.09480 816.14079 826.73016 0.16374
4862 24.09840 815.08269 826.90290 0.16373
4863 24.10200 814.07260 824.84797 0.16415
4864 24.10560 813.10900 821.51857 0.16480
4865 24.10920 812.19052 819.91521 0.16515
4866 24.11280 811.31586 820.52904 0.16478
4867 24.11640 810.48385 812.05508 0.16634
4868 24.12000 809.69337 815.24132 0.16573
4869 24.12360 808.94343 811.62564 0.16660
4870 24.12720 808.23313 810.43036 0.16734
4871 24.13080 807.56165 811.09934 0.16719
4872 24.13440 806.92825 808.82351 0.16726
4873 24.13800 806.33231 809.98016 0.16759
4874 24.14160 805.77328 807.30941 0.16805
4875 24.14520 805.25071 807.98776 0.16795
4876 24.14880 804.76425 805.04922 0.16823
4877 24.15240 804.31366 801.40985 0.16914
4878 24.15600 803.89880 803.65887 0.16847
4879 24.15960 803.51963 804.11964 0.16842
4880 24.16320 803.17626 802.70426 0.16851
4881 24.16680 802.86891 801.08759 0.16887
4882 24.17040 802.59796 801.08468 0.16888
4883 24.17400 802.36392 796.71831 0.16986
4884 24.17760 802.16751 797.40694 0.16966
4885 24.18120 802.00963 799.70023 0.16926
4886 24.18480 801.89138 801.39532 0.16878
4887 24.18840 801.81415 799.05790 0.16935
4888 24.19200 801.77958 801.50104 0.16885
4889 24.19560 801.78965 794.10541 0.17019
4890 24.19920 801.84672 796.93262 0.16944
4891 24.20280 801.95359 795.65981 0.17000
4892 24.20640 802.11357 800.45819 0.16919
4893 24.21000 802.33057 799.37963 0.16958
4894 24.21360 802.60923 797.06923 0.16963
4895 24.21720 802.95503 792.49402 0.17102
4896 24.22080 803.37449 795.64163 0.17063
4897 24.22440 803.87535 796.93992 0.17039
4898 24.22800 804.46943 794.88055 0.17041
4899 24.23160 805.20250 795.40407 0.17038
4900 24.23520 806.01117 794.95962 0.17023
4901 24.23880 806.95097 796.54148 0.17001
4902 24.24240 808.04145 797.06892 0.16962
4903 24.24600 809.30649 799.16440 0.16926
4904 24.24960 810.77538 797.64410 0.16956
4905 24.25320 812.44423 797.88321 0.16955
4906 24.25680 813.91162 798.28743 0.16935
4907 24.26040 816.24723 800.63927 0.16894
4908 24.26400 818.99134 802.02928 0.16856
4909 24.26760 822.22889 802.60095 0.16842
4910 24.27120 826.06457 805.80021 0.16794
4911 24.27480 830.62601 809.10426 0.16706
4912 24.27840 836.06602 816.20765 0.16547
4913 24.28200 842.56170 819.62020 0.16485
4914 24.28560 850.30467 827.01382 0.16356
4915 24.28920 859.47698 839.29036 0.16131
4916 24.29280 870.19572 844.63543 0.16015
4917 24.29640 882.40842 857.08660 0.15792
4918 24.30000 895.72690 868.04387 0.15630
4919 24.30360 909.22424 885.35147 0.15332
4920 24.30720 921.31520 896.75691 0.15106
4921 24.31080 929.94957 907.54641 0.14927
4922 24.31440 933.28207 916.81675 0.14758
4923 24.31800 930.56229 923.62193 0.14649
4924 24.32160 922.56078 926.56910 0.14577
4925 24.32520 911.13284 924.68149 0.14630
4926 24.32880 898.32742 912.68899 0.14817
4927 24.33240 885.72287 902.50240 0.14985
4928 24.33600 874.23932 886.27222 0.15249
4929 24.33960 864.26085 868.27065 0.15564
4930 24.34320 855.83852 851.96103 0.15877
4931 24.34680 848.85599 840.99207 0.16064
4932 24.35040 843.13308 833.62765 0.16229
4933 24.35400 838.48053 828.44014 0.16311
4934 24.35760 834.74020 824.42884 0.16399
4935 24.36120 831.86142 819.69916 0.16483
4936 24.36480 829.47899 818.08230 0.16526
4937 24.36840 827.62206 811.45462 0.16685
4938 24.37200 826.21193 809.94142 0.16700
4939 24.37560 825.18743 813.74277 0.16627
4940 24.37920 824.50220 809.94162 0.16756
4941 24.38280 824.12252 810.67253 0.16728
4942 24.38640 824.02567 806.20989 0.16811
4943 24.39000 824.19883 803.29333 0.16851
4944 24.39360 824.63844 806.06191 0.16796
4945 24.39720 825.35003 805.75363 0.16788
4946 24.40080 826.34835 807.07976 0.16751
4947 24.40440 827.65771 808.14392 0.16738
4948 24.40800 829.31214 807.38178 0.16758
4949 24.41160 831.35490 806.43186 0.16773
4950 24.41520 833.83583 807.49074 0.16744
4951 24.41880 836.80444 811.47169 0.16657
4952 24.42240 840.29463 813.14156 0.16641
4953 24.42600 844.29543 814.78676 0.16575
4954 24.42960 848.70329 815.27328 0.16591
4955 24.43320 853.26103 817.67442 0.16531
4956 24.43680 857.51476 820.63510 0.16474
4957 24.44040 860.85481 821.01700 0.16442
4958 24.44400 862.69890 829.94253 0.16276
4959 24.44760 862.76206 834.42361 0.16233
4960 24.45120 861.21563 835.80353 0.16192
4961 24.45480 858.58845 833.83795 0.16210
4962 24.45840 855.48043 832.86407 0.16280
4963 24.46200 852.41496 835.38846 0.16232
4964 24.46560 849.71584 831.72652 0.16299
4965 24.46920 847.49334 829.36456 0.16323
4966 24.47280 845.77233 832.59066 0.16265
4967 24.47640 844.52177 831.55696 0.16263
4968 24.48000 843.68824 829.01900 0.16321
4969 24.48360 843.21400 823.50380 0.16423
4970 24.48720 843.04538 820.67181 0.16499
4971 24.49080 843.13588 817.43297 0.16555
4972 24.49440 843.44667 821.84608 0.16460
4973 24.49800 843.94599 819.15876 0.16494
4974 24.50160 844.60825 824.21936 0.16410
4975 24.50520 845.41294 821.04797 0.16449
4976 24.50880 846.34374 821.17091 0.16468
4977 24.51240 847.38768 823.03786 0.16429
4978 24.51600 848.53453 823.33278 0.16431
4979 24.51960 849.77621 821.92529 0.16433
4980 24.52320 851.10638 822.32789 0.16429
4981 24.52680 852.52014 826.10689 0.16385
4982 24.53040 854.01367 824.21131 0.16424
4983 24.53400 855.58411 828.10680 0.16331
4984 24.53760 857.22938 832.53601 0.16285
4985 24.54120 858.94799 834.31721 0.16249
4986 24.54480 860.76723 835.36222 0.16244
4987 24.54840 862.75862 835.00256 0.16213
4988 24.55200 864.69377 834.85527 0.16218
4989 24.55560 866.70104 841.40974 0.16078
4990 24.55920 868.78100 842.77295 0.16057
4991 24.56280 870.93450 840.74022 0.16072
4992 24.56640 873.16261 842.15240 0.16091
4993 24.57000 875.46666 842.23024 0.16090
4994 24.57360 877.84818 846.44040 0.15991
4995 24.57720 880.30890 850.66907 0.15901
4996 24.58080 882.85076 849.23859 0.15921
4997 24.58440 885.47587 851.48537 0.15864
4998 24.58800 888.18654 852.95575 0.15845
4999 24.59160 890.96876 859.03006 0.15751
5000 24.59520 893.75563 859.51798 0.15739
5001 24.59880 896.73982 866.97535 0.15587
5002 24.60240 899.82063 869.40499 0.15540
5003 24.60600 903.00131 866.41537 0.15613
5004 24.60960 906.28532 871.61188 0.15532
5005 24.61320 909.67629 876.71530 0.15412
5006 24.61680 913.17810 874.74400 0.15483
5007 24.62040 916.79483 878.83623 0.15416
5008 24.62400 920.53079 886.18432 0.15303
5009 24.62760 924.39054 885.73499 0.15289
5010 24.63120 928.37888 886.32957 0.15287
5011 24.63480 932.50056 891.94694 0.15177
5012 24.63840 936.61213 898.53432 0.15077
5013 24.64200 941.01928 901.35842 0.15008
5014 24.64560 945.57704 906.52638 0.14939
5015 24.64920 950.29169 911.41463 0.14887
5016 24.65280 955.16986 910.82393 0.14873
5017 24.65640 960.21855 920.06951 0.14708
5018 24.66000 965.44514 923.49942 0.14643
5019 24.66360 970.85740 930.74220 0.14522
5020 24.66720 976.46358 934.84337 0.14457
5021 24.67080 982.27234 939.86283 0.14407
5022 24.67440 988.29284 943.12560 0.14342
5023 24.67800 994.53477 947.94655 0.14265
5024 24.68160 1001.00836 954.91653 0.14136
5025 24.68520 1007.72440 963.59427 0.14023
5026 24.68880 1014.69432 966.47220 0.14005
5027 24.69240 1021.93019 972.95409 0.13892
5028 24.69600 1029.44478 978.01599 0.13842
5029 24.69960 1037.25160 988.78613 0.13696
5030 24.70320 1045.36493 992.68615 0.13653
5031 24.70680 1053.79989 999.01993 0.13550
5032 24.71040 1062.57248 1007.27567 0.13427
5033 24.71400 1071.69964 1016.04417 0.13302
5034 24.71760 1081.19931 1024.70332 0.13196
5035 24.72120 1091.09049 1037.27953 0.13037
5036 24.72480 1101.39330 1047.87919 0.12930
5037 24.72840 1112.12904 1053.23922 0.12889
5038 24.73200 1123.32032 1063.09711 0.12748
5039 24.73560 1134.99105 1073.25868 0.12615
5040 24.73920 1147.16661 1086.90890 0.12447
5041 24.74280 1159.87384 1097.97789 0.12322
5042 24.74640 1173.14124 1109.71814 0.12182
5043 24.75000 1186.99896 1122.07377 0.12070
5044 24.75360 1201.47896 1136.08646 0.11914
5045 24.75720 1216.61509 1147.26451 0.11807
5046 24.76080 1232.44317 1161.74845 0.11639
5047 24.76440 1249.00113 1181.31854 0.11441
5048 24.76800 1266.32910 1197.16421 0.11287
5049 24.77160 1284.46948 1215.09409 0.11117
5050 24.77520 1303.46708 1230.38299 0.10997
5051 24.77880 1323.36920 1249.59241 0.10823
5052 24.78240 1344.22568 1265.06751 0.10703
5053 24.78600 1366.08905 1284.67986 0.10538
5054 24.78960 1391.61399 1302.74028 0.10382
5055 24.79320 1415.74713 1324.03974 0.10203
5056 24.79680 1440.98866 1349.09497 0.10018
5057 24.80040 1467.47465 1374.50810 0.09837
5058 24.80400 1495.27133 1398.23844 0.09685
5059 24.80760 1524.44757 1424.52520 0.09532
5060 24.81120 1555.07467 1455.26748 0.09318
5061 24.81480 1587.22624 1485.72398 0.09114
5062 24.81840 1620.97781 1510.96434 0.08959
5063 24.82200 1656.40649 1539.42665 0.08790
5064 24.82560 1693.59046 1574.84725 0.08591
5065 24.82920 1732.60827 1614.47032 0.08385
5066 24.83280 1773.53807 1650.17723 0.08198
5067 24.83640 1816.45662 1682.49774 0.08048
5068 24.84000 1861.43800 1723.59324 0.07844
5069 24.84360 1908.55218 1766.04772 0.07649
5070 24.84720 1957.86323 1812.56395 0.07452
5071 24.85080 2009.42714 1858.06709 0.07268
5072 24.85440 2063.28936 1904.69018 0.07098
5073 24.85800 2119.48182 1957.61877 0.06900
5074 24.86160 2178.01944 2011.57173 0.06719
5075 24.86520 2238.89617 2073.75636 0.06523
5076 24.86880 2302.08034 2127.89474 0.06352
5077 24.87240 2367.50947 2184.69806 0.06181
5078 24.87600 2435.08430 2253.03599 0.05995
5079 24.87960 2504.66224 2321.83400 0.05604
5080 24.88320 2576.05019 2395.56861 0.05646
5081 24.88680 2648.99679 2461.61609 0.05507
5082 24.89040 2723.18433 2546.16570 0.05323
5083 24.89400 2798.22073 2625.16460 0.05015
5084 24.89760 2873.63177 2707.39808 0.05001
5085 24.90120 2948.85459 2789.78830 0.04849
5086 24.90480 3023.23300 2876.79739 0.04699
5087 24.90840 3096.01598 2967.86370 0.04557
5088 24.91200 3166.36056 3063.64045 0.04414
5089 24.91560 3233.34054 3157.58714 0.04285
5090 24.91920 3295.96254 3249.98726 0.04157
5091 24.92280 3353.19043 3331.60651 0.04051
5092 24.92640 3403.97864 3417.96159 0.03948
5093 24.93000 3447.31394 3486.23071 0.03869
5094 24.93360 3482.26366 3548.11588 0.03805
5095 24.93720 3508.02731 3590.97263 0.03761
5096 24.94080 3523.98687 3627.31814 0.03721
5097 24.94440 3529.75001 3647.60330 0.03704
5098 24.94800 3525.18022 3640.31891 0.03711
5099 24.95160 3510.40754 3609.05328 0.03739
5100 24.95520 3485.82385 3573.32714 0.03776
5101 24.95880 3452.16833 3513.35248 0.03844
5102 24.96240 3409.82525 3449.32358 0.03893
5103 24.96600 3359.70018 3357.72943 0.04030
5104 24.96960 3302.44460 3276.83155 0.04041
5105 24.97320 3238.59225 3191.27905 0.03872
5106 24.97680 3168.66810 3098.00613 0.04129
5107 24.98040 3093.41794 3008.97501 0.04422
5108 24.98400 3013.97770 2915.59785 0.04637
5109 24.98760 2931.80057 2823.24080 0.04371
5110 24.99120 2848.38748 2723.26084 0.04970
5111 24.99480 2765.03350 2634.15337 0.05139
5112 24.99840 2682.72146 2549.40456 0.05304
5113 25.00200 2602.14058 2470.57313 0.05467
5114 25.00560 2523.75437 2401.03892 0.05628
5115 25.00920 2447.86720 2322.20171 0.05447
5116 25.01280 2374.67302 2249.37901 0.06010
5117 25.01640 2304.28717 2180.30531 0.06203
5118 25.02000 2236.76664 2116.88905 0.06389
5119 25.02360 2172.12364 2057.27648 0.06583
5120 25.02720 2110.33592 1996.43478 0.06785
5121 25.03080 2051.35627 1946.49001 0.06958
5122 25.03440 1995.12103 1893.97453 0.07138
5123 25.03800 1941.55621 1849.21659 0.07320
5124 25.04160 1890.58023 1802.91101 0.07513
5125 25.04520 1842.10452 1760.06639 0.07698
5126 25.04880 1796.03407 1717.67358 0.07903
5127 25.05240 1752.26906 1675.24862 0.08090
5128 25.05600 1710.70683 1639.42725 0.08269
5129 25.05960 1671.24395 1604.19922 0.08454
5130 25.06320 1633.67843 1564.51746 0.08660
5131 25.06680 1598.07337 1534.67405 0.08830
5132 25.07040 1564.30210 1506.56829 0.09004
5133 25.07400 1532.23378 1476.42386 0.09189
5134 25.07760 1501.77718 1444.02542 0.09398
5135 25.08120 1472.84485 1419.88427 0.09525
5136 25.08480 1445.35330 1396.55959 0.09685
5137 25.08840 1419.22297 1370.13864 0.09873
5138 25.09200 1394.37828 1342.41912 0.10082
5139 25.09560 1370.74754 1319.04042 0.10271
5140 25.09920 1348.26286 1302.17513 0.10398
5141 25.10280 1326.86006 1282.65099 0.10562
5142 25.10640 1306.47853 1259.01737 0.10766
5143 25.11000 1287.06110 1243.27713 0.10903
5144 25.11360 1268.55387 1224.38077 0.11052
5145 25.11720 1250.90608 1207.58167 0.11213
5146 25.12080 1234.06997 1193.43308 0.11352
5147 25.12440 1218.00060 1174.74559 0.11546
5148 25.12800 1202.65571 1158.47428 0.11730
5149 25.13160 1187.99556 1148.58209 0.11816
5150 25.13520 1173.98284 1135.74693 0.11938
5151 25.13880 1160.58245 1124.64762 0.12088
5152 25.14240 1147.76145 1110.28428 0.12238
5153 25.14600 1135.48886 1101.77826 0.12325
5154 25.14960 1123.73559 1091.68093 0.12438
5155 25.15320 1112.47432 1080.35585 0.12566
5156 25.15680 1101.67934 1067.53878 0.12733
5157 25.16040 1091.32653 1056.44889 0.12833
5158 25.16400 1081.39317 1048.57968 0.12905
5159 25.16760 1071.85794 1040.97201 0.13011
5160 25.17120 1062.70074 1032.92722 0.13120
5161 25.17480 1053.90271 1024.66354 0.13237
5162 25.17840 1045.44606 1017.68545 0.13327
5163 25.18200 1037.31404 1011.33813 0.13409
5164 25.18560 1029.49090 1006.63963 0.13479
5165 25.18920 1021.96178 995.34403 0.13632
5166 25.19280 1014.69689 985.93740 0.13745
5167 25.19640 1007.68995 980.46778 0.13811
5168 25.20000 1000.96237 969.62510 0.13988
5169 25.20360 994.47737 958.00546 0.14170
5170 25.20720 988.22383 950.28774 0.14296
5171 25.21080 982.19126 944.46446 0.14377
5172 25.21440 976.36974 938.80673 0.14439
5173 25.21800 970.74987 935.60117 0.14520
5174 25.22160 965.32279 934.69914 0.14552
5175 25.22520 960.08009 917.40703 0.14809
5176 25.22880 955.01382 916.17496 0.14820
5177 25.23240 950.11642 910.55405 0.14902
5178 25.23600 945.38076 906.20800 0.14999
5179 25.23960 940.80005 903.03541 0.15027
5180 25.24320 936.36787 901.85232 0.15006
5181 25.24680 932.07811 893.94028 0.15158
5182 25.25040 927.92496 889.66563 0.15241
5183 25.25400 923.90293 884.58014 0.15344
5184 25.25760 920.00678 878.90096 0.15434
5185 25.26120 916.23153 879.09856 0.15455
5186 25.26480 912.57245 873.68194 0.15539
5187 25.26840 909.02502 870.28353 0.15597
5188 25.27200 905.58496 864.26930 0.15693
5189 25.27560 902.24818 864.71542 0.15661
5190 25.27920 899.01078 858.39500 0.15788
5191 25.28280 895.86905 856.64418 0.15844
5192 25.28640 892.81945 853.09904 0.15933
5193 25.29000 889.85860 851.50419 0.15949
5194 25.29360 887.22064 849.04108 0.15963
5195 25.29720 884.66909 846.57762 0.16045
5196 25.30080 881.96037 844.32619 0.16114
5197 25.30440 879.32841 836.48979 0.16253
5198 25.30800 876.77054 837.28732 0.16225
5199 25.31160 874.28419 837.76702 0.16203
5200 25.31520 871.86691 833.38078 0.16302
5201 25.31880 869.51635 830.50652 0.16367
5202 25.32240 867.23025 831.24966 0.16306
5203 25.32600 865.00648 831.98930 0.16298
5204 25.32960 862.84297 825.67725 0.16422
5205 25.33320 860.73775 823.58802 0.16489
5206 25.33680 858.68893 820.74481 0.16524
5207 25.34040 856.69470 822.74730 0.16527
5208 25.34400 854.75332 817.00446 0.16618
5209 25.34760 852.86312 815.77601 0.16634
5210 25.35120 851.02251 815.24464 0.16653
5211 25.35480 849.22996 810.93971 0.16701
5212 25.35840 847.19982 811.12218 0.16703
5213 25.36200 845.45417 808.95602 0.16777
5214 25.36560 843.79803 807.85271 0.16813
5215 25.36920 842.18440 805.23063 0.16865
5216 25.37280 840.61203 804.05227 0.16875
5217 25.37640 839.07973 803.12507 0.16919
5218 25.38000 837.58633 800.26381 0.17008
5219 25.38360 836.13073 803.49143 0.16924
5220 25.38720 834.71187 801.06372 0.16967
5221 25.39080 833.32871 801.94234 0.16939
5222 25.39440 831.98028 802.37817 0.16930
5223 25.39800 830.66563 799.64798 0.17005
5224 25.40160 829.38384 798.72311 0.16982
5225 25.40520 828.13403 793.93217 0.17088
5226 25.40880 826.91538 795.63450 0.17059
5227 25.41240 825.72706 791.70541 0.17168
5228 25.41600 825.53177 793.48375 0.17103
5229 25.41960 824.67031 786.64533 0.17280
5230 25.42320 823.58038 789.15459 0.17225
5231 25.42680 822.51802 789.53378 0.17203
5232 25.43040 821.48255 789.18561 0.17220
5233 25.43400 820.47335 787.66885 0.17229
5234 25.43760 819.48979 785.76319 0.17251
5235 25.44120 818.53128 785.68838 0.17270
5236 25.44480 817.59726 783.15250 0.17357
5237 25.44840 816.68718 782.83582 0.17353
5238 25.45200 815.80052 781.99547 0.17366
5239 25.45560 814.93677 783.79388 0.17334
5240 25.45920 814.09544 784.69965 0.17352
5241 25.46280 813.27607 780.54430 0.17432
5242 25.46640 812.47822 783.50400 0.17362
5243 25.47000 811.70145 782.65718 0.17373
5244 25.47360 810.94535 783.34342 0.17356
5245 25.47720 810.20953 782.31011 0.17401
5246 25.48080 809.49361 777.17315 0.17474
5247 25.48440 808.79723 778.08475 0.17438
5248 25.48800 808.12004 779.90610 0.17411
5249 25.49160 807.46171 780.97386 0.17420
5250 25.49520 806.82192 778.99628 0.17447
5251 25.49880 806.20037 776.06903 0.17531
5252 25.50240 805.59677 776.75209 0.17526
5253 25.50600 805.01085 774.13831 0.17583
5254 25.50960 804.44234 771.26415 0.17639
5255 25.51320 803.89099 772.01931 0.17620
5256 25.51680 803.35658 775.56723 0.17517
5257 25.52040 802.83887 772.02124 0.17610
5258 25.52400 802.33766 772.88197 0.17670
5259 25.52760 801.85274 773.65024 0.17707
5260 25.53120 801.38394 773.35485 0.17811
5261 25.53480 800.93107 771.37937 0.17985
5262 25.53840 800.49397 772.82616 0.15946
5263 25.54200 800.07250 769.92645 0.15467
5264 25.54560 799.66650 770.04172 0.15453
5265 25.54920 799.27585 773.03690 0.15387
5266 25.55280 798.90044 767.97990 0.15485
5267 25.55640 798.54015 770.46380 0.15453
5268 25.56000 798.19489 772.67645 0.15391
5269 25.56360 797.86458 771.97201 0.15377
5270 25.56720 797.54913 768.23752 0.15461
5271 25.57080 797.24850 768.49161 0.15482
5272 25.57440 796.58028 770.41863 0.15448
5273 25.57800 796.29596 772.97893 0.15378
5274 25.58160 796.04042 769.46146 0.15496
5275 25.58520 795.79955 770.09533 0.15469
5276 25.58880 795.57334 772.31428 0.15409
5277 25.59240 795.36180 772.34409 0.15417
5278 25.59600 795.16494 771.58226 0.15407
5279 25.59960 794.98279 773.88073 0.15370
5280 25.60320 794.81540 775.45471 0.15407
5281 25.60680 794.66281 773.59378 0.15502
5282 25.61040 794.52509 771.03650 0.15632
5283 25.61400 794.40231 775.12002 0.15674
5284 25.61760 794.29458 775.29155 0.14274
5285 25.62120 794.20199 777.32083 0.13140
5286 25.62480 794.12466 774.32384 0.13172
5287 25.62840 794.06273 773.85180 0.13180
5288 25.63200 794.01633 774.55658 0.13159
5289 25.63560 793.98563 774.15667 0.13175
5290 25.63920 793.97081 774.92740 0.13168
5291 25.64280 793.97205 770.23820 0.13211
5292 25.64640 793.98957 771.23879 0.13198
5293 25.65000 794.02359 773.42729 0.13186
5294 25.65360 794.07435 769.84014 0.13256
5295 25.65720 794.14211 774.88411 0.13153
5296 25.66080 794.22715 773.06234 0.13217
5297 25.66440 794.32977 770.68400 0.13254
5298 25.66800 794.45029 771.78858 0.13215
5299 25.67160 794.58905 773.38724 0.13198
5300 25.67520 794.74641 776.07380 0.13130
5301 25.67880 794.92275 771.49751 0.13208
5302 25.68240 795.11850 770.74278 0.13280
5303 25.68600 795.33407 770.69570 0.13353
5304 25.68960 795.56994 772.95431 0.13377
5305 25.69320 795.82660 772.57623 0.13504
5306 25.69680 796.10455 770.56626 0.12602
5307 25.70040 796.40436 776.37239 0.10959
5308 25.70400 796.72660 775.42731 0.10955
5309 25.70760 797.07189 775.78865 0.10948
5310 25.71120 797.44089 774.27942 0.10956
5311 25.71480 797.83428 774.53746 0.10949
5312 25.71840 798.25279 779.69028 0.10896
5313 25.72200 798.69720 777.49754 0.12430
5314 25.72560 799.16825 779.60328 0.13331
5315 25.72920 799.62514 777.92518 0.12077
5316 25.73280 800.15273 776.63963 0.12008
5317 25.73640 800.70977 780.30711 0.12170
5318 25.74000 801.29729 779.78661 0.11755
5319 25.74360 801.91637 777.89016 0.13141
5320 25.74720 802.56816 779.30291 0.13103
5321 25.75080 803.25388 785.72578 0.12996
5322 25.75440 803.97482 783.60776 0.13024
5323 25.75800 804.73233 779.99563 0.13076
5324 25.76160 805.52788 784.89584 0.13019
5325 25.76520 806.36298 786.64992 0.13060
5326 25.76880 807.23927 783.34735 0.13158
5327 25.77240 808.15849 784.90277 0.13254
5328 25.77600 809.12245 786.93937 0.12842
5329 25.77960 810.13304 787.49245 0.10791
5330 25.78320 811.19216 793.53325 0.10687
5331 25.78680 812.30260 792.64434 0.10696
5332 25.79040 813.46636 795.94739 0.10649
5333 25.79400 814.68595 791.38528 0.10707
5334 25.79760 815.96403 793.38295 0.10684
5335 25.80120 817.30345 795.06072 0.11596
5336 25.80480 818.70722 794.03168 0.13110
5337 25.80840 820.17860 794.84734 0.12326
5338 25.81200 821.72103 800.31906 0.11156
5339 25.81560 823.33822 801.96784 0.12320
5340 25.81920 825.03413 806.92417 0.10866
5341 25.82280 826.81299 809.92689 0.12619
5342 25.82640 828.67935 812.77746 0.12557
5343 25.83000 830.63809 812.85650 0.12563
5344 25.83360 832.69445 815.52313 0.12514
5345 25.83720 834.85406 819.07821 0.12450
5346 25.84080 837.12299 815.22476 0.12512
5347 25.84440 839.50778 823.35093 0.12454
5348 25.84800 842.07149 823.06612 0.12505
5349 25.85160 844.71015 822.88375 0.12608
5350 25.85520 847.48750 828.37376 0.12635
5351 25.85880 850.41241 833.03445 0.10258
5352 25.86240 853.49451 840.46868 0.10093
5353 25.86600 856.74423 844.14563 0.10038
5354 25.86960 860.17287 846.67813 0.10016
5355 25.87320 863.79274 844.84515 0.10046
5356 25.87680 867.61723 849.92318 0.09977
5357 25.88040 871.66094 854.17368 0.10398
5358 25.88400 875.93978 860.78510 0.12122
5359 25.88760 880.47116 866.37023 0.11686
5360 25.89120 885.27413 871.73048 0.09885
5361 25.89480 890.36958 878.07625 0.11601
5362 25.89840 895.78042 877.56830 0.09687
5363 25.90200 901.53187 884.94087 0.11497
5364 25.90560 907.65172 895.08390 0.11408
5365 25.90920 914.17062 903.94089 0.11296
5366 25.91280 921.12248 909.76775 0.11230
5367 25.91640 928.54485 912.01111 0.11185
5368 25.92000 936.47945 923.09093 0.11050
5369 25.92360 944.97269 929.28539 0.11012
5370 25.92720 954.07636 941.20858 0.10914
5371 25.93080 963.84836 950.10034 0.10889
5372 25.93440 974.35366 964.90363 0.10834
5373 25.93800 985.66532 970.04689 0.09514
5374 25.94160 997.86582 981.76120 0.08663
5375 25.94520 1011.04852 1000.10832 0.08492
5376 25.94880 1025.31957 1012.40056 0.08402
5377 25.95240 1040.80000 1025.06629 0.08296
5378 25.95600 1057.62846 1036.09513 0.08204
5379 25.95960 1075.96428 1061.58688 0.08036
5380 25.96320 1095.99134 1069.64873 0.09742
5381 25.96680 1117.92258 1094.25135 0.09459
5382 25.97040 1142.00545 1111.93738 0.07790
5383 25.97400 1168.52838 1142.92553 0.08772
5384 25.97760 1197.82845 1170.92225 0.07510
5385 25.98120 1230.30044 1194.79785 0.08241
5386 25.98480 1266.40730 1218.38411 0.08386
5387 25.98840 1306.69242 1256.02622 0.08137
5388 25.99200 1351.79345 1290.13561 0.07934
5389 25.99560 1402.45787 1331.39200 0.07678
5390 25.99920 1459.55972 1382.18524 0.07396
5391 26.00280 1524.11648 1439.68928 0.06850
5392 26.00640 1597.30377 1508.00083 0.06010
5393 26.01000 1680.46227 1587.88949 0.05178
5394 26.01360 1775.08633 1684.07632 0.04538
5395 26.01720 1882.77306 1782.31120 0.04288
5396 26.02080 2005.09455 1906.36323 0.03001
5397 26.02440 2143.33446 2042.32822 0.02722
5398 26.02800 2298.01833 2192.34429 0.02675
5399 26.03160 2468.21066 2356.36559 0.02244
5400 26.03520 2650.73864 2521.50866 0.02128
5401 26.03880 2839.87443 2692.13676 0.02149
5402 26.04240 3028.28277 2857.86859 0.02468
5403 26.04600 3209.44757 3016.63205 0.02136
5404 26.04960 3380.11226 3173.65196 0.01914
5405 26.05320 3540.39923 3354.91863 0.02111
5406 26.05680 3691.16942 3473.39353 0.02299
5407 26.06040 3830.79917 3599.15340 0.02381
5408 26.06400 3953.64375 3694.30817 0.02555
5409 26.06760 4050.71429 3780.12631 0.02599
5410 26.07120 4111.87236 3852.71147 0.02653
5411 26.07480 4128.58305 3916.30394 0.02603
5412 26.07840 4096.32062 3962.06934 0.02576
5413 26.08200 4015.86895 3970.67967 0.02570
5414 26.08560 3893.14405 3926.82024 0.02608
5415 26.08920 3737.74726 3820.52269 0.02145
5416 26.09280 3560.91906 3653.90417 0.01711
5417 26.09640 3373.63747 3450.12692 0.01620
5418 26.10000 3185.33253 3220.38045 0.01316
5419 26.10360 3003.31733 2988.10658 0.01538
5420 26.10720 2832.78188 2774.61666 0.01614
5421 26.11080 2677.11384 2581.31457 0.02172
5422 26.11440 2538.34366 2431.10984 0.02733
5423 26.11800 2417.58655 2338.27987 0.03538
5424 26.12160 2315.42051 2259.92114 0.04144
5425 26.12520 2232.18244 2234.23793 0.04653
5426 26.12880 2168.18360 2226.80913 0.04352
5427 26.13240 2123.84721 2234.71257 0.04049
5428 26.13600 2099.75708 2261.73456 0.04311
5429 26.13960 2096.57812 2316.44270 0.03833
5430 26.14320 2114.76476 2370.74725 0.04207
5431 26.14680 2153.91904 2431.97069 0.04186
5432 26.15040 2211.64070 2488.89463 0.04099
5433 26.15400 2281.85600 2527.76073 0.04029
5434 26.15760 2353.14906 2554.42269 0.03988
5435 26.16120 2408.61264 2547.64924 0.03992
5436 26.16480 2429.31067 2514.75708 0.04045
5437 26.16840 2401.57701 2432.41494 0.03789
5438 26.17200 2323.92801 2331.28584 0.03654
5439 26.17560 2207.67494 2209.81884 0.03429
5440 26.17920 2070.64923 2078.84675 0.03510
5441 26.18280 1929.55988 1949.44306 0.03575
5442 26.18640 1795.84129 1811.43613 0.03719
5443 26.19000 1675.36089 1679.88793 0.04209
5444 26.19360 1569.97268 1552.59394 0.04742
5445 26.19720 1479.24112 1435.27222 0.05317
5446 26.20080 1401.68250 1338.41117 0.06810
5447 26.20440 1335.48858 1261.43689 0.07998
5448 26.20800 1278.88796 1193.61852 0.08683
5449 26.21160 1230.29757 1138.47985 0.09104
5450 26.21520 1188.36641 1105.47193 0.10700
5451 26.21880 1151.96953 1065.83907 0.09577
5452 26.22240 1120.18252 1037.14402 0.11463
5453 26.22600 1092.25065 1013.81887 0.11723
5454 26.22960 1067.55921 991.26891 0.12011
5455 26.23320 1045.60726 978.16841 0.12159
5456 26.23680 1025.98557 959.05032 0.12386
5457 26.24040 1008.35845 943.90803 0.12592
5458 26.24400 992.44918 934.35017 0.12713
5459 26.24760 978.02830 920.57782 0.12883
5460 26.25120 964.90438 914.99938 0.12978
5461 26.25480 952.91668 905.83625 0.13114
5462 26.25840 941.92942 895.82938 0.13262
5463 26.26200 931.82723 888.10326 0.13370
5464 26.26560 922.51149 881.01254 0.13474
5465 26.26920 913.89745 874.35144 0.13593
5466 26.27280 905.91193 869.10482 0.13673
5467 26.27640 898.49143 864.82975 0.13736
5468 26.28000 891.58060 857.49822 0.13866
5469 26.28360 885.13098 856.57902 0.16123
5470 26.28720 879.10000 853.42388 0.16120
5471 26.29080 873.45009 846.99469 0.14261
5472 26.29440 868.14799 842.12893 0.15867
5473 26.29800 863.16416 839.18116 0.14548
5474 26.30160 858.49586 834.29628 0.15814
5475 26.30520 854.07257 831.93303 0.16328
5476 26.30880 849.89658 828.93284 0.16402
5477 26.31240 845.94889 825.90767 0.16470
5478 26.31600 842.21240 822.72481 0.16506
5479 26.31960 838.67165 820.75610 0.16563
5480 26.32320 835.31264 817.08754 0.16615
5481 26.32680 832.12265 814.91557 0.16653
5482 26.33040 829.09011 811.60253 0.16709
5483 26.33400 826.20447 812.20432 0.16712
5484 26.33760 823.45610 805.90770 0.16841
5485 26.34120 820.83618 807.54192 0.16814
5486 26.34480 818.33662 802.91930 0.16895
5487 26.34840 815.95001 799.53017 0.16981
5488 26.35200 813.66950 799.14158 0.16998
5489 26.35560 811.48882 795.09068 0.17071
5490 26.35920 809.40216 795.53469 0.17071
5491 26.36280 807.40416 794.67476 0.17095
5492 26.36640 805.48988 792.93861 0.17119
5493 26.37000 803.65471 787.22330 0.17247
5494 26.37360 801.89441 790.71672 0.17175
5495 26.37720 800.20503 788.46940 0.17215
5496 26.38080 798.58291 784.92898 0.17316
5497 26.38440 797.02464 783.66693 0.17337
5498 26.38800 795.52878 784.35004 0.17317
5499 26.39160 794.09692 783.48616 0.17363
5500 26.39520 792.71219 783.54002 0.17324
5501 26.39880 791.37991 783.40484 0.17340
5502 26.40240 790.09770 780.07376 0.17416
5503 26.40600 788.86336 776.53426 0.17483
5504 26.40960 787.67481 778.11217 0.17431
5505 26.41320 786.53016 775.70351 0.17511
5506 26.41680 785.42761 774.03486 0.17530
5507 26.42040 784.36551 779.23299 0.17424
5508 26.42400 783.34234 774.70249 0.17520
5509 26.42760 782.35667 774.12485 0.17543
5510 26.43120 781.40721 775.04994 0.17537
5511 26.43480 780.49276 772.77498 0.17575
5512 26.43840 778.80905 772.81382 0.17578
5513 26.44200 777.93311 769.48228 0.17666
5514 26.44560 777.11980 772.14310 0.17583
5515 26.44920 776.33775 770.11160 0.17624
5516 26.45280 775.72437 769.37797 0.17657
5517 26.45640 775.14234 770.40305 0.17615
5518 26.46000 774.46189 772.10246 0.17600
5519 26.46360 773.79988 772.93922 0.17592
5520 26.46720 773.16684 770.95893 0.17624
5521 26.47080 772.56267 771.69388 0.17615
5522 26.47440 771.98742 768.07230 0.17689
5523 26.47800 771.44129 768.47494 0.17672
5524 26.48160 770.92466 768.54547 0.17679
5525 26.48520 770.43809 765.29322 0.17762
5526 26.48880 769.98237 769.00355 0.17632
5527 26.49240 769.55855 766.23415 0.17738
5528 26.49600 769.16798 764.27671 0.17781
5529 26.49960 768.81235 765.06340 0.17754
5530 26.50320 768.49376 767.78524 0.17689
5531 26.50680 768.21479 765.79811 0.17723
5532 26.51040 767.97863 762.63534 0.17822
5533 26.51400 767.78916 762.92799 0.17800
5534 26.51760 767.65113 762.95197 0.17796
5535 26.52120 767.57035 765.08860 0.17766
5536 26.52480 767.55394 762.03905 0.17818
5537 26.52840 767.61067 762.95984 0.17793
5538 26.53200 767.75134 762.32261 0.17822
5539 26.53560 767.99330 763.15230 0.17785
5540 26.53920 768.34523 765.58128 0.17749
5541 26.54280 768.83153 766.73078 0.17731
5542 26.54640 769.47783 769.41424 0.17660
5543 26.55000 770.31584 770.01209 0.17644
5544 26.55360 771.38478 773.58665 0.17564
5545 26.55720 772.73265 774.92772 0.17524
5546 26.56080 774.41740 779.28981 0.17447
5547 26.56440 776.50710 785.20441 0.17319
5548 26.56800 779.07781 797.19579 0.17022
5549 26.57160 782.20646 807.14274 0.16828
5550 26.57520 785.95415 809.05531 0.16796
5551 26.57880 790.33277 816.80605 0.16630
5552 26.58240 795.24798 824.97946 0.16458
5553 26.58600 800.42036 829.65008 0.16343
5554 26.58960 805.24926 835.80984 0.16244
5555 26.59320 809.00751 841.43753 0.16137
5556 26.59680 810.96493 838.73481 0.16179
5557 26.60040 810.50899 836.07122 0.16249
5558 26.60400 807.69096 831.39585 0.16327
5559 26.60760 803.11470 817.22383 0.16609
5560 26.61120 797.62087 811.21519 0.16734
5561 26.61480 791.95410 801.27711 0.16935
5562 26.61840 786.60504 789.17699 0.17201
5563 26.62200 781.81688 781.51561 0.17387
5564 26.62560 777.66135 777.19698 0.17476
5565 26.62920 774.11503 772.40197 0.17570
5566 26.63280 771.11221 768.09740 0.17674
5567 26.63640 768.57496 766.02270 0.17722
5568 26.64000 766.42794 762.27488 0.17819
5569 26.64360 764.60438 766.39208 0.17753
5570 26.64720 763.04770 758.58640 0.17905
5571 26.65080 761.71108 756.74149 0.17937
5572 26.65440 760.55633 757.27894 0.17930
5573 26.65800 759.55249 759.29149 0.17881
5574 26.66160 758.67455 757.78005 0.17930
5575 26.66520 757.90232 756.31689 0.17939
5576 26.66880 757.21945 755.92852 0.17954
5577 26.67240 756.61267 757.28369 0.17935
5578 26.67600 756.07118 756.75133 0.17923
5579 26.67960 755.58612 753.67734 0.18015
5580 26.68320 755.15020 756.16658 0.17948
5581 26.68680 754.75739 753.33563 0.18017
5582 26.69040 754.40266 750.89311 0.18052
5583 26.69400 754.08180 755.48510 0.17968
5584 26.69760 753.79129 754.08665 0.18000
5585 26.70120 753.52814 756.45033 0.17954
5586 26.70480 753.28982 753.66306 0.18010
5587 26.70840 753.07419 751.99433 0.18032
5588 26.71200 752.87941 752.80116 0.18012
5589 26.71560 752.70393 752.95598 0.18037
5590 26.71920 752.54638 753.42670 0.18029
5591 26.72280 752.40563 754.23883 0.18036
5592 26.72640 752.28068 751.37622 0.18079
5593 26.73000 752.17069 752.69596 0.18048
5594 26.73360 752.07494 751.00848 0.18093
5595 26.73720 751.99279 754.60942 0.17992
5596 26.74080 751.92371 753.08267 0.18040
5597 26.74440 751.86726 752.32986 0.18054
5598 26.74800 751.82306 754.03888 0.17990
5599 26.75160 751.79079 753.91295 0.18011
5600 26.75520 751.77018 755.71246 0.17942
5601 26.75880 751.76104 752.64733 0.18032
5602 26.76240 751.76318 757.06680 0.17929
5603 26.76600 751.77650 754.39595 0.17998
5604 26.76960 751.80091 752.54061 0.18001
5605 26.77320 751.83636 755.02488 0.17979
5606 26.77680 751.88282 756.14366 0.17962
5607 26.78040 751.94033 756.06260 0.17980
5608 26.78400 752.00891 752.97501 0.18035
5609 26.78760 752.08865 753.47494 0.17998
5610 26.79120 752.17965 754.46632 0.17981
5611 26.79480 752.27684 756.01585 0.17962
5612 26.79840 751.92479 757.18263 0.17933
5613 26.80200 752.05487 760.16751 0.17896
5614 26.80560 752.19680 755.82710 0.17988
5615 26.80920 752.35081 755.31356 0.17981
5616 26.81280 752.51715 758.27840 0.17917
5617 26.81640 752.69610 759.36930 0.17891
5618 26.82000 752.88796 762.04771 0.17841
5619 26.82360 753.09307 759.53950 0.17905
5620 26.82720 753.40526 758.28863 0.17903
5621 26.83080 754.43305 757.63259 0.17930
5622 26.83440 754.71553 761.40528 0.17830
5623 26.83800 755.29001 762.36524 0.17806
5624 26.84160 755.57384 762.87626 0.17802
5625 26.84520 755.87357 761.33909 0.17839
5626 26.84880 756.18974 759.16101 0.17853
5627 26.85240 756.52292 759.56909 0.17866
5628 26.85600 756.87375 762.07746 0.17837
5629 26.85960 757.24288 765.17348 0.17780
5630 26.86320 757.63101 761.90184 0.17827
5631 26.86680 758.03891 764.19303 0.17755
5632 26.87040 758.46736 761.60608 0.17814
5633 26.87400 758.91721 763.68708 0.17793
5634 26.87760 759.38938 764.46543 0.17782
5635 26.88120 759.88483 767.81616 0.17713
5636 26.88480 760.40459 765.34870 0.17775
5637 26.88840 760.94975 770.48168 0.17656
5638 26.89200 761.52148 769.29167 0.17680
5639 26.89560 762.12103 767.18233 0.17717
5640 26.89920 762.74974 771.35484 0.17641
5641 26.90280 763.40901 773.01049 0.17604
5642 26.90640 764.10039 771.54470 0.17614
5643 26.91000 764.82548 773.92522 0.17552
5644 26.91360 765.58604 772.33293 0.17595
5645 26.91720 766.33722 776.65068 0.17477
5646 26.92080 766.01075 782.73147 0.17362
5647 26.92440 766.90091 780.01906 0.17412
5648 26.92800 767.83470 775.73506 0.17495
5649 26.93160 768.81461 780.28317 0.17408
5650 26.93520 769.84331 783.11018 0.17364
5651 26.93880 770.92372 783.40396 0.17375
5652 26.94240 772.05896 782.74159 0.17371
5653 26.94600 773.25242 786.17956 0.17270
5654 26.94960 774.50779 792.42914 0.17127
5655 26.95320 775.82907 791.32353 0.17179
5656 26.95680 777.22062 793.16411 0.17144
5657 26.96040 778.68723 795.84219 0.17090
5658 26.96400 780.23414 798.01374 0.17063
5659 26.96760 781.86713 799.14571 0.17023
5660 26.97120 783.59256 802.20977 0.16974
5661 26.97480 785.41754 799.39098 0.17034
5662 26.97840 787.34997 803.64431 0.16938
5663 26.98200 789.39876 807.24042 0.16872
5664 26.98560 791.57394 807.42962 0.16852
5665 26.98920 793.88694 813.31588 0.16716
5666 26.99280 796.35085 812.65368 0.16731
5667 26.99640 798.98078 814.62516 0.16685
5668 27.00000 801.79423 816.52797 0.16653
5669 27.00360 804.81165 821.45999 0.16535
5670 27.00720 808.05694 823.28370 0.16502
5671 27.01080 811.55806 822.98578 0.16508
5672 27.01440 815.34759 829.29929 0.16395
5673 27.01800 819.46291 834.73684 0.16297
5674 27.02160 823.94570 838.33634 0.16221
5675 27.02520 828.83962 839.01289 0.16192
5676 27.02880 834.18463 844.45223 0.16076
5677 27.03240 840.00510 849.15755 0.16001
5678 27.03600 846.28873 853.00475 0.15956
5679 27.03960 852.95530 857.22942 0.15869
5680 27.04320 859.82383 863.15019 0.15768
5681 27.04680 866.60493 871.40765 0.15624
5682 27.05040 872.95857 874.16786 0.15572
5683 27.05400 878.62815 880.13424 0.15480
5684 27.05760 883.57921 889.55673 0.15314
5685 27.06120 888.02723 891.62471 0.15287
5686 27.06480 892.32788 898.73954 0.15156
5687 27.06840 896.82765 906.95810 0.14995
5688 27.07200 901.77496 912.16679 0.14910
5689 27.07560 907.30753 915.17968 0.14860
5690 27.07920 913.47951 927.27559 0.14668
5691 27.08280 920.29451 932.43696 0.14577
5692 27.08640 927.72987 940.03469 0.14461
5693 27.09000 935.75080 945.73321 0.14370
5694 27.09360 944.31709 959.45818 0.14166
5695 27.09720 953.38542 970.48857 0.14021
5696 27.10080 962.90929 979.53695 0.13889
5697 27.10440 972.83780 988.02159 0.13751
5698 27.10800 983.11378 1000.11083 0.13574
5699 27.11160 993.67140 1014.34965 0.13397
5700 27.11520 1004.43292 1023.08460 0.13306
5701 27.11880 1015.30401 1036.37766 0.13130
5702 27.12240 1026.16648 1050.05718 0.12967
5703 27.12600 1036.86764 1062.34694 0.12820
5704 27.12960 1047.20725 1071.45447 0.12711
5705 27.13320 1056.92886 1087.10481 0.12536
5706 27.13680 1065.73003 1102.78930 0.12348
5707 27.14040 1073.08641 1116.52221 0.12206
5708 27.14400 1079.04048 1128.67914 0.12064
5709 27.14760 1083.56181 1132.49422 0.12024
5710 27.15120 1086.47522 1142.57062 0.11905
5711 27.15480 1087.82186 1145.80810 0.11878
5712 27.15840 1087.65663 1149.15946 0.11840
5713 27.16200 1086.03357 1152.79721 0.11797
5714 27.16560 1083.01404 1147.59951 0.11853
5715 27.16920 1078.68112 1137.44722 0.11945
5716 27.17280 1073.14928 1134.34398 0.11984
5717 27.17640 1066.56644 1128.57348 0.12066
5718 27.18000 1059.10919 1116.92313 0.12188
5719 27.18360 1050.97222 1105.89425 0.12303
5720 27.18720 1042.35270 1094.41817 0.12419
5721 27.19080 1033.42841 1079.37314 0.12595
5722 27.19440 1024.32838 1070.32503 0.12731
5723 27.19800 1015.09823 1060.67958 0.12842
5724 27.20160 1005.67283 1047.33151 0.13005
5725 27.20520 995.88583 1030.25477 0.13240
5726 27.20880 985.54630 1015.66511 0.13425
5727 27.21240 974.56731 1000.69524 0.13636
5728 27.21600 963.05927 986.49090 0.13823
5729 27.21960 951.30529 972.67497 0.14026
5730 27.22320 939.64338 961.10317 0.14187
5731 27.22680 928.35469 950.39253 0.14354
5732 27.23040 917.61740 944.93720 0.14426
5733 27.23400 907.51593 928.14216 0.14685
5734 27.23760 898.07084 917.97606 0.14838
5735 27.24120 889.26690 913.71631 0.14912
5736 27.24480 881.07230 907.00792 0.15015
5737 27.24840 873.44975 900.00323 0.15124
5738 27.25200 866.36213 895.98899 0.15197
5739 27.25560 859.77501 889.24281 0.15336
5740 27.25920 853.65738 882.84259 0.15457
5741 27.26280 847.98107 880.10085 0.15488
5742 27.26640 842.71900 878.17960 0.15509
5743 27.27000 837.84184 873.37621 0.15597
5744 27.27360 833.31284 870.23069 0.15684
5745 27.27720 829.08175 865.47155 0.15759
5746 27.28080 825.08105 864.26225 0.15780
5747 27.28440 821.23148 860.82038 0.15859
5748 27.28800 817.46114 858.79437 0.15896
5749 27.29160 813.73117 855.72044 0.15960
5750 27.29520 810.04835 849.98534 0.16058
5751 27.29880 806.45273 846.26168 0.16129
5752 27.30240 802.99181 843.30168 0.16179
5753 27.30600 799.70077 838.30018 0.16285
5754 27.30960 796.59651 835.21253 0.16353
5755 27.31320 793.68079 826.35945 0.16507
5756 27.31680 790.94613 820.64113 0.16629
5757 27.32040 788.38058 816.35615 0.16711
5758 27.32400 785.97078 813.35538 0.16771
5759 27.32760 783.70363 809.80382 0.16835
5760 27.33120 781.56695 804.05669 0.16973
5761 27.33480 779.54975 799.90017 0.17063
5762 27.33840 777.64224 792.86583 0.17225
5763 27.34200 775.83571 793.19932 0.17207
5764 27.34560 774.12246 790.79244 0.17250
5765 27.34920 772.49991 783.05883 0.17423
5766 27.35280 770.92600 780.10263 0.17511
5767 27.35640 769.45474 782.69667 0.17442
5768 27.36000 768.05326 776.01860 0.17582
5769 27.36360 764.15584 773.85823 0.17638
5770 27.36720 762.79208 771.90016 0.17692
5771 27.37080 761.58922 770.95376 0.17710
5772 27.37440 760.44025 771.44682 0.17705
5773 27.37800 759.34206 767.09357 0.17804
5774 27.38160 758.29174 763.53761 0.17896
5775 27.38520 757.28662 763.29713 0.17897
5776 27.38880 756.32422 764.26597 0.17896
5777 27.39240 755.40225 758.72542 0.18000
5778 27.39600 754.51858 762.63856 0.17927
5779 27.39960 753.67123 761.44967 0.17935
5780 27.40320 752.85834 756.18972 0.18055
5781 27.40680 752.07821 758.38715 0.17986
5782 27.41040 750.82741 758.22583 0.18019
5783 27.41400 749.45941 755.88043 0.18061
5784 27.41760 748.77160 755.82824 0.18078
5785 27.42120 748.11067 752.59551 0.18151
5786 27.42480 747.47539 748.70846 0.18246
5787 27.42840 746.86459 751.03658 0.18186
5788 27.43200 746.27717 750.15138 0.18221
5789 27.43560 745.71211 747.02523 0.18299
5790 27.43920 745.16845 746.74891 0.18286
5791 27.44280 744.64527 748.56415 0.18226
5792 27.44640 744.14171 744.80907 0.18335
5793 27.45000 743.65697 744.04862 0.18344
5794 27.45360 743.19028 743.44932 0.18388
5795 27.45720 742.74093 744.73342 0.18352
5796 27.46080 742.30823 740.34718 0.18471
5797 27.46440 741.89154 737.49515 0.18523
5798 27.46800 741.49025 743.35456 0.18402
5799 27.47160 741.10380 739.58936 0.18480
5800 27.47520 740.73163 738.26526 0.18533
5801 27.47880 740.37324 740.38830 0.18470
5802 27.48240 740.02814 740.68174 0.18453
5803 27.48600 739.69586 737.32436 0.18507
5804 27.48960 739.37598 741.12235 0.18446
5805 27.49320 739.06808 737.29543 0.18545
5806 27.49680 738.77177 740.31716 0.18468
5807 27.50040 738.48669 739.00595 0.18506
5808 27.50400 738.21247 734.98059 0.18615
5809 27.50760 737.94879 734.88642 0.18598
5810 27.51120 737.69534 738.17639 0.18542
5811 27.51480 737.45181 737.74294 0.18552
5812 27.51840 737.30357 730.84882 0.18686
5813 27.52200 737.07924 730.59418 0.18681
5814 27.52560 736.86402 732.58939 0.18659
5815 27.52920 736.65769 734.04275 0.18600
5816 27.53280 736.46002 734.73815 0.18618
5817 27.53640 736.27080 729.27560 0.18750
5818 27.54000 736.08982 732.48764 0.18680
5819 27.54360 735.91688 731.46575 0.18686
5820 27.54720 735.75182 734.58203 0.18629
5821 27.55080 735.59446 734.61415 0.18624
5822 27.55440 735.44464 730.52118 0.18730
5823 27.55800 735.30221 730.41470 0.18732
5824 27.56160 735.16703 731.04075 0.18695
5825 27.56520 735.03896 731.46820 0.18675
5826 27.56880 734.91788 731.72976 0.18689
5827 27.57240 734.80367 733.43768 0.18654
5828 27.57600 734.69623 729.89797 0.18748
5829 27.57960 734.59545 734.11405 0.18639
5830 27.58320 734.50124 730.35832 0.18733
5831 27.58680 734.41351 734.58161 0.18621
5832 27.59040 734.33219 730.74648 0.18744
5833 27.59400 734.25719 733.90453 0.18674
5834 27.59760 734.18846 729.44268 0.18718
5835 27.60120 734.12592 733.07262 0.18630
5836 27.60480 734.06953 732.34545 0.18665
5837 27.60840 734.01924 730.62450 0.18687
5838 27.61200 733.97501 732.28342 0.18668
5839 27.61560 733.93679 731.29114 0.18704
5840 27.61920 733.90457 734.58558 0.18634
5841 27.62280 733.87830 733.53810 0.18639
5842 27.62640 733.85797 733.61723 0.18650
5843 27.63000 733.84357 732.80669 0.18686
5844 27.63360 733.83509 732.77771 0.18681
5845 27.63720 733.83253 733.23772 0.18669
5846 27.64080 733.83587 730.02882 0.18727
5847 27.64440 733.84514 731.04724 0.18706
5848 27.64800 733.86034 732.94319 0.18662
5849 27.65160 733.88149 735.53293 0.18609
5850 27.65520 733.90861 734.51567 0.18643
5851 27.65880 733.94173 733.90497 0.18667
5852 27.66240 733.98089 732.07745 0.18707
5853 27.66600 734.02611 733.20137 0.18667
5854 27.66960 734.07744 733.47017 0.18690
5855 27.67320 734.13494 734.27031 0.18682
5856 27.67680 734.19865 730.93646 0.18705
5857 27.68040 734.26863 733.83599 0.18633
5858 27.68400 734.34495 732.19286 0.18675
5859 27.68760 734.42769 731.86383 0.18677
5860 27.69120 734.51690 732.42042 0.18667
5861 27.69480 734.61269 733.89890 0.18637
5862 27.69840 734.71513 735.19697 0.18612
5863 27.70200 734.82432 740.76999 0.18460
5864 27.70560 734.94035 737.46960 0.18552
5865 27.70920 735.06335 732.99989 0.18700
5866 27.71280 735.19341 740.50165 0.18492
5867 27.71640 735.33066 741.59089 0.18470
5868 27.72000 735.47523 743.95198 0.18384
5869 27.72360 735.62725 742.47495 0.18428
5870 27.72720 735.78685 745.44339 0.18363
5871 27.73080 735.95420 747.46990 0.18322
5872 27.73440 736.12943 746.03116 0.18376
5873 27.73800 736.31273 746.47541 0.18364
5874 27.74160 736.50426 747.60332 0.18337
5875 27.74520 736.70420 748.49728 0.18301
5876 27.74880 736.91274 747.99573 0.18330
5877 27.75240 737.13008 748.40893 0.18347
5878 27.75600 737.35644 749.71232 0.18269
5879 27.75960 737.59202 744.79076 0.18373
5880 27.76320 737.83707 747.64048 0.18292
5881 27.76680 738.09181 746.78513 0.18327
5882 27.77040 738.35651 747.90414 0.18275
5883 27.77400 738.63141 749.27084 0.18263
5884 27.77760 738.91681 747.33254 0.18313
5885 27.78120 739.21299 746.28378 0.18350
5886 27.78480 739.52025 748.47691 0.18291
5887 27.78840 739.83891 745.61594 0.18385
5888 27.79200 740.16930 747.25376 0.18329
5889 27.79560 740.51176 751.25563 0.18243
5890 27.79920 740.86665 750.93836 0.18231
5891 27.80280 741.23436 748.09202 0.18286
5892 27.80640 741.59274 749.45625 0.18269
5893 27.81000 741.98655 751.15359 0.18253
5894 27.81360 742.39531 751.76681 0.18244
5895 27.81720 742.81853 755.36549 0.18145
5896 27.82080 743.25668 759.03888 0.18076
5897 27.82440 743.71027 758.06758 0.18081
5898 27.82800 744.17980 758.99716 0.18072
5899 27.83160 744.66586 762.19305 0.18021
5900 27.83520 745.16902 761.72429 0.17993
5901 27.83880 745.68988 763.95273 0.17911
5902 27.84240 746.22907 761.78172 0.17951
5903 27.84600 746.78727 767.15662 0.17830
5904 27.84960 747.36515 766.44219 0.17841
5905 27.85320 747.96343 767.76845 0.17816
5906 27.85680 748.58289 764.70830 0.17894
5907 27.86040 749.22431 766.90277 0.17845
5908 27.86400 749.88853 767.85031 0.17812
5909 27.86760 750.57644 770.46629 0.17775
5910 27.87120 751.28895 772.95425 0.17727
5911 27.87480 752.02704 771.43223 0.17761
5912 27.87840 752.79173 772.48913 0.17730
5913 27.88200 753.58409 775.33933 0.17645
5914 27.88560 754.40526 780.73677 0.17528
5915 27.88920 755.25644 781.36877 0.17549
5916 27.89280 756.13868 781.94864 0.17541
5917 27.89640 757.04431 785.83222 0.17447
5918 27.90000 757.99337 786.75249 0.17438
5919 27.90360 758.97786 789.68794 0.17371
5920 27.90720 759.99934 793.38493 0.17286
5921 27.91080 761.05944 791.61419 0.17342
5922 27.91440 762.15989 793.37005 0.17295
5923 27.91800 763.30250 794.87419 0.17220
5924 27.92160 764.48920 796.52465 0.17179
5925 27.92520 765.72203 799.04782 0.17110
5926 27.92880 767.00314 801.94291 0.17048
5927 27.93240 768.33480 806.40330 0.16987
5928 27.93600 769.71942 805.74613 0.17000
5929 27.93960 771.15956 808.22475 0.16948
5930 27.94320 772.65791 811.38243 0.16871
5931 27.94680 774.21734 810.94969 0.16885
5932 27.95040 775.84090 815.88808 0.16797
5933 27.95400 777.53179 824.75329 0.16614
5934 27.95760 779.32136 819.88276 0.16711
5935 27.96120 781.19242 824.76268 0.16582
5936 27.96480 783.08731 829.28231 0.16494
5937 27.96840 785.19856 833.85356 0.16440
5938 27.97200 787.28702 838.25507 0.16362
5939 27.97560 789.46294 843.51683 0.16262
5940 27.97920 791.73525 845.93657 0.16221
5941 27.98280 794.10926 847.61982 0.16194
5942 27.98640 796.59063 852.92415 0.16082
5943 27.99000 799.18539 856.27234 0.16031
5944 27.99360 801.90001 861.83241 0.15939
5945 27.99720 804.74140 864.38281 0.15858
5946 28.00080 807.71697 865.46865 0.15828
5947 28.00440 810.83464 871.46623 0.15698
5948 28.00800 814.10294 876.75927 0.15612
5949 28.01160 817.53101 882.35933 0.15527
5950 28.01520 821.12868 887.58817 0.15436
5951 28.01880 824.90653 893.73271 0.15327
5952 28.02240 828.87598 897.40371 0.15251
5953 28.02600 833.04931 902.68415 0.15165
5954 28.02960 837.43982 910.00738 0.15059
5955 28.03320 842.06190 916.48761 0.14956
5956 28.03680 846.93112 918.38586 0.14922
5957 28.04040 852.06428 924.96699 0.14787
5958 28.04400 857.47607 930.69038 0.14706
5959 28.04760 863.19427 940.39114 0.14574
5960 28.05120 869.23680 944.73206 0.14520
5961 28.05480 875.62757 952.91695 0.14402
5962 28.05840 882.39282 964.69420 0.14224
5963 28.06200 889.56141 968.06816 0.14185
5964 28.06560 897.16515 974.77115 0.14075
5965 28.06920 905.26665 984.46049 0.13944
5966 28.07280 913.85145 997.19632 0.13773
5967 28.07640 922.98824 1004.96499 0.13649
5968 28.08000 932.72656 1015.37747 0.13502
5969 28.08360 943.12086 1025.89489 0.13351
5970 28.08720 954.23227 1031.10668 0.13285
5971 28.09080 966.12966 1041.22703 0.13159
5972 28.09440 978.89073 1053.14832 0.13023
5973 28.09800 992.60331 1065.44885 0.12862
5974 28.10160 1007.36676 1073.82361 0.12759
5975 28.10520 1023.29350 1088.68889 0.12575
5976 28.10880 1040.51070 1099.18173 0.12474
5977 28.11240 1059.16200 1116.35985 0.12290
5978 28.11600 1079.40939 1131.29747 0.12116
5979 28.11960 1101.43493 1149.08065 0.11913
5980 28.12320 1125.44260 1166.90199 0.11732
5981 28.12680 1151.65972 1181.81810 0.11595
5982 28.13040 1180.33808 1199.18782 0.11443
5983 28.13400 1211.75431 1222.01136 0.11237
5984 28.13760 1246.20907 1248.95294 0.10985
5985 28.14120 1284.02434 1272.73283 0.10786
5986 28.14480 1325.53772 1300.28597 0.10549
5987 28.14840 1371.09239 1327.89538 0.10334
5988 28.15200 1421.02028 1359.80343 0.10089
5989 28.15560 1475.61582 1395.54764 0.09835
5990 28.15920 1535.09646 1437.80427 0.09546
5991 28.16280 1599.54565 1482.54892 0.09246
5992 28.16640 1668.83448 1533.85679 0.08926
5993 28.17000 1742.51978 1589.84387 0.08612
5994 28.17360 1819.72184 1643.91091 0.08337
5995 28.17720 1898.99408 1709.17122 0.07868
5996 28.18080 1978.21185 1776.41045 0.07711
5997 28.18440 2054.52432 1840.23104 0.07440
5998 28.18800 2124.42592 1897.20883 0.07226
5999 28.19160 2183.99790 1951.01569 0.07032
6000 28.19520 2228.95765 2000.06321 0.06855
6001 28.19880 2256.05585 2034.38427 0.06734
6002 28.20240 2264.03884 2050.54181 0.06676
6003 28.20600 2251.56173 2051.32592 0.06675
6004 28.20960 2219.59325 2037.40417 0.06732
6005 28.21320 2170.54851 1999.52356 0.06865
6006 28.21680 2107.84651 1951.61373 0.07029
6007 28.22040 2035.36426 1893.67988 0.07248
6008 28.22400 1956.92796 1824.21979 0.07389
6009 28.22760 1875.93648 1749.47123 0.07606
6010 28.23120 1795.15126 1683.86243 0.08144
6011 28.23480 1716.63597 1628.91015 0.08422
6012 28.23840 1641.80214 1571.50374 0.08744
6013 28.24200 1571.51264 1518.18866 0.09038
6014 28.24560 1506.20394 1476.19252 0.09278
6015 28.24920 1446.00255 1442.32654 0.09501
6016 28.25280 1390.82322 1401.22591 0.09792
6017 28.25640 1340.44551 1364.32401 0.10050
6018 28.26000 1294.57016 1330.18598 0.10306
6019 28.26360 1252.85852 1299.56099 0.10546
6020 28.26720 1214.95920 1273.13776 0.10780
6021 28.27080 1180.52524 1251.46659 0.10967
6022 28.27440 1149.22462 1229.78130 0.11153
6023 28.27800 1120.74633 1206.55104 0.11367
6024 28.28160 1094.80341 1183.64225 0.11582
6025 28.28520 1071.13399 1166.94350 0.11742
6026 28.28880 1049.50108 1148.45650 0.11957
6027 28.29240 1029.69166 1128.70182 0.12176
6028 28.29600 1011.51522 1116.86585 0.12297
6029 28.29960 994.80207 1100.32481 0.12480
6030 28.30320 979.40153 1086.32862 0.12649
6031 28.30680 965.18016 1072.97634 0.12806
6032 28.31040 952.01992 1057.45965 0.12980
6033 28.31400 939.81653 1046.84697 0.13117
6034 28.31760 928.47784 1034.52191 0.13286
6035 28.32120 917.92244 1024.08436 0.13413
6036 28.32480 908.07826 1014.69949 0.13512
6037 28.32840 898.88148 997.67672 0.13744
6038 28.33200 890.27541 989.38010 0.13871
6039 28.33560 882.20961 981.45497 0.13984
6040 28.33920 874.63908 977.00644 0.14044
6041 28.34280 867.52355 966.77937 0.14186
6042 28.34640 860.82691 959.56543 0.14302
6043 28.35000 854.51667 949.34836 0.14465
6044 28.35360 848.56350 939.95299 0.14599
6045 28.35720 842.94090 933.94547 0.14692
6046 28.36080 837.62480 927.00764 0.14792
6047 28.36440 832.59335 920.81533 0.14893
6048 28.36800 827.82663 911.76250 0.15059
6049 28.37160 823.30645 903.63934 0.15214
6050 28.37520 819.01618 898.43034 0.15298
6051 28.37880 814.94068 890.57684 0.15422
6052 28.38240 811.10330 885.73699 0.15521
6053 28.38600 807.41650 882.44517 0.15578
6054 28.38960 803.90563 875.67104 0.15688
6055 28.39320 800.55978 868.43054 0.15806
6056 28.39680 797.36883 867.76595 0.15831
6057 28.40040 794.32345 858.97115 0.15999
6058 28.40400 791.41499 852.62674 0.16092
6059 28.40760 788.63545 851.25131 0.16103
6060 28.41120 785.97738 848.99086 0.16165
6061 28.41480 783.43387 840.76572 0.16320
6062 28.41840 780.99851 837.32033 0.16389
6063 28.42200 778.66530 834.05494 0.16444
6064 28.42560 776.42869 828.47682 0.16558
6065 28.42920 774.28346 826.82106 0.16623
6066 28.43280 772.22478 821.96731 0.16715
6067 28.43640 770.24810 819.21380 0.16754
6068 28.44000 768.34920 812.25386 0.16892
6069 28.44360 766.52411 808.13922 0.16981
6070 28.44720 764.76911 806.96109 0.17006
6071 28.45080 763.08074 804.83879 0.17073
6072 28.45440 761.45573 802.60759 0.17133
6073 28.45800 759.89103 797.80546 0.17224
6074 28.46160 758.38377 796.41492 0.17263
6075 28.46520 756.93125 792.44836 0.17344
6076 28.46880 755.53095 789.23859 0.17408
6077 28.47240 754.18048 791.40246 0.17351
6078 28.47600 752.87762 786.05577 0.17473
6079 28.47960 751.62026 784.60033 0.17508
6080 28.48320 750.40642 783.55972 0.17526
6081 28.48680 749.23426 779.46352 0.17595
6082 28.49040 748.10201 777.81904 0.17642
6083 28.49400 747.00803 773.81566 0.17739
6084 28.49760 745.95079 772.37000 0.17769
6085 28.50120 744.92882 768.97412 0.17853
6086 28.50480 743.94078 766.23111 0.17910
6087 28.50840 742.98536 763.86693 0.17981
6088 28.51200 742.06138 763.70914 0.17978
6089 28.51560 741.16772 763.42240 0.17976
6090 28.51920 740.30331 760.31085 0.18047
6091 28.52280 739.46719 756.74490 0.18148
6092 28.52640 738.65844 755.10016 0.18172
6093 28.53000 737.87622 755.19218 0.18195
6094 28.53360 737.11975 753.99314 0.18224
6095 28.53720 736.38831 752.52404 0.18260
6096 28.54080 735.68125 748.34076 0.18358
6097 28.54440 734.99798 749.19875 0.18343
6098 28.54800 734.33798 747.19946 0.18392
6099 28.55160 733.70078 744.54717 0.18438
6100 28.55520 733.08600 744.06448 0.18446
6101 28.55880 732.49331 744.08433 0.18465
6102 28.56240 731.92244 742.83151 0.18491
6103 28.56600 731.37323 740.49871 0.18524
6104 28.56960 730.84558 741.33749 0.18500
6105 28.57320 730.33987 742.10355 0.18478
6106 28.57680 729.85543 741.70998 0.18491
6107 28.58040 729.39275 740.42063 0.18533
6108 28.58400 728.95217 737.66792 0.18596
6109 28.58760 728.53411 737.53990 0.18610
6110 28.59120 728.13915 736.13649 0.18643
6111 28.59480 727.76802 735.40829 0.18664
6112 28.59840 727.42163 736.31090 0.18634
6113 28.60200 727.10746 732.20333 0.18767
6114 28.60560 726.81442 732.44068 0.18733
6115 28.60920 726.59011 733.00460 0.18750
6116 28.61280 726.35698 731.74930 0.18769
6117 28.61640 726.16690 728.67785 0.18852
6118 28.62000 726.00346 728.47323 0.18856
6119 28.62360 725.87986 727.41384 0.18900
6120 28.62720 725.80031 727.86568 0.18891
6121 28.63080 725.76993 726.20397 0.18909
6122 28.63440 725.79488 725.74922 0.18898
6123 28.63800 725.88267 724.80522 0.18952
6124 28.64160 726.04244 725.72529 0.18918
6125 28.64520 726.28537 722.78784 0.18980
6126 28.64880 726.62521 718.48519 0.19090
6127 28.65240 727.07893 721.45681 0.19010
6128 28.65600 727.66747 720.91636 0.19038
6129 28.65960 728.41682 721.29429 0.19033
6130 28.66320 729.35913 723.74571 0.18964
6131 28.66680 730.53414 725.86666 0.18912
6132 28.67040 731.99061 728.49785 0.18834
6133 28.67400 733.78776 729.77151 0.18801
6134 28.67760 735.99594 732.05963 0.18742
6135 28.68120 738.69574 738.52624 0.18607
6136 28.68480 741.97304 739.46874 0.18555
6137 28.68840 745.90622 743.53783 0.18469
6138 28.69200 750.53901 751.70920 0.18267
6139 28.69560 755.83062 755.61900 0.18177
6140 28.69920 761.57919 760.81277 0.18046
6141 28.70280 767.33352 761.57959 0.18044
6142 28.70640 772.35218 764.63734 0.17982
6143 28.71000 775.71183 763.55019 0.17989
6144 28.71360 776.62240 768.26786 0.17873
6145 28.71720 774.81183 766.60554 0.17916
6146 28.72080 770.67950 762.87227 0.17988
6147 28.72440 765.07556 756.92579 0.18133
6148 28.72800 758.90790 747.07981 0.18360
6149 28.73160 752.86476 746.33490 0.18370
6150 28.73520 747.34400 737.64584 0.18586
6151 28.73880 742.51071 727.89448 0.18843
6152 28.74240 738.38622 721.17833 0.19032
6153 28.74600 734.91984 717.00515 0.19138
6154 28.74960 732.03361 716.87430 0.19128
6155 28.75320 729.64625 720.55784 0.19026
6156 28.75680 727.68412 715.62685 0.19166
6157 28.76040 726.10115 713.11464 0.19256
6158 28.76400 724.81650 714.75366 0.19201
6159 28.76760 723.80831 710.35318 0.19322
6160 28.77120 723.15899 711.30088 0.19294
6161 28.77480 722.69589 711.20601 0.19302
6162 28.77840 722.39917 709.01394 0.19361
6163 28.78200 722.33141 711.93055 0.19297
6164 28.78560 722.50313 714.88687 0.19228
6165 28.78920 722.93296 713.43448 0.19261
6166 28.79280 723.64657 713.23860 0.19267
6167 28.79640 724.67392 713.77134 0.19233
6168 28.80000 726.04301 715.66162 0.19172
6169 28.80360 727.76708 716.27228 0.19179
6170 28.80720 729.82168 719.44710 0.19077
6171 28.81080 732.10949 722.51976 0.18992
6172 28.81440 734.42020 722.60036 0.18980
6173 28.81800 736.41232 719.94085 0.19051
6174 28.82160 737.66326 720.33604 0.19057
6175 28.82520 737.81316 719.09403 0.19079
6176 28.82880 736.73913 715.76423 0.19149
6177 28.83240 734.62317 713.66077 0.19200
6178 28.83600 731.85058 712.66162 0.19232
6179 28.83960 728.83148 710.58679 0.19323
6180 28.84320 725.87567 714.73806 0.19206
6181 28.84680 723.16112 708.59482 0.19360
6182 28.85040 720.76041 703.95868 0.19499
6183 28.85400 718.68103 703.98162 0.19504
6184 28.85760 716.89783 702.95027 0.19523
6185 28.86120 715.37319 699.20813 0.19634
6186 28.86480 714.06774 695.77524 0.19759
6187 28.86840 712.94526 698.43999 0.19689
6188 28.87200 711.97439 697.75993 0.19680
6189 28.87560 711.12884 701.30111 0.19577
6190 28.87920 710.38697 693.48523 0.19792
6191 28.88280 709.73114 692.41773 0.19834
6192 28.88640 709.14706 690.49004 0.19884
6193 28.89000 708.62311 693.24443 0.19803
6194 28.89360 708.14991 694.50668 0.19746
6195 28.89720 707.71980 694.15731 0.19766
6196 28.90080 707.32654 696.54473 0.19714
6197 28.90440 706.96503 693.98572 0.19782
6198 28.90800 706.63104 690.34249 0.19854
6199 28.91160 706.32108 688.84825 0.19913
6200 28.91520 706.03224 692.97154 0.19790
6201 28.91880 705.76208 691.86842 0.19856
6202 28.92240 705.50854 689.12664 0.19934
6203 28.92600 705.26990 688.28913 0.19959
6204 28.92960 705.04468 689.61148 0.19919
6205 28.93320 704.83164 691.22964 0.19873
6206 28.93680 704.62970 687.40233 0.19987
6207 28.94040 704.43796 688.15685 0.19960
6208 28.94400 704.25563 690.22716 0.19926
6209 28.94760 704.08206 689.29349 0.19963
6210 28.95120 703.91668 685.88203 0.20036
6211 28.95480 703.75901 689.22478 0.19936
6212 28.95840 703.60865 686.97517 0.20008
6213 28.96200 703.46526 689.06172 0.19928
6214 28.96560 703.32858 687.49934 0.19974
6215 28.96920 703.19837 687.81816 0.19985
6216 28.97280 703.07448 688.70027 0.19929
6217 28.97640 702.95680 685.55441 0.20026
6218 28.98000 702.84525 688.13859 0.19958
6219 28.98360 702.73981 686.22092 0.20017
6220 28.98720 702.64051 685.39079 0.20012
6221 28.99080 702.54741 683.64561 0.20063
6222 28.99440 702.46065 682.15944 0.20112
6223 28.99800 702.38038 685.03308 0.20056
6224 29.00160 702.30685 684.85012 0.20077
6225 29.00520 702.24034 682.20966 0.20143
6226 29.00880 702.18121 684.68057 0.20073
6227 29.01240 702.12988 684.11976 0.20083
6228 29.01600 702.08687 684.70894 0.20077
6229 29.01960 702.05280 681.30612 0.20158
6230 29.02320 702.02838 682.98931 0.20129
6231 29.02680 702.01447 686.40699 0.20054
6232 29.03040 702.01207 683.07306 0.20109
6233 29.03400 702.02236 680.34605 0.20211
6234 29.03760 702.04673 682.22322 0.20142
6235 29.04120 702.08681 683.51166 0.20092
6236 29.04480 702.14455 681.49133 0.20155
6237 29.04840 702.22226 682.39932 0.20142
6238 29.05200 702.32267 683.08574 0.20111
6239 29.05560 702.44907 681.61828 0.20160
6240 29.05920 702.60542 684.75708 0.20069
6241 29.06280 702.79648 683.83174 0.20096
6242 29.06640 703.02805 683.42631 0.20087
6243 29.07000 703.30721 686.12885 0.19988
6244 29.07360 703.64264 682.82806 0.20096
6245 29.07720 704.04502 680.29226 0.20183
6246 29.08080 704.52756 680.78109 0.20203
6247 29.08440 705.10658 681.27676 0.20183
6248 29.08800 705.80229 683.99765 0.20105
6249 29.09160 706.63959 684.33613 0.20096
6250 29.09520 707.64899 687.03354 0.20004
6251 29.09880 708.86735 683.28954 0.20100
6252 29.10240 710.33823 680.37844 0.20206
6253 29.10600 712.11096 681.98919 0.20176
6254 29.10960 714.23696 681.11382 0.20190
6255 29.11320 716.76072 679.84782 0.20206
6256 29.11680 719.70120 683.41514 0.20105
6257 29.12040 723.01883 684.30469 0.20072
6258 29.12400 726.56686 687.63749 0.19983
6259 29.12760 730.04021 685.63636 0.20035
6260 29.13120 732.96320 683.30075 0.20104
6261 29.13480 734.77835 687.94698 0.19967
6262 29.13840 735.05428 688.33235 0.19954
6263 29.14200 733.70419 689.18765 0.19933
6264 29.14560 731.03505 689.00152 0.19937
6265 29.14920 727.58136 687.31720 0.19966
6266 29.15280 723.87162 687.85306 0.19958
6267 29.15640 720.28560 688.24875 0.19944
6268 29.16000 717.03128 687.53719 0.20000
6269 29.16360 714.18667 687.72439 0.19978
6270 29.16720 711.75239 684.72884 0.20080
6271 29.17080 709.69168 687.29429 0.20013
6272 29.17440 707.95447 684.09625 0.20094
6273 29.17800 706.48989 681.86363 0.20135
6274 29.18160 705.25171 681.08222 0.20179
6275 29.18520 704.20026 680.85861 0.20196
6276 29.18880 703.30243 678.92003 0.20256
6277 29.19240 702.53106 676.54889 0.20304
6278 29.19600 701.86411 679.05087 0.20231
6279 29.19960 701.28370 677.61543 0.20274
6280 29.20320 700.77543 678.91337 0.20239
6281 29.20680 700.32762 677.77394 0.20270
6282 29.21040 699.93082 678.28119 0.20259
6283 29.21400 699.57736 677.69800 0.20277
6284 29.21760 699.26096 678.33375 0.20266
6285 29.22120 698.97647 680.41551 0.20194
6286 29.22480 698.71966 680.26353 0.20198
6287 29.22840 698.48705 676.06751 0.20309
6288 29.23200 698.27572 678.61508 0.20244
6289 29.23560 698.08328 680.26357 0.20179
6290 29.23920 697.90773 679.15449 0.20252
6291 29.24280 697.74742 675.80396 0.20329
6292 29.24640 697.60099 675.63702 0.20340
6293 29.25000 697.46734 677.24161 0.20306
6294 29.25360 697.34557 677.84781 0.20285
6295 29.25720 697.23502 676.65121 0.20291
6296 29.26080 697.13518 680.13126 0.20190
6297 29.26440 697.04574 676.88473 0.20303
6298 29.26800 696.96657 677.06386 0.20289
6299 29.27160 696.89769 677.96170 0.20249
6300 29.27520 696.83936 678.76771 0.20228
6301 29.27880 696.79203 679.14678 0.20216
6302 29.28240 696.75637 679.16684 0.20219
6303 29.28600 696.73337 675.04735 0.20351
6304 29.28960 696.72433 677.69010 0.20263
6305 29.29320 696.73091 677.69085 0.20251
6306 29.29680 696.75524 678.35070 0.20241
6307 29.30040 696.79994 674.90942 0.20349
6308 29.30400 696.86813 676.33869 0.20309
6309 29.30760 696.96343 676.99020 0.20266
6310 29.31120 697.08971 679.58324 0.20219
6311 29.31480 697.25077 677.42072 0.20266
6312 29.31840 697.44979 681.63217 0.20157
6313 29.32200 697.68895 681.06290 0.20161
6314 29.32560 697.96972 681.85856 0.20144
6315 29.32920 698.29425 681.72131 0.20168
6316 29.33280 698.66685 683.83054 0.20105
6317 29.33640 699.09268 687.41987 0.19987
6318 29.34000 699.57142 686.19971 0.20007
6319 29.34360 700.08635 685.94742 0.20030
6320 29.34720 700.59333 685.67473 0.20020
6321 29.35080 701.01723 690.59309 0.19876
6322 29.35440 701.26597 694.04632 0.19768
6323 29.35800 701.26526 692.95062 0.19808
6324 29.36160 700.99644 694.70098 0.19765
6325 29.36520 700.50728 698.05695 0.19683
6326 29.36880 699.81291 698.90292 0.19642
6327 29.37240 699.04130 697.11315 0.19695
6328 29.37600 698.39873 694.95330 0.19765
6329 29.37960 697.81380 694.26754 0.19781
6330 29.38320 697.30024 694.03023 0.19787
6331 29.38680 696.85839 691.61403 0.19848
6332 29.39040 696.48206 690.13425 0.19925
6333 29.39400 696.16269 685.36663 0.20030
6334 29.39760 695.89153 683.90201 0.20090
6335 29.40120 695.66061 682.66536 0.20119
6336 29.40480 695.46309 682.03077 0.20136
6337 29.40840 695.29324 681.15688 0.20176
6338 29.41200 695.14635 681.07893 0.20187
6339 29.41560 695.01861 677.22446 0.20292
6340 29.41920 694.90691 677.01229 0.20275
6341 29.42280 694.80875 675.81128 0.20333
6342 29.42640 694.72211 675.82475 0.20315
6343 29.43000 694.64533 678.23286 0.20218
6344 29.43360 694.57708 679.43068 0.20172
6345 29.43720 694.51626 674.49613 0.20346
6346 29.44080 694.46197 672.31350 0.20418
6347 29.44440 694.41346 674.79641 0.20357
6348 29.44800 694.37011 674.97641 0.20328
6349 29.45160 694.62040 670.77402 0.20452
6350 29.45520 694.59933 673.28735 0.20380
6351 29.45880 694.57159 673.45989 0.20399
6352 29.46240 694.54744 676.44684 0.20298
6353 29.46600 694.52661 674.71031 0.20359
6354 29.46960 694.44928 674.34546 0.20383
6355 29.47320 694.43248 675.20174 0.20352
6356 29.47680 694.42101 673.94163 0.20384
6357 29.48040 694.41214 674.59746 0.20367
6358 29.48400 694.40577 672.21622 0.20421
6359 29.48760 694.40180 674.24030 0.20363
6360 29.49120 694.40014 673.89278 0.20396
6361 29.49480 694.40072 671.10957 0.20473
6362 29.49840 694.40349 671.00725 0.20458
6363 29.50200 694.40838 673.16591 0.20399
6364 29.50560 694.41536 673.57931 0.20376
6365 29.50920 694.42439 675.98696 0.20290
6366 29.51280 694.43546 673.42837 0.20372
6367 29.51640 694.44852 674.43404 0.20339
6368 29.52000 694.46358 673.07872 0.20383
6369 29.52360 694.48061 674.16835 0.20372
6370 29.52720 694.49961 674.02977 0.20359
6371 29.53080 694.52058 673.35422 0.20380
6372 29.53440 694.54352 673.44757 0.20374
6373 29.53800 694.56842 674.66360 0.20355
6374 29.54160 694.59531 675.84822 0.20325
6375 29.54520 694.62418 672.28456 0.20419
6376 29.54880 694.65505 674.79813 0.20348
6377 29.55240 694.68793 675.71347 0.20336
6378 29.55600 694.72284 673.72657 0.20380
6379 29.55960 694.75980 673.73150 0.20376
6380 29.56320 694.79883 674.27418 0.20354
6381 29.56680 694.83996 677.53408 0.20241
6382 29.57040 694.87643 675.78075 0.20327
6383 29.57400 694.04667 674.78628 0.20341
6384 29.57760 694.09883 676.70892 0.20268
6385 29.58120 694.05934 674.40588 0.20342
6386 29.58480 693.84572 675.05601 0.20322
6387 29.58840 693.90652 676.78189 0.20244
6388 29.59200 693.97555 674.85741 0.20312
6389 29.59560 694.24277 677.38629 0.20237
6390 29.59920 694.31245 675.61103 0.20296
6391 29.60280 694.38454 675.04255 0.20339
6392 29.60640 694.45909 673.88029 0.20371
6393 29.61000 694.53614 676.13116 0.20286
6394 29.61360 694.61573 674.23650 0.20342
6395 29.61720 694.69793 674.32487 0.20349
6396 29.62080 694.78278 678.58169 0.20238
6397 29.62440 694.87033 679.42202 0.20203
6398 29.62800 694.96065 678.77149 0.20212
6399 29.63160 695.05379 676.45533 0.20320
6400 29.63520 695.14980 677.06379 0.20287
6401 29.63880 695.24876 678.29042 0.20234
6402 29.64240 695.35073 678.53927 0.20209
6403 29.64600 695.45577 680.14016 0.20148
6404 29.64960 695.56395 677.70981 0.20241
6405 29.65320 695.67535 678.84249 0.20218
6406 29.65680 695.88354 676.18344 0.20276
6407 29.66040 696.32655 675.36111 0.20307
6408 29.66400 696.49433 678.26799 0.20230
6409 29.66760 696.62161 679.27973 0.20164
6410 29.67120 696.75250 679.19916 0.20184
6411 29.67480 696.88711 679.87551 0.20144
6412 29.67840 697.02552 680.98486 0.20129
6413 29.68200 697.16782 680.54018 0.20177
6414 29.68560 697.31411 679.95502 0.20201
6415 29.68920 697.46450 681.59042 0.20118
6416 29.69280 697.61907 681.53467 0.20118
6417 29.69640 697.77795 681.02123 0.20135
6418 29.70000 697.94123 682.60326 0.20102
6419 29.70360 698.10904 681.83662 0.20125
6420 29.70720 698.28148 682.72654 0.20085
6421 29.71080 698.45869 679.40158 0.20218
6422 29.71440 698.64078 681.72995 0.20133
6423 29.71800 698.82789 683.34899 0.20087
6424 29.72160 699.02016 680.53324 0.20135
6425 29.72520 699.21771 682.64650 0.20065
6426 29.72880 699.42070 682.70804 0.20078
6427 29.73240 699.62927 683.07937 0.20093
6428 29.73600 699.84358 683.06947 0.20079
6429 29.73960 700.06379 682.43364 0.20093
6430 29.74320 700.29007 680.45016 0.20155
6431 29.74680 700.52258 681.66990 0.20097
6432 29.75040 700.76150 681.61388 0.20108
6433 29.75400 701.00703 684.41880 0.20021
6434 29.75760 701.25934 686.69690 0.19963
6435 29.76120 701.51864 684.19353 0.20070
6436 29.76480 701.78514 684.64718 0.20063
6437 29.76840 702.05904 685.55166 0.19998
6438 29.77200 702.34058 684.51714 0.20031
6439 29.77560 702.65656 689.55331 0.19891
6440 29.77920 702.95399 687.89335 0.19954
6441 29.78280 703.25977 691.06199 0.19859
6442 29.78640 703.57415 687.56796 0.19956
6443 29.79000 703.89739 686.09832 0.20012
6444 29.79360 704.22978 691.41843 0.19852
6445 29.79720 704.57160 689.49839 0.19912
6446 29.80080 704.92315 688.23367 0.19914
6447 29.80440 705.28475 689.32389 0.19869
6448 29.80800 705.65672 692.64529 0.19784
6449 29.81160 706.03939 690.19145 0.19882
6450 29.81520 706.43313 690.47442 0.19872
6451 29.81880 706.83828 691.48818 0.19821
6452 29.82240 707.25524 694.98254 0.19737
6453 29.82600 707.68439 695.88436 0.19692
6454 29.82960 708.12616 695.86074 0.19708
6455 29.83320 708.58097 698.60134 0.19616
6456 29.83680 709.04926 696.00856 0.19692
6457 29.84040 709.53152 698.43003 0.19659
6458 29.84400 710.02822 698.52056 0.19656
6459 29.84760 710.53987 695.62024 0.19706
6460 29.85120 711.06700 699.58995 0.19599
6461 29.85480 711.61017 703.01465 0.19498
6462 29.85840 712.16995 703.66343 0.19484
6463 29.86200 712.74695 703.65820 0.19510
6464 29.86560 713.34179 701.35274 0.19561
6465 29.86920 713.95513 698.27935 0.19653
6466 29.87280 714.58767 704.03340 0.19501
6467 29.87640 715.24010 705.74190 0.19448
6468 29.88000 715.91320 707.08749 0.19371
6469 29.88360 716.60773 706.92180 0.19366
6470 29.88720 717.32452 707.97096 0.19351
6471 29.89080 718.06442 710.02572 0.19313
6472 29.89440 718.81259 709.76315 0.19335
6473 29.89800 719.58007 711.59658 0.19260
6474 29.90160 720.39520 711.60053 0.19278
6475 29.90520 721.23726 711.68955 0.19274
6476 29.90880 722.10734 717.70267 0.19114
6477 29.91240 723.00656 716.52939 0.19144
6478 29.91600 723.93607 716.71316 0.19138
6479 29.91960 724.89712 716.78491 0.19162
6480 29.92320 725.89098 719.70816 0.19086
6481 29.92680 726.91899 718.70891 0.19076
6482 29.93040 727.98256 719.48050 0.19059
6483 29.93400 729.09715 724.88410 0.18929
6484 29.93760 730.20760 722.38531 0.18982
6485 29.94120 731.31439 720.67285 0.19060
6486 29.94480 732.53646 724.17062 0.18945
6487 29.94840 733.80214 726.84458 0.18885
6488 29.95200 735.11325 725.52415 0.18916
6489 29.95560 736.47173 727.99373 0.18838
6490 29.95920 737.87958 732.25949 0.18737
6491 29.96280 739.33888 733.69832 0.18664
6492 29.96640 740.85184 736.52480 0.18609
6493 29.97000 742.42074 738.34425 0.18570
6494 29.97360 744.04796 741.85207 0.18499
6495 29.97720 745.73600 742.56772 0.18459
6496 29.98080 747.48744 741.35423 0.18497
6497 29.98440 749.30502 741.58907 0.18508
6498 29.98800 751.19153 746.85645 0.18367
6499 29.99160 753.14993 748.69359 0.18318
6500 29.99520 755.18327 748.79975 0.18311
6501 29.99880 757.29473 751.46891 0.18270
6502 30.00240 759.48762 751.95929 0.18271
6503 30.00600 761.76536 755.73319 0.18148
6504 30.00960 764.13152 757.17063 0.18111
6505 30.01320 766.58978 758.02330 0.18097
6506 30.01680 769.14394 759.14016 0.18051
6507 30.02040 771.79794 762.99910 0.17998
6508 30.02400 774.55585 768.83371 0.17848
6509 30.02760 777.42182 769.42638 0.17835
6510 30.03120 780.40015 769.19376 0.17833
6511 30.03480 783.49523 775.21346 0.17693
6512 30.03840 786.71193 780.63409 0.17573
6513 30.04200 790.07025 777.89522 0.17604
6514 30.04560 793.54296 783.83886 0.17475
6515 30.04920 797.15078 782.40490 0.17521
6516 30.05280 800.89844 785.41323 0.17466
6517 30.05640 804.79067 789.30822 0.17358
6518 30.06000 808.83215 794.99388 0.17238
6519 30.06360 813.02755 798.52824 0.17180
6520 30.06720 817.38141 799.25933 0.17163
6521 30.07080 821.89818 804.22507 0.17067
6522 30.07440 826.58213 807.18674 0.16992
6523 30.07800 831.43731 804.48738 0.17053
6524 30.08160 836.46753 809.21372 0.16977
6525 30.08520 841.67629 817.09399 0.16779
6526 30.08880 847.06630 826.96373 0.16579
6527 30.09240 852.64127 827.22940 0.16582
6528 30.09600 858.40313 828.09953 0.16546
6529 30.09960 864.35386 833.29835 0.16462
6530 30.10320 870.49506 838.24721 0.16362
6531 30.10680 876.82797 840.89732 0.16317
6532 30.11040 883.35363 844.65153 0.16245
6533 30.11400 890.07123 850.84958 0.16116
6534 30.11760 896.98091 856.20557 0.16013
6535 30.12120 904.09166 864.53941 0.15835
6536 30.12480 911.40166 870.51669 0.15732
6537 30.12840 918.91548 878.13251 0.15620
6538 30.13200 926.64038 879.99376 0.15590
6539 30.13560 934.58771 885.96750 0.15475
6540 30.13920 942.77454 894.13756 0.15314
6541 30.14280 951.22588 900.67125 0.15235
6542 30.14640 959.97751 909.33857 0.15082
6543 30.15000 969.07955 919.71347 0.14915
6544 30.15360 978.60089 930.95521 0.14716
6545 30.15720 988.63464 941.14447 0.14579
6546 30.16080 999.30458 956.91003 0.14346
6547 30.16440 1010.77246 972.40281 0.14116
6548 30.16800 1023.24575 992.95494 0.13794
6549 30.17160 1036.98445 1015.15593 0.13496
6550 30.17520 1052.30399 1040.01427 0.13171
6551 30.17880 1069.56813 1066.63685 0.12846
6552 30.18240 1089.15968 1096.64600 0.12502
6553 30.18600 1111.40993 1125.98018 0.12179
6554 30.18960 1136.62618 1161.99849 0.11808
6555 30.19320 1164.12190 1192.03319 0.11503
6556 30.19680 1192.86658 1214.91727 0.11284
6557 30.20040 1220.39545 1238.31737 0.11057
6558 30.20400 1242.95147 1254.99603 0.10898
6559 30.20760 1256.14222 1265.42338 0.10835
6560 30.21120 1256.61080 1263.79250 0.10849
6561 30.21480 1243.74338 1258.55450 0.10897
6562 30.21840 1220.03031 1235.25929 0.11083
6563 30.22200 1189.74292 1206.40197 0.11369
6564 30.22560 1157.09712 1186.24283 0.11570
6565 30.22920 1125.13450 1162.09313 0.11801
6566 30.23280 1095.54314 1130.37444 0.12128
6567 30.23640 1068.98537 1099.91888 0.12462
6568 30.24000 1045.51183 1064.02400 0.12890
6569 30.24360 1024.87596 1035.58245 0.13261
6570 30.24720 1006.72432 1007.45109 0.13592
6571 30.25080 990.69535 982.41956 0.13942
6572 30.25440 976.46308 959.38996 0.14287
6573 30.25800 963.75192 937.24309 0.14627
6574 30.26160 952.33772 932.85906 0.14715
6575 30.26520 942.04303 921.23203 0.14890
6576 30.26880 932.73087 907.92019 0.15120
6577 30.27240 924.29844 903.86179 0.15185
6578 30.27600 916.67184 894.48287 0.15335
6579 30.27960 909.80192 892.35717 0.15362
6580 30.28320 903.66131 890.40812 0.15373
6581 30.28680 898.24266 883.54320 0.15530
6582 30.29040 893.55798 877.79858 0.15646
6583 30.29400 889.63913 877.62280 0.15645
6584 30.29760 886.53930 882.19647 0.15548
6585 30.30120 884.43679 881.19614 0.15578
6586 30.30480 883.23570 885.16312 0.15516
6587 30.30840 883.16838 887.45089 0.15471
6588 30.31200 884.40800 895.43615 0.15328
6589 30.31560 887.16346 905.58135 0.15159
6590 30.31920 891.67959 916.28922 0.14970
6591 30.32280 898.22422 924.35488 0.14845
6592 30.32640 907.05282 943.98957 0.14502
6593 30.33000 918.33145 961.68608 0.14246
6594 30.33360 932.00415 977.30866 0.14014
6595 30.33720 947.51470 992.62638 0.13815
6596 30.34080 963.58159 1005.02008 0.13664
6597 30.34440 977.97061 1016.08389 0.13506
6598 30.34800 987.71425 1016.64155 0.13504
6599 30.35160 989.99817 1014.88896 0.13535
6600 30.35520 983.44103 1003.86738 0.13671
6601 30.35880 968.84843 991.77330 0.13844
6602 30.36240 948.75840 969.75984 0.14132
6603 30.36600 926.19958 940.61590 0.14584
6604 30.36960 903.64010 915.07651 0.15004
6605 30.37320 882.60364 889.47131 0.15426
6606 30.37680 863.78643 860.09717 0.15943
6607 30.38040 847.34228 836.40637 0.16408
6608 30.38400 833.13637 820.51520 0.16742
6609 30.38760 820.91257 807.23512 0.17011
6610 30.39120 810.38595 794.81629 0.17275
6611 30.39480 801.28693 782.97309 0.17527
6612 30.39840 793.37862 775.85213 0.17680
6613 30.40200 786.46064 769.36093 0.17830
6614 30.40560 780.36701 762.89115 0.17942
6615 30.40920 774.96179 755.55230 0.18137
6616 30.41280 770.13679 752.71148 0.18190
6617 30.41640 765.79685 750.20737 0.18260
6618 30.42000 761.87122 748.49610 0.18345
6619 30.42360 758.30009 745.39490 0.18403
6620 30.42720 755.03446 737.58062 0.18595
6621 30.43080 752.03394 734.81217 0.18691
6622 30.43440 749.26508 732.81942 0.18728
6623 30.43800 746.69995 729.97739 0.18808
6624 30.44160 744.31513 731.55815 0.18733
6625 30.44520 742.09082 728.90207 0.18805
6626 30.44880 740.01018 728.51680 0.18836
6627 30.45240 738.05881 728.07982 0.18841
6628 30.45600 736.22432 723.07833 0.18945
6629 30.45960 734.49599 723.52751 0.18970
6630 30.46320 732.86450 722.03712 0.19012
6631 30.46680 731.32172 714.27549 0.19227
6632 30.47040 729.86076 715.30288 0.19192
6633 30.47400 728.48871 715.61644 0.19178
6634 30.47760 727.17257 714.72528 0.19188
6635 30.48120 725.92117 713.85365 0.19206
6636 30.48480 724.73010 713.79805 0.19201
6637 30.48840 723.59542 713.62736 0.19196
6638 30.49200 722.51361 710.88419 0.19265
6639 30.49560 721.48148 706.18955 0.19398
6640 30.49920 720.49617 705.08136 0.19475
6641 30.50280 719.55512 706.60040 0.19429
6642 30.50640 718.65598 705.39389 0.19455
6643 30.51000 717.79665 703.55753 0.19535
6644 30.51360 716.97524 700.63616 0.19626
6645 30.51720 716.19001 703.55349 0.19597
6646 30.52080 715.43941 702.73429 0.19632
6647 30.52440 714.72205 697.48677 0.19897
6648 30.52800 714.03666 699.00394 0.19998
6649 30.53160 713.38213 697.18075 0.17873
6650 30.53520 712.75746 695.42381 0.17240
6651 30.53880 712.16176 695.73440 0.17252
6652 30.54240 711.59429 694.83520 0.17279
6653 30.54600 711.05440 692.80401 0.17335
6654 30.54960 710.54897 696.65518 0.17232
6655 30.55320 711.26814 693.04684 0.17317
6656 30.55680 710.81399 694.44676 0.17273
6657 30.56040 710.38603 691.42010 0.17339
6658 30.56400 709.98423 691.07820 0.17359
6659 30.56760 709.60865 689.25846 0.17381
6660 30.57120 709.25954 688.31756 0.17411
6661 30.57480 708.93729 690.61368 0.17332
6662 30.57840 708.64248 690.99354 0.17370
6663 30.58200 708.37589 691.28654 0.17382
6664 30.58560 708.13852 687.81895 0.17449
6665 30.58920 707.93167 686.59489 0.17515
6666 30.59280 707.75690 686.01743 0.17552
6667 30.59640 707.61618 688.69166 0.17520
6668 30.60000 707.51188 690.97233 0.17474
6669 30.60360 707.44689 687.13160 0.17661
6670 30.60720 707.42471 686.24988 0.17828
6671 30.61080 707.44959 688.44677 0.16245
6672 30.61440 707.52669 689.41618 0.14901
6673 30.61800 707.78742 689.36067 0.14910
6674 30.62160 707.99019 686.14987 0.15001
6675 30.62520 708.26772 688.65736 0.14940
6676 30.62880 708.63230 688.97275 0.14932
6677 30.63240 709.09814 687.20378 0.14975
6678 30.63600 709.68277 687.32075 0.14959
6679 30.63960 710.40794 686.90954 0.14950
6680 30.64320 711.30053 688.01239 0.14943
6681 30.64680 712.39377 691.29168 0.14840
6682 30.65040 713.72850 688.52368 0.14912
6683 30.65400 715.35436 690.91203 0.14851
6684 30.65760 717.33070 691.94395 0.14860
6685 30.66120 719.72616 692.75281 0.14862
6686 30.66480 722.61549 698.63763 0.14724
6687 30.66840 726.07057 705.18425 0.14604
6688 30.67200 730.14059 708.05473 0.14580
6689 30.67560 734.81445 710.09265 0.14564
6690 30.67920 739.96020 716.66530 0.14453
6691 30.68280 745.24809 722.00626 0.14405
6692 30.68640 750.09636 727.23673 0.14436
6693 30.69000 753.72070 735.05410 0.13357
6694 30.69360 755.36017 740.88070 0.11559
6695 30.69720 754.61763 740.94639 0.11555
6696 30.70080 751.67592 746.83517 0.11487
6697 30.70440 747.19585 752.76919 0.11382
6698 30.70800 741.99075 754.36080 0.11369
6699 30.71160 736.73736 749.45225 0.11440
6700 30.71520 731.86214 748.32589 0.11443
6701 30.71880 727.56659 743.83593 0.11501
6702 30.72240 723.90243 736.72975 0.11610
6703 30.72600 720.84071 730.15774 0.13252
6704 30.72960 718.31816 725.63382 0.14495
6705 30.73320 716.26313 719.56471 0.14469
6706 30.73680 714.60825 714.38793 0.14517
6707 30.74040 713.29562 705.32869 0.14682
6708 30.74400 712.27823 704.77443 0.14661
6709 30.74760 711.51979 705.11191 0.14633
6710 30.75120 710.99392 699.89278 0.14767
6711 30.75480 710.68320 703.16417 0.14707
6712 30.75840 710.57840 706.07848 0.14690
6713 30.76200 710.67762 705.86452 0.14718
6714 30.76560 710.98546 702.23514 0.14918
6715 30.76920 711.51148 706.52385 0.14452
6716 30.77280 712.26736 705.06960 0.12135
6717 30.77640 713.26120 704.78285 0.12146
6718 30.78000 714.48708 706.68783 0.12155
6719 30.78360 715.90792 708.46879 0.12095
6720 30.78720 717.43277 703.23680 0.12197
6721 30.79080 718.89787 708.17871 0.12120
6722 30.79440 720.07387 704.42576 0.12163
6723 30.79800 720.72345 704.64232 0.12133
6724 30.80160 720.70059 702.52135 0.12183
6725 30.80520 720.02712 699.80829 0.13176
6726 30.80880 718.87929 696.64386 0.15142
6727 30.81240 717.49713 694.79990 0.15018
6728 30.81600 716.09173 696.08978 0.14909
6729 30.81960 714.80207 697.04453 0.14859
6730 30.82320 713.69724 692.53892 0.14925
6731 30.82680 712.79780 693.34908 0.14883
6732 30.83040 712.09723 691.88406 0.14928
6733 30.83400 711.57686 695.07098 0.14857
6734 30.83760 711.21445 694.64017 0.14927
6735 30.84120 710.98848 694.69818 0.14942
6736 30.84480 710.87987 691.95799 0.15127
6737 30.84840 710.87254 694.37928 0.15203
6738 30.85200 710.95325 695.28632 0.12415
6739 30.85560 711.11133 697.52052 0.12268
6740 30.85920 711.33828 696.79508 0.12300
6741 30.86280 711.62738 698.15065 0.12272
6742 30.86640 711.97339 696.37714 0.12316
6743 30.87000 712.37228 697.16397 0.12306
6744 30.87360 712.82100 696.37241 0.12306
6745 30.87720 713.31727 700.37649 0.12199
6746 30.88080 713.85951 701.51576 0.12210
6747 30.88440 714.44663 696.20970 0.12736
6748 30.88800 715.07804 698.97444 0.15109
6749 30.89160 715.75351 703.46997 0.14853
6750 30.89520 716.47316 704.51518 0.14720
6751 30.89880 717.23738 701.97512 0.14740
6752 30.90240 718.04686 703.95512 0.14667
6753 30.90600 718.90250 706.79808 0.14601
6754 30.90960 719.80544 708.44397 0.14557
6755 30.91320 720.75705 708.45089 0.14558
6756 30.91680 721.75887 710.18388 0.14567
6757 30.92040 722.81267 713.64890 0.14525
6758 30.92400 723.92041 711.19037 0.14651
6759 30.92760 725.08427 711.67387 0.14778
6760 30.93120 726.30661 714.44126 0.13013
6761 30.93480 727.59003 716.64820 0.11918
6762 30.93840 728.93734 721.29378 0.11843
6763 30.94200 730.35160 721.02892 0.11856
6764 30.94560 731.83608 723.11666 0.11835
6765 30.94920 733.39435 724.25621 0.11827
6766 30.95280 735.03023 726.11313 0.11783
6767 30.95640 736.74787 727.20664 0.11742
6768 30.96000 738.55171 727.55798 0.11750
6769 30.96360 740.44655 730.17681 0.11718
6770 30.96720 742.43757 732.08585 0.14305
6771 30.97080 744.23251 735.75459 0.14215
6772 30.97440 746.43587 736.39291 0.14089
6773 30.97800 748.75348 739.46085 0.13968
6774 30.98160 751.19239 740.05459 0.13935
6775 30.98520 753.76023 742.17126 0.13887
6776 30.98880 756.46529 745.86377 0.13817
6777 30.99240 759.31657 746.27703 0.13817
6778 30.99600 762.32387 746.92203 0.13823
6779 30.99960 765.49788 749.82638 0.13809
6780 31.00320 768.85031 754.97837 0.13772
6781 31.00680 772.39398 760.87290 0.13796
6782 31.01040 776.14302 764.39638 0.12749
6783 31.01400 780.11296 763.86647 0.11186
6784 31.01760 784.32103 766.52513 0.11145
6785 31.02120 788.78631 771.12659 0.11092
6786 31.02480 793.53007 774.34041 0.11047
6787 31.02840 798.57604 776.76887 0.11030
6788 31.03200 803.95084 781.78449 0.10953
6789 31.03560 809.68436 784.53220 0.10896
6790 31.03920 815.81033 783.58187 0.10914
6791 31.04280 822.36683 791.47161 0.10824
6792 31.04640 829.39699 796.79601 0.12622
6793 31.05000 836.94968 800.01584 0.13114
6794 31.05360 845.08018 806.90325 0.12889
6795 31.05720 853.85084 813.44980 0.12716
6796 31.06080 863.33135 816.30498 0.12650
6797 31.06440 873.59829 823.22357 0.12539
6798 31.06800 884.73309 828.40283 0.12454
6799 31.07160 896.81707 830.13984 0.12428
6800 31.07520 909.92173 837.13512 0.12327
6801 31.07880 924.09290 844.07480 0.12265
6802 31.08240 939.33038 852.90114 0.12177
6803 31.08600 955.57345 859.52286 0.12200
6804 31.08960 972.71268 866.14351 0.11831
6805 31.09320 990.64609 874.89811 0.09771
6806 31.09680 1009.36173 883.89951 0.09677
6807 31.10040 1028.98396 892.80797 0.09576
6808 31.10400 1049.73427 902.38925 0.09473
6809 31.10760 1071.83195 914.68777 0.09359
6810 31.11120 1095.32836 924.99078 0.09253
6811 31.11480 1120.21008 932.96454 0.09163
6812 31.11840 1146.47246 942.25273 0.09074
6813 31.12200 1173.59601 951.75696 0.09010
6814 31.12560 1200.99565 963.63378 0.09710
6815 31.12920 1227.87879 970.88714 0.10831
6816 31.13280 1253.25540 981.42820 0.10615
6817 31.13640 1275.98081 997.84712 0.10363
6818 31.14000 1294.84205 1001.21038 0.10300
6819 31.14360 1308.68727 1007.16194 0.10224
6820 31.14720 1316.58067 1013.83388 0.10155
6821 31.15080 1317.94874 1014.06225 0.10156
6822 31.15440 1312.67681 1005.92925 0.10212
6823 31.15800 1301.12485 999.98840 0.10277
6824 31.16160 1284.05731 996.20535 0.10310
6825 31.16520 1262.51091 982.70193 0.10452
6826 31.16880 1237.64301 967.62889 0.10610
6827 31.17240 1210.60113 954.46988 0.10725
6828 31.17600 1182.43256 944.94218 0.10854
6829 31.17960 1154.02905 934.71864 0.10971
6830 31.18320 1126.10009 917.91319 0.11166
6831 31.18680 1099.16788 912.14319 0.11248
6832 31.19040 1073.58394 902.91249 0.11365
6833 31.19400 1049.55995 890.05758 0.11521
6834 31.19760 1027.20241 883.28328 0.11602
6835 31.20120 1006.54371 874.86138 0.11740
6836 31.20480 987.56592 869.53040 0.12220
6837 31.20840 970.21608 863.92259 0.14173
6838 31.21200 954.41229 857.71552 0.14157
6839 31.21560 940.04007 853.01158 0.14138
6840 31.21920 926.94019 851.49805 0.14120
6841 31.22280 914.89484 844.13971 0.14223
6842 31.22640 903.62930 838.28168 0.14328
6843 31.23000 892.85178 832.11482 0.14438
6844 31.23360 882.33386 833.24126 0.12834
6845 31.23720 871.98645 825.65090 0.12435
6846 31.24080 861.86805 829.43989 0.12376
6847 31.24440 852.11776 823.33847 0.12463
6848 31.24800 842.87101 819.12284 0.12535
6849 31.25160 834.21149 817.20906 0.12516
6850 31.25520 826.16547 809.20043 0.12665
6851 31.25880 818.71757 804.39547 0.13706
6852 31.26240 811.82945 798.30624 0.14999
6853 31.26600 805.45349 797.35377 0.15020
6854 31.26960 799.54094 790.06646 0.15156
6855 31.27320 794.04588 782.26996 0.15294
6856 31.27680 788.92682 776.50232 0.15410
6857 31.28040 784.14708 772.90061 0.15489
6858 31.28400 779.67446 768.69130 0.15578
6859 31.28760 775.48084 766.33335 0.18073
6860 31.29120 771.54163 760.94840 0.18233
6861 31.29480 767.83523 757.61820 0.18203
6862 31.29840 764.34264 754.00451 0.18226
6863 31.30200 761.04701 748.90362 0.18336
6864 31.30560 757.93339 750.17462 0.18291
6865 31.30920 754.98838 745.93644 0.18404
6866 31.31280 752.19999 740.97170 0.17269
6867 31.31640 749.55741 739.73159 0.16186
6868 31.32000 747.05088 739.72025 0.16192
6869 31.32360 744.67153 733.50372 0.16317
6870 31.32720 742.41126 731.18116 0.16392
6871 31.33080 740.26268 730.84488 0.16354
6872 31.33440 738.21896 728.05111 0.16425
6873 31.33800 736.27384 722.93356 0.17094
6874 31.34160 734.42154 723.54306 0.18914
6875 31.34520 732.68872 725.34580 0.18862
6876 31.34880 731.00793 722.81209 0.18937
6877 31.35240 729.40392 719.21833 0.19022
6878 31.35600 727.87360 718.00032 0.19059
6879 31.35960 726.41303 716.70237 0.19102
6880 31.36320 725.01851 717.26555 0.19100
6881 31.36680 723.68663 716.49146 0.19080
6882 31.37040 722.41416 712.94475 0.19186
6883 31.37400 721.19814 714.33821 0.19151
6884 31.37760 720.03574 712.12503 0.19189
6885 31.38120 718.92437 712.59612 0.19201
6886 31.38480 717.86157 712.82529 0.19207
6887 31.38840 716.84503 706.19465 0.19398
6888 31.39200 715.87261 708.48549 0.18477
6889 31.39560 714.94229 705.74647 0.16948
6890 31.39920 714.05216 703.59234 0.17002
6891 31.40280 713.20044 705.53148 0.16960
6892 31.40640 712.38545 707.29202 0.16938
6893 31.41000 711.60561 703.94628 0.17002
6894 31.41360 710.85945 699.44908 0.17096
6895 31.41720 710.26988 700.50800 0.17203
6896 31.42080 709.62474 700.13522 0.19553
6897 31.42440 708.97226 699.70149 0.19554
6898 31.42800 708.34832 700.36350 0.19551
6899 31.43160 707.75184 696.98747 0.19635
6900 31.43520 707.18176 696.61444 0.19643
6901 31.43880 706.63710 697.21267 0.19633
6902 31.44240 706.11696 693.23100 0.19774
6903 31.44600 705.65666 695.67200 0.19662
6904 31.44960 705.18485 695.79353 0.19655
6905 31.45320 704.73244 694.33009 0.19709
6906 31.45680 704.24854 694.52266 0.19674
6907 31.46040 703.83967 692.63636 0.19754
6908 31.46400 703.45076 692.73269 0.19751
6909 31.46760 703.08119 694.87883 0.19711
6910 31.47120 702.73039 692.55569 0.19394
6911 31.47480 702.39782 688.42951 0.17381
6912 31.47840 702.08778 692.37215 0.17271
6913 31.48200 701.80874 690.89627 0.17323
6914 31.48560 701.52809 686.48107 0.17427
6915 31.48920 701.26380 688.26746 0.17396
6916 31.49280 701.01546 690.18102 0.17331
6917 31.49640 700.78269 689.43264 0.17353
6918 31.50000 700.56515 687.13368 0.19562
6919 31.50360 700.36250 689.45688 0.19845
6920 31.50720 700.17444 689.01258 0.19861
6921 31.51080 700.00069 686.96492 0.19929
6922 31.51440 699.84097 687.87647 0.19890
6923 31.51800 699.69505 688.81890 0.19873
6924 31.52160 699.56271 690.00333 0.19852
6925 31.52520 699.44373 686.72880 0.19929
6926 31.52880 699.33793 687.88783 0.19888
6927 31.53240 699.24515 688.26407 0.19890
6928 31.53600 699.16524 687.27011 0.19892
6929 31.53960 699.09805 691.07590 0.19798
6930 31.54320 699.04347 693.38096 0.19742
6931 31.54680 699.00137 694.02325 0.19733
6932 31.55040 698.97162 692.09693 0.19800
6933 31.55400 698.95408 691.38109 0.17462
6934 31.55760 698.94855 689.78265 0.17328
6935 31.56120 698.93843 693.03366 0.17277
6936 31.56480 698.95646 696.52828 0.17196
6937 31.56840 698.98597 697.97033 0.17164
6938 31.57200 699.02696 692.38589 0.17290
6939 31.57560 699.07954 691.84133 0.17313
6940 31.57920 699.14387 691.92375 0.18931
6941 31.58280 699.22008 691.45709 0.19818
6942 31.58640 699.30829 693.75214 0.19738
6943 31.59000 699.40858 695.37996 0.19713
6944 31.59360 699.52100 689.94904 0.19863
6945 31.59720 699.64561 693.24037 0.19768
6946 31.60080 699.78248 690.18255 0.19868
6947 31.60440 699.93167 689.88004 0.19861
6948 31.60800 700.09327 691.66149 0.19803
6949 31.61160 700.26738 690.54844 0.19845
6950 31.61520 700.45412 689.13057 0.19868
6951 31.61880 700.65360 690.33437 0.19848
6952 31.62240 701.03483 689.49355 0.19877
6953 31.62600 701.26065 692.76033 0.19780
6954 31.62960 701.49971 690.21176 0.19857
6955 31.63320 701.75218 689.93615 0.18373
6956 31.63680 702.04392 689.32358 0.17370
6957 31.64040 702.32476 689.23417 0.17368
6958 31.64400 702.61903 689.95137 0.17361
6959 31.64760 702.92763 687.67867 0.17416
6960 31.65120 703.25083 691.67266 0.17317
6961 31.65480 703.58892 692.56857 0.17296
6962 31.65840 703.94220 691.83779 0.18065
6963 31.66200 704.31099 694.39428 0.19733
6964 31.66560 704.69563 693.94497 0.19726
6965 31.66920 705.09649 693.56509 0.19734
6966 31.67280 705.51395 692.08165 0.19761
6967 31.67640 705.94841 694.21503 0.19689
6968 31.68000 706.40029 690.54525 0.19798
6969 31.68360 706.87003 693.93562 0.19667
6970 31.68720 707.35809 698.06045 0.19537
6971 31.69080 707.86493 701.83194 0.19445
6972 31.69440 708.39102 700.50538 0.19484
6973 31.69800 708.93685 696.38838 0.19612
6974 31.70160 709.50293 699.23904 0.19546
6975 31.70520 710.08983 706.18366 0.19358
6976 31.70880 710.69820 703.13510 0.19448
6977 31.71240 711.32873 705.78919 0.18461
6978 31.71600 711.98218 705.13839 0.16962
6979 31.71960 712.65931 702.03001 0.17038
6980 31.72320 713.36093 705.72279 0.16983
6981 31.72680 714.08784 706.01744 0.16958
6982 31.73040 714.84089 704.90135 0.16999
6983 31.73400 715.62096 706.47248 0.16945
6984 31.73760 716.42899 706.74919 0.17138
6985 31.74120 717.26594 706.52214 0.19404
6986 31.74480 718.13283 707.49156 0.19365
6987 31.74840 719.03073 709.06727 0.19313
6988 31.75200 719.96078 708.49164 0.19319
6989 31.75560 720.92415 708.67370 0.19288
6990 31.75920 721.92208 711.84926 0.19211
6991 31.76280 722.95586 707.28220 0.19304
6992 31.76640 724.02685 712.18843 0.19153
6993 31.77000 725.13649 715.21688 0.19090
6994 31.77360 726.28628 715.17713 0.19090
6995 31.77720 727.47785 715.70644 0.19089
6996 31.78080 728.71292 712.19456 0.19195
6997 31.78440 729.99331 713.88600 0.19152
6998 31.78800 731.32091 718.95109 0.19020
6999 31.79160 732.69774 718.14069 0.18718
7000 31.79520 734.12588 716.01314 0.16696
7001 31.79880 735.60756 719.44505 0.16605
7002 31.80240 737.14511 722.61060 0.16572
7003 31.80600 738.74099 720.06941 0.16613
7004 31.80960 740.39780 720.32976 0.16619
7005 31.81320 742.11828 725.18178 0.16517
7006 31.81680 743.90535 727.46016 0.16459
7007 31.82040 745.76208 727.02583 0.18456
7008 31.82400 747.69171 726.77196 0.18856
7009 31.82760 749.69770 728.47115 0.18808
7010 31.83120 751.68649 732.89592 0.18685
7011 31.83480 753.79754 730.81102 0.18712
7012 31.83840 756.05569 730.23601 0.18732
7013 31.84200 758.40618 733.83666 0.18620
7014 31.84560 760.85361 735.99456 0.18541
7015 31.84920 763.40292 738.16645 0.18506
7016 31.85280 766.05931 737.08591 0.18522
7017 31.85640 768.81414 739.00043 0.18476
7018 31.86000 771.70188 742.27273 0.18416
7019 31.86360 774.71451 746.18669 0.18318
7020 31.86720 777.85873 744.58263 0.18355
7021 31.87080 781.14176 745.72116 0.18322
7022 31.87440 784.57125 745.74145 0.18336
7023 31.87800 788.15545 749.79183 0.18216
7024 31.88160 791.90314 758.11210 0.18044
7025 31.88520 795.82378 758.45114 0.18038
7026 31.88880 799.92751 761.92908 0.17954
7027 31.89240 804.22523 761.83806 0.17961
7028 31.89600 808.72870 759.93497 0.18007
7029 31.89960 813.45058 766.84279 0.17851
7030 31.90320 818.40453 770.77406 0.17748
7031 31.90680 823.60529 777.57563 0.17613
7032 31.91040 829.06875 779.04634 0.17572
7033 31.91400 834.81196 781.92729 0.17490
7034 31.91760 840.85307 788.04626 0.17338
7035 31.92120 847.21116 791.15176 0.17281
7036 31.92480 853.90591 793.90850 0.17184
7037 31.92840 860.95723 798.37483 0.17104
7038 31.93200 868.38471 807.17134 0.16915
7039 31.93560 876.20916 808.90335 0.16869
7040 31.93920 884.45902 815.55126 0.16755
7041 31.94280 893.16377 824.34534 0.16570
7042 31.94640 902.36222 832.69771 0.16410
7043 31.95000 912.09945 835.80519 0.16337
7044 31.95360 922.42483 842.48004 0.16232
7045 31.95720 933.39095 847.06946 0.16139
7046 31.96080 945.05376 856.55391 0.15965
7047 31.96440 957.47363 862.11461 0.15874
7048 31.96800 970.71656 871.36153 0.15692
7049 31.97160 984.85547 879.03642 0.15559
7050 31.97520 999.97123 891.13019 0.15352
7051 31.97880 1016.15380 906.06649 0.15096
7052 31.98240 1033.50324 917.88019 0.14905
7053 31.98600 1052.13076 928.49371 0.14745
7054 31.98960 1072.15979 947.04420 0.14447
7055 31.99320 1093.71632 963.93338 0.14188
7056 31.99680 1116.96930 986.93892 0.13830
7057 32.00040 1142.08060 1009.91687 0.13531
7058 32.00400 1169.94568 1037.13783 0.13151
7059 32.00760 1199.34085 1065.49934 0.12809
7060 32.01120 1231.16843 1103.74803 0.12365
7061 32.01480 1265.66546 1140.47320 0.11947
7062 32.01840 1303.06567 1182.50938 0.11545
7063 32.02200 1343.60574 1230.77429 0.11090
7064 32.02560 1387.51541 1291.19702 0.10017
7065 32.02920 1435.00255 1356.20393 0.09914
7066 32.03280 1486.23156 1424.96522 0.09587
7067 32.03640 1541.29298 1504.12992 0.07474
7068 32.04000 1600.16246 1596.34156 0.07141
7069 32.04360 1662.64779 1696.61312 0.05938
7070 32.04720 1728.32373 1813.31235 0.05375
7071 32.05080 1796.45802 1927.34862 0.05696
7072 32.05440 1865.93608 2032.00131 0.05898
7073 32.05800 1935.19932 2144.22505 0.05215
7074 32.06160 2002.21920 2254.08195 0.05621
7075 32.06520 2064.53521 2347.26035 0.05442
7076 32.06880 2119.38380 2423.60313 0.05637
7077 32.07240 2163.93174 2478.88693 0.05509
7078 32.07600 2195.59884 2513.23207 0.05424
7079 32.07960 2212.41695 2511.48780 0.05433
7080 32.08320 2213.34000 2478.70859 0.05496
7081 32.08680 2198.41322 2409.14084 0.05654
7082 32.09040 2168.74463 2319.76213 0.05361
7083 32.09400 2126.25911 2216.26529 0.04896
7084 32.09760 2073.34324 2096.15290 0.05140
7085 32.10120 2012.48053 1984.64894 0.05424
7086 32.10480 1945.99857 1866.46843 0.05853
7087 32.10840 1876.02146 1759.71927 0.06520
7088 32.11200 1804.52890 1664.38319 0.07877
7089 32.11560 1733.36053 1585.46973 0.07822
7090 32.11920 1664.10199 1503.37164 0.08573
7091 32.12280 1597.94973 1435.37297 0.09525
7092 32.12640 1535.66487 1373.84834 0.09954
7093 32.13000 1477.62708 1318.04072 0.10367
7094 32.13360 1423.93478 1264.63089 0.10816
7095 32.13720 1374.50358 1218.76150 0.11217
7096 32.14080 1329.14214 1174.78006 0.11642
7097 32.14440 1287.60410 1141.45385 0.11968
7098 32.14800 1249.62141 1111.16854 0.12313
7099 32.15160 1214.92490 1078.76636 0.12674
7100 32.15520 1183.25669 1058.35644 0.12910
7101 32.15880 1154.37763 1035.97879 0.13182
7102 32.16240 1128.07148 1016.60073 0.13431
7103 32.16600 1104.23784 1005.31613 0.13559
7104 32.16960 1082.53477 989.49749 0.13793
7105 32.17320 1062.90579 979.36911 0.13908
7106 32.17680 1045.24016 970.41155 0.14048
7107 32.18040 1029.45112 965.66784 0.14141
7108 32.18400 1015.44038 958.49803 0.14247
7109 32.18760 1003.10903 952.13137 0.14345
7110 32.19120 992.32181 948.59282 0.14407
7111 32.19480 982.84603 944.86336 0.14490
7112 32.19840 974.30736 946.24882 0.14447
7113 32.20200 966.17876 941.71594 0.14521
7114 32.20560 957.86729 936.38817 0.14613
7115 32.20920 948.91443 927.97194 0.14734
7116 32.21280 939.20507 922.41184 0.14829
7117 32.21640 929.01186 914.41871 0.14956
7118 32.22000 918.82703 906.07233 0.15093
7119 32.22360 909.11839 891.04442 0.15340
7120 32.22720 900.16050 882.19004 0.15518
7121 32.23080 891.97677 870.16834 0.15718
7122 32.23440 884.36009 861.07034 0.15875
7123 32.23800 876.95454 851.01856 0.16045
7124 32.24160 869.39891 841.65784 0.16236
7125 32.24520 861.49013 833.09642 0.16365
7126 32.24880 853.26741 825.79573 0.16534
7127 32.25240 844.95671 823.64841 0.16553
7128 32.25600 836.83453 824.69368 0.16526
7129 32.25960 829.11780 814.60596 0.16770
7130 32.26320 821.92632 810.67500 0.16860
7131 32.26680 815.29686 807.69448 0.16932
7132 32.27040 809.21364 803.26444 0.17017
7133 32.27400 803.63480 799.39381 0.17132
7134 32.27760 798.50946 798.41859 0.17131
7135 32.28120 793.78696 793.58666 0.17233
7136 32.28480 789.42102 793.65043 0.17253
7137 32.28840 785.37116 787.08089 0.17385
7138 32.29200 781.60277 782.73804 0.17475
7139 32.29560 778.08661 781.62750 0.17515
7140 32.29920 774.79811 780.18369 0.17555
7141 32.30280 771.71674 778.07867 0.17587
7142 32.30640 768.82534 774.76589 0.17674
7143 32.31000 766.10965 773.06757 0.17726
7144 32.31360 763.56101 772.95847 0.17733
7145 32.31720 761.16358 769.32057 0.17803
7146 32.32080 758.91279 768.99861 0.17841
7147 32.32440 756.80280 764.23653 0.17934
7148 32.32800 754.82947 765.54487 0.17920
7149 32.33160 752.99045 763.75039 0.17943
7150 32.33520 751.28520 763.47775 0.17923
7151 32.33880 749.71520 763.04239 0.17951
7152 32.34240 748.28418 759.25446 0.18051
7153 32.34600 746.99846 759.55538 0.18054
7154 32.34960 745.86741 762.52073 0.17958
7155 32.35320 744.90423 761.95502 0.17998
7156 32.35680 744.12534 764.74226 0.17919
7157 32.36040 743.55259 764.18025 0.17914
7158 32.36400 743.21237 762.51629 0.17958
7159 32.36760 743.13520 764.38570 0.17916
7160 32.37120 743.35346 763.87147 0.17914
7161 32.37480 743.89559 769.68769 0.17801
7162 32.37840 744.77522 770.48322 0.17785
7163 32.38200 745.96541 772.39127 0.17733
7164 32.38560 747.37352 778.62853 0.17578
7165 32.38920 748.80178 781.17951 0.17546
7166 32.39280 749.93564 784.17382 0.17478
7167 32.39640 750.39397 784.45439 0.17458
7168 32.40000 749.86086 785.39564 0.17460
7169 32.40360 748.23804 786.08174 0.17433
7170 32.40720 745.69856 787.90108 0.17397
7171 32.41080 742.59224 785.35528 0.17452
7172 32.41440 739.28774 784.74460 0.17441
7173 32.41800 736.06316 781.45956 0.17523
7174 32.42160 733.07891 774.84455 0.17703
7175 32.42520 730.40106 766.43079 0.17898
7176 32.42880 728.03700 763.58480 0.17943
7177 32.43240 725.96438 763.66232 0.17962
7178 32.43600 724.14924 756.50908 0.18126
7179 32.43960 722.55574 757.11982 0.18101
7180 32.44320 721.15072 751.99432 0.18221
7181 32.44680 719.90527 751.59875 0.18228
7182 32.45040 718.79506 749.59026 0.18274
7183 32.45400 717.79993 748.92932 0.18304
7184 32.45760 716.90336 744.79406 0.18393
7185 32.46120 716.09186 746.48413 0.18359
7186 32.46480 715.35443 744.79820 0.18375
7187 32.46840 714.68211 744.78488 0.18404
7188 32.47200 714.06752 745.95884 0.18384
7189 32.47560 713.50464 742.07731 0.18461
7190 32.47920 712.98845 744.19836 0.18415
7191 32.48280 712.51480 747.60867 0.18342
7192 32.48640 712.08022 743.05507 0.18437
7193 32.49000 711.68178 741.36351 0.18488
7194 32.49360 711.31701 743.88989 0.18405
7195 32.49720 710.98382 741.83891 0.18459
7196 32.50080 710.68041 745.57199 0.18400
7197 32.50440 710.40525 741.37757 0.18496
7198 32.50800 710.15701 742.12925 0.18473
7199 32.51160 709.93456 739.18537 0.18561
7200 32.51520 709.73692 742.74572 0.18474
7201 32.51880 709.56324 738.75821 0.18555
7202 32.52240 709.41279 740.49319 0.18509
7203 32.52600 709.28494 741.55885 0.18474
7204 32.52960 709.17915 739.14306 0.18543
7205 32.53320 709.09496 743.23709 0.18451
7206 32.53680 709.03197 738.89144 0.18545
7207 32.54040 708.98987 739.88345 0.18524
7208 32.54400 708.96837 738.76277 0.18539
7209 32.54760 708.96726 738.81100 0.18550
7210 32.55120 708.98636 740.14587 0.18538
7211 32.55480 709.02555 740.98292 0.18500
7212 32.55840 709.08474 743.52657 0.18418
7213 32.56200 709.16388 741.22962 0.18495
7214 32.56560 709.26297 742.76244 0.18450
7215 32.56920 709.38202 744.31682 0.18416
7216 32.57280 709.52110 739.76117 0.18523
7217 32.57640 709.68030 741.80182 0.18451
7218 32.58000 709.85973 745.76205 0.18385
7219 32.58360 710.05956 743.26448 0.18466
7220 32.58720 710.27997 742.02203 0.18490
7221 32.59080 710.52117 738.39095 0.18581
7222 32.59440 710.78340 742.45025 0.18496
7223 32.59800 711.06695 739.62594 0.18527
7224 32.60160 711.37211 741.03756 0.18498
7225 32.60520 711.69923 745.42249 0.18373
7226 32.60880 712.04867 745.34299 0.18395
7227 32.61240 712.42083 746.79055 0.18377
7228 32.61600 712.81614 746.14676 0.18374
7229 32.61960 713.23506 748.75362 0.18309
7230 32.62320 713.67808 747.92995 0.18340
7231 32.62680 714.14575 749.95162 0.18281
7232 32.63040 714.63862 751.09436 0.18268
7233 32.63400 715.15730 750.67425 0.18272
7234 32.63760 715.70243 747.74630 0.18327
7235 32.64120 716.18129 750.85953 0.18253
7236 32.64480 716.45990 754.68079 0.18154
7237 32.64840 717.04664 751.90777 0.18227
7238 32.65200 717.70696 753.00830 0.18198
7239 32.65560 718.39754 759.23188 0.18043
7240 32.65920 719.11927 756.36126 0.18123
7241 32.66280 719.87310 756.35268 0.18148
7242 32.66640 720.66004 762.25939 0.17990
7243 32.67000 721.48113 769.15995 0.17837
7244 32.67360 722.33749 766.25747 0.17916
7245 32.67720 723.23029 765.95715 0.17893
7246 32.68080 724.16076 768.16677 0.17854
7247 32.68440 725.13020 772.58185 0.17731
7248 32.68800 726.13997 778.84687 0.17601
7249 32.69160 727.19151 770.69304 0.17798
7250 32.69520 728.28633 770.56057 0.17793
7251 32.69880 729.42602 770.32070 0.17786
7252 32.70240 730.61188 767.94854 0.17855
7253 32.70600 731.84642 765.18426 0.17920
7254 32.70960 733.13115 768.30480 0.17858
7255 32.71320 734.46799 764.52307 0.17941
7256 32.71680 735.85901 767.78707 0.17858
7257 32.72040 737.30637 766.41667 0.17876
7258 32.72400 738.81236 767.63425 0.17834
7259 32.72760 740.37936 766.83714 0.17871
7260 32.73120 742.00992 763.79520 0.17954
7261 32.73480 743.70671 765.19307 0.17906
7262 32.73840 745.47253 763.64310 0.17942
7263 32.74200 747.31037 768.18652 0.17851
7264 32.74560 749.22334 764.06428 0.17941
7265 32.74920 751.21478 767.37324 0.17864
7266 32.75280 753.28817 770.26067 0.17819
7267 32.75640 755.44724 773.07964 0.17729
7268 32.76000 757.69590 772.25563 0.17757
7269 32.76360 760.03831 774.70114 0.17687
7270 32.76720 762.47892 775.84869 0.17659
7271 32.77080 765.02243 776.28651 0.17678
7272 32.77440 767.67386 778.23493 0.17611
7273 32.77800 770.43860 782.70888 0.17506
7274 32.78160 773.32242 781.38906 0.17551
7275 32.78520 776.33154 784.39361 0.17495
7276 32.78880 779.47269 785.76389 0.17465
7277 32.79240 782.75319 784.68309 0.17485
7278 32.79600 786.18104 787.16683 0.17423
7279 32.79960 789.76505 791.17665 0.17328
7280 32.80320 793.51498 793.76432 0.17244
7281 32.80680 797.44165 796.50246 0.17206
7282 32.81040 801.55719 796.62825 0.17213
7283 32.81400 805.87516 797.93063 0.17179
7284 32.81760 810.41065 802.58279 0.17071
7285 32.82120 815.18028 800.18157 0.17133
7286 32.82480 820.20177 805.14701 0.17027
7287 32.82840 825.49277 808.24437 0.16943
7288 32.83200 831.06830 812.39736 0.16883
7289 32.83560 836.93588 810.89062 0.16910
7290 32.83920 843.08767 813.03183 0.16850
7291 32.84280 849.49030 817.98717 0.16750
7292 32.84640 856.07727 822.07350 0.16657
7293 32.85000 862.75429 826.73756 0.16592
7294 32.85360 869.42757 829.64016 0.16528
7295 32.85720 876.04862 830.03087 0.16505
7296 32.86080 882.64542 833.51996 0.16434
7297 32.86440 889.31250 834.69200 0.16441
7298 32.86800 896.16912 841.49383 0.16297
7299 32.87160 903.28622 845.43409 0.16234
7300 32.87520 910.80136 851.30139 0.16105
7301 32.87880 918.72176 852.15201 0.16082
7302 32.88240 927.06690 858.71182 0.15935
7303 32.88600 935.84462 864.77082 0.15841
7304 32.88960 945.05765 869.51604 0.15765
7305 32.89320 954.70733 873.05922 0.15708
7306 32.89680 964.79549 877.11830 0.15612
7307 32.90040 975.32522 882.26388 0.15530
7308 32.90400 986.30107 888.05419 0.15415
7309 32.90760 997.72883 897.38999 0.15245
7310 32.91120 1009.61495 900.71396 0.15210
7311 32.91480 1021.96514 912.29086 0.15029
7312 32.91840 1034.78174 916.82368 0.14943
7313 32.92200 1048.05845 925.26528 0.14806
7314 32.92560 1061.77099 931.53834 0.14706
7315 32.92920 1075.86184 945.06323 0.14518
7316 32.93280 1090.21978 956.58317 0.14348
7317 32.93640 1104.66145 965.36246 0.14196
7318 32.94000 1118.93229 976.89810 0.14007
7319 32.94360 1132.74753 989.80733 0.13862
7320 32.94720 1145.86841 1001.92491 0.13683
7321 32.95080 1158.16330 1014.40985 0.13525
7322 32.95440 1169.59665 1022.83200 0.13402
7323 32.95800 1180.15099 1034.48645 0.13243
7324 32.96160 1189.74393 1044.95803 0.13091
7325 32.96520 1198.18907 1057.21799 0.12945
7326 32.96880 1205.20392 1068.42522 0.12815
7327 32.97240 1210.40866 1074.53235 0.12761
7328 32.97600 1213.52556 1076.86886 0.12710
7329 32.97960 1214.20499 1078.63168 0.12695
7330 32.98320 1212.29080 1079.70924 0.12675
7331 32.98680 1207.56231 1075.72801 0.12715
7332 32.99040 1200.13853 1072.31838 0.12775
7333 32.99400 1190.22004 1064.47017 0.12879
7334 32.99760 1178.12472 1054.98921 0.12981
7335 33.00120 1164.24774 1042.17780 0.13141
7336 33.00480 1149.00361 1024.82553 0.13360
7337 33.00840 1132.82694 1016.88409 0.13475
7338 33.01200 1116.10708 1002.33253 0.13678
7339 33.01560 1099.16020 992.16741 0.13805
7340 33.01920 1082.25165 985.57095 0.13883
7341 33.02280 1065.58720 972.98413 0.14092
7342 33.02640 1049.31941 959.71000 0.14283
7343 33.03000 1033.55626 948.71313 0.14450
7344 33.03360 1018.36999 942.32786 0.14542
7345 33.03720 1003.80526 932.93020 0.14684
7346 33.04080 989.88620 924.06745 0.14808
7347 33.04440 976.62187 921.53228 0.14844
7348 33.04800 964.01051 909.64359 0.15048
7349 33.05160 952.04224 900.04891 0.15234
7350 33.05520 940.70031 893.26909 0.15333
7351 33.05880 929.96053 888.32025 0.15402
7352 33.06240 919.78902 886.89017 0.15421
7353 33.06600 910.13903 880.14083 0.15537
7354 33.06960 900.94972 875.19572 0.15648
7355 33.07320 892.15168 868.90306 0.15770
7356 33.07680 883.68201 865.39979 0.15829
7357 33.08040 875.50295 861.59124 0.15884
7358 33.08400 867.61002 853.60075 0.16035
7359 33.08760 860.02246 849.09413 0.16135
7360 33.09120 852.76465 844.01428 0.16240
7361 33.09480 845.85229 841.58367 0.16280
7362 33.09840 839.28806 835.02202 0.16411
7363 33.10200 833.06370 832.79230 0.16455
7364 33.10560 827.16380 828.33756 0.16558
7365 33.10920 821.56891 826.10712 0.16590
7366 33.11280 816.25788 820.68474 0.16694
7367 33.11640 811.20999 816.59551 0.16783
7368 33.12000 806.40686 812.97122 0.16840
7369 33.12360 801.83318 809.51993 0.16894
7370 33.12720 797.47516 805.94861 0.16982
7371 33.13080 793.31727 803.33340 0.17053
7372 33.13440 789.33938 800.92822 0.17108
7373 33.13800 785.51714 800.17508 0.17104
7374 33.14160 781.82658 793.16037 0.17251
7375 33.14520 778.25119 791.34991 0.17288
7376 33.14880 774.78630 785.38389 0.17431
7377 33.15240 771.43701 789.10924 0.17360
7378 33.15600 768.21171 781.56661 0.17522
7379 33.15960 765.11644 781.71880 0.17500
7380 33.16320 762.13682 778.89346 0.17574
7381 33.16680 759.29212 779.41713 0.17565
7382 33.17040 756.58177 773.30095 0.17714
7383 33.17400 753.98918 772.13788 0.17748
7384 33.17760 751.50777 769.26437 0.17801
7385 33.18120 749.13107 771.12973 0.17748
7386 33.18480 746.85302 764.41410 0.17926
7387 33.18840 744.66798 765.05884 0.17900
7388 33.19200 742.57077 765.54824 0.17888
7389 33.19560 740.55665 763.17829 0.17949
7390 33.19920 738.62125 759.41851 0.18044
7391 33.20280 736.76054 754.41068 0.18126
7392 33.20640 734.97080 756.37373 0.18097
7393 33.21000 733.24858 757.29078 0.18079
7394 33.21360 731.59068 753.62639 0.18187
7395 33.21720 729.99411 751.91688 0.18211
7396 33.22080 728.45606 751.08473 0.18232
7397 33.22440 726.97391 750.53193 0.18227
7398 33.22800 725.54521 753.09595 0.18161
7399 33.23160 724.16763 748.81594 0.18285
7400 33.23520 722.83898 748.24880 0.18291
7401 33.23880 721.69869 742.91542 0.18419
7402 33.24240 720.46981 744.25112 0.18389
7403 33.24600 719.27749 746.77652 0.18343
7404 33.24960 718.12653 743.04266 0.18433
7405 33.25320 717.01530 738.99638 0.18528
7406 33.25680 715.94222 740.30817 0.18492
7407 33.26040 714.90582 744.69495 0.18372
7408 33.26400 713.90468 740.69120 0.18491
7409 33.26760 712.93748 742.19028 0.18442
7410 33.27120 712.16470 740.07033 0.18517
7411 33.27480 711.26559 738.36615 0.18542
7412 33.27840 710.39440 739.16059 0.18533
7413 33.28200 709.55245 738.15863 0.18524
7414 33.28560 708.73870 737.58622 0.18554
7415 33.28920 707.95218 733.39478 0.18654
7416 33.29280 707.23851 734.78580 0.18644
7417 33.29640 706.50921 736.29359 0.18589
7418 33.30000 705.80929 734.21283 0.18660
7419 33.30360 705.12288 732.58805 0.18668
7420 33.30720 704.45944 729.96151 0.18726
7421 33.31080 703.81822 731.54495 0.18702
7422 33.31440 703.19853 728.26756 0.18784
7423 33.31800 702.59969 728.69962 0.18762
7424 33.32160 702.02107 724.83785 0.18864
7425 33.32520 701.46207 725.39971 0.18886
7426 33.32880 700.92211 727.06763 0.18843
7427 33.33240 700.40064 728.79411 0.18799
7428 33.33600 699.89713 728.46089 0.18790
7429 33.33960 699.41109 726.47365 0.18866
7430 33.34320 698.94205 727.73630 0.18809
7431 33.34680 698.48955 725.84562 0.18859
7432 33.35040 698.05316 723.13737 0.18952
7433 33.35400 697.63248 725.54598 0.18874
7434 33.35760 697.22711 724.96922 0.18897
7435 33.36120 696.83669 724.36704 0.18882
7436 33.36480 696.46087 722.89748 0.18926
7437 33.36840 696.09931 722.56987 0.18927
7438 33.37200 695.75170 722.44534 0.18958
7439 33.37560 695.41774 721.76825 0.18970
7440 33.37920 695.09714 723.09857 0.18950
7441 33.38280 694.78965 723.85850 0.18912
7442 33.38640 694.49500 723.82398 0.18891
7443 33.39000 694.21296 721.11492 0.18962
7444 33.39360 693.94330 719.17697 0.19016
7445 33.39720 693.68583 719.95111 0.18983
7446 33.40080 693.44033 721.62496 0.18938
7447 33.40440 693.20663 720.04804 0.19013
7448 33.40800 692.98456 717.78688 0.19076
7449 33.41160 692.77395 720.88243 0.18981
7450 33.41520 692.57466 721.57103 0.18974
7451 33.41880 692.38656 719.29745 0.19048
7452 33.42240 692.25988 718.99568 0.19028
7453 33.42600 692.09428 719.95416 0.19001
7454 33.42960 691.93953 719.80566 0.19017
7455 33.43320 691.79556 721.73338 0.18963
7456 33.43680 691.66229 719.61945 0.19022
7457 33.44040 691.53964 717.20261 0.19072
7458 33.44400 691.42757 716.57858 0.19086
7459 33.44760 691.32603 715.04154 0.19117
7460 33.45120 691.23499 720.44396 0.18985
7461 33.45480 691.15443 721.22047 0.18970
7462 33.45840 691.08434 716.42485 0.19111
7463 33.46200 691.02472 716.39141 0.19112
7464 33.46560 690.97558 715.79381 0.19101
7465 33.46920 690.93695 714.64553 0.19140
7466 33.47280 690.90886 715.05631 0.19120
7467 33.47640 690.89135 715.94547 0.19081
7468 33.48000 690.88450 719.37209 0.18984
7469 33.48360 690.88837 719.10910 0.19019
7470 33.48720 690.90304 719.09074 0.19023
7471 33.49080 690.92862 718.71009 0.19033
7472 33.49440 690.96522 719.49844 0.19029
7473 33.49800 691.01296 715.51658 0.19137
7474 33.50160 691.07198 716.04052 0.19105
7475 33.50520 691.14244 718.85935 0.19018
7476 33.50880 691.22450 719.34067 0.19005
7477 33.51240 691.31836 718.97104 0.19019
7478 33.51600 691.42422 717.06869 0.19079
7479 33.51960 691.54229 719.43358 0.19020
7480 33.52320 691.67282 718.48920 0.19034
7481 33.52680 691.81607 719.51708 0.19000
7482 33.53040 691.97231 720.75229 0.18951
7483 33.53400 692.14185 721.05871 0.18956
7484 33.53760 692.32500 717.39248 0.19050
7485 33.54120 692.52212 716.87738 0.19091
7486 33.54480 692.73358 718.01981 0.19044
7487 33.54840 692.95977 720.42434 0.18989
7488 33.55200 693.20113 721.72408 0.18938
7489 33.55560 693.45811 720.52273 0.18958
7490 33.55920 693.73121 719.32236 0.18968
7491 33.56280 694.02094 718.49038 0.19029
7492 33.56640 694.32787 720.11194 0.18978
7493 33.57000 694.65261 720.40747 0.18977
7494 33.57360 694.99580 720.26467 0.18997
7495 33.57720 695.35817 722.21155 0.18945
7496 33.58080 695.78620 724.03178 0.18897
7497 33.58440 696.18954 721.85976 0.18936
7498 33.58800 696.61442 725.72431 0.18827
7499 33.59160 697.06178 721.65989 0.18942
7500 33.59520 697.53261 721.59266 0.18950
7501 33.59880 698.02796 723.85005 0.18892
7502 33.60240 698.54901 724.88229 0.18844
7503 33.60600 699.09700 722.69609 0.18916
7504 33.60960 699.67328 723.30997 0.18880
7505 33.61320 699.07241 726.41325 0.18811
7506 33.61680 699.71547 728.15170 0.18768
7507 33.62040 700.38409 731.32612 0.18716
7508 33.62400 701.09528 734.55822 0.18602
7509 33.62760 701.84354 732.58313 0.18657
7510 33.63120 702.63119 729.79367 0.18724
7511 33.63480 703.46075 727.20325 0.18789
7512 33.63840 704.33507 727.81517 0.18748
7513 33.64200 705.25728 731.21626 0.18689
7514 33.64560 706.23088 732.65851 0.18653
7515 33.64920 707.25982 733.55516 0.18642
7516 33.65280 708.34856 732.67152 0.18689
7517 33.65640 709.50214 735.38569 0.18610
7518 33.66000 710.72635 738.33725 0.18536
7519 33.66360 712.02781 738.53856 0.18500
7520 33.66720 713.41421 740.00824 0.18463
7521 33.67080 714.89450 740.14115 0.18468
7522 33.67440 716.48784 742.04205 0.18422
7523 33.67800 718.18985 745.53370 0.18351
7524 33.68160 720.02311 747.56485 0.18265
7525 33.68520 722.00578 746.68033 0.18300
7526 33.68880 724.15932 751.89769 0.18173
7527 33.69240 726.50974 752.92855 0.18135
7528 33.69600 729.08870 754.44666 0.18105
7529 33.69960 731.93472 759.58761 0.18012
7530 33.70320 735.09468 762.70195 0.17920
7531 33.70680 738.62515 768.25787 0.17786
7532 33.71040 742.58489 770.89836 0.17721
7533 33.71400 747.06443 778.70349 0.17547
7534 33.71760 752.15264 786.60580 0.17353
7535 33.72120 757.93194 793.00969 0.17223
7536 33.72480 764.47314 796.54289 0.17161
7537 33.72840 771.79490 807.87178 0.16919
7538 33.73200 779.80393 823.40719 0.16626
7539 33.73560 788.21158 834.30057 0.16390
7540 33.73920 796.45514 845.15646 0.16180
7541 33.74280 803.69959 857.30282 0.15930
7542 33.74640 809.01736 866.94021 0.15755
7543 33.75000 811.74915 871.88842 0.15668
7544 33.75360 811.83970 879.31020 0.15532
7545 33.75720 809.86893 882.67262 0.15485
7546 33.76080 806.74974 882.19332 0.15483
7547 33.76440 803.35157 875.58141 0.15597
7548 33.76800 800.28615 871.67161 0.15660
7549 33.77160 797.88255 860.77450 0.15860
7550 33.77520 796.25899 854.75853 0.15973
7551 33.77880 795.40837 847.71038 0.16129
7552 33.78240 795.26230 840.56723 0.16253
7553 33.78600 795.72968 834.28124 0.16361
7554 33.78960 796.71666 827.46399 0.16508
7555 33.79320 798.13549 832.99434 0.16393
7556 33.79680 799.90742 829.43259 0.16464
7557 33.80040 801.96274 830.52489 0.16444
7558 33.80400 804.23977 831.83733 0.16425
7559 33.80760 806.68333 834.50102 0.16370
7560 33.81120 809.24339 834.07354 0.16404
7561 33.81480 811.87380 836.64310 0.16349
7562 33.81840 814.53140 838.55771 0.16312
7563 33.82200 817.17526 835.97860 0.16347
7564 33.82560 819.76625 841.32284 0.16241
7565 33.82920 822.26686 844.12829 0.16191
7566 33.83280 824.64119 847.95442 0.16109
7567 33.83640 826.85509 849.63773 0.16082
7568 33.84000 828.87655 850.56360 0.16058
7569 33.84360 830.67300 853.29429 0.15984
7570 33.84720 832.22424 856.09405 0.15928
7571 33.85080 833.50433 860.74147 0.15841
7572 33.85440 834.49461 858.19258 0.15882
7573 33.85800 835.18106 861.76376 0.15829
7574 33.86160 835.55466 863.67984 0.15796
7575 33.86520 835.61173 859.06224 0.15862
7576 33.86880 835.35404 861.52552 0.15845
7577 33.87240 834.78878 859.57553 0.15873
7578 33.87600 833.92836 855.32543 0.15947
7579 33.87960 832.79011 858.42894 0.15887
7580 33.88320 831.39550 855.42637 0.15943
7581 33.88680 829.77074 854.32494 0.15956
7582 33.89040 827.94445 848.01793 0.16097
7583 33.89400 825.94806 846.47840 0.16141
7584 33.89760 824.19017 844.24481 0.16175
7585 33.90120 821.96177 842.57452 0.16198
7586 33.90480 819.66251 842.19528 0.16204
7587 33.90840 817.33234 839.01062 0.16276
7588 33.91200 815.00988 839.22041 0.16258
7589 33.91560 812.73082 838.98632 0.16278
7590 33.91920 810.53204 834.79724 0.16367
7591 33.92280 808.45098 833.50369 0.16365
7592 33.92640 806.52601 835.82055 0.16310
7593 33.93000 804.79712 838.01532 0.16266
7594 33.93360 803.05070 837.74351 0.16270
7595 33.93720 801.83418 845.04339 0.16150
7596 33.94080 800.97808 844.99182 0.16146
7597 33.94440 800.50392 847.94399 0.16080
7598 33.94800 800.49148 855.75564 0.15957
7599 33.95160 801.02087 866.61397 0.15754
7600 33.95520 802.18724 877.24214 0.15563
7601 33.95880 804.10491 886.37875 0.15399
7602 33.96240 806.91146 895.55185 0.15242
7603 33.96600 810.77167 910.22159 0.14987
7604 33.96960 815.88005 923.85642 0.14770
7605 33.97320 822.45939 934.86009 0.14615
7606 33.97680 830.75040 941.02363 0.14503
7607 33.98040 840.98324 957.11305 0.14256
7608 33.98400 853.32094 971.28941 0.14052
7609 33.98760 867.73113 982.47785 0.13896
7610 33.99120 883.84276 994.04352 0.13721
7611 33.99480 900.73788 995.93364 0.13708
7612 33.99840 916.87292 1000.67409 0.13654
7613 34.00200 930.32490 1007.71928 0.13539
7614 34.00560 939.48627 1014.60456 0.13442
7615 34.00920 943.95347 1016.23047 0.13413
7616 34.01280 944.67895 1016.56393 0.13395
7617 34.01640 943.67032 1022.70762 0.13332
7618 34.02000 942.85958 1027.30356 0.13281
7619 34.02360 943.26775 1025.73756 0.13275
7620 34.02720 944.61407 1018.73731 0.13384
7621 34.03080 945.36240 1008.81222 0.13539
7622 34.03440 943.24673 1001.04842 0.13636
7623 34.03800 936.25691 987.94944 0.13807
7624 34.04160 923.66748 969.21018 0.14081
7625 34.04520 906.39537 956.76298 0.14262
7626 34.04880 886.43071 943.47462 0.14454
7627 34.05240 865.88294 928.16113 0.14725
7628 34.05600 846.32508 915.58787 0.14907
7629 34.05960 828.63245 901.20611 0.15140
7630 34.06320 813.12380 888.75068 0.15359
7631 34.06680 799.77594 877.12005 0.15563
7632 34.07040 788.39683 861.85569 0.15827
7633 34.07400 778.73402 849.05479 0.16077
7634 34.07760 770.53225 831.67082 0.16418
7635 34.08120 763.55944 821.27283 0.16604
7636 34.08480 757.61559 807.87310 0.16879
7637 34.08840 752.53329 797.08628 0.17109
7638 34.09200 748.17489 782.93924 0.17405
7639 34.09560 744.42832 775.27393 0.17585
7640 34.09920 741.20307 772.15473 0.17670
7641 34.10280 738.42643 766.42945 0.17768
7642 34.10640 736.04043 765.71388 0.17789
7643 34.11000 733.99930 759.79227 0.17980
7644 34.11360 732.26748 758.21740 0.18004
7645 34.11720 730.81814 752.45873 0.18121
7646 34.12080 729.63209 750.97614 0.18182
7647 34.12440 728.69714 750.23281 0.18194
7648 34.12800 728.00788 753.80644 0.18107
7649 34.13160 727.56500 750.67382 0.18199
7650 34.13520 727.37656 747.87824 0.18250
7651 34.13880 727.45781 750.87618 0.18173
7652 34.14240 727.83213 747.21022 0.18275
7653 34.14600 728.53174 749.71913 0.18210
7654 34.14960 729.61515 753.16777 0.18119
7655 34.15320 731.15683 756.78688 0.18041
7656 34.15680 733.19620 761.99697 0.17927
7657 34.16040 735.69466 761.19021 0.17931
7658 34.16400 738.77710 768.20500 0.17746
7659 34.16760 742.45153 771.97185 0.17662
7660 34.17120 746.64080 778.52889 0.17521
7661 34.17480 751.11893 787.09987 0.17317
7662 34.17840 755.45123 792.24702 0.17232
7663 34.18200 758.99584 800.01965 0.17036
7664 34.18560 761.04087 803.92506 0.16937
7665 34.18920 761.07950 806.35633 0.16920
7666 34.19280 759.06604 810.20501 0.16856
7667 34.19640 755.44040 815.16441 0.16729
7668 34.20000 750.89834 812.68034 0.16804
7669 34.20360 746.10440 807.49235 0.16905
7670 34.20720 741.52773 801.36969 0.17033
7671 34.21080 737.42246 797.43903 0.17120
7672 34.21440 733.88220 787.89785 0.17321
7673 34.21800 730.90536 779.72401 0.17498
7674 34.22160 728.44430 774.80648 0.17630
7675 34.22520 726.43504 770.77517 0.17700
7676 34.22880 724.81267 758.91427 0.17982
7677 34.23240 723.51836 757.20155 0.18034
7678 34.23600 722.50166 754.62241 0.18103
7679 34.23960 721.72072 750.40365 0.18206
7680 34.24320 721.14152 749.72808 0.18193
7681 34.24680 720.73686 746.88757 0.18250
7682 34.25040 720.48529 751.97755 0.18136
7683 34.25400 720.37017 746.82142 0.18235
7684 34.25760 720.37897 745.76292 0.18298
7685 34.26120 720.50255 746.55348 0.18253
7686 34.26480 720.73483 742.27272 0.18357
7687 34.26840 721.07236 748.12276 0.18237
7688 34.27200 721.51425 751.40194 0.18168
7689 34.27560 722.06207 748.91913 0.18216
7690 34.27920 722.71994 750.76526 0.18173
7691 34.28280 723.49473 749.73800 0.18209
7692 34.28640 724.39644 748.24296 0.18240
7693 34.29000 725.43863 751.52671 0.18150
7694 34.29360 726.63912 754.44720 0.18089
7695 34.29720 728.02071 758.09043 0.17980
7696 34.30080 729.61215 762.25230 0.17916
7697 34.30440 731.44907 765.81115 0.17819
7698 34.30800 733.57476 769.82832 0.17725
7699 34.31160 736.04040 773.67980 0.17641
7700 34.31520 738.90362 773.05193 0.17662
7701 34.31880 742.22389 782.09739 0.17463
7702 34.32240 746.05134 785.52361 0.17363
7703 34.32600 750.40445 792.41289 0.17203
7704 34.32960 755.23120 796.01292 0.17123
7705 34.33320 760.35302 802.67013 0.16961
7706 34.33680 765.40746 805.96349 0.16919
7707 34.34040 769.83675 807.58891 0.16877
7708 34.34400 772.99149 812.78988 0.16767
7709 34.34760 774.36769 813.40407 0.16766
7710 34.35120 773.85607 810.44800 0.16839
7711 34.35480 771.80303 812.32216 0.16791
7712 34.35840 768.82753 810.17180 0.16830
7713 34.36200 765.55425 807.80028 0.16899
7714 34.36560 762.44294 801.88130 0.17012
7715 34.36920 759.75445 797.55171 0.17090
7716 34.37280 757.59476 796.04901 0.17140
7717 34.37640 755.97530 794.51994 0.17155
7718 34.38000 754.86049 791.10614 0.17246
7719 34.38360 754.19725 786.13815 0.17359
7720 34.38720 753.93075 784.86146 0.17375
7721 34.39080 754.01179 779.68763 0.17503
7722 34.39440 754.39958 780.90537 0.17491
7723 34.39800 755.06228 781.95453 0.17472
7724 34.40160 755.97655 782.63489 0.17428
7725 34.40520 757.12673 783.29743 0.17409
7726 34.40880 758.50373 783.01213 0.17410
7727 34.41240 760.10350 788.86312 0.17264
7728 34.41600 761.92465 789.96680 0.17254
7729 34.41960 763.96444 790.29334 0.17244
7730 34.42320 766.21191 790.23975 0.17246
7731 34.42680 768.63767 792.05121 0.17226
7732 34.43040 771.18155 797.94206 0.17098
7733 34.43400 773.74489 799.25096 0.17073
7734 34.43760 776.20021 799.08103 0.17040
7735 34.44120 778.42842 802.92785 0.17001
7736 34.44480 780.37179 806.43788 0.16924
7737 34.44840 782.06483 814.96394 0.16732
7738 34.45200 783.61558 815.32379 0.16728
7739 34.45560 785.15419 814.53748 0.16733
7740 34.45920 786.78873 819.13476 0.16638
7741 34.46280 788.58832 820.89319 0.16627
7742 34.46640 790.58730 823.05948 0.16563
7743 34.47000 792.79690 823.97456 0.16546
7744 34.47360 795.21598 826.14651 0.16530
7745 34.47720 797.83821 833.63622 0.16398
7746 34.48080 800.65613 839.31481 0.16265
7747 34.48440 803.66318 840.65501 0.16237
7748 34.48800 806.85444 837.68544 0.16284
7749 34.49160 810.22692 840.86769 0.16213
7750 34.49520 813.77947 843.97243 0.16158
7751 34.49880 817.51261 849.50878 0.16062
7752 34.50240 821.42837 853.91180 0.15973
7753 34.50600 825.53011 855.82630 0.15958
7754 34.50960 829.82236 860.68879 0.15861
7755 34.51320 834.31070 861.31802 0.15853
7756 34.51680 838.93669 866.43566 0.15733
7757 34.52040 843.83836 872.56342 0.15647
7758 34.52400 849.01904 876.08116 0.15600
7759 34.52760 854.36660 880.52856 0.15516
7760 34.53120 859.95148 883.49187 0.15450
7761 34.53480 865.78431 887.86887 0.15369
7762 34.53840 871.87653 896.20876 0.15220
7763 34.54200 878.24033 901.84456 0.15142
7764 34.54560 884.88869 909.91945 0.14990
7765 34.54920 891.83541 916.55460 0.14873
7766 34.55280 898.97093 921.87587 0.14814
7767 34.55640 906.52264 926.07692 0.14759
7768 34.56000 914.45610 933.76126 0.14624
7769 34.56360 922.75139 942.98227 0.14464
7770 34.56720 931.42653 948.74708 0.14366
7771 34.57080 940.50043 955.03651 0.14270
7772 34.57440 949.99289 966.74761 0.14091
7773 34.57800 959.92461 974.72955 0.13989
7774 34.58160 970.31713 980.27619 0.13907
7775 34.58520 981.19287 990.64066 0.13774
7776 34.58880 992.57502 1001.33696 0.13629
7777 34.59240 1004.48754 1006.65086 0.13555
7778 34.59600 1016.95502 1016.87131 0.13401
7779 34.59960 1030.00263 1027.13372 0.13272
7780 34.60320 1043.65590 1039.03121 0.13139
7781 34.60680 1057.94057 1051.97428 0.12974
7782 34.61040 1072.88237 1060.46115 0.12864
7783 34.61400 1088.50665 1068.54894 0.12765
7784 34.61760 1104.83807 1083.88296 0.12573
7785 34.62120 1121.90012 1099.38060 0.12414
7786 34.62480 1139.71454 1113.78434 0.12242
7787 34.62840 1158.30070 1124.55975 0.12115
7788 34.63200 1177.67475 1139.33294 0.11971
7789 34.63560 1197.84875 1148.09746 0.11894
7790 34.63920 1218.82949 1162.21423 0.11748
7791 34.64280 1240.61731 1180.42167 0.11548
7792 34.64640 1263.20462 1195.47267 0.11391
7793 34.65000 1286.57429 1208.69462 0.11270
7794 34.65360 1310.69785 1229.73748 0.11069
7795 34.65720 1335.53360 1244.03822 0.10958
7796 34.66080 1361.02451 1257.69853 0.10843
7797 34.66440 1387.09615 1278.28803 0.10676
7798 34.66800 1413.65456 1297.22565 0.10528
7799 34.67160 1440.58413 1318.02807 0.10349
7800 34.67520 1467.74554 1334.02893 0.10217
7801 34.67880 1494.97352 1352.86773 0.10074
7802 34.68240 1522.07400 1372.79238 0.09945
7803 34.68600 1548.81985 1394.18048 0.09781
7804 34.68960 1574.94390 1409.39445 0.09678
7805 34.69320 1600.12827 1435.69961 0.09495
7806 34.69680 1623.99197 1453.44857 0.09372
7807 34.70040 1646.08517 1467.65448 0.09291
7808 34.70400 1665.90826 1480.37778 0.09208
7809 34.70760 1682.97858 1495.97154 0.09102
7810 34.71120 1696.89244 1507.95472 0.09038
7811 34.71480 1707.42899 1522.01922 0.08974
7812 34.71840 1714.51719 1529.13003 0.08932
7813 34.72200 1718.18058 1532.36846 0.08900
7814 34.72560 1718.47731 1536.85980 0.08853
7815 34.72920 1715.47575 1528.56791 0.08908
7816 34.73280 1709.25998 1522.67131 0.08936
7817 34.73640 1699.94494 1518.29248 0.08973
7818 34.74000 1687.68779 1508.78196 0.09033
7819 34.74360 1672.69132 1487.37651 0.09173
7820 34.74720 1655.20032 1467.67173 0.09304
7821 34.75080 1635.49312 1443.10378 0.09447
7822 34.75440 1613.87048 1429.27347 0.09534
7823 34.75800 1590.64324 1409.81037 0.09664
7824 34.76160 1566.11959 1391.08254 0.09809
7825 34.76520 1540.59270 1367.24917 0.09972
7826 34.76880 1514.32963 1351.43224 0.10088
7827 34.77240 1487.51359 1328.69668 0.10268
7828 34.77600 1460.35293 1307.87544 0.10407
7829 34.77960 1433.17066 1292.19714 0.10543
7830 34.78320 1405.96317 1274.15404 0.10700
7831 34.78680 1379.06580 1253.96016 0.10862
7832 34.79040 1352.57170 1236.37469 0.11020
7833 34.79400 1326.62301 1217.75586 0.11215
7834 34.79760 1301.33459 1205.59798 0.11331
7835 34.80120 1276.78944 1186.79100 0.11491
7836 34.80480 1252.93572 1167.99792 0.11657
7837 34.80840 1229.96861 1153.56034 0.11797
7838 34.81200 1207.90934 1139.67964 0.11943
7839 34.81560 1186.70812 1127.80049 0.12074
7840 34.81920 1166.36196 1110.27227 0.12278
7841 34.82280 1146.86078 1099.19807 0.12409
7842 34.82640 1128.18905 1086.65802 0.12569
7843 34.83000 1110.32707 1074.82402 0.12698
7844 34.83360 1093.25204 1061.95846 0.12830
7845 34.83720 1076.93885 1048.68216 0.12989
7846 34.84080 1061.36084 1036.47801 0.13160
7847 34.84440 1046.49033 1029.57027 0.13245
7848 34.84800 1032.29912 1017.86729 0.13400
7849 34.85160 1018.75885 1005.48674 0.13580
7850 34.85520 1005.84134 995.84143 0.13677
7851 34.85880 993.51878 986.53358 0.13798
7852 34.86240 981.76397 982.54705 0.13873
7853 34.86600 970.55044 974.90521 0.13986
7854 34.86960 959.85251 968.33698 0.14071
7855 34.87320 949.64536 958.45458 0.14241
7856 34.87680 939.90495 952.60618 0.14343
7857 34.88040 930.60793 942.64446 0.14461
7858 34.88400 921.73140 937.72444 0.14527
7859 34.88760 913.25277 932.80012 0.14594
7860 34.89120 905.14972 929.92157 0.14649
7861 34.89480 897.40072 922.13298 0.14768
7862 34.89840 889.98596 914.07303 0.14922
7863 34.90200 882.88809 904.47579 0.15082
7864 34.90560 876.09226 895.66939 0.15254
7865 34.90920 869.58529 893.00879 0.15296
7866 34.91280 863.35463 887.48962 0.15359
7867 34.91640 857.38789 878.30159 0.15506
7868 34.92000 851.67266 870.50664 0.15670
7869 34.92360 846.19677 868.25437 0.15709
7870 34.92720 840.94839 865.03480 0.15769
7871 34.93080 835.91579 856.91821 0.15933
7872 34.93440 831.05704 851.06755 0.16014
7873 34.93800 826.42555 846.80959 0.16074
7874 34.94160 821.97967 840.90451 0.16209
7875 34.94520 817.71033 837.74467 0.16278
7876 34.94880 813.60897 828.41383 0.16447
7877 34.95240 809.74696 827.38094 0.16469
7878 34.95600 805.91474 824.60585 0.16572
7879 34.95960 802.26965 821.58999 0.16595
7880 34.96320 798.76528 815.07993 0.16720
7881 34.96680 795.39287 806.77447 0.16862
7882 34.97040 792.14639 809.89215 0.16809
7883 34.97400 789.02012 805.58517 0.16891
7884 34.97760 786.00868 797.25750 0.17106
7885 34.98120 783.10695 796.57897 0.17119
7886 34.98480 780.31011 794.94733 0.17171
7887 34.98840 777.61359 792.32570 0.17232
7888 34.99200 775.01306 787.98282 0.17299
7889 34.99560 772.50444 785.29376 0.17334
7890 34.99920 770.08382 783.31816 0.17394
7891 35.00280 767.74754 783.33424 0.17409
7892 35.00640 765.49211 779.83894 0.17478
7893 35.01000 763.31422 779.59278 0.17497
7894 35.01360 761.21073 776.28759 0.17562
7895 35.01720 759.17866 772.12655 0.17617
7896 35.02080 757.21519 767.30770 0.17750
7897 35.02440 755.31762 764.03873 0.17839
7898 35.02800 753.48341 763.62495 0.17837
7899 35.03160 751.71013 763.57450 0.17830
7900 35.03520 749.99548 760.04235 0.17956
7901 35.03880 748.33726 754.96453 0.18045
7902 35.04240 746.73339 756.43001 0.18009
7903 35.04600 745.18189 756.83171 0.17967
7904 35.04960 743.68086 753.67310 0.18051
7905 35.05320 742.22852 750.05740 0.18127
7906 35.05680 740.82315 749.50202 0.18172
7907 35.06040 739.46313 748.93688 0.18206
7908 35.06400 738.14691 745.45933 0.18299
7909 35.06760 736.87300 745.04342 0.18310
7910 35.07120 735.64000 744.26292 0.18315
7911 35.07480 734.44657 738.13566 0.18438
7912 35.07840 733.29252 739.58671 0.18415
7913 35.08200 732.18048 739.92373 0.18419
7914 35.08560 731.09836 743.90114 0.18310
7915 35.08920 730.05106 737.08184 0.18483
7916 35.09280 729.03752 734.08072 0.18570
7917 35.09640 728.05674 733.37267 0.18557
7918 35.10000 727.10777 730.86291 0.18632
7919 35.10360 726.18971 730.16241 0.18656
7920 35.10720 725.30167 730.07788 0.18653
7921 35.11080 724.44285 730.63219 0.18632
7922 35.11440 723.59645 728.69463 0.18707
7923 35.11800 722.76457 724.20711 0.18797
7924 35.12160 721.98927 728.61714 0.18683
7925 35.12520 721.24228 726.32487 0.18714
7926 35.12880 720.53205 723.37288 0.18802
7927 35.13240 719.83390 725.57816 0.18744
7928 35.13600 719.16024 724.59363 0.18784
7929 35.13960 718.51053 725.25943 0.18801
7930 35.14320 717.88491 722.38639 0.18864
7931 35.14680 717.29341 721.77933 0.18880
7932 35.15040 716.71257 720.75102 0.18911
7933 35.15400 716.08495 717.17857 0.18964
7934 35.15760 715.52583 719.86725 0.18912
7935 35.16120 715.01006 717.10326 0.19010
7936 35.16480 714.51522 715.43617 0.19037
7937 35.16840 714.04100 713.89657 0.19067
7938 35.17200 713.58709 715.28363 0.19064
7939 35.17560 713.15321 716.00121 0.19022
7940 35.17920 712.73910 716.52518 0.18998
7941 35.18280 712.34453 714.91744 0.19041
7942 35.18640 711.96930 712.22350 0.19114
7943 35.19000 711.61321 709.94876 0.19173
7944 35.19360 711.27611 709.52160 0.19199
7945 35.19720 710.95785 710.17477 0.19164
7946 35.20080 710.65832 710.73469 0.19143
7947 35.20440 710.37741 710.15626 0.19154
7948 35.20800 710.11504 707.67107 0.19231
7949 35.21160 709.86220 709.35670 0.19182
7950 35.21520 709.63691 709.32330 0.19183
7951 35.21880 709.43008 710.05953 0.19193
7952 35.22240 709.24175 706.84437 0.19257
7953 35.22600 709.07196 705.95460 0.19299
7954 35.22960 708.92077 707.92852 0.19246
7955 35.23320 708.78828 707.80767 0.19217
7956 35.23680 708.67462 706.46188 0.19262
7957 35.24040 708.57991 709.68724 0.19187
7958 35.24400 708.50431 706.85657 0.19268
7959 35.24760 708.44798 705.10747 0.19293
7960 35.25120 708.41106 706.00522 0.19300
7961 35.25480 708.39371 709.44095 0.19211
7962 35.25840 708.39607 704.57588 0.19320
7963 35.26200 708.41837 706.32132 0.19256
7964 35.26560 708.46089 707.86084 0.19230
7965 35.26920 708.52408 710.45671 0.19155
7966 35.27280 708.60842 708.34713 0.19225
7967 35.27640 708.71462 706.15959 0.19283
7968 35.28000 708.86194 704.74416 0.19298
7969 35.28360 709.14784 705.72532 0.19275
7970 35.28720 709.32301 705.99254 0.19266
7971 35.29080 709.52222 705.12478 0.19300
7972 35.29440 709.74612 708.38809 0.19199
7973 35.29800 709.99541 706.26308 0.19287
7974 35.30160 710.27082 707.30781 0.19236
7975 35.30520 710.57316 708.08365 0.19220
7976 35.30880 710.90329 707.91929 0.19224
7977 35.31240 711.26213 709.34964 0.19179
7978 35.31600 711.65070 711.71020 0.19124
7979 35.31960 712.07006 706.36141 0.19269
7980 35.32320 712.52135 705.93044 0.19287
7981 35.32680 713.00582 706.17457 0.19268
7982 35.33040 713.52479 706.30859 0.19274
7983 35.33400 714.07968 706.67595 0.19294
7984 35.33760 714.67203 708.48344 0.19207
7985 35.34120 715.30346 706.55699 0.19246
7986 35.34480 715.97575 708.88479 0.19201
7987 35.34840 716.69079 710.85515 0.19148
7988 35.35200 717.45061 709.88393 0.19165
7989 35.35560 718.25741 712.66839 0.19099
7990 35.35920 719.11354 715.00636 0.19014
7991 35.36280 720.02156 713.27561 0.19061
7992 35.36640 720.98422 714.50952 0.19035
7993 35.37000 722.01022 713.41064 0.19070
7994 35.37360 723.09136 714.68202 0.19022
7995 35.37720 724.23680 717.54628 0.18969
7996 35.38080 725.45033 718.12045 0.18952
7997 35.38440 726.73607 717.85594 0.18943
7998 35.38800 728.08324 719.46424 0.18922
7999 35.39160 729.52655 720.60193 0.18885
8000 35.39520 731.05750 722.59600 0.18820
8001 35.39880 732.68124 723.87372 0.18805
8002 35.40240 734.40424 726.00701 0.18758
8003 35.40600 736.23362 726.69378 0.18728
8004 35.40960 738.17729 732.78050 0.18558
8005 35.41320 740.24402 733.11048 0.18579
8006 35.41680 742.44361 735.76370 0.18503
8007 35.42040 744.78701 737.85194 0.18431
8008 35.42400 747.28656 738.25810 0.18435
8009 35.42760 749.95615 740.39604 0.18383
8010 35.43120 752.81147 745.57444 0.18249
8011 35.43480 755.87028 747.08311 0.18220
8012 35.43840 759.15261 749.97507 0.18121
8013 35.44200 762.68092 754.31536 0.18021
8014 35.44560 766.47996 754.89647 0.17999
8015 35.44920 770.57618 761.33118 0.17878
8016 35.45280 774.99610 765.44314 0.17750
8017 35.45640 779.78304 771.58183 0.17628
8018 35.46000 784.91214 777.00915 0.17516
8019 35.46360 790.48291 781.61227 0.17389
8020 35.46720 796.30400 788.19385 0.17258
8021 35.47080 802.41480 796.62635 0.17078
8022 35.47440 808.73435 801.20968 0.16972
8023 35.47800 815.23303 809.09699 0.16819
8024 35.48160 821.96865 816.35872 0.16673
8025 35.48520 829.02971 822.92798 0.16538
8026 35.48880 836.55337 825.69568 0.16452
8027 35.49240 844.67762 830.13992 0.16380
8028 35.49600 853.51817 834.97319 0.16309
8029 35.49960 863.16460 845.56722 0.16082
8030 35.50320 873.68616 852.80395 0.15947
8031 35.50680 885.13864 854.49136 0.15927
8032 35.51040 897.56769 863.75655 0.15768
8033 35.51400 911.00461 869.61750 0.15670
8034 35.51760 925.49335 879.65567 0.15492
8035 35.52120 941.03673 885.67560 0.15410
8036 35.52480 957.62333 896.91667 0.15235
8037 35.52840 975.20913 904.90624 0.15203
8038 35.53200 993.70580 915.65329 0.15113
8039 35.53560 1012.96727 925.49204 0.14024
8040 35.53920 1032.77543 934.98211 0.12722
8041 35.54280 1052.83530 946.78565 0.12550
8042 35.54640 1072.73020 952.33667 0.12477
8043 35.55000 1091.96791 963.36216 0.12336
8044 35.55360 1109.92605 972.12859 0.12229
8045 35.55720 1126.02701 978.58188 0.12160
8046 35.56080 1139.55202 988.58508 0.12028
8047 35.56440 1149.85608 992.45251 0.11995
8048 35.56800 1156.39627 996.05867 0.11927
8049 35.57160 1158.79816 998.14440 0.11901
8050 35.57520 1156.90658 997.20841 0.11941
8051 35.57880 1150.80827 988.56626 0.12032
8052 35.58240 1140.82068 986.60106 0.12047
8053 35.58600 1127.44945 977.49082 0.12172
8054 35.58960 1111.32534 971.05387 0.12267
8055 35.59320 1093.13432 960.65394 0.12413
8056 35.59680 1073.55414 949.32676 0.12559
8057 35.60040 1053.20577 941.28728 0.12686
8058 35.60400 1032.62312 929.61716 0.12856
8059 35.60760 1012.23966 916.12085 0.13137
8060 35.61120 992.38837 903.91528 0.13406
8061 35.61480 973.31036 892.55596 0.13141
8062 35.61840 955.16818 887.51382 0.11482
8063 35.62200 938.06061 878.03609 0.11597
8064 35.62560 922.03699 862.88278 0.11794
8065 35.62920 907.10994 854.28115 0.11919
8066 35.63280 893.26613 849.85798 0.11989
8067 35.63640 880.47482 845.61790 0.12058
8068 35.64000 868.69468 830.37086 0.12275
8069 35.64360 857.87895 821.73193 0.12409
8070 35.64720 847.97934 817.60481 0.12469
8071 35.65080 838.94900 823.02126 0.12371
8072 35.65440 830.74483 813.35134 0.12541
8073 35.65800 823.32928 808.01202 0.12625
8074 35.66160 816.67192 804.47297 0.12666
8075 35.66520 810.75087 801.10688 0.12731
8076 35.66880 805.55414 800.71225 0.12748
8077 35.67240 801.08174 800.46164 0.12770
8078 35.67600 797.34639 800.18961 0.12786
8079 35.67960 794.37580 806.07056 0.12709
8080 35.68320 792.21389 805.99423 0.12716
8081 35.68680 790.92124 804.97946 0.12817
8082 35.69040 790.57307 806.75343 0.12897
8083 35.69400 791.25198 806.99829 0.12869
8084 35.69760 793.03034 808.06348 0.10505
8085 35.70120 795.93435 807.85794 0.10502
8086 35.70480 799.88031 808.69009 0.10474
8087 35.70840 804.57913 810.76297 0.10459
8088 35.71200 809.42981 804.86993 0.10542
8089 35.71560 813.47459 800.91839 0.10598
8090 35.71920 815.53652 792.07660 0.10791
8091 35.72280 814.60432 785.79368 0.13267
8092 35.72640 810.30164 779.85999 0.13289
8093 35.73000 803.08565 776.51664 0.13239
8094 35.73360 793.99572 776.00771 0.13199
8095 35.73720 784.17623 767.82671 0.13316
8096 35.74080 774.52010 763.30644 0.13356
8097 35.74440 765.56288 760.42977 0.13407
8098 35.74800 757.53512 757.60121 0.13463
8099 35.75160 750.47573 749.45292 0.13619
8100 35.75520 744.32494 742.15143 0.13769
8101 35.75880 738.80086 737.85336 0.13859
8102 35.76240 734.14060 735.90084 0.13894
8103 35.76600 730.07633 728.08744 0.14118
8104 35.76960 726.50665 719.29813 0.14422
8105 35.77320 723.35269 717.77479 0.14602
8106 35.77680 720.54883 712.35898 0.12292
8107 35.78040 718.04106 709.01005 0.11955
8108 35.78400 715.78513 707.30716 0.11959
8109 35.78760 713.74491 703.15647 0.12051
8110 35.79120 711.89088 699.06330 0.12122
8111 35.79480 710.19890 695.98564 0.12175
8112 35.79840 708.64919 697.44201 0.12155
8113 35.80200 707.22552 695.70680 0.14402
8114 35.80560 705.91466 691.37124 0.14987
8115 35.80920 704.70551 693.89183 0.14807
8116 35.81280 703.58924 688.78313 0.14853
8117 35.81640 702.55867 685.55786 0.14897
8118 35.82000 701.60811 689.83810 0.12540
8119 35.82360 700.73324 688.48063 0.14474
8120 35.82720 699.93105 687.72823 0.14827
8121 35.83080 699.19974 684.32408 0.14903
8122 35.83440 698.53882 685.99115 0.14872
8123 35.83800 697.94915 685.42206 0.14888
8124 35.84160 697.43306 682.95564 0.14945
8125 35.84520 696.99460 685.16785 0.14951
8126 35.84880 696.63969 686.29936 0.15066
8127 35.85240 696.37647 684.09241 0.15264
8128 35.85600 696.21555 684.08882 0.13401
8129 35.85960 696.17019 687.97198 0.12309
8130 35.86320 696.25626 686.82904 0.12320
8131 35.86680 696.49149 691.99628 0.12225
8132 35.87040 696.89340 690.52527 0.12256
8133 35.87400 697.47484 692.52859 0.12218
8134 35.87760 698.23525 696.73184 0.12151
8135 35.88120 699.14636 700.67645 0.13809
8136 35.88480 700.13317 702.94727 0.14743
8137 35.88840 701.05772 703.43207 0.14610
8138 35.89200 701.72400 707.39368 0.14448
8139 35.89560 701.92449 706.27221 0.14440
8140 35.89920 701.52345 708.45957 0.12712
8141 35.90280 700.52621 705.27221 0.13570
8142 35.90640 699.07590 707.05334 0.14405
8143 35.91000 697.38072 707.16458 0.14396
8144 35.91360 695.63211 699.75487 0.14550
8145 35.91720 693.96181 698.17130 0.14581
8146 35.92080 692.43937 695.95859 0.14642
8147 35.92440 691.08904 692.96159 0.14736
8148 35.92800 689.90865 687.51060 0.14976
8149 35.93160 688.88346 683.16229 0.15206
8150 35.93520 687.99441 680.23785 0.14478
8151 35.93880 687.22244 677.90209 0.12476
8152 35.94240 686.55038 675.72977 0.12512
8153 35.94600 685.96358 672.06623 0.12582
8154 35.94960 685.44996 671.03425 0.12610
8155 35.95320 684.99981 670.64538 0.12607
8156 35.95680 684.60546 669.44112 0.12625
8157 35.96040 684.26102 669.85786 0.13858
8158 35.96400 683.96212 669.28754 0.15510
8159 35.96760 683.70573 670.49575 0.15349
8160 35.97120 683.49000 669.89396 0.15262
8161 35.97480 683.31417 666.99505 0.15283
8162 35.97840 683.17857 670.26587 0.13873
8163 35.98200 683.08458 671.96951 0.13775
8164 35.98560 683.03477 671.47618 0.15149
8165 35.98920 683.03298 667.01777 0.15253
8166 35.99280 683.08456 674.50604 0.15082
8167 35.99640 683.19658 673.62525 0.15111
8168 36.00000 683.37817 673.20602 0.15118
8169 36.00360 683.64088 671.75816 0.15174
8170 36.00720 683.99904 676.29059 0.15184
8171 36.01080 684.47014 677.91422 0.15279
8172 36.01440 685.07480 679.27879 0.15140
8173 36.01800 685.83632 684.13776 0.12348
8174 36.02160 686.77869 680.79421 0.12415
8175 36.02520 687.92213 680.55836 0.12416
8176 36.02880 689.27413 682.99186 0.12377
8177 36.03240 690.81379 684.43183 0.12354
8178 36.03600 692.46937 689.10947 0.12265
8179 36.03960 694.09487 688.55769 0.12867
8180 36.04320 695.46468 689.53486 0.15075
8181 36.04680 696.31357 685.01239 0.15036
8182 36.05040 696.43102 682.33710 0.14983
8183 36.05400 695.76333 680.55044 0.14983
8184 36.05760 694.46556 679.10734 0.14206
8185 36.06120 692.74832 678.44689 0.13132
8186 36.06480 690.87838 674.38985 0.15059
8187 36.06840 689.05506 666.26037 0.15244
8188 36.07200 687.39026 664.99825 0.15280
8189 36.07560 685.93131 664.23729 0.15307
8190 36.07920 684.68547 667.50651 0.15226
8191 36.08280 683.63969 668.01813 0.15231
8192 36.08640 682.77321 665.80607 0.15378
8193 36.09000 682.06438 666.70219 0.15496
8194 36.09360 681.49390 662.89061 0.15756
8195 36.09720 681.04616 659.89055 0.13266
8196 36.10080 680.70957 659.08549 0.12803
8197 36.10440 680.47634 659.68159 0.12793
8198 36.10800 680.34208 660.40023 0.12783
8199 36.11160 680.30493 654.68677 0.12887
8200 36.11520 680.36414 658.13399 0.12827
8201 36.11880 680.51754 662.53707 0.12739
8202 36.12240 680.75724 667.75859 0.15168
8203 36.12600 681.06314 663.32108 0.15538
8204 36.12960 681.39546 659.54386 0.15510
8205 36.13320 681.69032 659.36910 0.15448
8206 36.13680 681.86668 661.38672 0.15111
8207 36.14040 681.85006 659.93992 0.12933
8208 36.14400 681.60521 660.37253 0.15352
8209 36.14760 681.15403 661.47732 0.15011
8210 36.15120 680.56289 659.47659 0.13039
8211 36.15480 679.91082 660.03601 0.15408
8212 36.15840 679.15019 657.24296 0.15380
8213 36.16200 678.54117 658.17464 0.15332
8214 36.16560 678.00043 656.35989 0.15393
8215 36.16920 677.52718 656.72670 0.15471
8216 36.17280 677.11799 657.58332 0.13129
8217 36.17640 676.76609 656.38369 0.15041
8218 36.18000 676.46380 654.72007 0.15462
8219 36.18360 676.20382 655.37234 0.15439
8220 36.18720 675.97969 651.37202 0.15579
8221 36.19080 675.78594 651.58469 0.13817
8222 36.19440 675.61806 653.21237 0.14558
8223 36.19800 675.47237 648.27155 0.15637
8224 36.20160 675.34594 648.18861 0.17573
8225 36.20520 675.23641 652.40917 0.18403
8226 36.20880 675.14196 647.44558 0.18420
8227 36.21240 675.06119 653.74282 0.18157
8228 36.21600 674.99303 654.65960 0.18098
8229 36.21960 674.93677 649.16371 0.16222
8230 36.22320 674.89194 650.88215 0.17398
8231 36.22680 674.85834 651.81124 0.18185
8232 36.23040 674.83602 648.33355 0.15829
8233 36.23400 674.82527 651.38604 0.17868
8234 36.23760 674.82666 650.41991 0.18142
8235 36.24120 674.84102 654.69962 0.17973
8236 36.24480 674.86953 649.52736 0.18125
8237 36.24840 674.90748 651.96348 0.18157
8238 36.25200 674.96922 649.57069 0.16479
8239 36.25560 675.05162 653.30496 0.17093
8240 36.25920 675.15764 648.94280 0.18200
8241 36.26280 675.29139 650.28445 0.18199
8242 36.26640 675.45799 651.03538 0.16086
8243 36.27000 675.66373 649.94135 0.16465
8244 36.27360 675.91625 650.11292 0.16646
8245 36.27720 676.22464 647.31513 0.18268
8246 36.28080 676.59929 650.30304 0.19365
8247 36.28440 677.05130 654.17151 0.20973
8248 36.28800 677.59096 649.90039 0.20981
8249 36.29160 678.22442 650.47867 0.20856
8250 36.29520 678.94775 650.02448 0.20837
8251 36.29880 679.73767 649.92564 0.19381
8252 36.30240 680.54035 646.51709 0.19552
8253 36.30600 681.26463 645.73887 0.20969
8254 36.30960 681.79167 650.07806 0.18852
8255 36.31320 682.01009 647.58063 0.20117
8256 36.31680 681.86557 648.58939 0.20820
8257 36.32040 681.38976 649.57486 0.20714
8258 36.32400 680.68306 646.18022 0.20836
8259 36.32760 679.86679 647.67449 0.20860
8260 36.33120 679.04164 648.50193 0.19578
8261 36.33480 678.27142 650.00308 0.19332
8262 36.33840 677.58670 647.88394 0.20852
8263 36.34200 676.99558 646.29386 0.20904
8264 36.34560 676.49388 645.74300 0.19417
8265 36.34920 676.07194 646.91632 0.19016
8266 36.35280 675.71860 647.87160 0.18851
8267 36.35640 675.42307 646.98596 0.20888
8268 36.36000 675.17578 648.26653 0.20813
8269 36.36360 674.96858 646.48931 0.20876
8270 36.36720 674.79469 645.81880 0.20884
8271 36.37080 674.64855 647.37190 0.20835
8272 36.37440 674.53074 648.20312 0.20825
8273 36.37800 674.42742 644.50736 0.20152
8274 36.38160 674.34064 647.43570 0.18866
8275 36.38520 674.26805 647.30170 0.20899
8276 36.38880 674.20769 644.82703 0.19541
8277 36.39240 674.15799 647.18353 0.19603
8278 36.39600 674.11765 647.59038 0.20876
8279 36.39960 674.08564 645.99937 0.20842
8280 36.40320 674.06111 646.85222 0.20826
8281 36.40680 674.04339 646.55252 0.20884
8282 36.41040 674.03192 646.32069 0.20190
8283 36.41400 674.02629 643.83470 0.18992
8284 36.41760 674.02617 644.24821 0.20985
8285 36.42120 674.03134 647.62662 0.20851
8286 36.42480 674.04165 647.16084 0.19835
8287 36.42840 674.05705 644.52914 0.19158
8288 36.43200 674.07756 646.70404 0.18408
8289 36.43560 674.10329 647.52247 0.20872
8290 36.43920 674.13444 646.45384 0.20889
8291 36.44280 674.17133 643.36174 0.20995
8292 36.44640 674.21438 646.41732 0.20879
8293 36.45000 674.26417 647.20377 0.20860
8294 36.45360 674.32143 646.57916 0.20886
8295 36.45720 674.38711 645.65011 0.20902
8296 36.46080 674.46242 646.51561 0.20841
8297 36.46440 674.54885 646.04503 0.20929
8298 36.46800 674.64828 647.76711 0.20031
8299 36.47160 674.76315 645.90254 0.19069
8300 36.47520 674.92296 643.37872 0.21029
8301 36.47880 675.07748 644.05537 0.20927
8302 36.48240 675.25757 646.27960 0.20862
8303 36.48600 675.46767 644.55499 0.20943
8304 36.48960 675.71228 645.79281 0.20789
8305 36.49320 675.96689 642.04348 0.18486
8306 36.49680 676.23455 644.52517 0.21001
8307 36.50040 676.59141 645.46026 0.20904
8308 36.50400 676.96764 645.90363 0.20397
8309 36.50760 677.39364 645.31016 0.18797
8310 36.51120 677.73462 643.95074 0.18791
8311 36.51480 677.94575 643.76928 0.20533
8312 36.51840 678.01733 648.45619 0.20849
8313 36.52200 677.94342 646.64203 0.20892
8314 36.52560 677.75214 645.08637 0.20936
8315 36.52920 677.49110 648.75586 0.20818
8316 36.53280 677.20746 647.06911 0.20871
8317 36.53640 676.93557 647.54739 0.20863
8318 36.54000 676.69477 644.39280 0.20929
8319 36.54360 676.49280 649.97982 0.20783
8320 36.54720 676.33032 652.49463 0.20739
8321 36.55080 676.20446 650.44641 0.18268
8322 36.55440 676.11092 650.41303 0.20680
8323 36.55800 676.04516 648.90135 0.20810
8324 36.56160 676.00282 650.79672 0.20727
8325 36.56520 675.97981 649.79724 0.20772
8326 36.56880 675.97225 650.39434 0.20831
8327 36.57240 675.97649 651.02419 0.18895
8328 36.57600 675.98930 649.65685 0.20016
8329 36.57960 676.00833 650.07056 0.20765
8330 36.58320 676.03233 648.08217 0.20874
8331 36.58680 676.06109 646.41057 0.18367
8332 36.59040 676.09494 644.51170 0.19582
8333 36.59400 676.13421 646.80766 0.19539
8334 36.59760 676.17905 644.69676 0.20994
8335 36.60120 676.22936 644.05109 0.20975
8336 36.60480 676.28486 644.45504 0.20967
8337 36.60840 676.34521 646.91547 0.20876
8338 36.61200 676.41007 645.18920 0.20936
8339 36.61560 676.47912 644.18397 0.20969
8340 36.61920 676.55207 643.84145 0.20968
8341 36.62280 676.62867 647.85953 0.20851
8342 36.62640 676.70873 646.53342 0.20965
8343 36.63000 676.79208 645.46954 0.18944
8344 36.63360 676.87860 646.10745 0.20247
8345 36.63720 676.96816 648.22549 0.20855
8346 36.64080 677.06070 646.61500 0.20879
8347 36.64440 677.15614 644.58006 0.20954
8348 36.64800 677.25444 641.85594 0.21094
8349 36.65160 677.35557 643.27406 0.19713
8350 36.65520 677.45950 645.06679 0.19583
8351 36.65880 677.56623 644.61614 0.20949
8352 36.66240 677.67575 645.39692 0.20963
8353 36.66600 677.78806 643.00877 0.19351
8354 36.66960 677.88891 646.69160 0.19169
8355 36.67320 678.00628 641.13661 0.19140
8356 36.67680 678.12722 641.03089 0.21118
8357 36.68040 678.25104 643.00075 0.21022
8358 36.68400 678.37778 640.88342 0.21075
8359 36.68760 678.50747 642.89482 0.21018
8360 36.69120 678.64016 646.23989 0.20917
8361 36.69480 678.77589 642.50602 0.21026
8362 36.69840 678.91471 646.15881 0.20905
8363 36.70200 679.05669 644.78116 0.20948
8364 36.70560 679.20187 649.30528 0.20876
8365 36.70920 679.35033 648.00917 0.19543
8366 36.71280 679.50212 646.25820 0.19599
8367 36.71640 679.65731 645.88384 0.20953
8368 36.72000 679.81598 642.73654 0.21017
8369 36.72360 679.97820 644.00301 0.20992
8370 36.72720 680.14406 644.80200 0.20997
8371 36.73080 680.31362 643.45396 0.20371
8372 36.73440 680.48698 645.00879 0.18928
8373 36.73800 680.66423 645.37894 0.20967
8374 36.74160 680.84546 644.34835 0.20991
8375 36.74520 681.03077 646.73717 0.19817
8376 36.74880 681.27443 649.41007 0.19180
8377 36.75240 681.46830 647.44190 0.18329
8378 36.75600 681.66655 645.70320 0.20968
8379 36.75960 681.86931 643.67054 0.21018
8380 36.76320 682.08882 642.08262 0.21049
8381 36.76680 682.31826 644.90989 0.20968
8382 36.77040 682.53552 643.08496 0.21032
8383 36.77400 682.75779 645.04321 0.20965
8384 36.77760 682.98519 645.70463 0.20927
8385 36.78120 683.21787 648.72993 0.20838
8386 36.78480 683.45597 646.96656 0.20919
8387 36.78840 683.69964 647.30378 0.20897
8388 36.79200 683.94904 646.33150 0.20934
8389 36.79560 684.20433 645.66346 0.20923
8390 36.79920 684.46567 645.04903 0.20930
8391 36.80280 684.73325 644.48237 0.20979
8392 36.80640 685.00723 646.03706 0.20939
8393 36.81000 685.28780 648.31921 0.20873
8394 36.81360 685.57515 648.94508 0.20825
8395 36.81720 685.86950 645.02866 0.20934
8396 36.82080 686.17090 647.24572 0.20884
8397 36.82440 686.46121 649.09007 0.20388
8398 36.82800 686.77794 653.08001 0.18491
8399 36.83160 687.10252 650.18325 0.20842
8400 36.83520 687.43519 647.78145 0.20857
8401 36.83880 687.77620 646.86418 0.20912
8402 36.84240 688.12579 648.78661 0.20825
8403 36.84600 688.48423 653.29143 0.20714
8404 36.84960 688.85179 648.65588 0.20838
8405 36.85320 689.22876 647.92077 0.20889
8406 36.85680 689.61543 646.63767 0.20918
8407 36.86040 690.01209 647.81412 0.20884
8408 36.86400 690.41907 647.16238 0.20919
8409 36.86760 690.83669 647.42719 0.20896
8410 36.87120 691.26527 650.57503 0.20795
8411 36.87480 691.70518 650.38844 0.20778
8412 36.87840 692.15677 650.88233 0.20742
8413 36.88200 692.62041 649.55686 0.20825
8414 36.88560 693.09648 650.44855 0.20804
8415 36.88920 693.58539 648.86622 0.20859
8416 36.89280 694.08755 652.43745 0.20717
8417 36.89640 694.60339 651.68316 0.20727
8418 36.90000 695.13334 649.69624 0.20789
8419 36.90360 695.67787 650.81535 0.20765
8420 36.90720 696.23744 654.81836 0.20653
8421 36.91080 696.81254 653.47172 0.20664
8422 36.91440 697.39799 653.04717 0.20700
8423 36.91800 698.00575 653.65696 0.20689
8424 36.92160 698.63061 652.61408 0.20724
8425 36.92520 699.27312 651.92701 0.20753
8426 36.92880 699.93387 655.49386 0.20618
8427 36.93240 700.61345 657.17509 0.20595
8428 36.93600 701.31247 651.65292 0.20751
8429 36.93960 702.03157 656.09717 0.20626
8430 36.94320 702.77139 655.67465 0.20639
8431 36.94680 703.53262 653.80655 0.20710
8432 36.95040 704.31596 655.37681 0.20634
8433 36.95400 705.12211 654.69654 0.20640
8434 36.95760 705.95181 657.01889 0.20559
8435 36.96120 706.80583 654.96397 0.20647
8436 36.96480 707.68494 658.70806 0.20548
8437 36.96840 708.58996 658.89014 0.20546
8438 36.97200 709.52171 660.36945 0.20478
8439 36.97560 710.48103 658.66330 0.20489
8440 36.97920 711.77248 657.87356 0.20515
8441 36.98280 712.91780 659.27571 0.20501
8442 36.98640 713.96691 658.85606 0.20524
8443 36.99000 715.04722 658.35279 0.20508
8444 36.99360 716.15970 661.43889 0.20446
8445 36.99720 717.30928 663.18341 0.20403
8446 37.00080 718.49049 664.48913 0.20374
8447 37.00440 719.70553 663.89814 0.20363
8448 37.00800 720.95680 660.91629 0.20451
8449 37.01160 722.24538 664.57152 0.20355
8450 37.01520 723.57234 665.24246 0.20323
8451 37.01880 724.93881 665.54684 0.20324
8452 37.02240 726.34591 669.88933 0.20179
8453 37.02600 727.79478 669.88883 0.20209
8454 37.02960 729.28660 668.73386 0.20218
8455 37.03320 730.82256 668.23207 0.20227
8456 37.03680 732.40387 667.92231 0.20241
8457 37.04040 734.03176 671.09774 0.20144
8458 37.04400 735.70751 668.82988 0.20237
8459 37.04760 737.43240 667.90159 0.20259
8460 37.05120 739.20777 672.48366 0.20116
8461 37.05480 741.03499 675.45466 0.19979
8462 37.05840 742.91546 674.07705 0.20017
8463 37.06200 744.85067 671.89966 0.20114
8464 37.06560 746.84217 671.89781 0.20132
8465 37.06920 748.89820 672.73517 0.20085
8466 37.07280 751.00815 672.71414 0.20092
8467 37.07640 753.17872 674.22622 0.20068
8468 37.08000 755.41275 674.91730 0.20045
8469 37.08360 757.71240 678.35199 0.19926
8470 37.08720 760.07138 678.60349 0.19916
8471 37.09080 762.50966 681.18170 0.19856
8472 37.09440 765.02138 681.46529 0.19840
8473 37.09800 767.60975 685.12627 0.19738
8474 37.10160 770.27833 687.94171 0.19653
8475 37.10520 773.03112 687.70996 0.19676
8476 37.10880 775.87258 686.83020 0.19694
8477 37.11240 778.80771 688.84682 0.19627
8478 37.11600 781.73837 691.05833 0.19571
8479 37.11960 784.87835 691.81285 0.19539
8480 37.12320 788.13051 693.25785 0.19517
8481 37.12680 791.50223 696.62225 0.19417
8482 37.13040 795.00144 699.84960 0.19337
8483 37.13400 798.63644 701.53593 0.19233
8484 37.13760 802.41573 704.35963 0.19163
8485 37.14120 806.34761 705.90091 0.19143
8486 37.14480 810.43967 708.00575 0.19104
8487 37.14840 814.69639 711.11917 0.19003
8488 37.15200 818.95721 713.22817 0.18944
8489 37.15560 823.55534 718.43013 0.18836
8490 37.15920 828.31716 718.51621 0.18805
8491 37.16280 833.22894 720.98345 0.18743
8492 37.16640 838.26661 722.67996 0.18697
8493 37.17000 843.39297 726.91277 0.18600
8494 37.17360 848.55487 734.19282 0.18430
8495 37.17720 853.68085 739.92702 0.18272
8496 37.18080 858.67973 741.14200 0.18246
8497 37.18440 863.44101 743.99561 0.18174
8498 37.18800 867.83790 748.78073 0.18070
8499 37.19160 871.73353 755.49895 0.17892
8500 37.19520 874.99050 756.50428 0.17863
8501 37.19880 877.48335 759.16381 0.17810
8502 37.20240 879.11226 764.37817 0.17680
8503 37.20600 879.81584 761.10576 0.17772
8504 37.20960 879.58062 763.51603 0.17726
8505 37.21320 878.44512 764.00525 0.17672
8506 37.21680 876.49790 765.22607 0.17622
8507 37.22040 873.87012 765.74724 0.17640
8508 37.22400 870.72450 765.13291 0.17655
8509 37.22760 867.24313 763.41365 0.17707
8510 37.23120 863.61648 765.42668 0.17649
8511 37.23480 860.03503 768.71400 0.17612
8512 37.23840 856.68438 766.41567 0.17631
8513 37.24200 853.74340 769.14493 0.17568
8514 37.24560 851.39673 773.24836 0.17479
8515 37.24920 849.42268 777.67200 0.17383
8516 37.25280 848.69729 785.03646 0.17239
8517 37.25640 849.02716 790.26515 0.17115
8518 37.26000 850.47829 799.95882 0.16907
8519 37.26360 853.03144 808.97982 0.16700
8520 37.26720 856.47695 817.61286 0.16547
8521 37.27080 860.30695 821.34929 0.16452
8522 37.27440 863.64356 829.58930 0.16283
8523 37.27800 865.31700 833.24588 0.16224
8524 37.28160 864.19170 838.03673 0.16127
8525 37.28520 859.65289 838.43511 0.16128
8526 37.28880 851.92411 833.85032 0.16218
8527 37.29240 841.93718 825.73558 0.16360
8528 37.29600 830.89005 816.24010 0.16516
8529 37.29960 819.79864 800.05051 0.16884
8530 37.30320 809.32511 786.12182 0.17180
8531 37.30680 799.79483 771.37515 0.17537
8532 37.31040 791.30165 757.89968 0.17824
8533 37.31400 783.80397 744.98273 0.18173
8534 37.31760 777.20518 735.97396 0.18360
8535 37.32120 771.38904 727.04068 0.18573
8536 37.32480 766.24205 721.73268 0.18723
8537 37.32840 761.66237 716.10723 0.18867
8538 37.33200 757.56252 709.70500 0.19063
8539 37.33560 753.86903 709.16296 0.19071
8540 37.33920 750.52102 707.35156 0.19111
8541 37.34280 747.46832 703.37982 0.19206
8542 37.34640 744.66970 702.12726 0.19263
8543 37.35000 742.09125 698.46162 0.19342
8544 37.35360 739.70497 697.25912 0.19367
8545 37.35720 737.48784 693.32878 0.19501
8546 37.36080 735.42467 687.35164 0.19659
8547 37.36440 733.49108 691.42907 0.19533
8548 37.36800 731.67761 689.51737 0.19609
8549 37.37160 729.97275 686.70726 0.19675
8550 37.37520 728.36668 686.21320 0.19655
8551 37.37880 726.85098 687.23504 0.19645
8552 37.38240 725.41838 686.94506 0.19660
8553 37.38600 724.06259 683.16471 0.19779
8554 37.38960 722.77812 682.57022 0.19769
8555 37.39320 721.56018 682.14350 0.19814
8556 37.39680 720.40458 683.58048 0.19767
8557 37.40040 719.30763 682.01258 0.19789
8558 37.40400 718.26610 678.88957 0.19892
8559 37.40760 717.27714 682.42373 0.19779
8560 37.41120 716.33828 681.87452 0.19807
8561 37.41480 715.44736 679.52078 0.19883
8562 37.41840 714.60299 679.25408 0.19890
8563 37.42200 713.80265 681.31687 0.19811
8564 37.42560 713.04548 677.97116 0.19932
8565 37.42920 712.33045 678.84959 0.19894
8566 37.43280 711.65600 676.64485 0.19940
8567 37.43640 711.02257 676.52801 0.19966
8568 37.44000 710.43033 676.95360 0.19972
8569 37.44360 709.87878 673.77759 0.20041
8570 37.44720 709.36267 677.43044 0.19952
8571 37.45080 708.17303 675.20552 0.20015
8572 37.45440 707.74958 677.98292 0.19914
8573 37.45800 707.37106 675.95568 0.19965
8574 37.46160 707.03984 680.48901 0.19848
8575 37.46520 706.75904 678.85396 0.19892
8576 37.46880 706.53270 678.75615 0.19882
8577 37.47240 706.36593 680.27264 0.19840
8578 37.47600 706.26523 682.49355 0.19805
8579 37.47960 706.23877 680.73100 0.19825
8580 37.48320 706.29679 680.73040 0.19831
8581 37.48680 706.45208 683.11352 0.19758
8582 37.49040 706.72054 682.65142 0.19783
8583 37.49400 707.12175 682.62678 0.19780
8584 37.49760 707.67959 683.43384 0.19754
8585 37.50120 708.42264 687.02362 0.19641
8586 37.50480 709.38388 689.18412 0.19595
8587 37.50840 710.55682 692.96251 0.19501
8588 37.51200 712.06391 695.20537 0.19412
8589 37.51560 713.88851 703.61152 0.19188
8590 37.51920 716.03202 706.94114 0.19124
8591 37.52280 718.44352 709.91151 0.19013
8592 37.52640 720.98379 714.09089 0.18925
8593 37.53000 723.39399 720.15594 0.18762
8594 37.53360 725.30296 720.60102 0.18733
8595 37.53720 726.31915 724.16434 0.18636
8596 37.54080 726.21027 727.71605 0.18560
8597 37.54440 724.87797 728.75053 0.18520
8598 37.54800 722.63603 727.74496 0.18540
8599 37.55160 719.88136 727.51088 0.18526
8600 37.55520 716.98687 728.24183 0.18554
8601 37.55880 714.21417 714.06054 0.18903
8602 37.56240 711.70482 709.85336 0.19007
8603 37.56600 709.51107 705.94371 0.19139
8604 37.56960 707.63200 700.99254 0.19275
8605 37.57320 706.04077 695.42053 0.19430
8606 37.57680 704.70114 694.17976 0.19456
8607 37.58040 703.57611 688.00515 0.19623
8608 37.58400 702.63191 687.93928 0.19616
8609 37.58760 701.83931 690.29479 0.19574
8610 37.59120 701.17382 689.97892 0.19562
8611 37.59480 700.61518 686.11437 0.19666
8612 37.59840 700.14688 683.75333 0.19754
8613 37.60200 699.75547 683.87124 0.19738
8614 37.60560 699.43003 682.27895 0.19796
8615 37.60920 699.16173 685.09089 0.19718
8616 37.61280 698.94338 682.65201 0.19781
8617 37.61640 698.76914 683.08356 0.19761
8618 37.62000 698.63423 681.48659 0.19819
8619 37.62360 698.53475 681.30990 0.19815
8620 37.62720 698.46751 681.21138 0.19802
8621 37.63080 698.42989 681.60435 0.19784
8622 37.63440 698.41971 684.34689 0.19735
8623 37.63800 698.43522 684.56845 0.19720
8624 37.64160 698.47498 682.43033 0.19764
8625 37.64520 698.53779 683.68484 0.19763
8626 37.64880 698.62273 682.83236 0.19801
8627 37.65240 698.72905 684.83709 0.19741
8628 37.65600 698.85619 687.08961 0.19668
8629 37.65960 699.00373 682.08768 0.19807
8630 37.66320 699.17140 684.98960 0.19705
8631 37.66680 699.35905 681.25804 0.19842
8632 37.67040 699.56666 681.61507 0.19813
8633 37.67400 699.79431 684.67291 0.19710
8634 37.67760 700.04221 685.11914 0.19706
8635 37.68120 700.31068 683.51389 0.19761
8636 37.68480 700.60015 685.93564 0.19683
8637 37.68840 700.91117 690.09426 0.19573
8638 37.69200 701.24445 687.90986 0.19633
8639 37.69560 701.60085 685.16177 0.19702
8640 37.69920 701.98137 689.14574 0.19612
8641 37.70280 702.38726 688.90243 0.19607
8642 37.70640 702.81997 693.84158 0.19447
8643 37.71000 703.28127 688.86099 0.19578
8644 37.71360 703.79854 688.13590 0.19626
8645 37.71720 704.33788 693.25931 0.19482
8646 37.72080 704.89943 692.16996 0.19501
8647 37.72440 705.50081 692.37477 0.19507
8648 37.72800 706.14636 692.74316 0.19531
8649 37.73160 706.84124 695.24930 0.19430
8650 37.73520 707.59153 695.08187 0.19433
8651 37.73880 708.40420 696.31786 0.19395
8652 37.74240 709.28696 697.28319 0.19355
8653 37.74600 710.24757 697.84242 0.19363
8654 37.74960 711.29246 697.73474 0.19359
8655 37.75320 712.42393 699.72280 0.19286
8656 37.75680 713.63550 700.20528 0.19275
8657 37.76040 714.90554 697.88643 0.19357
8658 37.76400 716.19137 700.29548 0.19275
8659 37.76760 717.42955 704.85081 0.19175
8660 37.77120 718.54977 706.77284 0.19108
8661 37.77480 719.50232 710.13499 0.19018
8662 37.77840 720.28410 710.23304 0.19003
8663 37.78200 720.94193 710.91374 0.19000
8664 37.78560 721.55030 710.44318 0.18987
8665 37.78920 722.18247 713.43800 0.18885
8666 37.79280 722.89321 712.58929 0.18917
8667 37.79640 723.71615 716.16212 0.18863
8668 37.80000 724.66913 715.34728 0.18884
8669 37.80360 725.76092 714.90962 0.18891
8670 37.80720 726.99645 715.20758 0.18915
8671 37.81080 728.38000 719.75795 0.18782
8672 37.81440 729.91654 720.78212 0.18742
8673 37.81800 731.61160 722.22065 0.18691
8674 37.82160 733.46942 722.52269 0.18668
8675 37.82520 735.48900 723.72921 0.18661
8676 37.82880 737.65731 724.23163 0.18646
8677 37.83240 739.93999 726.01591 0.18596
8678 37.83600 742.27309 732.23463 0.18431
8679 37.83960 744.39541 731.27566 0.18462
8680 37.84320 746.49614 730.65172 0.18480
8681 37.84680 748.43103 734.49668 0.18395
8682 37.85040 750.14961 737.79833 0.18289
8683 37.85400 751.71846 737.69655 0.18299
8684 37.85760 753.22310 741.16808 0.18224
8685 37.86120 754.79608 740.49739 0.18243
8686 37.86480 756.49766 742.93803 0.18165
8687 37.86840 758.36590 746.18267 0.18048
8688 37.87200 760.41864 745.26263 0.18075
8689 37.87560 762.65960 748.40967 0.18025
8690 37.87920 765.08552 753.24400 0.17924
8691 37.88280 767.69047 754.60675 0.17885
8692 37.88640 770.49121 759.97755 0.17779
8693 37.89000 773.43583 760.64149 0.17768
8694 37.89360 776.54256 759.04048 0.17794
8695 37.89720 779.80747 761.09227 0.17730
8696 37.90080 783.22731 768.96294 0.17543
8697 37.90440 786.79929 770.56413 0.17516
8698 37.90800 790.52076 778.35136 0.17347
8699 37.91160 794.38901 780.13788 0.17303
8700 37.91520 798.40094 785.57971 0.17186
8701 37.91880 802.55281 792.14132 0.17030
8702 37.92240 806.83998 794.26220 0.16993
8703 37.92600 811.25663 798.53076 0.16920
8704 37.92960 815.79548 803.90077 0.16796
8705 37.93320 820.44753 804.41038 0.16782
8706 37.93680 825.20175 813.51240 0.16608
8707 37.94040 830.04479 821.18385 0.16442
8708 37.94400 834.96073 827.77723 0.16304
8709 37.94760 839.93080 835.85066 0.16106
8710 37.95120 844.93315 844.89731 0.15936
8711 37.95480 849.94377 847.24679 0.15911
8712 37.95840 854.93214 851.27791 0.15852
8713 37.96200 859.86768 862.50304 0.15659
8714 37.96560 864.71568 871.90323 0.15480
8715 37.96920 869.43882 878.14469 0.15397
8716 37.97280 873.99778 887.46484 0.15211
8717 37.97640 878.35222 898.78008 0.15010
8718 37.98000 882.46185 902.11571 0.14955
8719 37.98360 886.28783 909.30880 0.14828
8720 37.98720 889.79395 915.37214 0.14736
8721 37.99080 892.94744 920.72601 0.14642
8722 37.99440 895.71838 923.53286 0.14608
8723 37.99800 898.07678 931.14717 0.14474
8724 38.00160 899.98557 932.03439 0.14482
8725 38.00520 901.38878 931.26853 0.14509
8726 38.00880 902.19716 931.85549 0.14481
8727 38.01240 902.28035 932.06273 0.14484
8728 38.01600 901.48246 923.09409 0.14626
8729 38.01960 899.67286 920.31440 0.14666
8730 38.02320 896.81429 913.44515 0.14765
8731 38.02680 892.99932 909.51351 0.14819
8732 38.03040 888.42185 899.72363 0.14967
8733 38.03400 883.30776 888.64633 0.15170
8734 38.03760 877.85580 881.38184 0.15305
8735 38.04120 872.21379 877.43298 0.15385
8736 38.04480 866.48240 867.09625 0.15552
8737 38.04840 860.72891 858.05942 0.15752
8738 38.05200 855.00023 846.42258 0.15957
8739 38.05560 849.33156 841.66541 0.16027
8740 38.05920 843.66501 834.98917 0.16161
8741 38.06280 838.19699 828.58411 0.16269
8742 38.06640 832.85897 823.54746 0.16388
8743 38.07000 827.66352 818.06759 0.16481
8744 38.07360 822.61570 813.34684 0.16599
8745 38.07720 817.71191 808.18084 0.16675
8746 38.08080 812.94150 802.85919 0.16802
8747 38.08440 808.29259 798.26838 0.16920
8748 38.08800 803.76073 794.10915 0.16987
8749 38.09160 799.38379 786.75016 0.17154
8750 38.09520 795.13255 788.63430 0.17107
8751 38.09880 791.04410 784.78492 0.17202
8752 38.10240 787.14696 782.93347 0.17222
8753 38.10600 783.45575 775.55267 0.17387
8754 38.10960 779.97788 774.26864 0.17388
8755 38.11320 776.71452 772.99651 0.17438
8756 38.11680 773.65992 772.68763 0.17453
8757 38.12040 770.79875 773.34008 0.17449
8758 38.12400 768.10181 772.99812 0.17445
8759 38.12760 765.52261 770.47228 0.17538
8760 38.13120 763.00029 768.56020 0.17593
8761 38.13480 760.47381 767.17119 0.17596
8762 38.13840 757.90476 767.14824 0.17598
8763 38.14200 755.29397 763.91491 0.17645
8764 38.14560 752.67792 762.06450 0.17706
8765 38.14920 750.10814 761.49653 0.17695
8766 38.15280 747.63011 755.21742 0.17875
8767 38.15640 745.27320 754.51567 0.17855
8768 38.16000 743.05071 747.97171 0.18034
8769 38.16360 740.96458 744.76517 0.18132
8770 38.16720 739.01024 740.75829 0.18212
8771 38.17080 737.17998 740.35998 0.18219
8772 38.17440 735.46479 738.78428 0.18261
8773 38.17800 733.85501 737.21646 0.18303
8774 38.18160 732.34017 734.97159 0.18349
8775 38.18520 730.90870 731.83750 0.18434
8776 38.18880 729.54810 731.69396 0.18409
8777 38.19240 728.24639 732.37450 0.18413
8778 38.19600 726.99456 729.13125 0.18500
8779 38.19960 725.78851 727.90419 0.18524
8780 38.20320 724.62878 728.36575 0.18515
8781 38.20680 723.51824 727.98528 0.18534
8782 38.21040 722.47769 723.24069 0.18677
8783 38.21400 721.47227 724.08694 0.18647
8784 38.21760 720.51943 722.83264 0.18650
8785 38.22120 719.61754 727.01989 0.18546
8786 38.22480 718.76433 725.58129 0.18589
8787 38.22840 717.95733 722.76940 0.18637
8788 38.23200 717.19407 715.50827 0.18854
8789 38.23560 716.47223 717.19601 0.18799
8790 38.23920 715.78964 718.44870 0.18763
8791 38.24280 715.14435 717.61060 0.18813
8792 38.24640 714.53456 710.34196 0.18998
8793 38.25000 713.95865 710.59499 0.18973
8794 38.25360 713.41514 709.46320 0.19015
8795 38.25720 712.90267 712.79577 0.18924
8796 38.26080 712.42001 711.01632 0.18966
8797 38.26440 711.96602 709.89711 0.19002
8798 38.26800 711.53966 707.49868 0.19056
8799 38.27160 711.13997 704.88645 0.19121
8800 38.27520 710.76605 703.59225 0.19176
8801 38.27880 710.41709 707.99563 0.19043
8802 38.28240 710.09233 710.79972 0.18976
8803 38.28600 709.79108 708.71372 0.19018
8804 38.28960 709.51285 704.36142 0.19154
8805 38.29320 709.25665 703.48222 0.19181
8806 38.29680 709.02213 702.21334 0.19201
8807 38.30040 708.80877 706.88706 0.19074
8808 38.30400 708.61610 704.00592 0.19147
8809 38.30760 708.44367 704.72590 0.19116
8810 38.31120 708.29108 701.76879 0.19188
8811 38.31480 708.14589 699.60306 0.19272
8812 38.31840 708.01508 701.00466 0.19211
8813 38.32200 707.92020 699.30382 0.19300
8814 38.32560 707.84387 704.05482 0.19180
8815 38.32920 707.78585 702.66939 0.19194
8816 38.33280 707.74591 702.90171 0.19188
8817 38.33640 707.72386 700.84239 0.19247
8818 38.34000 707.71954 700.36450 0.19247
8819 38.34360 707.75094 700.89692 0.19230
8820 38.34720 707.78184 703.36280 0.19166
8821 38.35080 707.83012 702.57105 0.19171
8822 38.35440 707.89570 699.60485 0.19268
8823 38.35800 707.97854 703.78563 0.19147
8824 38.36160 708.07862 698.89673 0.19285
8825 38.36520 708.19593 701.95919 0.19197
8826 38.36880 708.33051 701.11965 0.19220
8827 38.37240 708.48238 701.96722 0.19223
8828 38.37600 708.65163 705.27975 0.19122
8829 38.37960 708.83834 701.67412 0.19215
8830 38.38320 709.04263 700.97522 0.19222
8831 38.38680 709.26462 702.16245 0.19199
8832 38.39040 709.50447 704.78374 0.19096
8833 38.39400 709.76236 703.59980 0.19166
8834 38.39760 710.03849 705.68924 0.19085
8835 38.40120 710.33306 705.20412 0.19131
8836 38.40480 710.64632 703.74808 0.19183
8837 38.40840 710.97848 703.50295 0.19152
8838 38.41200 711.32981 706.89406 0.19064
8839 38.41560 711.70059 709.08122 0.19009
8840 38.41920 712.09112 708.68669 0.19032
8841 38.42280 712.50178 707.02158 0.19064
8842 38.42640 712.93300 708.25355 0.19037
8843 38.43000 713.38523 708.00816 0.19027
8844 38.43360 713.85896 707.41766 0.19047
8845 38.43720 714.35468 710.34000 0.18962
8846 38.44080 714.87291 709.22788 0.18986
8847 38.44440 715.41419 710.12027 0.18965
8848 38.44800 715.97909 709.30978 0.18994
8849 38.45160 716.56819 708.87164 0.19018
8850 38.45520 717.18213 712.04400 0.18949
8851 38.45880 717.82156 708.80131 0.19012
8852 38.46240 718.48720 709.10308 0.19001
8853 38.46600 719.17978 708.38010 0.19033
8854 38.46960 719.90007 712.58077 0.18889
8855 38.47320 720.64890 712.30858 0.18915
8856 38.47680 721.42712 714.32094 0.18851
8857 38.48040 722.23565 712.52108 0.18924
8858 38.48400 723.08649 713.41541 0.18914
8859 38.48760 723.95902 713.72517 0.18891
8860 38.49120 724.86652 715.20187 0.18845
8861 38.49480 725.80651 713.81260 0.18873
8862 38.49840 726.78200 718.44151 0.18763
8863 38.50200 727.79429 716.86441 0.18800
8864 38.50560 728.84467 718.61755 0.18755
8865 38.50920 729.93448 719.91417 0.18708
8866 38.51280 731.06515 719.33587 0.18723
8867 38.51640 732.23815 719.86474 0.18722
8868 38.52000 733.45504 721.63687 0.18661
8869 38.52360 734.71746 723.46817 0.18606
8870 38.52720 736.02714 720.09420 0.18709
8871 38.53080 737.38587 723.83798 0.18619
8872 38.53440 738.79555 729.24949 0.18505
8873 38.53800 740.25819 726.19624 0.18553
8874 38.54160 741.77586 728.75622 0.18488
8875 38.54520 743.35079 730.08797 0.18464
8876 38.54880 744.98525 730.80806 0.18440
8877 38.55240 746.67651 734.11473 0.18356
8878 38.55600 748.43760 735.52703 0.18307
8879 38.55960 750.26597 736.69984 0.18294
8880 38.56320 752.18193 740.00151 0.18230
8881 38.56680 754.15350 739.79041 0.18214
8882 38.57040 756.20302 740.90487 0.18187
8883 38.57400 758.33038 745.22494 0.18074
8884 38.57760 760.54078 743.26820 0.18137
8885 38.58120 762.83791 747.18503 0.18045
8886 38.58480 765.22566 749.16892 0.18000
8887 38.58840 767.70813 752.40685 0.17923
8888 38.59200 770.28968 753.72555 0.17870
8889 38.59560 772.97488 757.82543 0.17795
8890 38.59920 775.76863 760.07770 0.17734
8891 38.60280 778.67606 758.18118 0.17770
8892 38.60640 781.70266 763.14397 0.17679
8893 38.61000 784.85421 764.73171 0.17630
8894 38.61360 788.13688 768.32621 0.17572
8895 38.61720 791.55720 771.00486 0.17488
8896 38.62080 795.12209 773.07701 0.17434
8897 38.62440 798.83166 778.26389 0.17324
8898 38.62800 802.70864 779.50615 0.17312
8899 38.63160 806.75401 780.52082 0.17283
8900 38.63520 810.97682 779.46901 0.17305
8901 38.63880 815.39754 786.80333 0.17129
8902 38.64240 820.00505 792.23158 0.17029
8903 38.64600 824.82120 794.83310 0.16971
8904 38.64960 829.85800 801.68582 0.16801
8905 38.65320 835.12833 805.62344 0.16719
8906 38.65680 840.64613 808.43071 0.16674
8907 38.66040 846.42641 813.65790 0.16570
8908 38.66400 852.48540 815.03384 0.16546
8909 38.66760 858.84066 820.61313 0.16438
8910 38.67120 865.51117 827.46977 0.16297
8911 38.67480 872.51751 834.50052 0.16167
8912 38.67840 879.88195 840.56377 0.16042
8913 38.68200 887.62858 846.16291 0.15922
8914 38.68560 895.78350 853.01974 0.15808
8915 38.68920 904.37484 860.69454 0.15678
8916 38.69280 913.43293 869.37699 0.15523
8917 38.69640 922.99028 877.98741 0.15369
8918 38.70000 933.08151 887.24183 0.15191
8919 38.70360 943.74312 895.63374 0.15049
8920 38.70720 955.01292 905.62613 0.14893
8921 38.71080 966.92909 919.16258 0.14668
8922 38.71440 979.52861 929.48327 0.14509
8923 38.71800 992.84492 940.16802 0.14339
8924 38.72160 1006.90540 956.90039 0.14095
8925 38.72520 1021.72927 967.26086 0.13944
8926 38.72880 1037.33003 980.94395 0.13725
8927 38.73240 1053.70761 994.75552 0.13540
8928 38.73600 1070.86316 1009.51444 0.13350
8929 38.73960 1088.78515 1022.78301 0.13177
8930 38.74320 1107.43983 1039.05780 0.12984
8931 38.74680 1126.75711 1054.26459 0.12801
8932 38.75040 1146.61729 1074.42904 0.12550
8933 38.75400 1166.84042 1092.06294 0.12351
8934 38.75760 1187.17778 1110.70418 0.12133
8935 38.76120 1207.30604 1133.23385 0.11889
8936 38.76480 1226.82549 1149.85010 0.11720
8937 38.76840 1245.26491 1164.90378 0.11577
8938 38.77200 1262.09580 1181.72937 0.11407
8939 38.77560 1276.75774 1188.01776 0.11360
8940 38.77920 1288.69506 1198.50366 0.11241
8941 38.78280 1297.40225 1203.79879 0.11194
8942 38.78640 1302.47273 1205.20137 0.11185
8943 38.79000 1303.64292 1200.22957 0.11235
8944 38.79360 1300.82343 1192.50800 0.11310
8945 38.79720 1294.09897 1181.39088 0.11417
8946 38.80080 1283.76462 1171.00062 0.11518
8947 38.80440 1270.22684 1152.02608 0.11708
8948 38.80800 1254.01211 1131.66512 0.11898
8949 38.81160 1235.67329 1112.77500 0.12107
8950 38.81520 1215.79550 1088.12209 0.12391
8951 38.81880 1194.92329 1072.72699 0.12561
8952 38.82240 1173.54322 1051.81338 0.12823
8953 38.82600 1152.06930 1033.87214 0.13057
8954 38.82960 1130.83844 1020.54525 0.13218
8955 38.83320 1110.11314 1006.00788 0.13406
8956 38.83680 1090.08896 990.95208 0.13598
8957 38.84040 1070.90411 976.48002 0.13801
8958 38.84400 1052.64949 962.49369 0.13997
8959 38.84760 1035.37751 953.37768 0.14153
8960 38.85120 1019.10862 943.89738 0.14289
8961 38.85480 1003.83447 932.71763 0.14474
8962 38.85840 989.51704 924.85048 0.14584
8963 38.86200 976.08442 913.05150 0.14757
8964 38.86560 963.42780 904.89702 0.14893
8965 38.86920 951.41274 895.49124 0.15069
8966 38.87280 939.89920 886.41826 0.15225
8967 38.87640 928.78717 876.19331 0.15400
8968 38.88000 918.04498 870.15901 0.15507
8969 38.88360 907.70355 861.51511 0.15668
8970 38.88720 897.82124 853.29029 0.15785
8971 38.89080 888.44786 850.96874 0.15844
8972 38.89440 879.60720 842.33620 0.16004
8973 38.89800 871.29730 838.75316 0.16080
8974 38.90160 863.49853 832.00386 0.16209
8975 38.90520 856.18205 828.09610 0.16314
8976 38.90880 849.31595 823.88974 0.16369
8977 38.91240 842.86873 815.26298 0.16547
8978 38.91600 836.80764 810.07809 0.16631
8979 38.91960 831.11813 806.04220 0.16720
8980 38.92320 825.76715 801.86852 0.16803
8981 38.92680 820.73929 800.26761 0.16859
8982 38.93040 816.01933 797.07206 0.16933
8983 38.93400 811.59560 790.85754 0.17064
8984 38.93760 807.46005 786.24788 0.17154
8985 38.94120 803.60838 786.40754 0.17127
8986 38.94480 800.04018 787.11251 0.17111
8987 38.94840 796.75864 780.68216 0.17284
8988 38.95200 793.68890 780.04688 0.17302
8989 38.95560 791.00873 781.21962 0.17272
8990 38.95920 788.63200 776.44693 0.17379
8991 38.96280 786.59976 774.21635 0.17437
8992 38.96640 784.89786 776.11333 0.17353
8993 38.97000 783.50419 772.08734 0.17446
8994 38.97360 782.35325 767.70626 0.17569
8995 38.97720 781.31597 765.87937 0.17608
8996 38.98080 780.18785 764.61166 0.17627
8997 38.98440 778.71874 766.01536 0.17621
8998 38.98800 776.69096 759.91769 0.17739
8999 38.99160 774.01661 759.91457 0.17745
9000 38.99520 770.78173 757.17715 0.17797
9001 38.99880 767.19827 755.76124 0.17828
9002 39.00240 763.50625 752.88771 0.17902
9003 39.00600 759.89703 746.17225 0.18074
9004 39.00960 756.48754 744.73125 0.18128
9005 39.01320 753.33041 744.58830 0.18115
9006 39.01680 750.43601 740.38450 0.18227
9007 39.02040 747.79197 733.56233 0.18362
9008 39.02400 745.37621 734.08262 0.18338
9009 39.02760 743.16431 730.83730 0.18439
9010 39.03120 741.13314 727.70220 0.18531
9011 39.03480 739.26238 727.28113 0.18550
9012 39.03840 737.53493 723.60617 0.18641
9013 39.04200 735.93686 726.07335 0.18589
9014 39.04560 734.45716 722.63612 0.18642
9015 39.04920 733.08742 722.04702 0.18657
9016 39.05280 731.82163 722.32380 0.18681
9017 39.05640 730.65595 717.52558 0.18800
9018 39.06000 729.58865 716.14312 0.18810
9019 39.06360 728.62009 717.04498 0.18823
9020 39.06720 727.75278 715.04018 0.18858
9021 39.07080 726.99158 715.33996 0.18839
9022 39.07440 726.34387 714.82267 0.18864
9023 39.07800 725.81990 714.98840 0.18844
9024 39.08160 725.43299 711.35095 0.18949
9025 39.08520 725.19964 711.44199 0.18950
9026 39.08880 725.13916 715.16484 0.18872
9027 39.09240 725.27235 709.92578 0.18985
9028 39.09600 725.61818 713.15442 0.18915
9029 39.09960 726.18694 713.33948 0.18878
9030 39.10320 726.96797 716.67145 0.18779
9031 39.10680 727.91084 718.05587 0.18761
9032 39.11040 728.90307 722.37588 0.18666
9033 39.11400 729.65378 721.75271 0.18684
9034 39.11760 730.12735 722.45587 0.18666
9035 39.12120 729.99358 727.34290 0.18548
9036 39.12480 729.14064 729.40112 0.18473
9037 39.12840 727.62978 731.96139 0.18380
9038 39.13200 725.66210 733.47796 0.18387
9039 39.13560 723.48355 732.22193 0.18424
9040 39.13920 721.30072 730.03515 0.18460
9041 39.14280 719.24647 729.85697 0.18464
9042 39.14640 717.57513 728.52788 0.18534
9043 39.15000 715.92871 726.62684 0.18556
9044 39.15360 714.58194 723.60495 0.18626
9045 39.15720 713.45839 718.28814 0.18748
9046 39.16080 712.36525 718.21966 0.18768
9047 39.16440 711.41329 710.68750 0.18959
9048 39.16800 710.58297 706.37285 0.19100
9049 39.17160 709.85770 707.25569 0.19053
9050 39.17520 709.22385 704.78775 0.19123
9051 39.17880 708.67042 702.44645 0.19178
9052 39.18240 708.18876 698.76054 0.19260
9053 39.18600 707.77221 700.80048 0.19209
9054 39.18960 707.41586 701.10728 0.19226
9055 39.19320 707.11633 701.46187 0.19220
9056 39.19680 706.87160 699.49420 0.19262
9057 39.20040 706.68096 700.04244 0.19257
9058 39.20400 706.54499 696.50688 0.19351
9059 39.20760 706.46556 695.74422 0.19333
9060 39.21120 706.44593 696.29812 0.19340
9061 39.21480 706.49092 693.83184 0.19419
9062 39.21840 706.60704 693.95790 0.19408
9063 39.22200 706.80270 696.79423 0.19307
9064 39.22560 707.08828 692.64882 0.19466
9065 39.22920 707.47607 695.63639 0.19355
9066 39.23280 707.97965 694.75808 0.19401
9067 39.23640 708.61231 694.73525 0.19370
9068 39.24000 709.38361 694.63659 0.19390
9069 39.24360 710.29292 695.12144 0.19363
9070 39.24720 711.31890 696.13732 0.19340
9071 39.25080 712.40566 698.21486 0.19292
9072 39.25440 713.45140 702.52226 0.19153
9073 39.25800 714.31226 697.71728 0.19298
9074 39.26160 714.83618 700.05009 0.19219
9075 39.26520 714.92300 704.32532 0.19097
9076 39.26880 714.57483 701.50762 0.19199
9077 39.27240 713.89507 704.53373 0.19127
9078 39.27600 713.03695 704.42056 0.19112
9079 39.27960 712.14386 704.45040 0.19123
9080 39.28320 711.31665 706.63432 0.19063
9081 39.28680 710.61050 708.07025 0.18988
9082 39.29040 710.04658 705.00939 0.19090
9083 39.29400 709.62587 703.85531 0.19132
9084 39.29760 709.33955 703.40818 0.19137
9085 39.30120 709.17534 708.12041 0.18983
9086 39.30480 709.12092 704.34901 0.19111
9087 39.30840 709.16550 701.51301 0.19192
9088 39.31200 709.30032 704.43371 0.19111
9089 39.31560 709.51877 703.67182 0.19128
9090 39.31920 709.81602 701.57897 0.19185
9091 39.32280 710.18854 700.31192 0.19229
9092 39.32640 710.63311 702.99890 0.19151
9093 39.33000 711.14544 698.14950 0.19287
9094 39.33360 711.71812 697.13304 0.19285
9095 39.33720 712.33843 697.81959 0.19284
9096 39.34080 712.98726 701.53550 0.19169
9097 39.34440 713.64155 701.24894 0.19161
9098 39.34800 714.28152 699.75541 0.19233
9099 39.35160 714.90003 700.93629 0.19219
9100 39.35520 715.50720 701.92709 0.19163
9101 39.35880 716.12635 701.49594 0.19180
9102 39.36240 716.78486 700.58178 0.19232
9103 39.36600 717.50682 699.58754 0.19221
9104 39.36960 718.31049 706.09087 0.19048
9105 39.37320 719.20934 705.20510 0.19094
9106 39.37680 720.21432 700.21871 0.19220
9107 39.38040 721.33587 701.45814 0.19164
9108 39.38400 722.58503 705.81434 0.19042
9109 39.38760 723.97348 702.00056 0.19161
9110 39.39120 725.51225 707.28359 0.19033
9111 39.39480 727.20813 708.36633 0.18999
9112 39.39840 729.05706 709.82837 0.18960
9113 39.40200 731.03350 705.74434 0.19074
9114 39.40560 733.07726 705.99982 0.19058
9115 39.40920 735.08412 710.25621 0.18957
9116 39.41280 736.91365 711.01850 0.18903
9117 39.41640 738.42650 713.37374 0.18854
9118 39.42000 739.54251 716.89189 0.18760
9119 39.42360 740.28195 715.31037 0.18777
9120 39.42720 740.75471 713.94485 0.18830
9121 39.43080 741.10709 715.97785 0.18783
9122 39.43440 741.46849 720.58364 0.18662
9123 39.43800 741.92602 716.99854 0.18758
9124 39.44160 742.52502 718.63996 0.18745
9125 39.44520 743.28115 717.61738 0.18742
9126 39.44880 744.19292 718.56718 0.18704
9127 39.45240 745.25091 720.68929 0.18655
9128 39.45600 746.44313 719.15496 0.18691
9129 39.45960 747.75791 721.67325 0.18613
9130 39.46320 749.18516 725.80092 0.18493
9131 39.46680 750.71683 724.03178 0.18552
9132 39.47040 752.34699 726.81462 0.18500
9133 39.47400 754.07159 729.28699 0.18436
9134 39.47760 755.88824 732.52755 0.18362
9135 39.48120 757.79555 737.29410 0.18248
9136 39.48480 759.79232 736.81064 0.18248
9137 39.48840 761.87600 739.52905 0.18192
9138 39.49200 764.08131 740.43878 0.18147
9139 39.49560 766.31476 743.72701 0.18074
9140 39.49920 768.59039 742.99874 0.18086
9141 39.50280 770.87514 747.05731 0.17982
9142 39.50640 773.12867 751.78451 0.17861
9143 39.51000 775.31603 752.46625 0.17848
9144 39.51360 777.42182 756.84941 0.17761
9145 39.51720 779.45056 757.97129 0.17728
9146 39.52080 781.41631 760.12673 0.17709
9147 39.52440 783.32944 766.39462 0.17538
9148 39.52800 785.18659 770.90761 0.17423
9149 39.53160 786.96858 780.15057 0.17212
9150 39.53520 788.64315 783.80204 0.17135
9151 39.53880 790.16948 787.05224 0.17066
9152 39.54240 791.50313 800.80773 0.16747
9153 39.54600 792.60092 803.21298 0.16712
9154 39.54960 793.42570 810.08120 0.16599
9155 39.55320 793.95064 820.93192 0.16369
9156 39.55680 794.16238 822.02613 0.16356
9157 39.56040 794.06207 830.24236 0.16196
9158 39.56400 793.66309 836.78178 0.16053
9159 39.56760 792.98421 837.49736 0.16042
9160 39.57120 792.03815 834.48923 0.16106
9161 39.57480 790.81701 835.83500 0.16073
9162 39.57840 789.28148 831.26154 0.16165
9163 39.58200 787.36572 828.85846 0.16214
9164 39.58560 785.00739 823.04487 0.16324
9165 39.58920 782.19338 819.00867 0.16390
9166 39.59280 778.98860 807.18296 0.16650
9167 39.59640 775.52155 800.72825 0.16765
9168 39.60000 771.93906 789.40358 0.17018
9169 39.60360 768.36475 785.27075 0.17088
9170 39.60720 764.88161 774.25927 0.17309
9171 39.61080 761.53487 769.61213 0.17414
9172 39.61440 758.34297 764.21497 0.17532
9173 39.61800 755.30848 760.72413 0.17643
9174 39.62160 752.42582 759.04215 0.17661
9175 39.62520 749.68596 749.47809 0.17908
9176 39.62880 747.08591 746.25065 0.18027
9177 39.63240 744.67179 741.43976 0.18130
9178 39.63600 742.30378 739.55698 0.18179
9179 39.63960 740.04327 738.79033 0.18208
9180 39.64320 737.88410 736.45573 0.18244
9181 39.64680 735.82133 732.66836 0.18339
9182 39.65040 733.85119 730.91439 0.18393
9183 39.65400 731.96420 726.75920 0.18502
9184 39.65760 730.17214 729.28052 0.18422
9185 39.66120 728.46832 724.60503 0.18552
9186 39.66480 726.85276 722.54595 0.18599
9187 39.66840 725.32651 718.45933 0.18706
9188 39.67200 723.89071 716.67897 0.18752
9189 39.67560 722.54544 717.93379 0.18693
9190 39.67920 721.28768 715.67720 0.18754
9191 39.68280 720.10798 716.52013 0.18746
9192 39.68640 718.98636 712.91644 0.18815
9193 39.69000 717.88922 711.62421 0.18832
9194 39.69360 716.77127 711.57451 0.18826
9195 39.69720 715.58671 712.01415 0.18835
9196 39.70080 714.30731 709.43281 0.18880
9197 39.70440 712.93601 705.94271 0.18975
9198 39.70800 711.50459 702.60201 0.19129
9199 39.71160 710.11118 699.77335 0.19205
9200 39.71520 708.73481 696.92035 0.19253
9201 39.71880 707.36292 701.02496 0.19158
9202 39.72240 706.05425 700.19533 0.19190
9203 39.72600 704.81148 696.61579 0.19303
9204 39.72960 703.63135 695.84605 0.19319
9205 39.73320 702.50809 695.64000 0.19334
9206 39.73680 701.43579 695.59727 0.19309
9207 39.74040 700.40972 697.19240 0.19290
9208 39.74400 699.42642 691.79594 0.19437
9209 39.74760 698.48319 690.77395 0.19449
9210 39.75120 697.57755 693.35298 0.19364
9211 39.75480 696.70707 688.70268 0.19495
9212 39.75840 695.86944 695.54711 0.19293
9213 39.76200 695.08800 696.49071 0.19288
9214 39.76560 694.32085 698.62618 0.19193
9215 39.76920 693.55220 699.43743 0.19176
9216 39.77280 692.82736 697.98598 0.19186
9217 39.77640 692.12686 694.46096 0.19293
9218 39.78000 691.44939 690.92108 0.19398
9219 39.78360 690.79375 693.08063 0.19320
9220 39.78720 690.15884 693.91520 0.19342
9221 39.79080 689.54365 688.82183 0.19509
9222 39.79440 688.94726 690.46869 0.19436
9223 39.79800 688.36881 686.63314 0.19551
9224 39.80160 687.80751 685.43607 0.19592
9225 39.80520 687.26265 678.31952 0.19832
9226 39.80880 686.73356 676.64901 0.19854
9227 39.81240 686.21959 675.42826 0.19917
9228 39.81600 685.72016 675.12054 0.19902
9229 39.81960 685.23472 673.18950 0.19968
9230 39.82320 684.76275 671.73880 0.20021
9231 39.82680 684.30375 671.23222 0.20011
9232 39.83040 683.85725 670.53441 0.20014
9233 39.83400 683.42282 669.77585 0.20053
9234 39.83760 683.00003 666.67866 0.20151
9235 39.84120 682.58848 667.72439 0.20133
9236 39.84480 682.18778 666.53342 0.20124
9237 39.84840 681.79758 666.40748 0.20140
9238 39.85200 681.41753 665.62134 0.20144
9239 39.85560 681.04729 664.96299 0.20152
9240 39.85920 680.68654 662.66975 0.20256
9241 39.86280 680.33499 662.23918 0.20234
9242 39.86640 679.99233 663.96657 0.20226
9243 39.87000 679.65829 664.64303 0.20228
9244 39.87360 679.33260 662.63010 0.20263
9245 39.87720 679.01500 660.96555 0.20308
9246 39.88080 678.70526 659.01667 0.20372
9247 39.88440 678.40312 660.59015 0.20376
9248 39.88800 678.10837 655.73122 0.20501
9249 39.89160 677.82078 658.66755 0.20425
9250 39.89520 677.54015 657.76221 0.20444
9251 39.89880 677.26629 658.47691 0.20412
9252 39.90240 676.98096 655.65477 0.20519
9253 39.90600 676.72020 657.34673 0.20443
9254 39.90960 676.46564 656.86452 0.20434
9255 39.91320 676.21711 654.45629 0.20517
9256 39.91680 675.97445 654.80503 0.20518
9257 39.92040 675.73750 655.92796 0.20488
9258 39.92400 675.50611 653.78436 0.20537
9259 39.92760 675.28014 653.68171 0.20540
9260 39.93120 675.05945 652.81165 0.20559
9261 39.93480 674.84390 653.41736 0.20513
9262 39.93840 674.63336 653.14920 0.20570
9263 39.94200 674.42773 652.24829 0.20560
9264 39.94560 674.22687 651.09999 0.20629
9265 39.94920 674.03069 649.96899 0.20686
9266 39.95280 673.83906 648.61908 0.20691
9267 39.95640 673.65190 650.10726 0.20636
9268 39.96000 673.46909 649.57160 0.20661
9269 39.96360 673.29056 651.92944 0.20636
9270 39.96720 673.11621 649.57216 0.20683
9271 39.97080 672.94595 651.33181 0.20650
9272 39.97440 672.78268 652.93535 0.20612
9273 39.97800 672.62048 649.38247 0.20703
9274 39.98160 672.46439 650.81229 0.20660
9275 39.98520 672.31074 645.84231 0.20816
9276 39.98880 672.15987 647.10938 0.20756
9277 39.99240 672.01267 648.45235 0.20704
9278 39.99600 671.86909 652.90623 0.20584
9279 39.99960 671.72909 651.58783 0.20619
9280 40.00320 671.59261 652.69249 0.20570
9281 40.00680 671.47044 646.11549 0.20775
9282 40.01040 671.34097 648.52286 0.20694
9283 40.01400 671.21491 647.51139 0.20695
9284 40.01760 671.09221 644.66861 0.20814
9285 40.02120 670.97286 645.37055 0.20782
9286 40.02480 670.85682 645.14930 0.20796
9287 40.02840 670.74408 644.29585 0.20862
9288 40.03200 670.63462 643.99637 0.20854
9289 40.03560 670.52843 645.04298 0.20796
9290 40.03920 670.42550 646.31847 0.20752
9291 40.04280 670.32467 642.38907 0.20908
9292 40.04640 670.21810 645.71560 0.20800
9293 40.05000 670.12507 643.88856 0.20870
9294 40.05360 670.03532 641.34016 0.20984
9295 40.05720 669.94888 644.66532 0.20831
9296 40.06080 669.86576 643.81891 0.20865
9297 40.06440 669.78601 643.58368 0.20885
9298 40.06800 669.70965 644.30407 0.20847
9299 40.07160 669.63675 643.39524 0.20864
9300 40.07520 669.56734 644.02583 0.20846
9301 40.07880 669.50151 640.08190 0.20975
9302 40.08240 669.43931 644.13683 0.20839
9303 40.08600 669.38085 643.37704 0.20838
9304 40.08960 669.32945 645.29803 0.20813
9305 40.09320 669.27877 643.66385 0.20835
9306 40.09680 669.23213 640.55944 0.20941
9307 40.10040 669.18968 643.58848 0.20860
9308 40.10400 669.15158 641.38996 0.20903
9309 40.10760 669.11799 642.24515 0.20928
9310 40.11120 669.08911 644.58373 0.20831
9311 40.11480 669.06516 643.79718 0.20845
9312 40.11840 669.04638 640.72286 0.20930
9313 40.12200 669.03304 641.96391 0.20909
9314 40.12560 669.02546 645.30762 0.20829
9315 40.12920 669.02234 642.50231 0.20897
9316 40.13280 669.02726 641.65250 0.20975
9317 40.13640 669.03920 641.18384 0.20945
9318 40.14000 669.05854 641.24038 0.20943
9319 40.14360 669.08586 640.95852 0.20963
9320 40.14720 669.12178 643.35338 0.20891
9321 40.15080 669.16702 643.89427 0.20854
9322 40.15440 669.22394 644.02442 0.20834
9323 40.15800 669.29292 643.26761 0.20878
9324 40.16160 669.37156 641.48174 0.20924
9325 40.16520 669.46358 646.55540 0.20729
9326 40.16880 669.57040 647.88304 0.20719
9327 40.17240 669.69366 645.63803 0.20784
9328 40.17600 669.83528 645.09011 0.20779
9329 40.17960 669.99749 642.59890 0.20893
9330 40.18320 670.18291 643.18288 0.20825
9331 40.18680 670.39462 641.93513 0.20916
9332 40.19040 670.63628 642.75760 0.20878
9333 40.19400 670.91224 646.14396 0.20765
9334 40.19760 671.22697 645.00349 0.20782
9335 40.20120 671.57824 644.03047 0.20833
9336 40.20480 671.99807 647.83534 0.20757
9337 40.20840 672.49264 650.52217 0.20622
9338 40.21200 673.04362 648.39804 0.20735
9339 40.21560 673.68210 652.05659 0.20588
9340 40.21920 674.42492 653.63017 0.20523
9341 40.22280 675.29275 652.96245 0.20573
9342 40.22640 676.31084 653.98526 0.20524
9343 40.23000 677.50993 656.32739 0.20461
9344 40.23360 678.92700 657.21803 0.20402
9345 40.23720 680.60567 663.02257 0.20264
9346 40.24080 682.59566 670.02745 0.20048
9347 40.24440 684.95007 674.69620 0.19884
9348 40.24800 687.71845 680.47289 0.19749
9349 40.25160 690.93219 690.38250 0.19463
9350 40.25520 694.57790 696.97215 0.19261
9351 40.25880 698.55577 700.70983 0.19149
9352 40.26240 702.62818 710.03551 0.18872
9353 40.26600 706.38475 717.62416 0.18674
9354 40.26960 709.27553 725.91843 0.18477
9355 40.27320 710.75944 728.55983 0.18402
9356 40.27680 710.52838 736.96601 0.18181
9357 40.28040 708.66924 736.75858 0.18193
9358 40.28400 705.61537 735.48974 0.18270
9359 40.28760 701.93941 731.41975 0.18328
9360 40.29120 698.14405 729.42595 0.18404
9361 40.29480 694.57421 719.88982 0.18623
9362 40.29840 691.40421 709.59822 0.18878
9363 40.30200 688.69477 705.86824 0.19017
9364 40.30560 686.43952 700.86292 0.19145
9365 40.30920 684.60043 690.43958 0.19431
9366 40.31280 683.12898 687.11295 0.19502
9367 40.31640 681.97721 680.92748 0.19717
9368 40.32000 681.10263 676.26917 0.19852
9369 40.32360 680.47004 673.63543 0.19897
9370 40.32720 680.05173 674.48431 0.19887
9371 40.33080 679.82707 669.75474 0.20059
9372 40.33440 679.78195 672.48299 0.19953
9373 40.33800 679.90829 673.47612 0.19924
9374 40.34160 680.20369 673.90990 0.19910
9375 40.34520 680.67128 676.20175 0.19813
9376 40.34880 681.31984 678.71487 0.19760
9377 40.35240 682.16420 680.41409 0.19707
9378 40.35600 683.22579 687.91965 0.19499
9379 40.35960 684.53362 694.05322 0.19327
9380 40.36320 686.12536 698.11782 0.19218
9381 40.36680 688.04684 702.85133 0.19061
9382 40.37040 690.35401 715.63542 0.18734
9383 40.37400 693.13032 723.19032 0.18536
9384 40.37760 696.45237 730.28500 0.18331
9385 40.38120 700.41293 745.55409 0.17992
9386 40.38480 705.10507 752.17105 0.17833
9387 40.38840 710.60249 763.18469 0.17567
9388 40.39200 716.92159 771.19076 0.17378
9389 40.39560 723.95804 778.41537 0.17235
9390 40.39920 731.39947 782.53061 0.17135
9391 40.40280 738.64311 789.31139 0.16983
9392 40.40640 744.79410 788.94996 0.16992
9393 40.41000 748.84378 789.86272 0.16994
9394 40.41360 750.03973 788.58309 0.17010
9395 40.41720 748.25327 784.51977 0.17108
9396 40.42080 744.05437 784.18115 0.17119
9397 40.42440 738.42771 782.79459 0.17114
9398 40.42800 732.37103 779.14515 0.17202
9399 40.43160 726.63388 776.07090 0.17271
9400 40.43520 721.66585 773.23638 0.17343
9401 40.43880 717.67872 771.38966 0.17383
9402 40.44240 714.73987 776.17577 0.17275
9403 40.44600 712.84781 772.35412 0.17340
9404 40.44960 711.98118 771.67709 0.17344
9405 40.45320 712.12639 768.00092 0.17447
9406 40.45680 713.29126 768.46783 0.17406
9407 40.46040 715.50951 770.64146 0.17378
9408 40.46400 718.83775 771.23098 0.17381
9409 40.46760 723.34292 776.34643 0.17241
9410 40.47120 729.05372 784.90628 0.17056
9411 40.47480 735.99135 789.13261 0.16964
9412 40.47840 743.96248 795.69758 0.16821
9413 40.48200 752.51671 795.66053 0.16825
9414 40.48560 760.83458 800.92978 0.16714
9415 40.48920 767.70568 805.83603 0.16656
9416 40.49280 771.78023 806.05517 0.16648
9417 40.49640 772.05429 801.31568 0.16749
9418 40.50000 768.34929 794.60954 0.16893
9419 40.50360 761.40219 789.88540 0.16975
9420 40.50720 752.48592 781.35074 0.17156
9421 40.51080 742.87965 773.97457 0.17330
9422 40.51440 733.53067 763.66226 0.17595
9423 40.51800 724.98289 751.01399 0.17934
9424 40.52160 717.46153 741.87354 0.18220
9425 40.52520 710.99241 732.64011 0.18538
9426 40.52880 705.49888 716.77941 0.18331
9427 40.53240 700.86323 702.47757 0.16678
9428 40.53600 696.96011 699.02010 0.16736
9429 40.53960 693.67254 695.44198 0.16823
9430 40.54320 690.89802 686.78938 0.17066
9431 40.54680 688.54969 679.66601 0.17214
9432 40.55040 686.55540 676.33214 0.17309
9433 40.55400 684.85583 676.14243 0.17301
9434 40.55760 683.40248 672.38343 0.17404
9435 40.56120 682.15580 670.21989 0.17462
9436 40.56480 681.08355 667.27243 0.17536
9437 40.56840 680.15938 665.43155 0.17621
9438 40.57200 679.36172 661.74509 0.17728
9439 40.57560 678.67281 659.78377 0.17786
9440 40.57920 678.07800 658.46501 0.17819
9441 40.58280 677.56513 658.30073 0.17817
9442 40.58640 677.12405 658.65748 0.17790
9443 40.59000 676.74625 658.68011 0.17804
9444 40.59360 676.42458 657.96386 0.17863
9445 40.59720 676.15300 657.81858 0.17907
9446 40.60080 675.80215 657.14381 0.17992
9447 40.60440 675.31164 659.47769 0.18011
9448 40.60800 675.16410 656.44247 0.18097
9449 40.61160 675.05018 656.99988 0.15295
9450 40.61520 674.96715 656.04004 0.15273
9451 40.61880 674.91265 648.97006 0.15431
9452 40.62240 674.88467 650.49933 0.15441
9453 40.62600 674.88147 657.30630 0.15252
9454 40.62960 674.90156 658.64830 0.15220
9455 40.63320 674.94367 660.26926 0.15175
9456 40.63680 675.00671 657.86144 0.15243
9457 40.64040 675.08977 656.77401 0.15264
9458 40.64400 675.19207 658.36673 0.15230
9459 40.64760 675.31298 658.11402 0.15261
9460 40.65120 675.45198 658.70770 0.15262
9461 40.65480 675.60866 656.19758 0.15321
9462 40.65840 675.78272 653.48386 0.15385
9463 40.66200 675.97395 656.03382 0.15332
9464 40.66560 676.18223 655.82320 0.15314
9465 40.66920 676.40754 662.42816 0.15171
9466 40.67280 676.64993 658.68358 0.15270
9467 40.67640 676.90954 661.95821 0.15252
9468 40.68000 677.18660 659.06443 0.15386
9469 40.68360 677.48146 659.93877 0.15457
9470 40.68720 677.79451 660.11587 0.15576
9471 40.69080 678.12632 662.16915 0.13022
9472 40.69440 678.47751 660.20513 0.12644
9473 40.69800 678.84888 661.61507 0.12609
9474 40.70160 679.24134 660.74351 0.12654
9475 40.70520 679.65603 664.65511 0.12568
9476 40.70880 680.09424 661.99255 0.12610
9477 40.71240 680.55753 662.67367 0.12598
9478 40.71600 681.04777 667.93377 0.14151
9479 40.71960 681.56715 669.41749 0.15373
9480 40.72320 682.11832 672.02779 0.15176
9481 40.72680 682.70445 669.70627 0.15134
9482 40.73040 683.32938 671.88877 0.15054
9483 40.73400 683.99763 668.24696 0.15094
9484 40.73760 684.58090 669.39213 0.15049
9485 40.74120 685.35444 674.78415 0.14929
9486 40.74480 686.19196 675.62248 0.14888
9487 40.74840 687.10322 673.30253 0.14931
9488 40.75200 688.09971 674.07420 0.14920
9489 40.75560 689.19451 676.59427 0.14904
9490 40.75920 690.40175 682.23710 0.14848
9491 40.76280 691.73498 683.04879 0.14916
9492 40.76640 693.20381 688.74731 0.14896
9493 40.77000 694.80764 690.35489 0.13027
9494 40.77360 696.52560 692.48241 0.12047
9495 40.77720 698.30379 694.82701 0.12004
9496 40.78080 700.04526 693.19219 0.12047
9497 40.78440 701.61536 696.01808 0.12009
9498 40.78800 702.87519 695.61190 0.11990
9499 40.79160 703.79667 696.06425 0.12000
9500 40.79520 704.27053 701.71004 0.12832
9501 40.79880 704.45759 702.49088 0.14677
9502 40.80240 704.50290 700.74101 0.14588
9503 40.80600 704.54059 695.60165 0.14585
9504 40.80960 704.66645 694.97401 0.14562
9505 40.81320 704.93631 696.38919 0.14483
9506 40.81680 705.36009 696.90270 0.14451
9507 40.82040 705.94745 695.14220 0.14480
9508 40.82400 706.69285 695.14174 0.14477
9509 40.82760 707.58799 694.88669 0.14461
9510 40.83120 708.62483 696.76435 0.14437
9511 40.83480 709.79711 700.48499 0.14370
9512 40.83840 711.10082 697.31411 0.14497
9513 40.84200 712.53397 696.86080 0.14593
9514 40.84560 714.09600 695.38810 0.14733
9515 40.84920 715.78641 699.42404 0.13443
9516 40.85280 717.60247 703.82032 0.11828
9517 40.85640 719.53586 704.43641 0.11848
9518 40.86000 721.56863 702.30818 0.11888
9519 40.86360 723.67066 705.24325 0.11845
9520 40.86720 725.80257 707.86370 0.11794
9521 40.87080 727.92732 708.34409 0.11777
9522 40.87440 730.02738 709.59043 0.12195
9523 40.87800 732.11594 709.68003 0.14549
9524 40.88160 734.23267 710.66402 0.14407
9525 40.88520 736.42773 710.95951 0.14290
9526 40.88880 738.74658 712.58851 0.14198
9527 40.89240 741.22310 716.12846 0.14079
9528 40.89600 743.88012 716.36435 0.14057
9529 40.89960 746.73312 716.71723 0.14035
9530 40.90320 749.79393 716.93951 0.14042
9531 40.90680 753.07329 719.72961 0.13960
9532 40.91040 756.58208 726.36032 0.13850
9533 40.91400 760.33132 725.05012 0.13864
9534 40.91760 764.33082 727.03991 0.13878
9535 40.92120 768.58634 730.02166 0.13895
9536 40.92480 773.09533 732.46086 0.13927
9537 40.92840 777.84227 736.66795 0.13683
9538 40.93200 782.79719 741.25963 0.11236
9539 40.93560 787.92263 741.86857 0.11266
9540 40.93920 793.19126 749.20934 0.11141
9541 40.94280 798.60687 752.80505 0.11104
9542 40.94640 804.27651 751.60283 0.11124
9543 40.95000 810.14433 752.38628 0.11103
9544 40.95360 816.35275 758.59693 0.11004
9545 40.95720 822.98442 764.36919 0.13411
9546 40.96080 830.06868 766.03998 0.13376
9547 40.96440 837.66177 771.14466 0.13206
9548 40.96800 845.79950 771.27282 0.13126
9549 40.97160 854.51417 780.30671 0.12931
9550 40.97520 863.83697 785.66327 0.12819
9551 40.97880 873.79896 792.63219 0.12696
9552 40.98240 884.43094 798.42461 0.12619
9553 40.98600 895.76352 804.45707 0.12503
9554 40.98960 907.83818 814.54303 0.12355
9555 40.99320 920.64486 824.61860 0.12195
9556 40.99680 934.21403 833.21255 0.12100
9557 41.00040 948.54804 846.61007 0.11970
9558 41.00400 963.63308 855.91587 0.11907
9559 41.00760 979.43370 873.39894 0.11768
9560 41.01120 995.88662 887.14099 0.09640
9561 41.01480 1012.89393 904.83682 0.09234
9562 41.01840 1030.31607 921.92717 0.09055
9563 41.02200 1047.96541 942.97676 0.08867
9564 41.02560 1065.60130 968.28224 0.08639
9565 41.02920 1082.92800 996.31390 0.08396
9566 41.03280 1099.59684 1017.57835 0.08207
9567 41.03640 1115.21424 1048.05395 0.09390
9568 41.04000 1129.35640 1066.69212 0.09637
9569 41.04360 1141.59104 1090.81420 0.09355
9570 41.04720 1151.50502 1108.35693 0.09123
9571 41.05080 1158.73543 1127.19920 0.08945
9572 41.05440 1163.00032 1143.07155 0.08801
9573 41.05800 1164.08448 1143.35936 0.08797
9574 41.06160 1162.01545 1140.05781 0.08832
9575 41.06520 1156.83501 1138.04834 0.08854
9576 41.06880 1148.74029 1119.31583 0.08999
9577 41.07240 1138.03273 1097.27639 0.09172
9578 41.07600 1125.08862 1071.47708 0.09409
9579 41.07960 1110.32789 1038.84173 0.09753
9580 41.08320 1094.18352 1009.84892 0.10102
9581 41.08680 1077.07494 985.23400 0.10449
9582 41.09040 1059.38773 963.05668 0.09409
9583 41.09400 1041.46033 943.01800 0.08834
9584 41.09760 1023.57733 921.67934 0.09023
9585 41.10120 1005.96821 905.78508 0.09201
9586 41.10480 988.81015 889.92148 0.09395
9587 41.10840 972.23330 881.43031 0.09500
9588 41.11200 956.32737 869.27766 0.09617
9589 41.11560 941.14857 852.42966 0.10740
9590 41.11920 926.72627 845.31743 0.12201
9591 41.12280 913.06901 836.16163 0.12235
9592 41.12640 900.16968 825.05990 0.12274
9593 41.13000 888.00982 817.26538 0.12342
9594 41.13360 876.56306 810.66156 0.12390
9595 41.13720 865.79792 803.69302 0.12502
9596 41.14080 855.67985 798.65583 0.12586
9597 41.14440 846.17286 794.26241 0.12660
9598 41.14800 837.24066 783.99740 0.12815
9599 41.15160 828.84751 780.37697 0.12856
9600 41.15520 820.95878 776.30252 0.12901
9601 41.15880 813.54137 768.36330 0.13055
9602 41.16240 806.56393 767.79828 0.13082
9603 41.16600 799.99700 765.23567 0.13109
9604 41.16960 793.81306 761.16529 0.13179
9605 41.17320 787.98656 755.38486 0.13249
9606 41.17680 782.49382 754.70562 0.13268
9607 41.18040 777.31299 749.25139 0.13392
9608 41.18400 772.42384 749.58575 0.13416
9609 41.18760 767.80753 746.21507 0.13490
9610 41.19120 763.44615 743.09060 0.13519
9611 41.19480 759.31529 741.58777 0.14018
9612 41.19840 755.34240 740.96499 0.16216
9613 41.20200 751.63879 735.44951 0.16218
9614 41.20560 748.11521 736.58488 0.16049
9615 41.20920 744.75177 731.11959 0.16104
9616 41.21280 741.53184 734.03368 0.15967
9617 41.21640 738.44464 729.79287 0.16067
9618 41.22000 735.48543 730.35200 0.16064
9619 41.22360 732.65307 727.25741 0.16122
9620 41.22720 729.94683 722.27992 0.16230
9621 41.23080 727.36453 722.17307 0.16228
9622 41.23440 724.90230 720.54797 0.16225
9623 41.23800 722.63148 719.47357 0.16265
9624 41.24160 720.39277 716.86156 0.16351
9625 41.24520 718.25664 714.22232 0.16392
9626 41.24880 716.21713 711.62080 0.16454
9627 41.25240 714.26862 709.94851 0.16456
9628 41.25600 712.40587 708.97499 0.16490
9629 41.25960 710.62402 706.41373 0.16576
9630 41.26320 708.91856 705.93277 0.16620
9631 41.26680 707.28535 702.80630 0.16702
9632 41.27040 705.72055 702.26644 0.16701
9633 41.27400 704.22061 700.55477 0.16710
9634 41.27760 702.78202 697.93559 0.19459
9635 41.28120 701.30324 702.07298 0.19412
9636 41.28480 699.98494 697.37551 0.19412
9637 41.28840 698.71486 697.87981 0.19284
9638 41.29200 697.49523 699.81859 0.19165
9639 41.29560 696.32385 698.91052 0.19177
9640 41.29920 695.19853 695.24198 0.19288
9641 41.30280 694.11721 694.03793 0.19314
9642 41.30640 693.07792 693.71650 0.19311
9643 41.31000 692.07884 692.87626 0.19343
9644 41.31360 691.11822 691.94017 0.19319
9645 41.31720 690.19449 692.33217 0.19314
9646 41.32080 689.30617 694.32886 0.19301
9647 41.32440 688.45188 691.39799 0.19359
9648 41.32800 687.63034 688.45200 0.19435
9649 41.33160 686.84031 689.62153 0.19374
9650 41.33520 686.08064 690.48784 0.19354
9651 41.33880 685.35020 690.35243 0.19376
9652 41.34240 684.64794 688.40029 0.19471
9653 41.34600 683.97287 690.45936 0.19414
9654 41.34960 683.34044 687.71647 0.19497
9655 41.35320 682.71758 689.51414 0.19413
9656 41.35680 682.11877 690.69746 0.19387
9657 41.36040 681.54369 690.52877 0.19404
9658 41.36400 680.99157 686.20010 0.19534
9659 41.36760 680.46173 689.30034 0.19385
9660 41.37120 679.95349 682.90667 0.19567
9661 41.37480 679.46623 685.39799 0.19495
9662 41.37840 678.99936 687.19653 0.19481
9663 41.38200 678.55232 684.30185 0.19570
9664 41.38560 678.12460 683.66372 0.19578
9665 41.38920 677.71570 680.69317 0.19697
9666 41.39280 677.32517 681.54959 0.19629
9667 41.39640 676.95258 682.80507 0.19580
9668 41.40000 676.59154 684.85507 0.19549
9669 41.40360 676.22047 685.62221 0.19525
9670 41.40720 675.89953 683.05257 0.19593
9671 41.41080 675.59507 683.11292 0.19577
9672 41.41440 675.30680 682.80457 0.19565
9673 41.41800 675.03443 681.25610 0.19611
9674 41.42160 674.77771 684.31585 0.19572
9675 41.42520 674.53641 686.65409 0.19513
9676 41.42880 674.31032 684.58678 0.19579
9677 41.43240 674.09924 685.17249 0.19547
9678 41.43600 673.90301 687.19658 0.19484
9679 41.43960 673.72148 685.91582 0.19535
9680 41.44320 673.55451 687.15798 0.19493
9681 41.44680 673.40200 688.20011 0.19414
9682 41.45040 673.26385 689.57522 0.19394
9683 41.45400 673.13997 690.94483 0.19333
9684 41.45760 673.03028 689.23209 0.19413
9685 41.46120 672.93471 689.30636 0.19450
9686 41.46480 672.85317 690.16691 0.19407
9687 41.46840 672.78555 692.52629 0.19343
9688 41.47200 672.73176 692.03026 0.19351
9689 41.47560 672.69175 689.06314 0.19408
9690 41.47920 672.66554 692.73704 0.19318
9691 41.48280 672.66032 693.72749 0.19296
9692 41.48640 672.66211 691.65430 0.19345
9693 41.49000 672.67811 692.09485 0.19357
9694 41.49360 672.70244 691.61239 0.19336
9695 41.49720 672.72464 692.92588 0.19266
9696 41.50080 672.78421 693.85244 0.19286
9697 41.50440 672.85857 690.24700 0.19407
9698 41.50800 672.94786 692.34526 0.19350
9699 41.51160 673.05223 693.34617 0.19330
9700 41.51520 673.17187 692.45774 0.19330
9701 41.51880 673.30696 691.17996 0.19390
9702 41.52240 673.45770 692.81665 0.19332
9703 41.52600 673.62433 689.91340 0.19384
9704 41.52960 673.80707 691.63467 0.19340
9705 41.53320 674.00617 691.70150 0.19313
9706 41.53680 674.22192 694.45660 0.19258
9707 41.54040 674.45459 693.76208 0.19319
9708 41.54400 674.70448 694.30580 0.19284
9709 41.54760 674.97191 691.28352 0.19375
9710 41.55120 675.25719 695.18350 0.19266
9711 41.55480 675.56068 699.96125 0.19108
9712 41.55840 675.88273 700.39688 0.19093
9713 41.56200 676.22369 701.99026 0.19065
9714 41.56560 676.58394 700.82321 0.19095
9715 41.56920 676.96386 703.32420 0.19042
9716 41.57280 677.36379 702.26071 0.19048
9717 41.57640 677.77348 704.16844 0.18967
9718 41.58000 678.21475 705.75903 0.18959
9719 41.58360 678.67721 705.56316 0.18986
9720 41.58720 679.16129 708.33455 0.18907
9721 41.59080 679.66743 708.84474 0.18915
9722 41.59440 680.19610 708.55983 0.18902
9723 41.59800 680.74775 710.11327 0.18868
9724 41.60160 681.32284 711.20318 0.18853
9725 41.60520 681.92180 710.60545 0.18823
9726 41.60880 682.54507 713.00734 0.18758
9727 41.61240 683.19303 715.96940 0.18660
9728 41.61600 683.86608 719.26782 0.18589
9729 41.61960 684.56458 719.05772 0.18625
9730 41.62320 685.28888 716.21331 0.18705
9731 41.62680 686.04825 714.15301 0.18761
9732 41.63040 686.84148 720.85571 0.18594
9733 41.63400 687.64502 718.76916 0.18614
9734 41.63760 688.47538 721.06937 0.18561
9735 41.64120 689.33270 723.97450 0.18501
9736 41.64480 690.21706 725.21151 0.18463
9737 41.64840 691.12847 730.05702 0.18344
9738 41.65200 692.06686 729.40755 0.18359
9739 41.65560 693.03156 731.76574 0.18270
9740 41.65920 694.02063 733.49372 0.18234
9741 41.66280 695.03862 732.85709 0.18276
9742 41.66640 696.08230 735.86960 0.18194
9743 41.67000 697.15104 737.94706 0.18164
9744 41.67360 698.24406 737.06116 0.18165
9745 41.67720 699.36042 739.38162 0.18111
9746 41.68080 700.49898 744.16213 0.18028
9747 41.68440 701.65845 739.20710 0.18118
9748 41.68800 702.83729 746.21063 0.17945
9749 41.69160 704.03376 745.98423 0.17964
9750 41.69520 705.24586 746.41738 0.17940
9751 41.69880 706.47136 755.18773 0.17722
9752 41.70240 707.70775 754.18127 0.17768
9753 41.70600 708.95223 756.43095 0.17705
9754 41.70960 710.20172 757.72169 0.17690
9755 41.71320 711.45592 760.78877 0.17588
9756 41.71680 712.70508 763.97394 0.17519
9757 41.72040 713.94800 765.26160 0.17499
9758 41.72400 715.17664 766.26458 0.17462
9759 41.72760 716.39379 767.06052 0.17432
9760 41.73120 717.59105 770.11927 0.17383
9761 41.73480 718.76294 770.94859 0.17394
9762 41.73840 719.90391 773.95008 0.17329
9763 41.74200 721.00817 774.58458 0.17329
9764 41.74560 722.06972 779.80823 0.17195
9765 41.74920 723.08238 781.44161 0.17172
9766 41.75280 724.03989 780.74876 0.17170
9767 41.75640 724.93591 783.52460 0.17099
9768 41.76000 725.76420 786.15263 0.17083
9769 41.76360 726.51973 788.09882 0.17020
9770 41.76720 727.19394 788.28151 0.16995
9771 41.77080 727.78241 794.26890 0.16879
9772 41.77440 728.27978 793.19950 0.16887
9773 41.77800 728.68118 796.71897 0.16805
9774 41.78160 728.98229 792.59740 0.16918
9775 41.78520 729.18347 799.64211 0.16753
9776 41.78880 729.27399 801.08849 0.16738
9777 41.79240 729.26086 799.08171 0.16774
9778 41.79600 729.13229 799.32164 0.16758
9779 41.79960 728.90940 798.71564 0.16781
9780 41.80320 728.56845 794.14180 0.16873
9781 41.80680 728.11014 793.24666 0.16893
9782 41.81040 727.54545 790.76946 0.16945
9783 41.81400 726.87754 789.86741 0.16961
9784 41.81760 726.11031 793.64341 0.16875
9785 41.82120 725.24842 788.54055 0.16982
9786 41.82480 724.24086 786.43467 0.17026
9787 41.82840 723.20208 782.49144 0.17133
9788 41.83200 722.08981 779.72602 0.17189
9789 41.83560 720.90661 777.75999 0.17226
9790 41.83920 719.65924 774.37254 0.17335
9791 41.84280 718.35454 770.55431 0.17410
9792 41.84640 716.99940 768.48737 0.17429
9793 41.85000 715.60063 771.20463 0.17384
9794 41.85360 714.16491 765.78691 0.17504
9795 41.85720 712.69872 760.76432 0.17594
9796 41.86080 711.20828 762.40007 0.17573
9797 41.86440 709.69948 760.28874 0.17637
9798 41.86800 708.17791 754.38057 0.17767
9799 41.87160 706.64876 750.90552 0.17856
9800 41.87520 705.11685 750.18747 0.17850
9801 41.87880 703.58662 749.47934 0.17886
9802 41.88240 702.06211 746.20818 0.17966
9803 41.88600 700.54696 741.91159 0.18063
9804 41.88960 699.04473 741.33732 0.18070
9805 41.89320 697.56048 736.58010 0.18177
9806 41.89680 696.09167 734.97149 0.18231
9807 41.90040 694.64320 735.07762 0.18200
9808 41.90400 693.21701 734.75954 0.18231
9809 41.90760 691.81473 726.88589 0.18435
9810 41.91120 690.55494 724.01045 0.18518
9811 41.91480 689.20483 726.51810 0.18450
9812 41.91840 687.88203 724.04806 0.18539
9813 41.92200 686.58727 721.69936 0.18598
9814 41.92560 685.32114 716.10777 0.18710
9815 41.92920 684.08392 714.76891 0.18766
9816 41.93280 682.87588 717.88589 0.18679
9817 41.93640 681.69712 714.94463 0.18737
9818 41.94000 680.54763 710.95369 0.18848
9819 41.94360 679.42786 707.86562 0.18952
9820 41.94720 678.33655 708.49342 0.18934
9821 41.95080 677.27391 706.89975 0.18983
9822 41.95440 676.23968 705.52441 0.18990
9823 41.95800 675.23346 701.59838 0.19123
9824 41.96160 674.25487 697.10462 0.19242
9825 41.96520 673.30344 700.06815 0.19150
9826 41.96880 672.37873 697.22664 0.19237
9827 41.97240 671.48025 696.15802 0.19252
9828 41.97600 670.60751 700.22639 0.19160
9829 41.97960 669.76007 692.84033 0.19328
9830 41.98320 669.00268 692.58689 0.19353
9831 41.98680 668.20432 691.15672 0.19401
9832 41.99040 667.42975 688.64700 0.19495
9833 41.99400 666.67850 691.61160 0.19388
9834 41.99760 665.94956 690.40853 0.19433
9835 42.00120 665.24362 687.49663 0.19539
9836 42.00480 664.55978 683.42655 0.19630
9837 42.00840 663.89767 684.11001 0.19629
9838 42.01200 663.25698 683.25307 0.19651
9839 42.01560 662.63744 682.02951 0.19671
9840 42.01920 662.03884 682.70367 0.19639
9841 42.02280 661.46104 679.59606 0.19760
9842 42.02640 660.90396 678.65967 0.19784
9843 42.03000 660.36761 674.62635 0.19902
9844 42.03360 659.85210 677.02625 0.19808
9845 42.03720 659.35763 676.90497 0.19831
9846 42.04080 658.88455 677.30481 0.19833
9847 42.04440 658.43336 676.36971 0.19841
9848 42.04800 658.00476 673.00537 0.19957
9849 42.05160 657.59964 672.37141 0.19962
9850 42.05520 657.21918 671.46186 0.20007
9851 42.05880 656.86489 673.15439 0.19938
9852 42.06240 656.53865 671.56725 0.19988
9853 42.06600 656.24287 668.96324 0.20064
9854 42.06960 655.98055 667.48190 0.20137
9855 42.07320 655.75541 666.47343 0.20134
9856 42.07680 655.57215 670.83707 0.19995
9857 42.08040 655.43658 667.87117 0.20130
9858 42.08400 655.35592 667.17143 0.20148
9859 42.08760 655.33909 668.76556 0.20093
9860 42.09120 655.39703 670.01717 0.20058
9861 42.09480 655.54301 668.98308 0.20081
9862 42.09840 655.79286 666.94229 0.20123
9863 42.10200 656.16487 669.29677 0.20066
9864 42.10560 656.67909 674.90441 0.19908
9865 42.10920 657.35524 677.18087 0.19859
9866 42.11280 658.20821 679.60512 0.19759
9867 42.11640 659.23950 681.36365 0.19724
9868 42.12000 660.42312 679.27294 0.19807
9869 42.12360 661.68648 682.93184 0.19684
9870 42.12720 662.89313 686.79630 0.19586
9871 42.13080 663.84392 688.81359 0.19507
9872 42.13440 664.31756 686.56931 0.19589
9873 42.13800 664.15163 686.88724 0.19579
9874 42.14160 663.32051 686.18997 0.19572
9875 42.14520 661.94888 687.25153 0.19542
9876 42.14880 660.24887 684.11446 0.19662
9877 42.15240 658.43337 682.15615 0.19712
9878 42.15600 656.66053 676.52159 0.19854
9879 42.15960 655.02195 676.97546 0.19871
9880 42.16320 653.55629 675.60873 0.19924
9881 42.16680 652.26903 668.79347 0.20126
9882 42.17040 651.14835 668.03596 0.20137
9883 42.17400 650.17544 662.20512 0.20307
9884 42.17760 649.33009 657.89262 0.20422
9885 42.18120 648.59346 656.06621 0.20499
9886 42.18480 647.94907 657.65906 0.20458
9887 42.18840 647.38315 654.02043 0.20582
9888 42.19200 646.88446 651.41702 0.20654
9889 42.19560 646.44404 652.20800 0.20619
9890 42.19920 646.05493 649.35854 0.20745
9891 42.20280 645.61729 652.80845 0.20632
9892 42.20640 645.31675 651.09301 0.20696
9893 42.21000 645.05623 646.67623 0.20811
9894 42.21360 644.83465 646.71150 0.20824
9895 42.21720 644.65379 644.94527 0.20895
9896 42.22080 644.51180 644.99935 0.20851
9897 42.22440 644.41293 646.52896 0.20810
9898 42.22800 644.36113 646.67368 0.20803
9899 42.23160 644.36169 643.95359 0.20917
9900 42.23520 644.42116 644.69656 0.20861
9901 42.23880 644.54699 642.99520 0.20940
9902 42.24240 644.74666 644.51854 0.20900
9903 42.24600 645.02573 644.97104 0.20909
9904 42.24960 645.38635 644.20756 0.20915
9905 42.25320 645.81295 639.57468 0.21045
9906 42.25680 646.27666 641.43388 0.20981
9907 42.26040 646.71987 645.92748 0.20835
9908 42.26400 647.05870 646.92144 0.20804
9909 42.26760 647.20001 649.96934 0.20717
9910 42.27120 647.07533 647.34072 0.20825
9911 42.27480 646.67361 647.50934 0.20808
9912 42.27840 646.04691 648.78922 0.20788
9913 42.28200 645.28411 646.52807 0.20864
9914 42.28560 644.47454 645.44574 0.20909
9915 42.28920 643.68462 642.42341 0.20983
9916 42.29280 642.95285 643.21344 0.20953
9917 42.29640 642.29555 647.57059 0.20838
9918 42.30000 641.71503 643.64133 0.20925
9919 42.30360 641.20640 641.19698 0.21013
9920 42.30720 640.76179 640.19877 0.21035
9921 42.31080 640.37279 639.97581 0.21087
9922 42.31440 640.03154 640.24394 0.21048
9923 42.31800 639.73124 637.15670 0.21148
9924 42.32160 639.46622 635.65071 0.21214
9925 42.32520 639.23191 635.06010 0.21255
9926 42.32880 639.02473 633.25422 0.21296
9927 42.33240 638.84199 636.23940 0.21176
9928 42.33600 638.68174 634.45747 0.21241
9929 42.33960 638.54275 632.08085 0.21316
9930 42.34320 638.42441 634.05310 0.21248
9931 42.34680 638.32672 635.66488 0.21199
9932 42.35040 638.25029 637.78958 0.21155
9933 42.35400 638.19637 633.06064 0.21304
9934 42.35760 638.16689 627.85977 0.21497
9935 42.36120 638.16460 629.37521 0.21458
9936 42.36480 638.19310 631.60656 0.21380
9937 42.36840 638.25704 628.49245 0.21472
9938 42.37200 638.36223 630.63814 0.21393
9939 42.37560 638.51579 628.13363 0.21496
9940 42.37920 638.72608 630.28158 0.21404
9941 42.38280 639.00256 629.87322 0.21413
9942 42.38640 639.35493 632.64028 0.21305
9943 42.39000 639.79145 630.24047 0.21424
9944 42.39360 640.31543 630.65787 0.21391
9945 42.39720 640.91923 628.93448 0.21455
9946 42.40080 641.57561 628.60850 0.21459
9947 42.40440 642.22844 631.92431 0.21373
9948 42.40800 642.78931 632.01955 0.21350
9949 42.41160 643.15063 632.69119 0.21341
9950 42.41520 643.22004 633.30556 0.21303
9951 42.41880 642.96220 633.24828 0.21296
9952 42.42240 642.41736 634.37944 0.21262
9953 42.42600 641.68060 635.38201 0.21223
9954 42.42960 640.85972 633.40487 0.21313
9955 42.43320 640.04197 628.92262 0.21467
9956 42.43680 639.28226 628.32974 0.21475
9957 42.44040 638.60726 630.74560 0.21415
9958 42.44400 638.02475 631.56053 0.21400
9959 42.44760 637.53229 626.78445 0.21549
9960 42.45120 637.12302 629.06688 0.21447
9961 42.45480 636.78911 626.69783 0.21539
9962 42.45840 636.52346 626.61524 0.21542
9963 42.46200 636.32049 627.07025 0.21508
9964 42.46560 636.17636 627.99645 0.21477
9965 42.46920 636.08881 627.47331 0.21499
9966 42.47280 636.05676 625.01587 0.21601
9967 42.47640 636.07940 628.32303 0.21501
9968 42.48000 636.15465 629.38517 0.21452
9969 42.48360 636.27660 625.70688 0.21593
9970 42.48720 636.43199 625.83800 0.21599
9971 42.49080 636.59649 625.37107 0.21585
9972 42.49440 636.73372 623.39953 0.21657
9973 42.49800 636.80079 626.80333 0.21538
9974 42.50160 636.76219 627.72238 0.21516
9975 42.50520 636.60583 625.28615 0.21589
9976 42.50880 636.34931 623.05455 0.21677
9977 42.51240 636.03093 626.07418 0.21615
9978 42.51600 635.69328 626.96121 0.21539
9979 42.51960 635.37069 621.92293 0.21719
9980 42.52320 635.08526 622.84650 0.21697
9981 42.52680 634.84873 621.58924 0.21735
9982 42.53040 634.66619 621.53949 0.21719
9983 42.53400 634.53946 623.69166 0.21641
9984 42.53760 634.46930 623.26001 0.21672
9985 42.54120 634.45653 625.38534 0.21584
9986 42.54480 634.50238 624.62667 0.21622
9987 42.54840 634.60790 622.20586 0.21696
9988 42.55200 634.77242 621.84399 0.21728
9989 42.55560 634.99073 623.31834 0.21687
9990 42.55920 635.24872 625.54791 0.21582
9991 42.56280 635.51855 625.76247 0.21589
9992 42.56640 635.75602 625.24403 0.21630
9993 42.57000 635.90588 622.99234 0.21686
9994 42.57360 636.13911 621.37754 0.21738
9995 42.57720 636.02381 619.76885 0.21802
9996 42.58080 635.72411 621.17664 0.21761
9997 42.58440 635.32045 621.91914 0.21732
9998 42.58800 634.86788 621.47829 0.21726
9999 42.59160 634.41285 622.86284 0.21728
10000 42.59520 633.98562 625.10732 0.21622
10001 42.59880 633.60139 625.27765 0.21602
10002 42.60240 633.26494 625.42770 0.21616
10003 42.60600 632.97702 622.83657 0.21708
10004 42.60960 632.73434 624.60535 0.21617
10005 42.61320 632.52586 625.85849 0.21566
10006 42.61680 632.35140 626.24378 0.21576
10007 42.62040 632.20729 624.45053 0.21622
10008 42.62400 632.09071 625.92239 0.21595
10009 42.62760 631.99973 623.11390 0.21670
10010 42.63120 631.93332 627.34390 0.21540
10011 42.63480 631.90077 625.14670 0.21634
10012 42.63840 631.88418 624.05868 0.21653
10013 42.64200 631.89364 626.04216 0.21599
10014 42.64560 631.93171 623.79459 0.21692
10015 42.64920 632.00101 623.80413 0.21671
10016 42.65280 632.10419 623.34948 0.21706
10017 42.65640 632.24300 623.71225 0.21676
10018 42.66000 632.41658 626.68153 0.21589
10019 42.66360 632.61882 627.00753 0.21566
10020 42.66720 632.85694 626.57162 0.21578
10021 42.67080 633.06081 626.91203 0.21591
10022 42.67440 633.21585 629.47279 0.21583
10023 42.67800 633.28396 630.29546 0.21459
10024 42.68160 633.24023 632.61146 0.21391
10025 42.68520 633.08524 636.10513 0.21276
10026 42.68880 632.84489 635.68087 0.21259
10027 42.69240 632.55784 636.25561 0.21235
10028 42.69600 632.26072 632.63623 0.21372
10029 42.69960 631.96568 633.25433 0.21345
10030 42.70320 631.71475 635.73031 0.21282
10031 42.70680 631.50102 635.09970 0.21294
10032 42.71040 631.32382 634.67019 0.21317
10033 42.71400 631.17996 632.66218 0.21399
10034 42.71760 631.06427 633.61425 0.21355
10035 42.72120 630.96976 634.31688 0.21322
10036 42.72480 630.88762 630.82215 0.21450
10037 42.72840 630.80775 629.51756 0.21504
10038 42.73200 630.72101 630.74995 0.21447
10039 42.73560 630.62209 632.68493 0.21354
10040 42.73920 630.51135 634.65940 0.21320
10041 42.74280 630.39371 632.81990 0.21399
10042 42.74640 630.27581 626.86120 0.21578
10043 42.75000 630.16327 624.92661 0.21660
10044 42.75360 630.05963 626.70620 0.21678
10045 42.75720 629.96640 626.69180 0.21600
10046 42.76080 629.88375 624.10921 0.21679
10047 42.76440 629.81106 625.35365 0.21651
10048 42.76800 629.74739 626.27240 0.21591
10049 42.77160 629.69175 626.79510 0.21562
10050 42.77520 629.64318 625.39948 0.21621
10051 42.77880 629.60087 625.14911 0.21640
10052 42.78240 629.56410 625.10576 0.21651
10053 42.78600 629.53228 624.92982 0.21662
10054 42.78960 629.51596 624.70550 0.21664
10055 42.79320 629.49276 621.92173 0.21752
10056 42.79680 629.47329 622.37261 0.21752
10057 42.80040 629.45731 621.26195 0.21774
10058 42.80400 629.44460 621.96245 0.21741
10059 42.80760 629.43499 621.33415 0.21794
10060 42.81120 629.42836 623.04127 0.21719
10061 42.81480 629.42459 624.40490 0.21651
10062 42.81840 629.42361 624.69245 0.21667
10063 42.82200 629.42537 623.94735 0.21705
10064 42.82560 629.42981 620.24203 0.21826
10065 42.82920 629.43693 621.72843 0.21766
10066 42.83280 629.44670 623.82182 0.21793
10067 42.83640 629.46309 625.48291 0.21676
10068 42.84000 629.47818 623.33631 0.21702
10069 42.84360 629.49595 621.17086 0.21786
10070 42.84720 629.51643 623.23971 0.21709
10071 42.85080 629.53964 624.99952 0.21621
10072 42.85440 629.56564 623.04189 0.21698
10073 42.85800 629.59447 623.05039 0.21721
10074 42.86160 629.62618 623.12691 0.21718
10075 42.86520 629.66083 627.14468 0.21593
10076 42.86880 629.69849 625.95648 0.21629
10077 42.87240 629.73924 623.60462 0.21700
10078 42.87600 629.78315 624.80260 0.21687
10079 42.87960 629.83031 624.14147 0.21683
10080 42.88320 629.88081 621.91735 0.21749
10081 42.88680 629.93474 623.39372 0.21724
10082 42.89040 629.99222 625.76840 0.21629
10083 42.89400 630.05336 627.01086 0.21582
10084 42.89760 630.11827 626.75468 0.21589
10085 42.90120 630.18709 628.45280 0.21555
10086 42.90480 630.25995 626.49282 0.21641
10087 42.90840 630.33699 626.45542 0.21606
10088 42.91200 630.41837 625.21351 0.21728
10089 42.91560 630.50425 629.55817 0.21552
10090 42.91920 630.59820 626.37246 0.18925
10091 42.92280 630.69366 625.70461 0.18908
10092 42.92640 630.77744 626.22893 0.18894
10093 42.93000 630.88770 624.35847 0.18926
10094 42.93360 630.99929 628.35870 0.21050
10095 42.93720 631.11657 623.87739 0.21688
10096 42.94080 631.23991 624.04347 0.21688
10097 42.94440 631.36961 624.25579 0.21711
10098 42.94800 631.50598 623.99910 0.21724
10099 42.95160 631.64939 628.91269 0.21518
10100 42.95520 631.80024 627.08520 0.21605
10101 42.95880 631.95897 629.21352 0.21515
10102 42.96240 631.93907 628.03465 0.21544
10103 42.96600 632.11559 628.28518 0.21559
10104 42.96960 632.20589 629.11151 0.21519
10105 42.97320 632.27084 626.97076 0.21601
10106 42.97680 632.47948 627.77131 0.21551
10107 42.98040 632.70022 627.92896 0.21567
10108 42.98400 632.93420 626.57194 0.21651
10109 42.98760 633.18277 626.91185 0.21600
10110 42.99120 633.44751 628.34646 0.21585
10111 42.99480 633.73221 628.15381 0.21703
10112 42.99840 634.03528 631.75049 0.19293
10113 43.00200 634.36099 632.62811 0.18697
10114 43.00560 634.71225 631.46767 0.18755
10115 43.00920 635.09209 628.05933 0.18830
10116 43.01280 635.50337 630.10270 0.20392
10117 43.01640 635.94816 631.49075 0.21410
10118 43.02000 636.42650 631.66975 0.21422
10119 43.02360 636.93442 634.68638 0.21349
10120 43.02720 637.46154 632.50798 0.21427
10121 43.03080 637.98928 632.32689 0.21410
10122 43.03440 638.49206 632.73107 0.21402
10123 43.03800 638.94386 634.26451 0.21338
10124 43.04160 639.32885 634.45987 0.21320
10125 43.04520 639.64965 635.64356 0.21311
10126 43.04880 639.92640 639.74410 0.21160
10127 43.05240 640.18740 639.23117 0.21173
10128 43.05600 640.45889 637.59840 0.21213
10129 43.05960 640.75864 636.79704 0.21256
10130 43.06320 641.09896 638.29425 0.21242
10131 43.06680 641.48434 638.20102 0.21221
10132 43.07040 641.91567 633.42977 0.21378
10133 43.07400 642.39248 634.02611 0.21473
10134 43.07760 642.91372 636.15190 0.19676
10135 43.08120 643.47838 636.39295 0.18595
10136 43.08480 644.08572 635.93403 0.18615
10137 43.08840 644.73543 635.47123 0.18627
10138 43.09200 645.42763 637.64422 0.19685
10139 43.09560 646.16288 639.38155 0.21147
10140 43.09920 646.94212 639.00013 0.21181
10141 43.10280 647.76668 639.82633 0.21178
10142 43.10640 648.63823 639.09482 0.21221
10143 43.11000 649.55874 642.21876 0.21107
10144 43.11360 650.53053 644.71391 0.21009
10145 43.11720 651.55621 645.72438 0.20972
10146 43.12080 652.63866 643.48345 0.21004
10147 43.12440 653.78110 645.87675 0.20939
10148 43.12800 654.98700 645.58112 0.20953
10149 43.13160 656.26016 649.18759 0.20807
10150 43.13520 657.60463 648.71842 0.20803
10151 43.13880 659.02475 652.81056 0.20701
10152 43.14240 660.52510 652.21003 0.20767
10153 43.14600 662.11050 651.01246 0.20803
10154 43.14960 663.78590 652.38965 0.20742
10155 43.15320 665.55635 654.13157 0.20766
10156 43.15680 667.42688 659.46922 0.19530
10157 43.16040 669.40231 662.10309 0.17864
10158 43.16400 671.48709 660.58448 0.17916
10159 43.16760 673.68495 661.78329 0.17924
10160 43.17120 675.99861 665.84596 0.18356
10161 43.17480 678.42925 669.51462 0.20189
10162 43.17840 680.97598 674.14399 0.20066
10163 43.18200 683.63510 676.60616 0.20009
10164 43.18560 686.39932 678.48818 0.19974
10165 43.18920 689.25679 689.66235 0.19652
10166 43.19280 692.19013 692.17577 0.19550
10167 43.19640 695.17704 697.07047 0.19420
10168 43.20000 698.19365 704.37483 0.19188
10169 43.20360 701.17823 702.44099 0.19228
10170 43.20720 704.09129 706.83531 0.19130
10171 43.21080 706.88725 710.18232 0.19009
10172 43.21440 709.49931 717.24644 0.18805
10173 43.21800 711.85477 722.14103 0.18683
10174 43.22160 713.88713 727.93653 0.18565
10175 43.22520 715.53014 728.97290 0.18560
10176 43.22880 716.72507 729.57516 0.18552
10177 43.23240 717.42549 730.69338 0.18564
10178 43.23600 717.60143 729.96684 0.18175
10179 43.23960 717.24227 727.57542 0.16251
10180 43.24320 716.35781 725.74706 0.16298
10181 43.24680 714.97743 721.94100 0.16420
10182 43.25040 713.14743 716.23862 0.16592
10183 43.25400 710.92693 710.03292 0.19024
10184 43.25760 708.38320 706.14555 0.19154
10185 43.26120 705.58676 704.69083 0.19203
10186 43.26480 702.60717 697.29929 0.19429
10187 43.26840 699.50958 693.26362 0.19536
10188 43.27200 696.35330 694.45676 0.19474
10189 43.27560 693.18673 687.38818 0.19694
10190 43.27920 690.05245 684.31722 0.19757
10191 43.28280 686.98371 681.70805 0.19801
10192 43.28640 684.00603 678.81591 0.19902
10193 43.29000 681.13661 672.14391 0.20075
10194 43.29360 678.38942 670.75636 0.20081
10195 43.29720 675.77459 669.54515 0.20131
10196 43.30080 673.29460 668.64410 0.20187
10197 43.30440 670.95071 667.81633 0.20252
10198 43.30800 668.74202 664.40312 0.20352
10199 43.31160 666.66600 664.44919 0.20354
10200 43.31520 664.71908 661.18465 0.20503
10201 43.31880 662.89703 656.72010 0.18377
10202 43.32240 661.19527 658.76770 0.17942
10203 43.32600 659.60920 657.48890 0.18005
10204 43.32960 658.13439 657.31918 0.18023
10205 43.33320 656.76672 655.80668 0.19756
10206 43.33680 655.50260 657.69750 0.20533
10207 43.34040 654.33910 656.45975 0.20585
10208 43.34400 653.27404 655.33966 0.20639
10209 43.34760 652.30619 654.83865 0.20653
10210 43.35120 651.43535 657.11965 0.20556
10211 43.35480 650.66255 660.73190 0.20462
10212 43.35840 649.99008 659.76757 0.20497
10213 43.36200 649.42154 656.75010 0.20548
10214 43.36560 648.95762 659.70906 0.20453
10215 43.36920 648.61230 661.85653 0.20386
10216 43.37280 648.38537 663.48702 0.20321
10217 43.37640 648.27870 663.48376 0.20319
10218 43.38000 648.28623 664.48048 0.20298
10219 43.38360 648.38813 668.02952 0.20223
10220 43.38720 648.54432 668.28626 0.20230
10221 43.39080 648.69253 673.18888 0.20074
10222 43.39440 648.75841 676.23333 0.20031
10223 43.39800 648.68099 678.08391 0.18341
10224 43.40160 648.44269 678.27847 0.17410
10225 43.40520 648.08231 679.24274 0.17396
10226 43.40880 647.68413 680.90482 0.17393
10227 43.41240 647.33295 683.57117 0.18423
10228 43.41600 647.02229 684.71677 0.19702
10229 43.41960 646.98114 687.81685 0.19624
10230 43.42320 647.17447 685.54878 0.19717
10231 43.42680 647.62787 684.68627 0.19755
10232 43.43040 648.36273 682.15727 0.19801
10233 43.43400 649.38917 681.57448 0.19834
10234 43.43760 650.69622 675.92757 0.20006
10235 43.44120 652.23357 671.53289 0.20102
10236 43.44480 653.88721 674.15792 0.20023
10237 43.44840 655.45989 668.92849 0.20160
10238 43.45200 656.67995 668.06457 0.20187
10239 43.45560 657.26347 664.11698 0.20294
10240 43.45920 657.02235 664.96578 0.20274
10241 43.46280 655.95462 666.77360 0.20237
10242 43.46640 654.24396 665.19529 0.20310
10243 43.47000 652.16598 663.98135 0.20344
10244 43.47360 649.99123 666.81576 0.20290
10245 43.47720 647.90702 667.20352 0.19273
10246 43.48080 646.01914 668.06094 0.17659
10247 43.48440 644.36950 664.66808 0.17755
10248 43.48800 642.96079 666.35610 0.17753
10249 43.49160 641.77592 664.33842 0.18341
10250 43.49520 640.79013 666.01221 0.20238
10251 43.49880 639.97766 668.27060 0.20180
10252 43.50240 639.31487 665.51335 0.20292
10253 43.50600 638.78156 667.45221 0.20266
10254 43.50960 638.36110 666.58385 0.20268
10255 43.51320 638.04040 663.64773 0.20357
10256 43.51680 637.80927 663.72414 0.20368
10257 43.52040 637.60876 659.72385 0.20457
10258 43.52400 637.53887 664.14014 0.20332
10259 43.52760 637.54632 663.15569 0.20331
10260 43.53120 637.63106 662.71390 0.20337
10261 43.53480 637.79601 663.29017 0.20305
10262 43.53840 638.04644 663.43418 0.20315
10263 43.54200 638.38993 668.60664 0.20165
10264 43.54560 638.83611 669.22498 0.20166
10265 43.54920 639.39599 669.67129 0.20173
10266 43.55280 640.08030 671.79638 0.20098
10267 43.55640 640.89613 674.79641 0.20005
10268 43.56000 641.84083 676.94719 0.19921
10269 43.56360 642.89223 677.56456 0.19908
10270 43.56720 643.99623 680.17567 0.19875
10271 43.57080 645.05254 682.98306 0.19793
10272 43.57440 645.93628 679.50597 0.19843
10273 43.57800 646.50261 679.57157 0.19839
10274 43.58160 646.65813 682.79152 0.19761
10275 43.58520 646.40189 680.72067 0.19847
10276 43.58880 645.82586 680.81043 0.19822
10277 43.59240 645.06979 673.65161 0.20051
10278 43.59600 644.26713 673.86587 0.20051
10279 43.59960 643.51387 673.26706 0.20040
10280 43.60320 642.86395 671.91576 0.20092
10281 43.60680 642.33907 669.18089 0.20149
10282 43.61040 641.94119 665.91642 0.20247
10283 43.61400 641.66215 664.75410 0.20248
10284 43.61760 641.48992 664.93373 0.20277
10285 43.62120 641.41185 664.20838 0.20301
10286 43.62480 641.41628 668.33299 0.20181
10287 43.62840 641.49316 666.57637 0.20280
10288 43.63200 641.63418 664.29112 0.20345
10289 43.63560 641.83269 664.36810 0.20341
10290 43.63920 642.08349 665.90634 0.20240
10291 43.64280 642.38269 663.43293 0.20308
10292 43.64640 642.72754 666.42570 0.20267
10293 43.65000 643.11629 666.79009 0.20279
10294 43.65360 643.54807 669.64425 0.20141
10295 43.65720 644.02289 673.37218 0.20036
10296 43.66080 644.54153 673.18879 0.20050
10297 43.66440 645.10600 672.84086 0.20076
10298 43.66800 645.71792 675.28263 0.20002
10299 43.67160 646.38086 675.39535 0.19988
10300 43.67520 647.09878 674.31927 0.20043
10301 43.67880 647.87617 676.97910 0.19946
10302 43.68240 648.71756 678.36204 0.19902
10303 43.68600 649.62659 677.08678 0.19931
10304 43.68960 650.60409 680.82713 0.19811
10305 43.69320 651.64524 682.23754 0.19733
10306 43.69680 652.73577 680.53142 0.19812
10307 43.70040 653.84896 680.40603 0.19835
10308 43.70400 654.94693 678.70749 0.19863
10309 43.70760 655.98996 682.98288 0.19800
10310 43.71120 656.95295 678.38444 0.19937
10311 43.71480 657.83954 681.87960 0.19834
10312 43.71840 658.68236 682.49845 0.19770
10313 43.72200 659.52939 682.34399 0.19746
10314 43.72560 660.42707 680.53016 0.19839
10315 43.72920 661.40994 684.04465 0.19774
10316 43.73280 662.49781 683.85181 0.19749
10317 43.73640 663.69641 682.48078 0.19783
10318 43.74000 664.99801 687.47057 0.19652
10319 43.74360 666.38127 687.41111 0.19659
10320 43.74720 667.81266 688.13968 0.19633
10321 43.75080 669.25342 689.62269 0.19573
10322 43.75440 670.67338 688.19605 0.19635
10323 43.75800 672.06536 690.25828 0.19565
10324 43.76160 673.44951 691.58040 0.19522
10325 43.76520 674.86338 694.44800 0.19465
10326 43.76880 676.34524 696.31024 0.19407
10327 43.77240 677.92104 697.16480 0.19361
10328 43.77600 679.59883 696.12302 0.19387
10329 43.77960 681.36955 700.21774 0.19296
10330 43.78320 683.21306 699.66471 0.19279
10331 43.78680 685.10885 702.76021 0.19240
10332 43.79040 687.04815 705.41621 0.19175
10333 43.79400 689.04049 707.15221 0.19132
10334 43.79760 691.11044 711.19464 0.18999
10335 43.80120 693.28816 710.98168 0.18962
10336 43.80480 695.60104 711.41211 0.18976
10337 43.80840 698.07027 714.68528 0.18915
10338 43.81200 700.71147 715.89274 0.18874
10339 43.81560 703.53671 716.32988 0.18861
10340 43.81920 706.55641 722.54038 0.18709
10341 43.82280 709.78001 725.70904 0.18626
10342 43.82640 713.21542 728.63240 0.18552
10343 43.83000 716.86623 731.72155 0.18455
10344 43.83360 720.72713 733.01059 0.18446
10345 43.83720 724.78217 734.04884 0.18418
10346 43.84080 728.99004 737.30208 0.18311
10347 43.84440 733.29061 740.82416 0.18259
10348 43.84800 737.61296 747.49212 0.18081
10349 43.85160 741.90464 751.30106 0.17982
10350 43.85520 746.15586 755.36551 0.17869
10351 43.85880 750.40697 761.88065 0.17746
10352 43.86240 754.72924 766.29705 0.17631
10353 43.86600 759.20734 766.99019 0.17626
10354 43.86960 763.88724 766.93033 0.17637
10355 43.87320 768.77828 772.92972 0.17507
10356 43.87680 773.90351 778.66752 0.17356
10357 43.88040 779.25425 786.75842 0.17147
10358 43.88400 784.81035 792.78261 0.17026
10359 43.88760 790.55372 799.69039 0.16904
10360 43.89120 796.44210 806.24392 0.16766
10361 43.89480 802.40839 810.36608 0.16671
10362 43.89840 808.41488 814.69310 0.16599
10363 43.90200 814.39760 821.31947 0.16453
10364 43.90560 820.28188 831.19605 0.16267
10365 43.90920 825.98209 837.82290 0.16130
10366 43.91280 831.40200 842.87132 0.16046
10367 43.91640 836.43637 851.27934 0.15888
10368 43.92000 840.97366 858.49122 0.15731
10369 43.92360 844.90022 863.84354 0.15658
10370 43.92720 848.10588 865.94703 0.15619
10371 43.93080 850.49044 871.63396 0.15520
10372 43.93440 851.97068 875.36670 0.15432
10373 43.93800 852.48692 871.04505 0.15523
10374 43.94160 852.00829 866.25825 0.15611
10375 43.94520 850.53580 862.33035 0.15680
10376 43.94880 848.10277 855.39286 0.15814
10377 43.95240 844.77248 854.68661 0.15836
10378 43.95600 840.62843 848.50080 0.15947
10379 43.95960 835.77987 840.15902 0.16079
10380 43.96320 830.35555 833.84583 0.16194
10381 43.96680 824.47063 826.55911 0.16357
10382 43.97040 818.25225 824.06767 0.16412
10383 43.97400 811.80150 812.74608 0.16626
10384 43.97760 805.22772 802.49712 0.16864
10385 43.98120 798.62059 796.31332 0.16976
10386 43.98480 792.05445 789.39659 0.17139
10387 43.98840 785.58650 784.29382 0.17253
10388 43.99200 779.25484 780.66287 0.17333
10389 43.99560 773.07712 774.17587 0.17483
10390 43.99920 767.05187 766.72483 0.17619
10391 44.00280 761.16550 760.94150 0.17784
10392 44.00640 755.40542 756.20568 0.17917
10393 44.01000 749.77332 751.40813 0.18019
10394 44.01360 744.29675 749.07354 0.18054
10395 44.01720 738.99230 747.49433 0.18109
10396 44.02080 733.89738 742.68184 0.18220
10397 44.02440 729.03272 738.53129 0.18310
10398 44.02800 724.40782 734.31963 0.18429
10399 44.03160 720.02306 730.73831 0.18518
10400 44.03520 715.86833 723.78660 0.18714
10401 44.03880 711.94122 721.03924 0.18768
10402 44.04240 708.23118 721.66582 0.18717
10403 44.04600 704.72930 721.43108 0.18756
10404 44.04960 701.40825 716.82774 0.18879
10405 44.05320 698.25649 713.03374 0.18955
10406 44.05680 695.25354 712.00228 0.19009
10407 44.06040 692.37782 711.65247 0.19017
10408 44.06400 689.61069 707.59859 0.19123
10409 44.06760 686.94097 704.37821 0.19224
10410 44.07120 684.37371 704.08433 0.19214
10411 44.07480 681.89835 701.64792 0.19307
10412 44.07840 679.52703 700.16748 0.19309
10413 44.08200 677.26307 698.10974 0.19369
10414 44.08560 675.10642 695.77097 0.19468
10415 44.08920 673.05434 695.82719 0.19464
10416 44.09280 671.10246 692.79506 0.19516
10417 44.09640 669.24563 689.80731 0.19622
10418 44.10000 667.47855 688.77438 0.19645
10419 44.10360 665.79551 688.20468 0.19658
10420 44.10720 664.19293 686.83202 0.19704
10421 44.11080 662.66584 688.37833 0.19651
10422 44.11440 661.21030 684.41941 0.19781
10423 44.11800 659.82279 686.59810 0.19716
10424 44.12160 658.50016 684.42995 0.19735
10425 44.12520 657.23962 684.43817 0.19757
10426 44.12880 656.03868 681.21988 0.19864
10427 44.13240 654.89506 680.77485 0.19863
10428 44.13600 653.80654 682.76071 0.19811
10429 44.13960 652.77072 680.07358 0.19907
10430 44.14320 651.78459 680.28224 0.19894
10431 44.14680 650.84400 676.69287 0.20005
10432 44.15040 649.94323 677.22845 0.19964
10433 44.15400 649.07505 680.91971 0.19878
10434 44.15760 648.23183 681.01275 0.19862
10435 44.16120 647.42240 675.86006 0.20001
10436 44.16480 646.61601 677.55072 0.19985
10437 44.16840 645.82822 678.11618 0.19979
10438 44.17200 645.06399 674.57128 0.20058
10439 44.17560 644.32782 675.02121 0.20045
10440 44.17920 643.62279 671.49677 0.20161
10441 44.18280 642.95028 670.18731 0.20189
10442 44.18640 642.31032 670.88992 0.20181
10443 44.19000 641.69646 670.30811 0.20172
10444 44.19360 641.11854 671.53786 0.20146
10445 44.19720 640.57101 668.80929 0.20240
10446 44.20080 640.05604 667.92868 0.20220
10447 44.20440 639.56217 669.91563 0.20162
10448 44.20800 639.09379 668.33345 0.20229
10449 44.21160 638.64986 666.66277 0.20289
10450 44.21520 638.22948 663.83897 0.20363
10451 44.21880 637.83181 666.38016 0.20304
10452 44.22240 637.45613 667.14925 0.20284
10453 44.22600 637.10177 664.43519 0.20363
10454 44.22960 636.76815 660.89773 0.20442
10455 44.23320 636.45473 660.02828 0.20482
10456 44.23680 636.16106 661.24001 0.20465
10457 44.24040 635.88671 659.31081 0.20494
10458 44.24400 635.63130 660.66950 0.20461
10459 44.24760 635.39447 659.18834 0.20530
10460 44.25120 635.15414 654.53102 0.20656
10461 44.25480 634.95389 658.49293 0.20522
10462 44.25840 634.77146 657.12487 0.20589
10463 44.26200 634.60666 655.35077 0.20643
10464 44.26560 634.45933 654.82819 0.20674
10465 44.26920 634.32934 652.64511 0.20700
10466 44.27280 634.21658 653.96911 0.20648
10467 44.27640 634.12098 660.00063 0.20482
10468 44.28000 634.04250 659.82257 0.20465
10469 44.28360 633.98113 655.27119 0.20593
10470 44.28720 633.93686 655.49550 0.20588
10471 44.29080 633.90975 656.08757 0.20592
10472 44.29440 633.89986 651.91131 0.20713
10473 44.29800 633.90728 651.80332 0.20726
10474 44.30160 633.93213 653.43130 0.20691
10475 44.30520 633.97457 652.44708 0.20714
10476 44.30880 634.03478 652.94671 0.20691
10477 44.31240 634.11296 653.54558 0.20673
10478 44.31600 634.21363 655.01694 0.20647
10479 44.31960 634.32876 660.01473 0.20465
10480 44.32320 634.46248 656.38359 0.20570
10481 44.32680 634.61533 654.21778 0.20670
10482 44.33040 634.78768 658.57007 0.20516
10483 44.33400 634.97993 659.88301 0.20451
10484 44.33760 635.19252 656.49402 0.20589
10485 44.34120 635.42594 656.89489 0.20574
10486 44.34480 635.68071 660.14585 0.20500
10487 44.34840 635.95740 660.99794 0.20436
10488 44.35200 636.25660 658.09981 0.20505
10489 44.35560 636.58083 658.27974 0.20517
10490 44.35920 636.93876 658.73333 0.20484
10491 44.36280 637.30967 659.21993 0.20448
10492 44.36640 637.70603 660.50887 0.20422
10493 44.37000 638.12872 658.91251 0.20491
10494 44.37360 638.56771 660.53659 0.20418
10495 44.37720 639.04600 660.00145 0.20433
10496 44.38080 639.55362 657.23967 0.20545
10497 44.38440 640.09173 661.03238 0.20421
10498 44.38800 640.66155 659.97610 0.20455
10499 44.39160 641.26717 660.03190 0.20445
10500 44.39520 641.90455 658.75474 0.20499
10501 44.39880 642.57794 658.68276 0.20492
10502 44.40240 643.28901 660.87846 0.20414
10503 44.40600 644.03955 662.72162 0.20390
10504 44.40960 644.83150 659.74418 0.20471
10505 44.41320 645.66696 663.82529 0.20318
10506 44.41680 646.54821 662.19129 0.20406
10507 44.42040 647.47773 661.08761 0.20428
10508 44.42400 648.45816 663.70801 0.20369
10509 44.42760 649.49238 664.22937 0.20319
10510 44.43120 650.58338 665.50203 0.20267
10511 44.43480 651.73423 666.21246 0.20259
10512 44.43840 652.94783 667.81076 0.20189
10513 44.44200 654.22665 669.07785 0.20152
10514 44.44560 655.57227 669.04220 0.20152
10515 44.44920 656.98497 671.07198 0.20115
10516 44.45280 658.46385 668.84797 0.20170
10517 44.45640 660.00768 669.49028 0.20147
10518 44.46000 661.61692 673.21154 0.20044
10519 44.46360 663.29550 672.57828 0.20074
10520 44.46720 665.05122 675.93367 0.19968
10521 44.47080 666.89440 675.01340 0.19987
10522 44.47440 668.83586 675.52883 0.19987
10523 44.47800 670.88558 678.67764 0.19898
10524 44.48160 673.05239 678.92750 0.19883
10525 44.48520 675.34434 680.25457 0.19867
10526 44.48880 677.76916 678.13649 0.19923
10527 44.49240 680.33468 681.90048 0.19786
10528 44.49600 683.04912 684.73040 0.19731
10529 44.49960 685.92128 686.59912 0.19672
10530 44.50320 688.95725 687.40119 0.19662
10531 44.50680 692.17396 684.72405 0.19725
10532 44.51040 695.57896 687.94279 0.19600
10533 44.51400 699.18401 694.95145 0.19395
10534 44.51760 703.00163 693.54761 0.19438
10535 44.52120 707.04516 692.96230 0.19442
10536 44.52480 711.32872 694.59086 0.19402
10537 44.52840 715.86719 697.53572 0.19334
10538 44.53200 720.67611 694.72213 0.19410
10539 44.53560 725.77372 696.88510 0.19355
10540 44.53920 731.17244 701.11616 0.19234
10541 44.54280 736.89115 703.09232 0.19208
10542 44.54640 742.94611 706.09699 0.19103
10543 44.55000 749.35213 710.73374 0.18980
10544 44.55360 756.12906 712.85590 0.18929
10545 44.55720 763.24616 708.41474 0.19058
10546 44.56080 770.77967 713.47295 0.18902
10547 44.56440 778.73255 719.98730 0.18754
10548 44.56800 787.08850 723.06408 0.18679
10549 44.57160 795.84323 724.03869 0.18635
10550 44.57520 804.98371 727.66259 0.18554
10551 44.57880 814.48586 729.13710 0.18527
10552 44.58240 824.30994 731.89543 0.18456
10553 44.58600 834.40572 734.20672 0.18401
10554 44.58960 844.69767 739.70511 0.18241
10555 44.59320 855.09041 744.76533 0.18100
10556 44.59680 865.46471 746.68936 0.18054
10557 44.60040 875.67658 749.96396 0.17961
10558 44.60400 885.55997 751.03910 0.17942
10559 44.60760 894.92163 755.70426 0.17853
10560 44.61120 903.55843 759.15072 0.17769
10561 44.61480 911.25751 762.67819 0.17684
10562 44.61840 917.80887 765.21991 0.17629
10563 44.62200 923.01766 766.85347 0.17621
10564 44.62560 926.71710 761.80659 0.17712
10565 44.62920 928.78087 767.85764 0.17577
10566 44.63280 929.13353 768.75713 0.17550
10567 44.63640 927.75841 766.51399 0.17619
10568 44.64000 924.70119 765.37480 0.17636
10569 44.64360 920.06599 766.31821 0.17614
10570 44.64720 914.00753 764.46027 0.17656
10571 44.65080 906.72465 756.50333 0.17834
10572 44.65440 898.42462 755.02583 0.17869
10573 44.65800 889.32429 756.26271 0.17858
10574 44.66160 879.63422 749.11852 0.18023
10575 44.66520 869.55015 745.31109 0.18132
10576 44.66880 859.24737 740.13013 0.18231
10577 44.67240 848.87752 738.96957 0.18242
10578 44.67600 838.56762 739.05955 0.18236
10579 44.67960 828.42069 730.55381 0.18433
10580 44.68320 818.51750 723.60338 0.18615
10581 44.68680 808.91903 723.32085 0.18638
10582 44.69040 799.66932 719.39971 0.18760
10583 44.69400 790.79823 718.73728 0.18774
10584 44.69760 782.32415 713.19134 0.18922
10585 44.70120 774.25647 708.39464 0.19077
10586 44.70480 766.59822 706.04122 0.19122
10587 44.70840 759.34590 710.01752 0.19006
10588 44.71200 752.49405 707.60190 0.19070
10589 44.71560 746.03452 701.28661 0.19257
10590 44.71920 739.95808 698.87500 0.19323
10591 44.72280 734.25523 699.29347 0.19294
10592 44.72640 728.91689 699.08313 0.19315
10593 44.73000 723.93477 697.04691 0.19363
10594 44.73360 719.30145 694.55907 0.19426
10595 44.73720 715.00979 697.27604 0.19373
10596 44.74080 711.05144 691.56220 0.19540
10597 44.74440 707.41373 693.86471 0.19493
10598 44.74800 704.07457 696.05796 0.19410
10599 44.75160 700.99569 693.67139 0.19451
10600 44.75520 698.11676 687.87063 0.19608
10601 44.75880 695.35669 691.15801 0.19487
10602 44.76240 692.62931 689.22658 0.19540
10603 44.76600 689.87302 689.26468 0.19562
10604 44.76960 687.07843 691.47565 0.19521
10605 44.77320 684.29235 688.28990 0.19607
10606 44.77680 681.59443 688.90873 0.19605
10607 44.78040 679.06518 684.50330 0.19739
10608 44.78400 676.76422 688.38484 0.19629
10609 44.78760 674.72240 688.70360 0.19610
10610 44.79120 672.94083 694.40870 0.19447
10611 44.79480 671.39013 690.61109 0.19567
10612 44.79840 670.00915 693.70977 0.19486
10613 44.80200 668.70685 693.89357 0.19444
10614 44.80560 667.39087 693.04246 0.19491
10615 44.80920 665.98667 694.14237 0.19451
10616 44.81280 664.48038 693.89036 0.19443
10617 44.81640 662.92212 697.26751 0.19375
10618 44.82000 661.40334 695.35390 0.19430
10619 44.82360 659.99420 692.11616 0.19532
10620 44.82720 658.74495 694.06500 0.19475
10621 44.83080 657.65119 689.11393 0.19583
10622 44.83440 656.66355 683.33204 0.19753
10623 44.83800 655.70784 678.30015 0.19868
10624 44.84160 654.71815 675.95333 0.19932
10625 44.84520 653.66759 672.28456 0.20068
10626 44.84880 652.57398 670.99327 0.20123
10627 44.85240 651.47349 668.28039 0.20200
10628 44.85600 650.38180 662.03583 0.20412
10629 44.85960 649.26945 659.49578 0.20499
10630 44.86320 648.07303 661.20916 0.20448
10631 44.86680 646.72556 654.64472 0.20636
10632 44.87040 645.20230 655.38615 0.20630
10633 44.87400 643.53781 657.70513 0.20542
10634 44.87760 641.80836 656.55430 0.20590
10635 44.88120 640.09721 651.62954 0.20716
10636 44.88480 638.46843 649.39981 0.20818
10637 44.88840 636.95868 646.78355 0.20882
10638 44.89200 635.58144 646.39337 0.20897
10639 44.89560 634.33522 647.35169 0.20869
10640 44.89920 633.21064 645.91758 0.20913
10641 44.90280 632.19529 645.72148 0.20926
10642 44.90640 631.27633 640.47263 0.21114
10643 44.91000 630.44188 640.43163 0.21087
10644 44.91360 629.68144 642.33443 0.21020
10645 44.91720 628.98601 639.32187 0.21099
10646 44.92080 628.34800 639.37824 0.21097
10647 44.92440 627.76106 637.93384 0.21163
10648 44.92800 627.21988 635.57221 0.21268
10649 44.93160 626.72002 632.97101 0.21357
10650 44.93520 626.25779 634.32253 0.21322
10651 44.93880 625.83008 635.92329 0.21270
10652 44.94240 625.43426 631.67399 0.21408
10653 44.94600 625.06814 633.05675 0.21354
10654 44.94960 624.72983 633.79920 0.21340
10655 44.95320 624.41767 629.95884 0.21447
10656 44.95680 624.13005 630.59505 0.21434
10657 44.96040 623.86651 630.15143 0.21436
10658 44.96400 623.62564 631.43014 0.21392
10659 44.96760 623.40659 627.92650 0.21501
10660 44.97120 623.20862 630.41781 0.21445
10661 44.97480 623.03110 624.56901 0.21638
10662 44.97840 622.87349 628.19191 0.21506
10663 44.98200 622.73536 628.05705 0.21508
10664 44.98560 622.61633 626.99067 0.21574
10665 44.98920 622.51611 624.72330 0.21631
10666 44.99280 622.43446 627.32251 0.21526
10667 44.99640 622.37123 628.57673 0.21479
10668 45.00000 622.32631 628.20934 0.21482
10669 45.00360 622.29965 626.95110 0.21539
10670 45.00720 622.29129 625.49837 0.21608
10671 45.01080 622.30131 624.26303 0.21660
10672 45.01440 622.32985 624.53650 0.21667
10673 45.01800 622.37713 623.38537 0.21709
10674 45.02160 622.44344 624.46206 0.21657
10675 45.02520 622.52916 626.39858 0.21585
10676 45.02880 622.63476 626.69169 0.21584
10677 45.03240 622.76081 624.10561 0.21665
10678 45.03600 622.90801 622.81462 0.21716
10679 45.03960 623.07720 627.87883 0.21531
10680 45.04320 623.26981 625.78405 0.21587
10681 45.04680 623.48920 628.33957 0.21501
10682 45.05040 623.73136 623.96247 0.21678
10683 45.05400 624.00099 623.84756 0.21677
10684 45.05760 624.30022 628.01902 0.21523
10685 45.06120 624.63162 630.72326 0.21454
10686 45.06480 624.99828 630.44916 0.21461
10687 45.06840 625.40389 627.96620 0.21540
10688 45.07200 625.85279 632.71788 0.21356
10689 45.07560 626.35000 630.91495 0.21424
10690 45.07920 626.90113 632.43203 0.21349
10691 45.08280 627.51197 634.55832 0.21275
10692 45.08640 628.18763 632.86481 0.21350
10693 45.09000 628.93087 631.42909 0.21414
10694 45.09360 629.73907 635.06061 0.21308
10695 45.09720 630.59989 635.63170 0.21284
10696 45.10080 631.48635 632.79970 0.21369
10697 45.10440 632.35453 632.86289 0.21359
10698 45.10800 633.14900 633.33087 0.21335
10699 45.11160 633.81933 632.82949 0.21376
10700 45.11520 634.34212 631.63819 0.21409
10701 45.11880 634.73344 630.90220 0.21428
10702 45.12240 635.04117 631.02531 0.21393
10703 45.12600 635.32394 631.43982 0.21398
10704 45.12960 635.63218 632.25513 0.21384
10705 45.13320 635.99999 629.55017 0.21466
10706 45.13680 636.44598 632.11625 0.21383
10707 45.14040 636.98924 633.01446 0.21373
10708 45.14400 637.60923 635.23789 0.21307
10709 45.14760 638.39710 632.50778 0.21402
10710 45.15120 639.19876 634.22579 0.21330
10711 45.15480 640.08889 633.33958 0.21365
10712 45.15840 641.05211 631.07573 0.21419
10713 45.16200 642.09714 633.18858 0.21328
10714 45.16560 643.22465 635.68774 0.21266
10715 45.16920 644.43086 635.24009 0.21292
10716 45.17280 645.70658 635.55866 0.21289
10717 45.17640 647.03411 635.77460 0.21274
10718 45.18000 648.38560 636.38657 0.21249
10719 45.18360 649.72609 636.79380 0.21230
10720 45.18720 651.02334 636.17030 0.21247
10721 45.19080 652.26128 636.70354 0.21265
10722 45.19440 653.44800 640.50741 0.21117
10723 45.19800 654.61140 640.89703 0.21095
10724 45.20160 655.78630 641.42738 0.21072
10725 45.20520 657.00261 643.93339 0.20990
10726 45.20880 658.27997 640.80876 0.21083
10727 45.21240 659.62812 643.07599 0.21024
10728 45.21600 661.04968 646.39316 0.20913
10729 45.21960 662.55101 646.72081 0.20780
10730 45.22320 664.11208 647.69667 0.18342
10731 45.22680 665.73583 646.82317 0.20884
10732 45.23040 667.41676 649.30412 0.20829
10733 45.23400 669.14909 649.54523 0.20819
10734 45.23760 670.85441 649.22874 0.20815
10735 45.24120 672.66746 649.85667 0.20775
10736 45.24480 674.51748 654.15297 0.20661
10737 45.24840 676.39319 655.76239 0.20615
10738 45.25200 678.28702 656.06932 0.20614
10739 45.25560 680.19034 657.23977 0.20581
10740 45.25920 682.09502 660.13001 0.20479
10741 45.26280 683.99096 658.23584 0.20533
10742 45.26640 685.86765 659.46143 0.20480
10743 45.27000 687.71385 660.66385 0.20474
10744 45.27360 689.51760 660.24246 0.20481
10745 45.27720 691.26636 664.02416 0.20353
10746 45.28080 692.94711 665.76326 0.20298
10747 45.28440 694.54661 665.40460 0.20295
10748 45.28800 696.05160 665.50613 0.20297
10749 45.29160 697.44911 670.12125 0.20171
10750 45.29520 698.72671 673.23092 0.20073
10751 45.29880 699.87283 672.52811 0.20107
10752 45.30240 700.87688 676.71325 0.17923
10753 45.30600 701.72921 672.37553 0.19585
10754 45.30960 702.42065 673.93046 0.20079
10755 45.31320 702.94139 674.72654 0.20040
10756 45.31680 703.27926 676.97946 0.19963
10757 45.32040 703.41765 676.74744 0.19952
10758 45.32400 703.33452 678.63366 0.19920
10759 45.32760 703.00503 675.56082 0.20007
10760 45.33120 702.40919 673.42976 0.20065
10761 45.33480 701.54203 673.38364 0.20073
10762 45.33840 700.41925 670.61544 0.20139
10763 45.34200 699.07347 668.77146 0.20195
10764 45.34560 697.54415 667.93345 0.20209
10765 45.34920 695.86841 664.68771 0.20350
10766 45.35280 694.07684 662.58035 0.20414
10767 45.35640 692.19363 663.17131 0.20384
10768 45.36000 690.23835 658.03883 0.20539
10769 45.36360 688.22785 657.25947 0.20540
10770 45.36720 686.17754 657.44948 0.20539
10771 45.37080 684.10178 656.03578 0.20597
10772 45.37440 681.96052 656.61849 0.20574
10773 45.37800 679.87360 653.13675 0.20693
10774 45.38160 677.79633 652.62959 0.19041
10775 45.38520 675.73713 649.26317 0.19823
10776 45.38880 673.68626 647.62729 0.20893
10777 45.39240 671.63676 646.45847 0.20919
10778 45.39600 669.57104 644.44505 0.20972
10779 45.39960 667.47091 643.31485 0.21013
10780 45.40320 665.32734 640.99542 0.21095
10781 45.40680 663.14760 639.43386 0.21143
10782 45.41040 660.95377 642.47845 0.21035
10783 45.41400 658.77420 639.05700 0.21154
10784 45.41760 656.67369 638.84763 0.21151
10785 45.42120 654.59180 633.49137 0.21300
10786 45.42480 652.57759 635.27204 0.21240
10787 45.42840 650.63527 635.69754 0.21255
10788 45.43200 648.76536 634.27526 0.21326
10789 45.43560 646.96601 632.62837 0.21373
10790 45.43920 645.23595 632.42142 0.21364
10791 45.44280 643.58293 631.57302 0.21373
10792 45.44640 641.98272 627.67160 0.21510
10793 45.45000 640.44368 627.90802 0.21508
10794 45.45360 638.96355 629.34678 0.21476
10795 45.45720 637.54033 629.13329 0.21479
10796 45.46080 636.17222 626.52507 0.20378
10797 45.46440 634.85763 624.02824 0.20100
10798 45.46800 633.59514 623.43110 0.21710
10799 45.47160 632.38344 625.16293 0.21638
10800 45.47520 631.22128 624.57650 0.21635
10801 45.47880 630.10722 624.09824 0.21655
10802 45.48240 629.03934 620.58100 0.21796
10803 45.48600 628.01475 620.59295 0.21785
10804 45.48960 627.02907 621.36947 0.21758
10805 45.49320 626.07608 620.68190 0.21787
10806 45.49680 625.14819 623.00356 0.21706
10807 45.50040 624.23816 621.01626 0.21750
10808 45.50400 623.34152 619.65470 0.21821
10809 45.50760 622.45816 619.55547 0.21860
10810 45.51120 621.59175 618.32361 0.21966
10811 45.51480 620.74746 619.30007 0.22008
10812 45.51840 619.92979 613.69437 0.22331
10813 45.52200 619.14151 612.86588 0.22557
10814 45.52560 618.38361 613.64801 0.20664
10815 45.52920 617.65586 613.25054 0.19258
10816 45.53280 616.95726 610.94414 0.19349
10817 45.53640 616.28651 611.65271 0.19337
10818 45.54000 615.64218 613.21695 0.18641
10819 45.54360 615.02288 609.23401 0.17222
10820 45.54720 614.42731 612.22368 0.19332
10821 45.55080 613.85425 609.18116 0.19433
10822 45.55440 613.30260 609.73151 0.19397
10823 45.55800 612.77835 609.99342 0.19386
10824 45.56160 612.26071 603.60401 0.19608
10825 45.56520 611.76739 607.58290 0.19478
10826 45.56880 611.29232 609.16869 0.19412
10827 45.57240 610.83443 607.88882 0.19448
10828 45.57600 610.39306 606.24170 0.19509
10829 45.57960 609.96761 604.55370 0.19548
10830 45.58320 609.55751 607.62880 0.19467
10831 45.58680 609.16223 609.53475 0.19426
10832 45.59040 608.78128 609.48970 0.19491
10833 45.59400 608.41419 605.65860 0.19695
10834 45.59760 608.06052 605.21517 0.19809
10835 45.60120 607.71988 603.52787 0.20061
10836 45.60480 607.38496 602.36225 0.19020
10837 45.60840 607.06885 608.47509 0.16630
10838 45.61200 606.76510 607.00848 0.16685
10839 45.61560 606.47294 599.88284 0.16903
10840 45.61920 606.19210 602.88686 0.16825
10841 45.62280 605.92227 602.97490 0.14348
10842 45.62640 605.66319 602.66527 0.16424
10843 45.63000 605.41462 602.06301 0.16850
10844 45.63360 605.17631 599.17951 0.16925
10845 45.63720 604.94237 601.64087 0.16845
10846 45.64080 604.72332 605.66174 0.16744
10847 45.64440 604.51462 605.98342 0.16736
10848 45.64800 604.31540 604.90180 0.16755
10849 45.65160 604.12549 599.39887 0.16900
10850 45.65520 603.94473 599.72230 0.16901
10851 45.65880 603.77300 600.91592 0.16864
10852 45.66240 603.60525 602.42670 0.16821
10853 45.66600 603.44872 600.31392 0.16907
10854 45.66960 603.30341 597.83759 0.17035
10855 45.67320 603.16668 599.79972 0.17047
10856 45.67680 603.03847 597.70386 0.17200
10857 45.68040 602.91869 601.05347 0.17292
10858 45.68400 602.80729 600.51622 0.16867
10859 45.68760 602.70423 602.65104 0.13979
10860 45.69120 602.60946 602.79010 0.13983
10861 45.69480 602.52298 602.64789 0.14002
10862 45.69840 602.42291 597.86803 0.14126
10863 45.70200 602.35177 598.58646 0.12214
10864 45.70560 602.29015 602.39602 0.13017
10865 45.70920 602.25486 601.24770 0.14053
10866 45.71280 602.20857 599.78176 0.14082
10867 45.71640 602.17126 601.67867 0.14012
10868 45.72000 602.14317 601.65269 0.15359
10869 45.72360 602.12749 601.36332 0.17404
10870 45.72720 602.11650 600.44116 0.17181
10871 45.73080 602.11447 600.95336 0.17015
10872 45.73440 602.12139 601.17380 0.16920
10873 45.73800 602.13742 599.26318 0.16943
10874 45.74160 602.16275 598.37610 0.16916
10875 45.74520 602.19763 598.00544 0.16949
10876 45.74880 602.24230 597.86198 0.16998
10877 45.75240 602.29708 596.89477 0.17058
10878 45.75600 602.36230 596.21047 0.17162
10879 45.75960 602.43837 594.28476 0.17394
10880 45.76320 602.52576 598.31245 0.17480
10881 45.76680 602.62502 597.21081 0.14163
10882 45.77040 602.73678 596.12666 0.14098
10883 45.77400 602.86181 596.04808 0.14109
10884 45.77760 603.00101 599.56644 0.14040
10885 45.78120 603.15543 605.36578 0.12705
10886 45.78480 603.32637 598.44162 0.12354
10887 45.78840 603.51534 602.72245 0.13958
10888 45.79200 603.72421 603.98988 0.13918
10889 45.79560 603.95517 601.28411 0.13974
10890 45.79920 604.21086 599.96566 0.14576
10891 45.80280 604.49440 600.93911 0.17438
10892 45.80640 604.80940 601.86191 0.17123
10893 45.81000 605.15989 604.14773 0.16898
10894 45.81360 605.55076 606.08436 0.16761
10895 45.81720 605.98912 603.88766 0.16774
10896 45.82080 606.46853 607.34999 0.16633
10897 45.82440 606.99212 605.95298 0.16675
10898 45.82800 607.55155 604.69570 0.16747
10899 45.83160 608.12802 609.93695 0.16635
10900 45.83520 608.69520 611.88439 0.16683
10901 45.83880 609.20216 615.18280 0.16721
10902 45.84240 609.61493 614.08956 0.16964
10903 45.84600 609.91259 610.23893 0.14509
10904 45.84960 610.10295 609.11132 0.13750
10905 45.85320 610.21884 611.66344 0.13698
10906 45.85680 610.30319 615.15580 0.13637
10907 45.86040 610.39425 615.38572 0.13652
10908 45.86400 610.51840 613.56915 0.13694
10909 45.86760 610.69011 611.73265 0.13700
10910 45.87120 610.91512 611.82132 0.13691
10911 45.87480 611.19406 610.08414 0.13739
10912 45.87840 611.52502 610.10221 0.13763
10913 45.88200 611.90520 611.72596 0.17033
10914 45.88560 612.34223 604.69053 0.17032
10915 45.88920 612.81270 606.68112 0.16808
10916 45.89280 613.32511 606.75756 0.16709
10917 45.89640 613.87801 607.10055 0.16642
10918 45.90000 614.47042 603.14963 0.16713
10919 45.90360 615.10180 604.20371 0.16680
10920 45.90720 615.77194 609.56697 0.16565
10921 45.91080 616.47648 610.19174 0.16578
10922 45.91440 617.22458 611.62439 0.16614
10923 45.91800 618.01216 609.02964 0.16792
10924 45.92160 618.83965 608.01348 0.17004
10925 45.92520 619.70746 609.63154 0.15656
10926 45.92880 620.61589 605.08066 0.13821
10927 45.93240 621.56502 608.17915 0.13754
10928 45.93600 622.55462 607.39288 0.13777
10929 45.93960 623.58402 610.58078 0.13726
10930 45.94320 624.65198 613.09905 0.13682
10931 45.94680 625.75651 613.52164 0.13637
10932 45.95040 626.89476 614.38509 0.13588
10933 45.95400 628.06278 615.18313 0.13583
10934 45.95760 629.25546 611.65988 0.13668
10935 45.96120 630.46720 616.34023 0.16222
10936 45.96480 631.68878 611.86085 0.16845
10937 45.96840 632.91201 614.22627 0.16594
10938 45.97200 634.03332 620.09685 0.16335
10939 45.97560 635.21897 621.73901 0.16222
10940 45.97920 636.37912 624.62241 0.16121
10941 45.98280 637.49505 625.52147 0.16080
10942 45.98640 638.55286 624.92235 0.16123
10943 45.99000 639.54751 626.23399 0.16115
10944 45.99360 640.46534 629.81543 0.16063
10945 45.99720 641.29233 631.49611 0.16132
10946 46.00080 642.00594 636.61834 0.16171
10947 46.00440 642.56744 635.66414 0.15707
10948 46.00800 642.91475 634.91286 0.13160
10949 46.01160 642.96336 636.51998 0.13116
10950 46.01520 642.62420 634.65566 0.13160
10951 46.01880 641.83925 634.41198 0.13175
10952 46.02240 640.61361 631.89718 0.13226
10953 46.02600 639.02381 633.45909 0.13170
10954 46.02960 637.18784 628.41668 0.13256
10955 46.03320 635.22572 626.20527 0.13309
10956 46.03680 633.23262 626.47802 0.13300
10957 46.04040 631.27168 626.99504 0.15188
10958 46.04400 629.37908 625.01984 0.16518
10959 46.04760 627.57262 627.87517 0.16236
10960 46.05120 625.85917 622.96685 0.16245
10961 46.05480 624.20647 621.09005 0.16216
10962 46.05840 622.65461 618.53966 0.16243
10963 46.06200 621.22195 616.57005 0.16294
10964 46.06560 619.87057 615.69355 0.16319
10965 46.06920 618.59666 616.20783 0.16346
10966 46.07280 617.39949 613.58324 0.16422
10967 46.07640 616.27543 615.61763 0.16479
10968 46.08000 615.22110 612.40407 0.16730
10969 46.08360 614.23341 610.01302 0.17036
10970 46.08720 613.30959 607.36880 0.13859
10971 46.09080 612.44716 611.19430 0.13625
10972 46.09440 611.64401 611.09690 0.13628
10973 46.09800 610.89833 609.38865 0.13680
10974 46.10160 610.20870 611.88513 0.13617
10975 46.10520 609.57408 609.24316 0.13667
10976 46.10880 608.99400 608.80929 0.13640
10977 46.11240 608.46805 605.93734 0.13719
10978 46.11600 607.99672 605.08473 0.13741
10979 46.11960 607.58099 607.41155 0.14476
10980 46.12320 607.22250 613.69189 0.16865
10981 46.12680 606.92516 613.27099 0.16631
10982 46.13040 606.68833 613.95133 0.16467
10983 46.13400 606.51993 616.95317 0.16294
10984 46.13760 606.42466 613.06721 0.16341
10985 46.14120 606.40973 617.69576 0.16205
10986 46.14480 606.48415 622.90526 0.16037
10987 46.14840 606.65894 628.07620 0.15929
10988 46.15200 606.94737 628.67756 0.15886
10989 46.15560 607.36499 635.76493 0.15718
10990 46.15920 607.92930 642.13305 0.15567
10991 46.16280 608.65879 640.11475 0.15619
10992 46.16640 609.57087 643.86078 0.15538
10993 46.17000 610.67888 652.32247 0.15320
10994 46.17360 611.98884 656.38728 0.15227
10995 46.17720 613.49875 660.99946 0.15123
10996 46.18080 615.20443 663.45579 0.15070
10997 46.18440 617.11319 666.90337 0.14988
10998 46.18800 619.25770 666.99162 0.14951
10999 46.19160 621.69515 671.43172 0.14855
11000 46.19520 624.48118 670.27931 0.14876
11001 46.19880 627.62213 670.67481 0.14935
11002 46.20240 631.02105 665.25149 0.18106
11003 46.20600 634.43447 665.37555 0.17870
11004 46.20960 637.46122 660.64385 0.17836
11005 46.21320 639.62249 658.48692 0.17815
11006 46.21680 640.52538 658.30458 0.17757
11007 46.22040 640.04101 653.64054 0.17874
11008 46.22400 638.36197 650.62923 0.17922
11009 46.22760 635.88485 655.63163 0.17807
11010 46.23120 633.01144 655.84577 0.17785
11011 46.23480 630.00652 655.60060 0.17787
11012 46.23840 626.97355 655.78510 0.17783
11013 46.24200 623.92137 657.12433 0.17752
11014 46.24560 620.85422 655.64228 0.17798
11015 46.24920 617.82175 652.58842 0.17872
11016 46.25280 614.91091 649.87264 0.17936
11017 46.25640 612.20856 645.90931 0.18041
11018 46.26000 609.77273 641.71708 0.18170
11019 46.26360 607.62561 639.97123 0.18222
11020 46.26720 605.76124 636.09664 0.18292
11021 46.27080 604.15714 626.86311 0.18547
11022 46.27440 602.78388 623.32638 0.18662
11023 46.27800 601.61112 621.71732 0.18738
11024 46.28160 600.61081 616.25341 0.21482
11025 46.28520 599.75855 612.43841 0.22219
11026 46.28880 599.03384 608.19505 0.22169
11027 46.29240 598.41999 606.24796 0.22118
11028 46.29600 597.90369 600.67318 0.22243
11029 46.29960 597.47439 600.61486 0.22236
11030 46.30320 597.12500 600.34742 0.22220
11031 46.30680 596.85042 601.29760 0.22191
11032 46.31040 596.64755 601.11026 0.22189
11033 46.31400 596.51558 600.48589 0.22194
11034 46.31760 596.45561 595.43369 0.22390
11035 46.32120 596.47053 595.53487 0.22392
11036 46.32480 596.56470 600.55093 0.22201
11037 46.32840 596.74322 599.70798 0.22237
11038 46.33200 597.01050 599.52705 0.22231
11039 46.33560 597.36751 598.06145 0.22281
11040 46.33920 597.80717 598.22238 0.22296
11041 46.34280 598.30756 601.65989 0.22177
11042 46.34640 598.83680 601.72331 0.22148
11043 46.35000 599.30064 601.31673 0.22119
11044 46.35360 599.62274 600.88714 0.22125
11045 46.35720 599.72346 601.05025 0.22152
11046 46.36080 599.56375 600.41213 0.22195
11047 46.36440 599.16481 600.87975 0.22163
11048 46.36800 598.59694 603.08952 0.22095
11049 46.37160 597.94745 606.60773 0.21970
11050 46.37520 597.29147 605.66596 0.21980
11051 46.37880 596.67894 604.48166 0.22035
11052 46.38240 596.13563 603.80574 0.22072
11053 46.38600 595.67008 605.72114 0.22010
11054 46.38960 595.28079 603.73400 0.22097
11055 46.39320 594.96141 603.40135 0.22082
11056 46.39680 594.70389 600.42014 0.22208
11057 46.40040 594.50015 603.60852 0.22098
11058 46.40400 594.34282 603.02251 0.22135
11059 46.40760 594.22551 598.98518 0.22301
11060 46.41120 594.14287 598.81890 0.22285
11061 46.41480 594.09046 597.97489 0.22316
11062 46.41840 594.06467 597.68964 0.22330
11063 46.42200 594.06258 595.10008 0.22436
11064 46.42560 594.08187 592.29384 0.22530
11065 46.42920 594.12068 596.98950 0.22294
11066 46.43280 594.17758 597.27589 0.22271
11067 46.43640 594.25148 592.05461 0.22496
11068 46.44000 594.34159 596.85858 0.22340
11069 46.44360 594.44737 595.05075 0.22393
11070 46.44720 594.56854 594.59353 0.22418
11071 46.45080 594.70504 594.98652 0.22403
11072 46.45440 594.85703 592.41224 0.22489
11073 46.45800 595.02493 592.82328 0.22469
11074 46.46160 595.20941 592.62221 0.22504
11075 46.46520 595.41141 591.78956 0.22537
11076 46.46880 595.63224 596.37226 0.22382
11077 46.47240 595.87356 595.03646 0.22395
11078 46.47600 596.13751 594.65268 0.22424
11079 46.47960 596.42670 594.12498 0.22466
11080 46.48320 596.74431 590.87714 0.22598
11081 46.48680 597.09410 593.71022 0.22507
11082 46.49040 597.48026 592.74592 0.22521
11083 46.49400 597.90716 592.90219 0.22512
11084 46.49760 598.37856 593.30136 0.22492
11085 46.50120 598.89622 591.15446 0.22572
11086 46.50480 599.45741 589.99976 0.22631
11087 46.50840 600.05124 591.20053 0.22546
11088 46.51200 600.65454 596.23166 0.22326
11089 46.51560 601.22984 594.27796 0.22413
11090 46.51920 601.72956 593.83744 0.22467
11091 46.52280 602.10963 594.77879 0.22411
11092 46.52640 602.34795 595.36681 0.22393
11093 46.53000 602.45547 594.97568 0.22417
11094 46.53360 602.47070 593.00052 0.22492
11095 46.53720 602.44223 594.98189 0.22389
11096 46.54080 602.41245 594.61660 0.22432
11097 46.54440 602.41008 594.35145 0.22448
11098 46.54800 602.45053 594.07578 0.22476
11099 46.55160 602.53973 594.59455 0.22439
11100 46.55520 602.67816 597.72940 0.22313
11101 46.55880 602.86383 594.60442 0.22450
11102 46.56240 603.09633 596.50581 0.22386
11103 46.56600 603.36917 595.57969 0.22437
11104 46.56960 603.68298 598.46406 0.22306
11105 46.57320 604.03777 597.80039 0.22326
11106 46.57680 604.43468 597.65263 0.22337
11107 46.58040 604.87601 602.18173 0.22152
11108 46.58400 605.36502 597.63355 0.22338
11109 46.58760 605.90519 595.21662 0.22414
11110 46.59120 606.49896 599.51954 0.22235
11111 46.59480 607.14522 596.95423 0.22337
11112 46.59840 607.83532 598.70759 0.22290
11113 46.60200 608.54756 600.58855 0.22208
11114 46.60560 609.22167 594.59318 0.22444
11115 46.60920 609.83960 596.68459 0.22377
11116 46.61280 610.31303 601.08838 0.22205
11117 46.61640 610.58729 601.19140 0.22178
11118 46.62000 610.64508 599.75831 0.22253
11119 46.62360 610.51462 600.78467 0.22211
11120 46.62720 610.25506 602.04423 0.22186
11121 46.63080 609.93111 596.92815 0.22363
11122 46.63440 609.59404 600.50986 0.22223
11123 46.63800 609.27550 604.43375 0.22085
11124 46.64160 608.99019 599.66469 0.22278
11125 46.64520 608.73813 599.68511 0.22272
11126 46.64880 608.52310 600.86571 0.22235
11127 46.65240 608.33607 600.56127 0.22234
11128 46.65600 608.17059 602.37020 0.22173
11129 46.65960 608.02047 601.60840 0.22190
11130 46.66320 607.88023 601.54225 0.22213
11131 46.66680 607.74523 600.92931 0.22226
11132 46.67040 607.61170 599.97164 0.22228
11133 46.67400 607.47660 599.65164 0.22253
11134 46.67760 607.33760 597.94407 0.22336
11135 46.68120 607.19294 598.49796 0.22324
11136 46.68480 607.04139 602.65378 0.22160
11137 46.68840 606.88212 603.91579 0.22137
11138 46.69200 606.49317 601.63629 0.22222
11139 46.69560 606.29058 597.52599 0.22345
11140 46.69920 606.10429 597.68543 0.22348
11141 46.70280 605.91373 599.95793 0.22265
11142 46.70640 605.71619 599.71268 0.22306
11143 46.71000 605.51259 600.06895 0.22276
11144 46.71360 605.30410 598.55549 0.22301
11145 46.71720 605.09209 596.17732 0.22405
11146 46.72080 604.87820 597.22008 0.22385
11147 46.72440 604.66492 598.85241 0.22301
11148 46.72800 604.45727 595.84615 0.22432
11149 46.73160 604.24984 598.60436 0.22322
11150 46.73520 604.04899 598.91299 0.22316
11151 46.73880 603.85801 597.85118 0.22344
11152 46.74240 603.67525 598.16342 0.22345
11153 46.74600 603.50121 597.94045 0.22356
11154 46.74960 603.33187 599.42790 0.22261
11155 46.75320 603.15875 598.50027 0.22290
11156 46.75680 602.97516 598.08933 0.22333
11157 46.76040 602.75350 598.14316 0.22337
11158 46.76400 602.48763 597.50581 0.22351
11159 46.76760 602.17491 594.79391 0.22470
11160 46.77120 601.82344 600.61226 0.22254
11161 46.77480 601.44875 597.35844 0.22362
11162 46.77840 601.06766 598.23711 0.22329
11163 46.78200 600.69381 601.35635 0.22210
11164 46.78560 600.33607 598.55236 0.22344
11165 46.78920 599.99926 597.74191 0.22376
11166 46.79280 599.68539 598.80268 0.22304
11167 46.79640 599.39473 597.98318 0.22331
11168 46.80000 599.12640 595.55379 0.22440
11169 46.80360 598.87848 598.60072 0.22304
11170 46.80720 598.64776 599.69847 0.22277
11171 46.81080 598.42973 598.26365 0.22332
11172 46.81440 598.21904 600.51721 0.22247
11173 46.81800 598.00348 597.02552 0.22379
11174 46.82160 597.79582 595.88084 0.22417
11175 46.82520 597.59140 596.06542 0.22419
11176 46.82880 597.39505 599.12499 0.22276
11177 46.83240 597.21328 598.97949 0.22260
11178 46.83600 597.05178 599.78099 0.22266
11179 46.83960 596.91404 600.39671 0.22241
11180 46.84320 596.80050 601.10984 0.22211
11181 46.84680 596.70775 600.07564 0.22265
11182 46.85040 596.62756 603.71310 0.22150
11183 46.85400 596.54664 601.68729 0.22207
11184 46.85760 596.44848 598.67614 0.22304
11185 46.86120 596.31815 598.15417 0.22332
11186 46.86480 596.14853 599.47565 0.22302
11187 46.86840 595.94367 604.37364 0.22122
11188 46.87200 595.71654 602.68875 0.22164
11189 46.87560 595.48316 602.31037 0.22155
11190 46.87920 595.26098 597.81049 0.22343
11191 46.88280 595.05165 599.85592 0.22257
11192 46.88640 594.86356 596.96046 0.22379
11193 46.89000 594.69814 600.64565 0.22244
11194 46.89360 594.55598 600.30293 0.22258
11195 46.89720 594.43638 602.07580 0.22204
11196 46.90080 594.33104 600.98045 0.22233
11197 46.90440 594.24031 601.20561 0.22227
11198 46.90800 594.16111 602.51158 0.22170
11199 46.91160 594.09092 598.34022 0.22293
11200 46.91520 594.02844 600.14459 0.22257
11201 46.91880 593.91356 599.45354 0.22293
11202 46.92240 593.86407 599.03094 0.22280
11203 46.92600 593.82794 599.44513 0.22277
11204 46.92960 593.80243 597.62886 0.22374
11205 46.93320 593.78797 597.97251 0.22378
11206 46.93680 593.78461 596.25787 0.22405
11207 46.94040 593.79221 600.38866 0.22250
11208 46.94400 593.81052 598.21965 0.22340
11209 46.94760 593.83926 595.21195 0.22475
11210 46.95120 593.87912 599.49408 0.22290
11211 46.95480 593.92916 601.37804 0.22191
11212 46.95840 593.98776 598.72931 0.22318
11213 46.96200 594.05600 595.41562 0.22445
11214 46.96560 594.13380 599.42966 0.22288
11215 46.96920 594.22111 600.32879 0.22249
11216 46.97280 594.31791 596.34940 0.22405
11217 46.97640 594.42422 599.53779 0.22287
11218 46.98000 594.54006 599.04377 0.22293
11219 46.98360 594.66546 596.99366 0.22373
11220 46.98720 594.79901 599.63106 0.22273
11221 46.99080 594.98082 600.18184 0.22240
11222 46.99440 595.13556 600.22132 0.22271
11223 46.99800 595.30022 596.37763 0.22418
11224 47.00160 595.47495 595.47992 0.22420
11225 47.00520 595.65987 600.10921 0.22274
11226 47.00880 595.85515 598.88571 0.22329
11227 47.01240 596.06096 597.64460 0.22385
11228 47.01600 596.27544 598.44132 0.22329
11229 47.01960 596.46896 598.91825 0.22302
11230 47.02320 596.70787 598.29726 0.22335
11231 47.02680 596.95812 597.89963 0.22379
11232 47.03040 597.21994 599.65621 0.22305
11233 47.03400 597.49359 598.11044 0.22329
11234 47.03760 597.77932 599.68191 0.22296
11235 47.04120 598.07435 601.06154 0.22243
11236 47.04480 598.37745 597.51928 0.22337
11237 47.04840 598.70127 596.63204 0.22367
11238 47.05200 599.03839 599.35052 0.22270
11239 47.05560 599.38914 599.63633 0.22292
11240 47.05920 599.75389 597.37529 0.22366
11241 47.06280 600.13302 599.91188 0.22254
11242 47.06640 600.52690 598.85012 0.22303
11243 47.07000 600.92937 600.47815 0.22243
11244 47.07360 601.33372 606.86862 0.22036
11245 47.07720 601.77451 606.07453 0.22068
11246 47.08080 602.23184 605.44353 0.22059
11247 47.08440 602.70620 603.22172 0.22157
11248 47.08800 603.19899 604.11826 0.22144
11249 47.09160 603.70895 606.15547 0.22075
11250 47.09520 604.23751 607.30711 0.22016
11251 47.09880 604.78524 606.72673 0.22026
11252 47.10240 605.35276 607.96713 0.21983
11253 47.10600 605.94073 607.81160 0.22015
11254 47.10960 606.54986 609.97109 0.21932
11255 47.11320 607.18091 611.15698 0.21866
11256 47.11680 607.83467 613.71237 0.21771
11257 47.12040 608.51195 613.53129 0.21796
11258 47.12400 609.21359 616.35570 0.21664
11259 47.12760 609.94050 609.53083 0.21916
11260 47.13120 610.69360 610.36815 0.21877
11261 47.13480 611.47388 609.74337 0.21929
11262 47.13840 612.28237 611.68718 0.21851
11263 47.14200 613.12016 613.87922 0.21760
11264 47.14560 613.98924 612.08726 0.21828
11265 47.14920 614.89060 610.68104 0.21879
11266 47.15280 615.82355 610.51889 0.21908
11267 47.15640 616.79087 610.75279 0.21902
11268 47.16000 617.78708 612.59508 0.21815
11269 47.16360 618.82767 612.07695 0.21853
11270 47.16720 619.90729 612.08645 0.21860
11271 47.17080 621.02771 612.38504 0.21850
11272 47.17440 622.19080 614.80767 0.21739
11273 47.17800 623.39855 617.08366 0.21656
11274 47.18160 624.65312 617.82379 0.21625
11275 47.18520 625.95677 616.46829 0.21695
11276 47.18880 627.31194 616.99618 0.21682
11277 47.19240 628.72126 620.24451 0.21555
11278 47.19600 630.18749 617.96946 0.21624
11279 47.19960 631.71362 616.89885 0.21684
11280 47.20320 633.30283 622.35713 0.21463
11281 47.20680 634.95854 622.33080 0.21463
11282 47.21040 636.68436 620.11866 0.21540
11283 47.21400 638.48416 619.62544 0.21580
11284 47.21760 640.36205 626.06868 0.21355
11285 47.22120 642.32238 624.76728 0.21404
11286 47.22480 644.36974 623.57848 0.21437
11287 47.22840 646.50894 627.07844 0.21312
11288 47.23200 648.74503 629.71459 0.21234
11289 47.23560 651.08318 631.37096 0.21182
11290 47.23920 653.52872 629.24191 0.21245
11291 47.24280 656.08701 633.81599 0.21100
11292 47.24640 658.76332 635.27835 0.21067
11293 47.25000 661.56275 635.13698 0.21062
11294 47.25360 664.48999 634.66156 0.21076
11295 47.25720 667.54910 639.08162 0.20920
11296 47.26080 670.74320 643.53640 0.20772
11297 47.26440 674.07409 639.81662 0.20904
11298 47.26800 677.54177 642.90860 0.20805
11299 47.27160 681.14392 646.67583 0.20682
11300 47.27520 684.87520 650.76536 0.20527
11301 47.27880 688.72655 651.20423 0.20536
11302 47.28240 692.68433 655.53654 0.20383
11303 47.28600 696.72947 654.37250 0.20412
11304 47.28960 700.83726 657.62796 0.20296
11305 47.29320 704.97433 658.47898 0.20294
11306 47.29680 709.10055 666.26410 0.20062
11307 47.30040 713.16813 670.02874 0.19947
11308 47.30400 717.12585 671.61193 0.19903
11309 47.30760 720.90126 671.91014 0.19905
11310 47.31120 724.44350 678.54011 0.19703
11311 47.31480 727.65471 682.33635 0.19595
11312 47.31840 730.47486 683.70130 0.19537
11313 47.32200 732.83527 686.48383 0.19460
11314 47.32560 734.67083 689.15795 0.19402
11315 47.32920 735.93810 691.16758 0.19328
11316 47.33280 736.59926 688.11698 0.19425
11317 47.33640 736.63669 689.54923 0.19363
11318 47.34000 736.05200 691.53930 0.19319
11319 47.34360 734.86501 689.75955 0.19378
11320 47.34720 733.11099 686.22546 0.19476
11321 47.35080 730.83591 684.15434 0.19536
11322 47.35440 728.09041 686.86139 0.19454
11323 47.35800 724.92411 681.35961 0.19608
11324 47.36160 721.38328 677.54882 0.19720
11325 47.36520 717.51427 673.80597 0.19823
11326 47.36880 713.37144 671.25207 0.19880
11327 47.37240 709.02283 669.96360 0.19931
11328 47.37600 704.55371 668.63307 0.19976
11329 47.37960 700.02988 660.06527 0.20243
11330 47.38320 695.52638 657.87205 0.20317
11331 47.38680 691.09597 655.95187 0.20380
11332 47.39040 686.77575 651.56326 0.20529
11333 47.39400 682.59004 650.32306 0.20563
11334 47.39760 678.55365 648.48539 0.20605
11335 47.40120 674.67470 649.16855 0.20564
11336 47.40480 670.95663 645.40906 0.20719
11337 47.40840 667.39962 645.26420 0.20706
11338 47.41200 664.00156 643.82591 0.20763
11339 47.41560 660.75880 639.10382 0.20878
11340 47.41920 657.66127 636.64279 0.20968
11341 47.42280 654.71415 636.59351 0.20997
11342 47.42640 651.90628 633.00256 0.21106
11343 47.43000 649.23164 632.89249 0.21100
11344 47.43360 646.68419 630.20617 0.21205
11345 47.43720 644.25801 628.97411 0.21237
11346 47.44080 641.94736 626.92527 0.21314
11347 47.44440 639.74680 627.55577 0.21278
11348 47.44800 637.65122 624.60713 0.21376
11349 47.45160 635.65586 621.89296 0.21474
11350 47.45520 633.75642 621.83904 0.21478
11351 47.45880 631.94901 623.82423 0.21413
11352 47.46240 630.23027 620.07619 0.21566
11353 47.46600 628.59734 623.94266 0.21437
11354 47.46960 627.04795 618.23624 0.21627
11355 47.47320 625.58050 618.42772 0.21639
11356 47.47680 624.19408 617.32752 0.21648
11357 47.48040 622.88858 618.57379 0.21588
11358 47.48400 621.66480 620.40919 0.21558
11359 47.48760 620.52452 616.63575 0.21682
11360 47.49120 619.47057 619.27262 0.21572
11361 47.49480 618.50682 617.00492 0.21619
11362 47.49840 617.63797 619.52082 0.21528
11363 47.50200 616.86902 616.68736 0.21669
11364 47.50560 616.20397 621.51985 0.21499
11365 47.50920 615.64357 620.01129 0.21526
11366 47.51280 615.18157 621.73902 0.21495
11367 47.51640 614.79992 625.40562 0.21359
11368 47.52000 614.46471 621.77163 0.21500
11369 47.52360 614.12724 625.54334 0.21341
11370 47.52720 613.73505 626.09296 0.21316
11371 47.53080 613.25243 625.38097 0.21358
11372 47.53440 612.67880 629.72872 0.21206
11373 47.53800 612.04952 632.66255 0.21105
11374 47.54160 611.41597 631.36324 0.21173
11375 47.54520 610.81745 627.74481 0.21309
11376 47.54880 610.25969 629.52344 0.21232
11377 47.55240 609.70695 627.18398 0.21337
11378 47.55600 609.09052 623.54371 0.21438
11379 47.55960 608.33430 621.34520 0.21488
11380 47.56320 607.38999 620.48813 0.21542
11381 47.56680 606.26048 617.21218 0.21671
11382 47.57040 605.00126 617.11552 0.21645
11383 47.57400 603.68676 612.69421 0.21775
11384 47.57760 602.38598 610.75148 0.21836
11385 47.58120 601.14649 609.27098 0.21930
11386 47.58480 599.99314 607.20516 0.22013
11387 47.58840 598.93380 607.41092 0.21974
11388 47.59200 597.96621 603.29104 0.22158
11389 47.59560 597.08844 601.97681 0.22195
11390 47.59920 596.28081 601.46755 0.22221
11391 47.60280 595.53961 601.61373 0.22189
11392 47.60640 594.85661 601.41940 0.22181
11393 47.61000 594.22470 598.23495 0.22334
11394 47.61360 593.63789 597.48540 0.22340
11395 47.61720 593.09126 596.66804 0.22390
11396 47.62080 592.57888 599.13485 0.22321
11397 47.62440 592.10123 597.94827 0.22368
11398 47.62800 591.65469 596.70172 0.22411
11399 47.63160 591.23719 597.55586 0.22380
11400 47.63520 590.84764 596.22399 0.22417
11401 47.63880 590.48553 595.40301 0.22429
11402 47.64240 590.15093 594.33845 0.22481
11403 47.64600 589.84452 594.08450 0.22506
11404 47.64960 589.56758 601.31650 0.22213
11405 47.65320 589.32208 598.25954 0.22315
11406 47.65680 589.11073 595.96110 0.22380
11407 47.66040 588.93696 596.58800 0.22412
11408 47.66400 588.80436 596.77311 0.22420
11409 47.66760 588.71791 596.98485 0.22367
11410 47.67120 588.68304 597.52863 0.22363
11411 47.67480 588.70222 597.12644 0.22400
11412 47.67840 588.75267 596.86555 0.22400
11413 47.68200 588.87212 600.11514 0.22275
11414 47.68560 589.01893 602.91575 0.22144
11415 47.68920 589.15797 600.34036 0.22277
11416 47.69280 589.23825 602.73022 0.22171
11417 47.69640 589.20252 599.51704 0.22292
11418 47.70000 589.00699 598.95883 0.22339
11419 47.70360 588.64118 598.68866 0.22356
11420 47.70720 588.13320 599.31867 0.22329
11421 47.71080 587.53607 600.83837 0.22260
11422 47.71440 586.90785 599.02305 0.22314
11423 47.71800 586.28659 596.25986 0.22418
11424 47.72160 585.70168 596.28556 0.22412
11425 47.72520 585.16547 595.36039 0.22490
11426 47.72880 584.68094 588.68914 0.22710
11427 47.73240 584.24589 590.80873 0.22617
11428 47.73600 583.85734 588.72481 0.22679
11429 47.73960 583.50758 588.64996 0.22712
11430 47.74320 583.19260 587.08653 0.22807
11431 47.74680 582.90847 587.97249 0.22731
11432 47.75040 582.65167 586.23982 0.22795
11433 47.75400 582.41944 585.63553 0.22858
11434 47.75760 582.20972 587.50536 0.22767
11435 47.76120 582.02109 588.06894 0.22737
11436 47.76480 581.85278 585.14519 0.22821
11437 47.76840 581.70597 585.83645 0.22816
11438 47.77200 581.58859 586.36243 0.22793
11439 47.77560 581.48240 586.96161 0.22758
11440 47.77920 581.39923 586.59435 0.22812
11441 47.78280 581.34117 582.08885 0.23010
11442 47.78640 581.31081 585.50379 0.22865
11443 47.79000 581.31093 586.49896 0.22809
11444 47.79360 581.34406 585.82480 0.22821
11445 47.79720 581.41145 585.38735 0.22831
11446 47.80080 581.51130 587.97406 0.22730
11447 47.80440 581.63616 590.72419 0.22652
11448 47.80800 581.76988 584.47424 0.22883
11449 47.81160 581.88569 588.07797 0.22722
11450 47.81520 581.94856 585.92587 0.22814
11451 47.81880 581.92429 583.15509 0.22938
11452 47.82240 581.79314 584.76313 0.22924
11453 47.82600 581.55942 586.01754 0.22838
11454 47.82960 581.24935 585.79307 0.22815
11455 47.83320 580.89898 587.34480 0.22788
11456 47.83680 580.54138 584.64589 0.22881
11457 47.84040 580.19994 586.25143 0.22811
11458 47.84400 579.88784 587.49435 0.22752
11459 47.84760 579.61061 584.26785 0.22881
11460 47.85120 579.36920 583.73274 0.22920
11461 47.85480 579.16228 584.86348 0.22848
11462 47.85840 578.98769 583.53580 0.22929
11463 47.86200 578.82575 581.48577 0.23028
11464 47.86560 578.70938 580.00664 0.23092
11465 47.86920 578.61869 581.69669 0.23009
11466 47.87280 578.54927 582.53957 0.22966
11467 47.87640 578.50251 581.63499 0.22999
11468 47.88000 578.46988 581.57322 0.22986
11469 47.88360 578.44271 580.71938 0.23031
11470 47.88720 578.40996 577.11269 0.23187
11471 47.89080 578.36072 578.81576 0.23100
11472 47.89440 578.28830 578.44053 0.23120
11473 47.89800 578.19343 578.21517 0.23139
11474 47.90160 578.08409 577.70367 0.23203
11475 47.90520 577.97200 578.07369 0.23170
11476 47.90880 577.86873 576.71104 0.23178
11477 47.91240 577.78330 580.15370 0.23066
11478 47.91600 577.72192 580.17103 0.23087
11479 47.91960 577.68891 581.22436 0.23020
11480 47.92320 577.68837 581.24976 0.23017
11481 47.92680 577.71717 581.79753 0.22987
11482 47.93040 577.77698 580.20714 0.23086
11483 47.93400 577.86402 577.44361 0.23163
11484 47.93760 577.96933 577.81522 0.23163
11485 47.94120 578.07665 578.86532 0.23146
11486 47.94480 578.16195 580.04166 0.23096
11487 47.94840 578.19721 576.60679 0.23216
11488 47.95200 578.15916 578.40025 0.23130
11489 47.95560 578.03929 578.80618 0.23119
11490 47.95920 577.84786 576.14058 0.23229
11491 47.96280 577.60861 576.87688 0.23183
11492 47.96640 577.34846 575.85695 0.23262
11493 47.97000 577.08938 574.35365 0.23294
11494 47.97360 576.84534 576.24274 0.23223
11495 47.97720 576.62318 577.97798 0.23164
11496 47.98080 576.42482 577.91850 0.23192
11497 47.98440 576.24943 577.69751 0.23283
11498 47.98800 576.09487 576.99643 0.20565
11499 47.99160 575.95860 579.97889 0.20181
11500 47.99520 575.83810 576.86912 0.22699
11501 47.99880 575.74338 575.39954 0.23263
11502 48.00240 575.64809 576.05242 0.23240
11503 48.00600 575.56274 578.43142 0.23125
11504 48.00960 575.48602 578.62532 0.23155
11505 48.01320 575.41685 578.32913 0.23152
11506 48.01680 575.35436 578.10218 0.23163
11507 48.02040 575.29791 576.55416 0.23258
11508 48.02400 575.24699 576.52964 0.23230
11509 48.02760 575.20124 576.16707 0.23254
11510 48.03120 575.16044 576.52322 0.23207
11511 48.03480 575.12449 576.10646 0.23224
11512 48.03840 575.09820 575.06579 0.23284
11513 48.04200 575.07223 577.33420 0.23184
11514 48.04560 575.05143 579.24360 0.23126
11515 48.04920 575.03627 575.09622 0.23275
11516 48.05280 575.02730 573.30485 0.23334
11517 48.05640 575.02521 571.71486 0.23433
11518 48.06000 575.03083 574.94873 0.23308
11519 48.06360 575.04512 577.34490 0.23283
11520 48.06720 575.06904 576.78597 0.21247
11521 48.07080 575.10337 576.24914 0.20335
11522 48.07440 575.14835 573.51498 0.22186
11523 48.07800 575.20299 576.09392 0.23256
11524 48.08160 575.26422 572.66051 0.23389
11525 48.08520 575.32586 574.61228 0.23287
11526 48.08880 575.37839 577.65870 0.23185
11527 48.09240 575.42779 574.00852 0.23336
11528 48.09600 575.42893 574.07939 0.23329
11529 48.09960 575.39488 576.71021 0.23255
11530 48.10320 575.32922 577.53446 0.23197
11531 48.10680 575.24169 574.78150 0.23318
11532 48.11040 575.14386 575.59047 0.23255
11533 48.11400 575.04550 576.75315 0.23188
11534 48.11760 574.94216 576.55322 0.23224
11535 48.12120 574.84257 576.26767 0.23234
11536 48.12480 574.76961 579.77249 0.23088
11537 48.12840 574.70666 579.16715 0.23103
11538 48.13200 574.65291 577.22063 0.23190
11539 48.13560 574.60730 574.57928 0.23324
11540 48.13920 574.56878 574.52785 0.23349
11541 48.14280 574.53638 578.30819 0.23236
11542 48.14640 574.50927 577.27794 0.21756
11543 48.15000 574.48674 578.34945 0.20260
11544 48.15360 574.46821 580.44487 0.21404
11545 48.15720 574.45321 577.56188 0.23221
11546 48.16080 574.44134 577.63091 0.23192
11547 48.16440 574.43230 577.64329 0.23172
11548 48.16800 574.42582 578.10070 0.23156
11549 48.17160 574.41953 575.53255 0.23276
11550 48.17520 574.41752 573.92140 0.23336
11551 48.17880 574.41820 576.24788 0.23269
11552 48.18240 574.43999 581.26609 0.23065
11553 48.18600 574.44551 577.58965 0.23213
11554 48.18960 574.45323 573.87477 0.23342
11555 48.19320 574.46551 577.77246 0.23140
11556 48.19680 574.47538 575.10821 0.23263
11557 48.20040 574.48708 578.34576 0.23130
11558 48.20400 574.50501 575.36230 0.23248
11559 48.20760 574.52016 576.58180 0.23205
11560 48.21120 574.53669 576.80805 0.23213
11561 48.21480 574.55430 577.80818 0.23187
11562 48.21840 574.57261 576.93655 0.23251
11563 48.22200 574.59127 575.12448 0.23340
11564 48.22560 574.61011 576.67298 0.22375
11565 48.22920 574.62927 574.36306 0.20404
11566 48.23280 574.64905 575.60791 0.20978
11567 48.23640 574.66986 576.02689 0.23303
11568 48.24000 574.69202 575.63177 0.23268
11569 48.24360 574.71577 576.51237 0.23228
11570 48.24720 574.74123 575.93879 0.23239
11571 48.25080 574.76846 574.69856 0.23319
11572 48.25440 574.79746 575.50698 0.23280
11573 48.25800 574.82824 580.37101 0.23086
11574 48.26160 574.86239 578.61666 0.23169
11575 48.26520 574.89668 578.80513 0.23148
11576 48.26880 574.93269 574.89930 0.23298
11577 48.27240 574.97043 578.27202 0.23115
11578 48.27600 575.00989 573.97268 0.23304
11579 48.27960 575.05110 573.47783 0.23329
11580 48.28320 575.09405 576.58809 0.23191
11581 48.28680 575.13878 579.02196 0.23114
11582 48.29040 575.18529 576.77677 0.23215
11583 48.29400 575.23362 574.05802 0.23326
11584 48.29760 575.28379 575.53177 0.23296
11585 48.30120 575.33584 578.45427 0.23178
11586 48.30480 575.38979 579.68164 0.22884
11587 48.30840 575.44569 578.22370 0.20246
11588 48.31200 575.50356 578.58909 0.20286
11589 48.31560 575.56346 580.10211 0.23071
11590 48.31920 575.62542 576.31073 0.23236
11591 48.32280 575.69503 576.98338 0.23195
11592 48.32640 575.76130 576.28025 0.23202
11593 48.33000 575.82978 578.84739 0.23127
11594 48.33360 575.89991 577.18913 0.23204
11595 48.33720 575.96887 575.78255 0.23254
11596 48.34080 576.04432 576.20254 0.23244
11597 48.34440 576.12219 578.38718 0.23157
11598 48.34800 576.20255 580.85869 0.23059
11599 48.35160 576.28546 578.55232 0.23104
11600 48.35520 576.37097 576.21268 0.23207
11601 48.35880 576.45916 579.54481 0.23080
11602 48.36240 576.55137 580.85693 0.22994
11603 48.36600 576.63896 579.57826 0.23066
11604 48.36960 576.73532 581.06042 0.23026
11605 48.37320 576.83505 581.42652 0.23023
11606 48.37680 576.93785 577.37634 0.23194
11607 48.38040 577.04380 577.28160 0.23206
11608 48.38400 577.15302 578.32466 0.23200
11609 48.38760 577.26559 581.51072 0.20861
11610 48.39120 577.38161 581.43130 0.20150
11611 48.39480 577.50121 580.30732 0.22087
11612 48.39840 577.62451 577.86120 0.23168
11613 48.40200 577.75162 576.34647 0.23217
11614 48.40560 577.88269 578.86585 0.23100
11615 48.40920 578.01787 579.91375 0.23084
11616 48.41280 578.15732 577.43330 0.23197
11617 48.41640 578.30122 579.03010 0.23127
11618 48.42000 578.44976 581.85455 0.23010
11619 48.42360 578.60316 584.72425 0.22890
11620 48.42720 578.76167 581.33308 0.23035
11621 48.43080 578.92556 582.75108 0.22941
11622 48.43440 579.09514 581.34644 0.22983
11623 48.43800 579.27078 580.13849 0.23058
11624 48.44160 579.45289 581.55340 0.22973
11625 48.44520 579.64196 582.47903 0.22936
11626 48.44880 579.83856 585.79020 0.22840
11627 48.45240 580.04338 587.26950 0.22794
11628 48.45600 580.25724 584.80245 0.22888
11629 48.45960 580.48113 582.52218 0.22985
11630 48.46320 580.71624 583.57076 0.22954
11631 48.46680 580.96401 585.69685 0.21323
11632 48.47040 581.22619 586.66935 0.19963
11633 48.47400 581.50488 586.05228 0.21245
11634 48.47760 581.80258 584.94220 0.22893
11635 48.48120 582.12214 584.90629 0.22890
11636 48.48480 582.40792 586.67374 0.22789
11637 48.48840 582.78183 587.30758 0.22787
11638 48.49200 583.18796 588.84125 0.22718
11639 48.49560 583.62863 589.40891 0.22706
11640 48.49920 584.10351 586.92463 0.22810
11641 48.50280 584.60707 589.01357 0.22719
11642 48.50640 585.12373 587.94731 0.22766
11643 48.51000 585.63158 591.58534 0.22610
11644 48.51360 586.09301 593.01425 0.22515
11645 48.51720 586.46861 592.43596 0.22568
11646 48.52080 586.72931 593.45721 0.22515
11647 48.52440 586.86962 594.00424 0.22485
11648 48.52800 586.91031 594.88068 0.22486
11649 48.53160 586.88814 595.18311 0.22489
11650 48.53520 586.84111 594.79461 0.22493
11651 48.53880 586.79834 593.96294 0.22527
11652 48.54240 586.77729 595.00188 0.22493
11653 48.54600 586.78571 597.75855 0.21588
11654 48.54960 586.82499 595.56485 0.19638
11655 48.55320 586.89301 595.54385 0.20191
11656 48.55680 586.98610 595.32485 0.22483
11657 48.56040 587.10008 592.25079 0.22599
11658 48.56400 587.23092 590.36118 0.22647
11659 48.56760 587.37489 595.02632 0.22473
11660 48.57120 587.52873 593.06476 0.22543
11661 48.57480 587.68954 590.63961 0.22640
11662 48.57840 587.85484 588.08807 0.22763
11663 48.58200 588.02246 590.36055 0.22660
11664 48.58560 588.19049 587.09736 0.22797
11665 48.58920 588.35727 589.11535 0.22709
11666 48.59280 588.52132 591.92827 0.22555
11667 48.59640 588.68135 594.53040 0.22481
11668 48.60000 588.83619 591.67391 0.22588
11669 48.60360 588.98479 589.31010 0.22649
11670 48.60720 589.12763 592.33803 0.22559
11671 48.61080 589.26108 593.24177 0.22553
11672 48.61440 589.38581 594.34567 0.22497
11673 48.61800 589.50118 597.20068 0.22392
11674 48.62160 589.60664 597.06796 0.22389
11675 48.62520 589.70161 593.33358 0.22491
11676 48.62880 589.78318 594.35405 0.22474
11677 48.63240 589.85654 596.56989 0.22392
11678 48.63600 589.91867 595.28050 0.22456
11679 48.63960 589.96949 595.40904 0.22475
11680 48.64320 590.00896 596.25533 0.22418
11681 48.64680 590.03716 597.78426 0.22348
11682 48.65040 590.05425 596.17613 0.22426
11683 48.65400 590.06048 594.33515 0.22467
11684 48.65760 590.05616 591.88818 0.22599
11685 48.66120 590.03181 594.69273 0.22481
11686 48.66480 589.95242 594.84634 0.22500
11687 48.66840 589.91939 593.25900 0.22539
11688 48.67200 589.87792 590.58293 0.22609
11689 48.67560 589.82998 593.27197 0.22510
11690 48.67920 589.77402 592.85572 0.22525
11691 48.68280 589.71174 592.17899 0.22524
11692 48.68640 589.64465 598.19965 0.22316
11693 48.69000 589.57291 595.14638 0.22467
11694 48.69360 589.49795 594.57701 0.22496
11695 48.69720 589.42087 592.38656 0.22559
11696 48.70080 589.34196 594.37239 0.22482
11697 48.70440 589.26423 593.87142 0.22466
11698 48.70800 589.18812 595.29084 0.22411
11699 48.71160 589.11505 599.35871 0.22278
11700 48.71520 589.04657 597.99438 0.22337
11701 48.71880 588.98436 595.34897 0.22450
11702 48.72240 588.93025 595.11688 0.22449
11703 48.72600 588.88632 593.31607 0.22504
11704 48.72960 588.85484 598.74531 0.22332
11705 48.73320 588.83898 600.72574 0.22218
11706 48.73680 588.84071 599.06035 0.22308
11707 48.74040 588.86403 601.33514 0.22235
11708 48.74400 588.91306 602.47090 0.22194
11709 48.74760 588.99266 600.77275 0.22253
11710 48.75120 589.10860 602.74932 0.22143
11711 48.75480 589.26779 605.91530 0.22026
11712 48.75840 589.47639 607.25848 0.21999
11713 48.76200 589.74823 606.23747 0.22018
11714 48.76560 590.09298 611.13280 0.21830
11715 48.76920 590.52375 613.58922 0.21771
11716 48.77280 591.05520 613.24394 0.21796
11717 48.77640 591.70231 609.06979 0.21936
11718 48.78000 592.47805 611.25823 0.21851
11719 48.78360 593.38872 614.75629 0.21701
11720 48.78720 594.42611 614.78255 0.21684
11721 48.79080 595.55614 613.13809 0.21760
11722 48.79440 596.70669 613.78857 0.21746
11723 48.79800 597.76239 610.98264 0.21855
11724 48.80160 598.57963 609.06894 0.21927
11725 48.80520 599.02943 613.91888 0.21741
11726 48.80880 599.05349 612.11751 0.21828
11727 48.81240 598.69571 611.52888 0.21827
11728 48.81600 598.08320 613.67685 0.21757
11729 48.81960 597.37210 614.13843 0.21758
11730 48.82320 596.69701 613.92302 0.21762
11731 48.82680 596.14581 616.57666 0.21681
11732 48.83040 595.75668 618.39421 0.21593
11733 48.83400 595.52464 622.12600 0.21453
11734 48.83760 595.41038 622.11797 0.21487
11735 48.84120 595.35236 625.41343 0.21374
11736 48.84480 595.28636 626.05549 0.21314
11737 48.84840 595.17083 632.32163 0.21118
11738 48.85200 595.00427 634.56277 0.21048
11739 48.85560 594.83033 633.95091 0.21065
11740 48.85920 594.71111 632.82508 0.21091
11741 48.86280 594.71103 635.72718 0.20986
11742 48.86640 594.88265 638.89356 0.20851
11743 48.87000 595.26345 636.87552 0.20936
11744 48.87360 595.87695 635.72334 0.20987
11745 48.87720 596.73232 637.01492 0.20946
11746 48.88080 597.81891 632.29294 0.21125
11747 48.88440 599.09422 632.56560 0.21098
11748 48.88800 600.46727 628.56040 0.21245
11749 48.89160 601.78569 625.28988 0.21344
11750 48.89520 602.84322 623.81949 0.21397
11751 48.89880 603.42519 623.25278 0.21442
11752 48.90240 603.38613 620.43929 0.21526
11753 48.90600 602.71569 618.38090 0.21623
11754 48.90960 601.54441 619.46708 0.21556
11755 48.91320 600.07649 616.45093 0.21652
11756 48.91680 598.51387 618.23603 0.21604
11757 48.92040 597.00638 616.76168 0.21654
11758 48.92400 595.64162 614.93479 0.21693
11759 48.92760 594.45746 613.84927 0.21751
11760 48.93120 593.46005 614.77777 0.21720
11761 48.93480 592.63869 614.10415 0.21743
11762 48.93840 591.97555 613.01959 0.21771
11763 48.94200 591.45127 612.57955 0.21777
11764 48.94560 591.04764 611.24734 0.21800
11765 48.94920 590.74881 608.66183 0.21908
11766 48.95280 590.54163 609.34928 0.21884
11767 48.95640 590.41566 607.90564 0.21944
11768 48.96000 590.36290 603.73643 0.22112
11769 48.96360 590.37763 603.02424 0.22122
11770 48.96720 590.45616 605.23670 0.22056
11771 48.97080 590.59666 602.48544 0.22152
11772 48.97440 590.79894 600.53895 0.22217
11773 48.97800 591.06421 599.56827 0.22270
11774 48.98160 591.39470 600.28241 0.22264
11775 48.98520 591.79283 602.62774 0.22183
11776 48.98880 592.25990 605.21150 0.22078
11777 48.99240 592.79361 603.40701 0.22123
11778 48.99600 593.38440 605.46586 0.22048
11779 48.99960 594.01076 605.83676 0.22035
11780 49.00320 594.63563 605.42400 0.22050
11781 49.00680 595.20815 604.43284 0.22081
11782 49.01040 595.67363 607.31827 0.21983
11783 49.01400 595.99503 607.27488 0.21983
11784 49.01760 596.16936 607.61247 0.21967
11785 49.02120 596.22130 607.23652 0.21975
11786 49.02480 596.21309 611.56742 0.21800
11787 49.02840 596.20762 608.24695 0.21931
11788 49.03200 596.23764 612.79219 0.21759
11789 49.03560 596.32882 612.33924 0.21786
11790 49.03920 596.49392 613.30592 0.21779
11791 49.04280 596.73730 611.03755 0.21833
11792 49.04640 597.05845 609.26412 0.21897
11793 49.05000 597.45373 607.81789 0.21959
11794 49.05360 597.91668 610.68672 0.21843
11795 49.05720 598.43711 608.58182 0.21925
11796 49.06080 598.99996 608.06474 0.21985
11797 49.06440 599.58547 609.90492 0.21931
11798 49.06800 600.17247 607.88033 0.21989
11799 49.07160 600.74518 605.03726 0.22063
11800 49.07520 601.30013 608.12661 0.21957
11801 49.07880 601.84826 608.28653 0.21955
11802 49.08240 602.41027 610.45447 0.21870
11803 49.08600 603.00921 608.25446 0.21938
11804 49.08960 603.66497 607.11487 0.22010
11805 49.09320 604.39255 609.81594 0.21904
11806 49.09680 605.20273 612.18361 0.21820
11807 49.10040 606.10492 616.82580 0.21645
11808 49.10400 607.10433 618.26023 0.21583
11809 49.10760 608.19977 618.12484 0.21603
11810 49.11120 609.39120 617.29092 0.21613
11811 49.11480 610.66623 619.97864 0.21529
11812 49.11840 611.99730 617.42169 0.21634
11813 49.12200 613.33775 620.86438 0.21500
11814 49.12560 614.62467 621.47652 0.21473
11815 49.12920 615.79386 619.66584 0.21547
11816 49.13280 616.80434 620.94401 0.21513
11817 49.13640 617.65834 622.42074 0.21448
11818 49.14000 618.40098 621.59802 0.21509
11819 49.14360 619.09978 621.40713 0.21535
11820 49.14720 619.81982 624.97434 0.21404
11821 49.15080 620.60846 623.22767 0.21422
11822 49.15440 621.49168 625.53374 0.21346
11823 49.15800 622.47689 623.43334 0.21419
11824 49.16160 623.55746 629.97004 0.21195
11825 49.16520 624.71743 630.45403 0.21156
11826 49.16880 625.93715 629.69339 0.21223
11827 49.17240 627.20024 628.46785 0.21259
11828 49.17600 628.49968 630.84765 0.21176
11829 49.17960 629.83929 629.03601 0.21235
11830 49.18320 631.23013 628.91365 0.21225
11831 49.18680 632.68457 633.74513 0.21086
11832 49.19040 634.21219 632.82298 0.21101
11833 49.19400 635.81841 632.94469 0.21095
11834 49.19760 637.50504 633.78252 0.21076
11835 49.20120 639.27138 633.61876 0.21071
11836 49.20480 641.11521 637.81868 0.20923
11837 49.20840 643.03343 637.83638 0.20924
11838 49.21200 645.02227 640.78733 0.20864
11839 49.21560 647.07738 643.99301 0.20740
11840 49.21920 649.19373 644.19695 0.20745
11841 49.22280 651.36542 642.39324 0.20835
11842 49.22640 653.58543 643.33186 0.20804
11843 49.23000 655.84539 646.59476 0.20668
11844 49.23360 658.13528 651.58926 0.20508
11845 49.23720 660.44317 652.94836 0.20453
11846 49.24080 662.75495 657.31752 0.20309
11847 49.24440 665.05078 657.49132 0.20309
11848 49.24800 667.31819 659.67630 0.20259
11849 49.25160 669.53213 662.45249 0.20185
11850 49.25520 671.66827 662.04836 0.20180
11851 49.25880 673.69996 664.14923 0.20122
11852 49.26240 675.59861 667.12156 0.20010
11853 49.26600 677.33439 667.88333 0.20015
11854 49.26960 678.87715 670.77158 0.19923
11855 49.27320 680.19752 673.75953 0.19831
11856 49.27680 681.26823 674.30893 0.19820
11857 49.28040 682.06545 674.40949 0.19806
11858 49.28400 682.57279 673.16868 0.19842
11859 49.28760 682.77201 674.79362 0.19779
11860 49.29120 682.65914 671.90976 0.19903
11861 49.29480 682.23521 670.54629 0.19946
11862 49.29840 681.50830 667.68943 0.20024
11863 49.30200 680.49319 669.42526 0.19999
11864 49.30560 679.21042 671.88429 0.19928
11865 49.30920 677.68516 667.42028 0.20056
11866 49.31280 675.94577 667.46093 0.20036
11867 49.31640 674.02248 666.73599 0.20058
11868 49.32000 671.94603 663.45500 0.20131
11869 49.32360 669.74660 660.88311 0.20232
11870 49.32720 667.45183 660.22105 0.20265
11871 49.33080 665.08600 657.60306 0.20372
11872 49.33440 662.68066 654.62614 0.20419
11873 49.33800 660.25267 656.64310 0.20370
11874 49.34160 657.82040 652.67177 0.20482
11875 49.34520 655.39946 651.18454 0.20540
11876 49.34880 652.99301 648.60530 0.20618
11877 49.35240 650.67070 642.54898 0.20802
11878 49.35600 648.36177 643.83657 0.20774
11879 49.35960 646.09442 639.18825 0.20921
11880 49.36320 643.88255 638.81423 0.20914
11881 49.36680 641.73729 638.53115 0.20905
11882 49.37040 639.65801 635.78154 0.21029
11883 49.37400 637.63091 636.19027 0.21035
11884 49.37760 635.66826 635.43927 0.21048
11885 49.38120 633.77031 630.51856 0.21237
11886 49.38480 631.93681 628.74588 0.21298
11887 49.38840 630.16773 626.26753 0.21386
11888 49.39200 628.46080 627.47894 0.21331
11889 49.39560 626.81543 626.07512 0.21383
11890 49.39920 625.23020 625.34971 0.21357
11891 49.40280 623.70357 623.02076 0.21444
11892 49.40640 622.23390 621.67844 0.21506
11893 49.41000 620.81950 620.46100 0.21606
11894 49.41360 619.45863 619.44070 0.21602
11895 49.41720 618.14958 617.05561 0.21688
11896 49.42080 616.89063 616.48116 0.21686
11897 49.42440 615.68009 613.86818 0.21780
11898 49.42800 614.51633 614.54386 0.21770
11899 49.43160 613.39774 617.12511 0.21681
11900 49.43520 612.32282 614.50283 0.21787
11901 49.43880 611.29010 612.79985 0.21844
11902 49.44240 610.29822 610.59069 0.21883
11903 49.44600 609.34589 610.44845 0.21882
11904 49.44960 608.43195 609.15467 0.21964
11905 49.45320 607.55532 609.71556 0.21960
11906 49.45680 606.71503 606.78730 0.22068
11907 49.46040 605.91022 605.94187 0.22115
11908 49.46400 605.14014 608.48586 0.22019
11909 49.46760 604.40404 608.82462 0.22003
11910 49.47120 603.70112 606.44122 0.22069
11911 49.47480 603.03034 604.96056 0.22129
11912 49.47840 602.39009 605.79662 0.22051
11913 49.48200 601.77778 602.90618 0.22151
11914 49.48560 601.19020 603.85209 0.22138
11915 49.48920 600.62140 602.15182 0.22273
11916 49.49280 600.06463 601.39553 0.22282
11917 49.49640 599.51585 601.95677 0.22248
11918 49.50000 598.97310 600.60206 0.22299
11919 49.50360 598.43782 603.89552 0.22146
11920 49.50720 597.91385 599.75945 0.22327
11921 49.51080 597.40550 599.69261 0.22316
11922 49.51440 596.91604 599.67796 0.22335
11923 49.51800 596.43650 599.33974 0.22361
11924 49.52160 595.98961 600.93954 0.22243
11925 49.52520 595.48493 599.91201 0.22267
11926 49.52880 595.07916 598.71143 0.22347
11927 49.53240 594.67419 599.10688 0.22358
11928 49.53600 594.30822 598.79844 0.22366
11929 49.53960 593.96013 597.97311 0.22419
11930 49.54320 593.63156 598.50345 0.22385
11931 49.54680 593.31712 600.68160 0.22305
11932 49.55040 593.01794 597.62707 0.22410
11933 49.55400 592.73375 598.83560 0.22357
11934 49.55760 592.46404 601.66820 0.22218
11935 49.56120 592.20833 600.03755 0.22268
11936 49.56480 591.96617 599.23251 0.22312
11937 49.56840 591.73716 598.61013 0.22393
11938 49.57200 591.52093 597.15094 0.22460
11939 49.57560 591.31710 595.69573 0.22497
11940 49.57920 591.12535 596.24133 0.22476
11941 49.58280 590.94537 599.10716 0.22339
11942 49.58640 590.77688 599.84352 0.22328
11943 49.59000 590.61967 599.95504 0.22301
11944 49.59360 590.47354 602.05240 0.22254
11945 49.59720 590.33833 602.58884 0.22258
11946 49.60080 590.21389 599.62243 0.22322
11947 49.60440 590.10007 597.13236 0.22390
11948 49.60800 589.99673 597.57576 0.22389
11949 49.61160 589.90375 593.82739 0.22567
11950 49.61520 589.80957 596.48836 0.22455
11951 49.61880 589.73632 594.68271 0.22542
11952 49.62240 589.67385 594.87556 0.22522
11953 49.62600 589.62144 594.09011 0.22540
11954 49.62960 589.58177 596.09909 0.22467
11955 49.63320 589.54896 592.10395 0.22607
11956 49.63680 589.52593 595.71667 0.22451
11957 49.64040 589.51264 596.43916 0.22411
11958 49.64400 589.50906 592.52211 0.22569
11959 49.64760 589.51519 592.33373 0.22618
11960 49.65120 589.53101 592.60212 0.22637
11961 49.65480 589.55589 593.90283 0.22571
11962 49.65840 589.58693 594.24409 0.22556
11963 49.66200 589.63370 594.80870 0.22510
11964 49.66560 589.68851 592.21365 0.22615
11965 49.66920 589.75315 590.36842 0.22661
11966 49.67280 589.82796 588.14626 0.22775
11967 49.67640 589.91243 589.74275 0.22760
11968 49.68000 590.00692 591.62845 0.22625
11969 49.68360 590.11150 595.01369 0.22487
11970 49.68720 590.22961 592.91526 0.22557
11971 49.69080 590.35467 591.29503 0.22663
11972 49.69440 590.49013 591.15106 0.22659
11973 49.69800 590.63610 592.48155 0.22628
11974 49.70160 590.79271 590.68935 0.22691
11975 49.70520 590.96009 590.68991 0.22658
11976 49.70880 591.13837 588.45478 0.22762
11977 49.71240 591.31028 586.88573 0.22806
11978 49.71600 591.51098 590.29187 0.22662
11979 49.71960 591.72305 589.59362 0.22667
11980 49.72320 591.94665 590.63885 0.22656
11981 49.72680 592.17110 593.30687 0.22569
11982 49.73040 592.40068 593.63639 0.22574
11983 49.73400 592.66007 592.45316 0.22606
11984 49.73760 592.93178 593.10042 0.22581
11985 49.74120 593.21603 592.41327 0.22604
11986 49.74480 593.51305 594.45524 0.22527
11987 49.74840 593.82309 596.35297 0.22421
11988 49.75200 594.14640 596.16014 0.22447
11989 49.75560 594.48324 592.61533 0.22628
11990 49.75920 594.83390 592.77273 0.22590
11991 49.76280 595.19868 594.05444 0.22507
11992 49.76640 595.57791 595.82325 0.22445
11993 49.77000 595.97195 594.54785 0.22527
11994 49.77360 596.38118 594.85139 0.22503
11995 49.77720 596.80601 595.94180 0.22479
11996 49.78080 597.24689 594.80399 0.22533
11997 49.78440 597.70427 594.00377 0.22535
11998 49.78800 598.17860 595.39952 0.22492
11999 49.79160 598.67025 594.56126 0.22519
12000 49.79520 599.17939 596.12568 0.22447
12001 49.79880 599.70581 596.28590 0.22413
12002 49.80240 600.24876 596.18833 0.22448
12003 49.80600 600.80741 593.87346 0.22542
12004 49.80960 601.37675 592.24478 0.22611
12005 49.81320 601.95459 593.23186 0.22566
12006 49.81680 602.53797 596.42280 0.22450
12007 49.82040 603.12558 598.15764 0.22384
12008 49.82400 603.71387 600.04863 0.22309
12009 49.82760 604.31439 599.04350 0.22315
12010 49.83120 604.92562 596.83992 0.22408
12011 49.83480 605.54993 597.09753 0.22450
12012 49.83840 606.18859 598.04695 0.22400
12013 49.84200 606.84187 597.46580 0.22387
12014 49.84560 607.50921 597.76064 0.22362
12015 49.84920 608.18950 599.78405 0.22308
12016 49.85280 608.88124 601.06807 0.22260
12017 49.85640 609.58259 599.13430 0.22358
12018 49.86000 610.29139 599.45496 0.22344
12019 49.86360 611.00519 601.63170 0.22236
12020 49.86720 611.72250 600.94969 0.22259
12021 49.87080 612.43746 601.91583 0.22221
12022 49.87440 613.14753 602.14921 0.22212
12023 49.87800 613.84851 605.96802 0.22047
12024 49.88160 614.53414 604.70265 0.22117
12025 49.88520 615.20157 605.18826 0.22100
12026 49.88880 615.84368 604.17748 0.22161
12027 49.89240 616.45675 604.86917 0.22123
12028 49.89600 617.02777 607.68944 0.22023
12029 49.89960 617.55045 609.38953 0.21970
12030 49.90320 618.01748 607.82101 0.22032
12031 49.90680 618.42054 608.78887 0.21962
12032 49.91040 618.75146 611.07630 0.21869
12033 49.91400 619.00251 611.37645 0.21906
12034 49.91760 619.16674 609.07442 0.22002
12035 49.92120 619.23835 609.26491 0.21940
12036 49.92480 619.21303 609.90573 0.21904
12037 49.92840 619.08821 613.97351 0.21779
12038 49.93200 618.86326 609.16587 0.21958
12039 49.93560 618.53960 609.38718 0.21956
12040 49.93920 618.12068 610.30633 0.21953
12041 49.94280 617.60631 608.12260 0.21993
12042 49.94640 617.01442 609.04443 0.21943
12043 49.95000 616.34767 606.77147 0.22026
12044 49.95360 615.61521 608.12980 0.21985
12045 49.95720 614.82667 606.36968 0.22018
12046 49.96080 613.99190 605.08237 0.22083
12047 49.96440 613.12056 604.49905 0.22103
12048 49.96800 612.22191 605.90435 0.22065
12049 49.97160 611.30456 604.79113 0.22098
12050 49.97520 610.37637 600.84010 0.22259
12051 49.97880 609.44437 599.12531 0.22332
12052 49.98240 608.51351 600.97285 0.22270
12053 49.98600 607.59139 600.09851 0.22290
12054 49.98960 606.68143 599.26439 0.22292
12055 49.99320 605.78724 600.15817 0.22296
12056 49.99680 604.91188 598.09870 0.22395
12057 50.00040 604.05777 596.69822 0.22404
12058 50.00400 603.22685 596.83670 0.22389
12059 50.00760 602.42080 596.35625 0.22412
12060 50.01120 601.64026 593.16516 0.22540
12061 50.01480 600.88632 597.56766 0.22378
12062 50.01840 600.15960 595.92186 0.22482
12063 50.02200 599.46054 595.77535 0.22472
12064 50.02560 598.78951 593.25420 0.22538
12065 50.02920 598.14681 595.74123 0.22427
12066 50.03280 597.53277 597.80805 0.22352
12067 50.03640 596.94779 597.75301 0.22334
12068 50.04000 596.39236 596.20775 0.22420
12069 50.04360 595.86718 595.38364 0.22449
12070 50.04720 595.37317 593.46521 0.22532
12071 50.05080 594.91156 593.41695 0.22526
12072 50.05440 594.48392 592.26239 0.22576
12073 50.05800 594.09221 597.85292 0.22379
12074 50.06160 593.73878 598.02877 0.22382
12075 50.06520 593.42646 595.78234 0.22462
12076 50.06880 593.15849 592.73975 0.22540
12077 50.07240 592.93499 594.24696 0.22498
12078 50.07600 592.75711 593.25941 0.22558
12079 50.07960 592.62122 591.61461 0.22606
12080 50.08320 592.51727 594.91035 0.22470
12081 50.08680 592.42622 593.84794 0.22500
12082 50.09040 592.31971 594.19780 0.22472
12083 50.09400 592.16485 594.52960 0.22488
12084 50.09760 591.93387 591.87975 0.22616
12085 50.10120 591.61793 591.04586 0.22650
12086 50.10480 591.23086 590.79392 0.22654
12087 50.10840 590.80328 590.70007 0.22612
12088 50.11200 590.37028 592.26477 0.22570
12089 50.11560 589.96165 587.70872 0.22738
12090 50.11920 589.59804 594.87502 0.22470
12091 50.12280 589.29199 593.92933 0.22506
12092 50.12640 589.05062 593.35848 0.22538
12093 50.13000 588.87829 595.27873 0.22448
12094 50.13360 588.77828 594.55481 0.22480
12095 50.13720 588.75354 594.62667 0.22501
12096 50.14080 588.80617 596.46655 0.22436
12097 50.14440 588.93595 595.36030 0.22493
12098 50.14800 589.13719 595.91018 0.22439
12099 50.15160 589.39378 593.27511 0.22542
12100 50.15520 589.67359 592.36978 0.22586
12101 50.15880 589.92500 596.49083 0.22426
12102 50.16240 590.08117 592.13033 0.22591
12103 50.16600 590.07673 592.96580 0.22543
12104 50.16960 589.87273 592.14489 0.22553
12105 50.17320 589.47481 590.64847 0.22640
12106 50.17680 588.92994 589.87932 0.22699
12107 50.18040 588.30450 592.49205 0.22583
12108 50.18400 587.66039 592.45819 0.22608
12109 50.18760 587.04181 588.12249 0.22723
12110 50.19120 586.47366 587.93039 0.22725
12111 50.19480 585.96599 584.92808 0.22862
12112 50.19840 585.51963 586.84587 0.22780
12113 50.20200 585.13060 587.15866 0.22764
12114 50.20560 584.79298 582.95583 0.22941
12115 50.20920 584.50043 585.70061 0.22816
12116 50.21280 584.24703 585.86645 0.22807
12117 50.21640 584.02757 586.99451 0.22791
12118 50.22000 583.83765 583.61145 0.22934
12119 50.22360 583.67363 584.80479 0.22895
12120 50.22720 583.53254 582.46155 0.22976
12121 50.23080 583.41207 580.63921 0.23046
12122 50.23440 583.31039 582.41210 0.22966
12123 50.23800 583.22617 582.74143 0.22954
12124 50.24160 583.15847 583.70599 0.22910
12125 50.24520 583.10674 584.94895 0.22856
12126 50.24880 583.07076 583.71665 0.22881
12127 50.25240 583.05067 581.35029 0.22992
12128 50.25600 583.04695 578.22260 0.23138
12129 50.25960 583.06038 580.50903 0.23052
12130 50.26320 583.09208 582.21806 0.23001
12131 50.26680 583.14344 582.79382 0.22948
12132 50.27040 583.21597 585.39630 0.22841
12133 50.27400 583.31105 583.75608 0.22919
12134 50.27760 583.42941 582.52863 0.22958
12135 50.28120 583.57022 586.08735 0.22814
12136 50.28480 583.72975 584.10414 0.22888
12137 50.28840 583.89994 580.77667 0.23009
12138 50.29200 584.06756 579.06054 0.23083
12139 50.29560 584.21560 579.30648 0.23097
12140 50.29920 584.32801 581.48446 0.23024
12141 50.30280 584.39644 583.86378 0.22913
12142 50.30640 584.42477 581.37843 0.23013
12143 50.31000 584.42756 579.73039 0.23093
12144 50.31360 584.42564 579.99630 0.23073
12145 50.31720 584.43744 578.93204 0.23106
12146 50.32080 584.47734 579.19352 0.23104
12147 50.32440 584.55487 578.76829 0.23103
12148 50.32800 584.67574 579.34243 0.23078
12149 50.33160 584.84275 575.92320 0.23218
12150 50.33520 585.05593 575.61729 0.23247
12151 50.33880 585.31154 579.23784 0.23112
12152 50.34240 585.59986 579.08608 0.23128
12153 50.34600 585.90271 582.24635 0.22995
12154 50.34960 586.19228 579.47816 0.23080
12155 50.35320 586.43425 575.26022 0.23264
12156 50.35680 586.59716 577.10084 0.23188
12157 50.36040 586.66493 575.90951 0.23222
12158 50.36400 586.64429 576.36766 0.23183
12159 50.36760 586.56122 577.43721 0.23151
12160 50.37120 586.44923 576.97019 0.23170
12161 50.37480 586.33804 575.01938 0.23275
12162 50.37840 586.24817 577.07345 0.23222
12163 50.38200 586.19079 579.30579 0.23093
12164 50.38560 586.17024 575.43396 0.23259
12165 50.38920 586.18673 576.48422 0.23217
12166 50.39280 586.23839 576.97514 0.23197
12167 50.39640 586.32261 576.93262 0.23184
12168 50.40000 586.43668 579.05324 0.23118
12169 50.40360 586.57820 577.28730 0.23179
12170 50.40720 586.74515 576.81629 0.23182
12171 50.41080 586.93595 575.27845 0.23235
12172 50.41440 587.14945 577.76324 0.23167
12173 50.41800 587.38486 579.10089 0.23113
12174 50.42160 587.64173 576.39247 0.23209
12175 50.42520 587.91992 574.18484 0.23315
12176 50.42880 588.21953 576.73861 0.23165
12177 50.43240 588.54174 580.14181 0.23057
12178 50.43600 588.89491 579.23521 0.23108
12179 50.43960 589.26183 582.38788 0.22962
12180 50.44320 589.65258 578.49748 0.23104
12181 50.44680 590.06838 577.61677 0.23140
12182 50.45040 590.51045 580.19323 0.23045
12183 50.45400 590.98011 578.65529 0.23124
12184 50.45760 591.47877 578.85041 0.23155
12185 50.46120 592.00779 574.44439 0.23299
12186 50.46480 592.56837 579.05127 0.23115
12187 50.46840 593.16129 581.64033 0.23017
12188 50.47200 593.78665 576.45044 0.23221
12189 50.47560 594.44349 582.16906 0.22969
12190 50.47920 595.12977 579.86892 0.23080
12191 50.48280 595.84280 577.64976 0.23167
12192 50.48640 596.58023 578.61717 0.23126
12193 50.49000 597.34122 577.42899 0.23146
12194 50.49360 598.12725 580.37804 0.23056
12195 50.49720 598.94240 582.37654 0.22980
12196 50.50080 599.78352 583.08239 0.22963
12197 50.50440 600.65389 579.94652 0.23118
12198 50.50800 601.55211 578.32765 0.23144
12199 50.51160 602.47469 581.10715 0.23075
12200 50.51520 603.41607 583.98335 0.23016
12201 50.51880 604.36829 582.76940 0.23098
12202 50.52240 605.32046 583.46004 0.23165
12203 50.52600 606.25757 590.29744 0.23100
12204 50.52960 607.15908 588.20635 0.23255
12205 50.53320 607.99776 588.03105 0.19909
12206 50.53680 608.74036 588.04921 0.19943
12207 50.54040 609.35184 588.79951 0.19898
12208 50.54400 609.80332 590.21468 0.19831
12209 50.54760 610.08595 592.28851 0.19777
12210 50.55120 610.19011 593.98693 0.19724
12211 50.55480 610.13541 594.54867 0.19677
12212 50.55840 609.94093 594.53056 0.19694
12213 50.56200 609.62456 593.46867 0.19744
12214 50.56560 609.20142 594.82252 0.19690
12215 50.56920 608.68445 595.82949 0.19626
12216 50.57280 608.08570 591.72436 0.19779
12217 50.57640 607.41737 588.64125 0.19890
12218 50.58000 606.69226 589.59842 0.19848
12219 50.58360 605.92369 588.28646 0.19943
12220 50.58720 605.12999 588.50202 0.19906
12221 50.59080 604.31480 583.34849 0.20099
12222 50.59440 603.49495 581.45041 0.20222
12223 50.59800 602.68169 586.20308 0.20093
12224 50.60160 601.88143 586.53520 0.20173
12225 50.60520 601.09413 585.53981 0.20378
12226 50.60880 600.31832 583.94124 0.20735
12227 50.61240 599.54555 581.83297 0.17838
12228 50.61600 598.76505 581.09664 0.17295
12229 50.61960 597.96929 583.52636 0.17224
12230 50.62320 597.15904 585.64402 0.17121
12231 50.62680 596.34450 583.67691 0.17202
12232 50.63040 595.54124 579.91995 0.17327
12233 50.63400 594.76572 577.68535 0.17358
12234 50.63760 594.03002 576.23762 0.17409
12235 50.64120 593.34185 578.01033 0.17374
12236 50.64480 592.70506 577.38003 0.17390
12237 50.64840 592.12101 579.92195 0.17293
12238 50.65200 591.58927 577.80843 0.17355
12239 50.65560 591.10932 578.75779 0.17338
12240 50.65920 590.67910 578.91023 0.17315
12241 50.66280 590.29508 579.57934 0.17332
12242 50.66640 589.95126 579.43475 0.17339
12243 50.67000 589.63768 580.57421 0.17312
12244 50.67360 589.33966 576.25756 0.17502
12245 50.67720 589.03888 578.83881 0.17452
12246 50.68080 588.71758 579.11897 0.17512
12247 50.68440 588.36481 577.73064 0.17723
12248 50.68800 587.98086 577.37211 0.18023
12249 50.69160 587.57642 576.13755 0.15741
12250 50.69520 587.16707 574.80827 0.14556
12251 50.69880 586.77063 578.11084 0.14490
12252 50.70240 586.39252 580.16407 0.14402
12253 50.70600 586.03782 579.55611 0.14430
12254 50.70960 585.71014 576.45309 0.14533
12255 50.71320 585.40898 578.74049 0.14445
12256 50.71680 585.13272 576.82555 0.14545
12257 50.72040 584.87926 577.00855 0.17920
12258 50.72400 584.64648 573.90555 0.17892
12259 50.72760 584.43235 577.18018 0.17616
12260 50.73120 584.23508 575.36443 0.17573
12261 50.73480 584.05311 574.36004 0.17563
12262 50.73840 583.88534 579.43860 0.17346
12263 50.74200 583.73012 579.02859 0.17353
12264 50.74560 583.58879 577.81223 0.17393
12265 50.74920 583.45733 576.17219 0.17454
12266 50.75280 583.33528 578.21058 0.17430
12267 50.75640 583.22295 580.72037 0.17392
12268 50.76000 583.11987 577.57928 0.17538
12269 50.76360 583.02564 576.65129 0.17708
12270 50.76720 582.93995 574.60834 0.18024
12271 50.77080 582.86258 574.70072 0.16511
12272 50.77440 582.79336 577.12809 0.14491
12273 50.77800 582.73221 577.08258 0.14518
12274 50.78160 582.67908 577.50390 0.14476
12275 50.78520 582.63400 576.98212 0.14468
12276 50.78880 582.59699 582.26166 0.14373
12277 50.79240 582.56804 578.21861 0.14467
12278 50.79600 582.54704 579.46439 0.14417
12279 50.79960 582.53367 578.71439 0.17109
12280 50.80320 582.52845 583.32217 0.17649
12281 50.80680 582.52777 583.75005 0.17466
12282 50.81040 582.53081 582.50824 0.17375
12283 50.81400 582.53477 579.63099 0.17398
12284 50.81760 582.53648 580.51246 0.17322
12285 50.82120 582.53339 579.55512 0.17324
12286 50.82480 582.52470 580.84215 0.17302
12287 50.82840 582.48731 577.71287 0.17388
12288 50.83200 582.47297 580.17147 0.17361
12289 50.83560 582.46035 583.06569 0.17313
12290 50.83920 582.45201 584.25609 0.17323
12291 50.84280 582.44955 587.24250 0.17356
12292 50.84640 582.45375 587.52733 0.17556
12293 50.85000 582.46481 582.45467 0.17053
12294 50.85360 582.48260 581.36029 0.14368
12295 50.85720 582.50685 583.22485 0.14361
12296 50.86080 582.53902 582.39736 0.14354
12297 50.86440 582.57522 584.92854 0.14264
12298 50.86800 582.61694 588.85508 0.14186
12299 50.87160 582.66393 583.69653 0.14326
12300 50.87520 582.71598 582.22182 0.14347
12301 50.87880 582.77292 581.10028 0.16407
12302 50.88240 582.83461 580.58059 0.17765
12303 50.88600 582.90094 579.88700 0.17606
12304 50.88960 582.97180 581.77560 0.17401
12305 50.89320 583.04714 580.87253 0.17366
12306 50.89680 583.12690 577.48864 0.17429
12307 50.90040 583.21268 575.41704 0.17506
12308 50.90400 583.30117 576.15048 0.14916
12309 50.90760 583.39397 577.42892 0.16937
12310 50.91120 583.48992 578.26969 0.17408
12311 50.91480 583.58951 574.40483 0.17547
12312 50.91840 583.69522 574.56401 0.17575
12313 50.92200 583.80522 575.57444 0.17630
12314 50.92560 583.91950 575.98880 0.17792
12315 50.92920 584.03917 576.50937 0.18121
12316 50.93280 584.16205 573.66379 0.14909
12317 50.93640 584.28924 577.45727 0.14497
12318 50.94000 584.42074 575.35841 0.14538
12319 50.94360 584.55823 574.72698 0.14547
12320 50.94720 584.69838 575.62587 0.14521
12321 50.95080 584.84287 579.46600 0.14410
12322 50.95440 584.99169 583.72976 0.14305
12323 50.95800 585.14487 578.94003 0.15763
12324 50.96160 585.30239 576.41141 0.17941
12325 50.96520 585.46425 575.84975 0.17748
12326 50.96880 585.63046 576.62515 0.17568
12327 50.97240 585.80100 578.68798 0.17427
12328 50.97600 585.97586 578.31618 0.17412
12329 50.97960 586.15503 579.76668 0.17349
12330 50.98320 586.33358 579.45826 0.15464
12331 50.98680 586.52238 577.89221 0.16262
12332 50.99040 586.71435 577.28114 0.17446
12333 50.99400 586.91051 582.07230 0.17305
12334 50.99760 587.11078 573.58496 0.17595
12335 51.00120 587.31512 573.40456 0.17674
12336 51.00480 587.52345 575.75073 0.17765
12337 51.00840 587.73571 575.43550 0.18069
12338 51.01200 587.95179 578.18629 0.15569
12339 51.01560 588.17160 574.67368 0.14547
12340 51.01920 588.39502 577.90073 0.14463
12341 51.02280 588.62193 575.78096 0.14524
12342 51.02640 588.85219 571.88781 0.14610
12343 51.03000 589.08564 578.72583 0.14419
12344 51.03360 589.32211 579.78672 0.14394
12345 51.03720 589.56142 580.12556 0.14980
12346 51.04080 589.80335 580.84245 0.17855
12347 51.04440 590.04769 577.81646 0.17720
12348 51.04800 590.29420 577.72164 0.17553
12349 51.05160 590.54260 580.66306 0.17384
12350 51.05520 590.79263 579.61742 0.17372
12351 51.05880 591.04397 577.00412 0.17437
12352 51.06240 591.29631 580.64790 0.15949
12353 51.06600 591.54928 578.22372 0.15739
12354 51.06960 591.80253 577.86452 0.17434
12355 51.07320 592.05566 579.57348 0.17385
12356 51.07680 592.30825 575.87653 0.17526
12357 51.08040 592.55986 580.68627 0.17434
12358 51.08400 592.81003 579.37775 0.17608
12359 51.08760 593.05828 580.15357 0.17845
12360 51.09120 593.30411 583.06815 0.16325
12361 51.09480 593.54932 582.18829 0.14334
12362 51.09840 593.80000 583.79628 0.14299
12363 51.10200 594.03535 583.11816 0.14327
12364 51.10560 594.26606 581.40485 0.14365
12365 51.10920 594.49157 579.48109 0.14382
12366 51.11280 594.71126 583.98233 0.14267
12367 51.11640 594.92306 584.37841 0.14279
12368 51.12000 595.13127 585.45533 0.17101
12369 51.12360 595.33008 580.22896 0.17698
12370 51.12720 595.52073 583.56995 0.17397
12371 51.13080 595.70272 582.13892 0.17352
12372 51.13440 595.87554 582.45987 0.17297
12373 51.13800 596.03873 581.51555 0.17281
12374 51.14160 596.19188 583.44876 0.16429
12375 51.14520 596.33465 582.20949 0.14994
12376 51.14880 596.46678 581.36108 0.17288
12377 51.15240 596.58809 582.46341 0.17231
12378 51.15600 596.69853 584.51508 0.17148
12379 51.15960 596.79816 584.70351 0.17135
12380 51.16320 596.88718 584.14679 0.17140
12381 51.16680 596.96598 584.31716 0.17129
12382 51.17040 597.03523 581.10315 0.17232
12383 51.17400 597.09276 583.01423 0.17155
12384 51.17760 597.14524 583.39587 0.17163
12385 51.18120 597.19126 585.04370 0.17125
12386 51.18480 597.23251 589.24479 0.17001
12387 51.18840 597.27108 588.11305 0.17006
12388 51.19200 597.30955 590.09360 0.16937
12389 51.19560 597.35106 590.92535 0.16940
12390 51.19920 597.39941 592.08603 0.18974
12391 51.20280 597.45913 593.30696 0.20181
12392 51.20640 597.53563 593.81724 0.19956
12393 51.21000 597.63538 592.79511 0.19873
12394 51.21360 597.76541 593.38545 0.19807
12395 51.21720 597.93360 593.47642 0.19746
12396 51.22080 598.14811 597.80721 0.19433
12397 51.22440 598.41587 596.92071 0.16830
12398 51.22800 598.74026 597.85143 0.19595
12399 51.23160 599.11698 595.92348 0.19641
12400 51.23520 599.52823 601.89378 0.19422
12401 51.23880 599.93618 604.94148 0.19331
12402 51.24240 600.27994 604.35995 0.19320
12403 51.24600 600.48234 603.74454 0.19346
12404 51.24960 600.47131 607.45102 0.19234
12405 51.25320 600.20906 603.97108 0.19317
12406 51.25680 599.71067 606.87981 0.19243
12407 51.26040 599.03704 607.67773 0.19224
12408 51.26400 598.26817 604.68283 0.19326
12409 51.26760 597.47632 603.34807 0.19362
12410 51.27120 596.71233 604.96287 0.19273
12411 51.27480 596.00477 605.27090 0.19293
12412 51.27840 595.36550 602.43611 0.20588
12413 51.28200 594.79619 598.91507 0.22841
12414 51.28560 594.29325 599.58712 0.22602
12415 51.28920 593.85110 594.06717 0.22677
12416 51.29280 593.46386 592.17103 0.22685
12417 51.29640 593.12632 591.91558 0.22636
12418 51.30000 592.83432 596.17569 0.22465
12419 51.30360 592.58458 595.24900 0.20435
12420 51.30720 592.37590 590.24449 0.21747
12421 51.31080 592.20741 591.00802 0.22644
12422 51.31440 592.07976 593.03499 0.22540
12423 51.31800 591.99477 591.72777 0.22591
12424 51.32160 591.95551 593.69454 0.22483
12425 51.32520 591.96626 590.15441 0.22629
12426 51.32880 592.03245 593.90541 0.22481
12427 51.33240 592.16040 594.23278 0.22460
12428 51.33600 592.35761 596.73912 0.22362
12429 51.33960 592.62796 597.13089 0.22363
12430 51.34320 592.97455 594.66472 0.22467
12431 51.34680 593.39225 599.44369 0.22296
12432 51.35040 593.86303 602.12083 0.22150
12433 51.35400 594.35031 604.44651 0.22075
12434 51.35760 594.79719 604.19332 0.22081
12435 51.36120 595.13308 604.58929 0.22077
12436 51.36480 595.30194 605.90684 0.22047
12437 51.36840 595.27821 606.41502 0.22035
12438 51.37200 595.08741 606.44615 0.22036
12439 51.37560 594.79377 609.23118 0.21925
12440 51.37920 594.47352 607.71679 0.21997
12441 51.38280 594.18977 605.98507 0.20668
12442 51.38640 593.97881 609.23615 0.20450
12443 51.39000 593.84622 609.77914 0.21928
12444 51.39360 593.76794 608.97072 0.21952
12445 51.39720 593.69531 608.59168 0.21959
12446 51.40080 593.56687 604.91747 0.22069
12447 51.40440 593.32870 606.82605 0.22018
12448 51.40800 592.95611 609.50336 0.21907
12449 51.41160 592.46852 608.00078 0.21972
12450 51.41520 591.89881 605.29949 0.22043
12451 51.41880 591.30371 603.40308 0.22116
12452 51.42240 590.72686 604.53207 0.22104
12453 51.42600 590.19615 603.55616 0.22152
12454 51.42960 589.72497 599.61502 0.22253
12455 51.43320 589.31641 600.03759 0.22222
12456 51.43680 588.96692 594.88012 0.22433
12457 51.44040 588.67333 595.75860 0.22403
12458 51.44400 588.42826 593.51270 0.22510
12459 51.44760 588.22565 590.67882 0.22613
12460 51.45120 588.06004 593.93316 0.22507
12461 51.45480 587.92671 592.98182 0.22547
12462 51.45840 587.82170 589.98458 0.22665
12463 51.46200 587.74176 589.18348 0.21977
12464 51.46560 587.68422 592.80767 0.20301
12465 51.46920 587.64693 587.04249 0.22795
12466 51.47280 587.62821 588.63656 0.22709
12467 51.47640 587.62673 589.17457 0.22685
12468 51.48000 587.64148 590.12084 0.22629
12469 51.48360 587.67177 588.61902 0.22687
12470 51.48720 587.71712 587.34768 0.22745
12471 51.49080 587.77730 588.02943 0.22731
12472 51.49440 587.85231 586.31722 0.22765
12473 51.49800 587.94103 588.34125 0.22685
12474 51.50160 588.04648 588.56697 0.22710
12475 51.50520 588.16820 590.77112 0.22633
12476 51.50880 588.30707 587.56293 0.22729
12477 51.51240 588.46435 586.58573 0.22733
12478 51.51600 588.64169 591.43875 0.22572
12479 51.51960 588.84111 588.73987 0.22683
12480 51.52320 589.06503 590.55924 0.22634
12481 51.52680 589.31635 595.59333 0.22438
12482 51.53040 589.59829 594.61564 0.22486
12483 51.53400 589.91424 593.75331 0.22533
12484 51.53760 590.26727 596.16419 0.22424
12485 51.54120 590.65915 595.65403 0.22413
12486 51.54480 591.08877 595.79332 0.22397
12487 51.54840 591.54964 598.12095 0.22324
12488 51.55200 592.02705 598.30692 0.22323
12489 51.55560 592.49623 596.71847 0.22390
12490 51.55920 592.92426 596.69045 0.22388
12491 51.56280 593.27826 596.72169 0.22382
12492 51.56640 593.53806 594.24839 0.22512
12493 51.57000 593.70608 593.89545 0.22489
12494 51.57360 593.80661 588.20459 0.22703
12495 51.57720 593.87520 590.00451 0.22614
12496 51.58080 593.94623 593.33316 0.22531
12497 51.58440 594.04551 593.09402 0.22552
12498 51.58800 594.18896 593.32179 0.22526
12499 51.59160 594.34783 590.39655 0.22612
12500 51.59520 594.59601 590.96171 0.22597
12501 51.59880 594.90074 591.28064 0.22586
12502 51.60240 595.25624 594.44935 0.22495
12503 51.60600 595.65632 593.17105 0.22544
12504 51.60960 596.09128 591.15208 0.22639
12505 51.61320 596.54789 591.49375 0.22630
12506 51.61680 597.01106 588.61688 0.22726
12507 51.62040 597.46810 591.20545 0.22616
12508 51.62400 597.91388 590.34510 0.22621
12509 51.62760 598.35322 590.53040 0.22616
12510 51.63120 598.79889 592.11781 0.22553
12511 51.63480 599.26655 590.35853 0.22653
12512 51.63840 599.77008 594.27733 0.22504
12513 51.64200 600.32068 592.79607 0.22554
12514 51.64560 600.92530 593.15604 0.22566
12515 51.64920 601.58866 594.45958 0.22487
12516 51.65280 602.31368 594.09132 0.22513
12517 51.65640 603.10166 595.44005 0.22424
12518 51.66000 603.95167 593.33185 0.22539
12519 51.66360 604.85920 594.27313 0.22512
12520 51.66720 605.81467 595.75857 0.22465
12521 51.67080 606.80283 596.69746 0.22399
12522 51.67440 607.80500 597.86117 0.22349
12523 51.67800 608.80508 600.32786 0.22268
12524 51.68160 609.79725 598.05948 0.22380
12525 51.68520 610.79032 597.36151 0.22387
12526 51.68880 611.80497 599.12886 0.22364
12527 51.69240 612.86602 600.88480 0.22294
12528 51.69600 613.99482 599.86814 0.22316
12529 51.69960 615.20477 602.71840 0.22219
12530 51.70320 616.49980 601.74412 0.22237
12531 51.70680 617.87434 604.69415 0.22113
12532 51.71040 619.31432 604.71324 0.22105
12533 51.71400 620.80179 602.63916 0.22210
12534 51.71760 622.32124 603.69631 0.22163
12535 51.72120 623.86524 605.77022 0.22092
12536 51.72480 625.43871 606.98696 0.22064
12537 51.72840 627.05436 606.05626 0.22084
12538 51.73200 628.72452 609.90951 0.21959
12539 51.73560 630.45399 611.17561 0.21882
12540 51.73920 632.23694 610.14581 0.21940
12541 51.74280 634.05824 610.59579 0.21924
12542 51.74640 635.89839 610.35086 0.21947
12543 51.75000 637.73943 610.94479 0.21897
12544 51.75360 639.56850 609.39734 0.21957
12545 51.75720 641.37692 610.87774 0.21883
12546 51.76080 643.15613 612.61648 0.21865
12547 51.76440 644.89386 614.95338 0.21762
12548 51.76800 646.57251 615.22841 0.21796
12549 51.77160 648.16963 609.84040 0.21977
12550 51.77520 649.65938 616.56568 0.21726
12551 51.77880 651.01401 623.71096 0.21480
12552 51.78240 652.20485 618.69505 0.21659
12553 51.78600 653.20274 618.70985 0.21636
12554 51.78960 653.97771 618.83426 0.21600
12555 51.79320 654.49887 620.49832 0.21555
12556 51.79680 654.73560 622.97404 0.21469
12557 51.80040 654.66190 627.44827 0.21333
12558 51.80400 654.26359 626.92551 0.21354
12559 51.80760 653.54493 623.06397 0.21487
12560 51.81120 652.52962 624.89921 0.21429
12561 51.81480 651.25503 623.61211 0.21455
12562 51.81840 649.76384 621.55234 0.21544
12563 51.82200 648.09691 622.43378 0.21509
12564 51.82560 646.29133 622.39588 0.21523
12565 51.82920 644.38082 616.03845 0.21737
12566 51.83280 642.39080 613.78280 0.21818
12567 51.83640 640.34845 616.65828 0.21691
12568 51.84000 638.27648 613.15930 0.21826
12569 51.84360 636.19501 611.33755 0.21875
12570 51.84720 634.12160 611.46944 0.21911
12571 51.85080 632.07133 611.03496 0.21922
12572 51.85440 630.05685 609.64810 0.21967
12573 51.85800 628.08853 609.04705 0.21982
12574 51.86160 626.17461 610.06707 0.21971
12575 51.86520 624.32146 607.07923 0.22056
12576 51.86880 622.53379 605.35220 0.22084
12577 51.87240 620.81489 603.56578 0.22158
12578 51.87600 619.16690 605.10045 0.22090
12579 51.87960 617.59104 605.58714 0.22103
12580 51.88320 616.08779 600.34699 0.22301
12581 51.88680 614.65716 602.26562 0.22242
12582 51.89040 613.29879 599.44652 0.22338
12583 51.89400 612.01217 598.17229 0.22371
12584 51.89760 610.79673 598.23143 0.22384
12585 51.90120 609.65198 594.98078 0.22501
12586 51.90480 608.57749 598.43944 0.22377
12587 51.90840 607.57290 597.52376 0.22396
12588 51.91200 606.63766 599.30851 0.22349
12589 51.91560 605.77053 600.07205 0.22297
12590 51.91920 604.96863 599.46507 0.22311
12591 51.92280 604.22599 599.14823 0.22328
12592 51.92640 603.53175 599.58349 0.22331
12593 51.93000 602.86871 597.39310 0.22422
12594 51.93360 602.21401 596.49617 0.22469
12595 51.93720 601.54353 600.40698 0.22288
12596 51.94080 600.83980 595.87789 0.22481
12597 51.94440 600.09910 596.52821 0.22463
12598 51.94800 599.33245 594.09608 0.22528
12599 51.95160 598.55972 595.04019 0.22484
12600 51.95520 597.80138 595.91326 0.22433
12601 51.95880 597.07301 594.00745 0.22531
12602 51.96240 596.38375 595.47779 0.22498
12603 51.96600 595.73729 596.15432 0.22482
12604 51.96960 595.13367 594.71536 0.22517
12605 51.97320 594.57080 594.72595 0.22509
12606 51.97680 594.04536 597.38459 0.22421
12607 51.98040 593.55335 593.66941 0.22547
12608 51.98400 593.09044 591.95572 0.22624
12609 51.98760 592.65233 591.82513 0.22616
12610 51.99120 592.23548 592.83006 0.22585
12611 51.99480 591.83766 590.07925 0.22691
12612 51.99840 591.45810 591.00249 0.22627
12613 52.00200 591.09709 595.67807 0.22446
12614 52.00560 590.75520 591.21710 0.22645
12615 52.00920 590.43267 589.95291 0.22731
12616 52.01280 590.12896 593.20063 0.22597
12617 52.01640 589.84261 590.91085 0.22665
12618 52.02000 589.57112 592.02367 0.22611
12619 52.02360 589.31102 587.07065 0.22837
12620 52.02720 589.05851 590.75465 0.22674
12621 52.03080 588.81038 592.87120 0.22571
12622 52.03440 588.56517 591.21671 0.22608
12623 52.03800 588.32433 591.50385 0.22624
12624 52.04160 588.08912 592.19425 0.22622
12625 52.04520 587.86129 590.52366 0.22695
12626 52.04880 587.64362 591.05236 0.22666
12627 52.05240 587.43725 591.35076 0.22635
12628 52.05600 587.24258 592.38545 0.22604
12629 52.05960 587.05949 593.20731 0.22570
12630 52.06320 586.88751 590.73974 0.22668
12631 52.06680 586.72601 592.78435 0.22597
12632 52.07040 586.56762 589.63265 0.22701
12633 52.07400 586.42504 589.08720 0.22743
12634 52.07760 586.29096 588.54934 0.22728
12635 52.08120 586.16496 593.66703 0.22530
12636 52.08480 586.04676 591.96299 0.22612
12637 52.08840 585.93618 591.81657 0.22660
12638 52.09200 585.83309 589.04869 0.22741
12639 52.09560 585.73734 590.18623 0.22686
12640 52.09920 585.64876 587.52539 0.22764
12641 52.10280 585.56721 589.44459 0.22740
12642 52.10640 585.49249 591.45914 0.22655
12643 52.11000 585.42446 589.23832 0.22711
12644 52.11360 585.36295 587.13695 0.22774
12645 52.11720 585.30783 583.18158 0.22942
12646 52.12080 585.25897 585.34514 0.22893
12647 52.12440 585.21628 586.64009 0.22846
12648 52.12800 585.17964 587.20966 0.22815
12649 52.13160 585.14898 583.73288 0.22937
12650 52.13520 585.12422 584.45761 0.22899
12651 52.13880 585.10529 583.38594 0.22952
12652 52.14240 585.09216 584.00847 0.22916
12653 52.14600 585.08476 583.65677 0.22954
12654 52.14960 585.08307 586.38410 0.22826
12655 52.15320 585.08704 585.50973 0.22895
12656 52.15680 585.09666 584.34277 0.22890
12657 52.16040 585.11192 587.15131 0.22772
12658 52.16400 585.13317 587.90077 0.22757
12659 52.16760 585.15965 586.39478 0.22857
12660 52.17120 585.19737 583.86789 0.22957
12661 52.17480 585.23511 586.14920 0.22849
12662 52.17840 585.27847 584.10239 0.22895
12663 52.18200 585.32746 581.49738 0.23046
12664 52.18560 585.37601 585.24661 0.22907
12665 52.18920 585.43635 583.23134 0.22963
12666 52.19280 585.50238 584.96920 0.22887
12667 52.19640 585.57410 586.74483 0.22812
12668 52.20000 585.65156 585.69753 0.22886
12669 52.20360 585.73477 584.99838 0.22921
12670 52.20720 585.82376 586.96561 0.22839
12671 52.21080 585.91856 588.08760 0.22787
12672 52.21440 586.01920 585.42257 0.22859
12673 52.21800 586.12713 584.55513 0.22923
12674 52.22160 586.25274 585.06892 0.22881
12675 52.22520 586.36016 586.49093 0.22836
12676 52.22880 586.49970 585.11982 0.22886
12677 52.23240 586.63931 586.65959 0.22851
12678 52.23600 586.78469 587.13855 0.22796
12679 52.23960 586.92716 587.41697 0.22770
12680 52.24320 587.07563 588.53273 0.22727
12681 52.24680 587.23012 583.72482 0.22952
12682 52.25040 587.39062 585.41369 0.22879
12683 52.25400 587.55712 584.86848 0.22911
12684 52.25760 587.72959 585.75030 0.22828
12685 52.26120 587.90800 590.23519 0.22690
12686 52.26480 588.09231 588.65860 0.22784
12687 52.26840 588.28234 585.76328 0.22870
12688 52.27200 588.47635 583.83533 0.22943
12689 52.27560 588.67794 588.02829 0.22745
12690 52.27920 588.88510 592.22110 0.22630
12691 52.28280 589.09769 590.92283 0.22686
12692 52.28640 589.31556 590.41974 0.22706
12693 52.29000 589.53904 590.09828 0.22719
12694 52.29360 589.76693 588.40224 0.22742
12695 52.29720 589.99944 590.31141 0.22694
12696 52.30080 590.23635 590.81567 0.22666
12697 52.30440 590.47734 588.79103 0.22736
12698 52.30800 590.72208 586.45327 0.22823
12699 52.31160 590.97020 589.26116 0.22736
12700 52.31520 591.22127 592.94414 0.22586
12701 52.31880 591.47483 589.90773 0.22673
12702 52.32240 591.73038 586.38298 0.22792
12703 52.32600 591.98735 592.40908 0.22611
12704 52.32960 592.24514 594.70636 0.22525
12705 52.33320 592.50310 593.63931 0.22568
12706 52.33680 592.76051 592.33530 0.22598
12707 52.34040 593.01812 591.24563 0.22617
12708 52.34400 593.27217 597.00436 0.22444
12709 52.34760 593.50574 597.01780 0.22438
12710 52.35120 593.75287 596.51012 0.22456
12711 52.35480 593.99515 593.95243 0.22514
12712 52.35840 594.23159 593.34802 0.22569
12713 52.36200 594.46116 589.55553 0.22738
12714 52.36560 594.68280 593.17442 0.22602
12715 52.36920 594.89540 596.68134 0.22471
12716 52.37280 595.09787 593.93503 0.22525
12717 52.37640 595.28908 596.86524 0.22426
12718 52.38000 595.46792 595.52031 0.22481
12719 52.38360 595.63126 598.38706 0.22358
12720 52.38720 595.78122 597.29548 0.22413
12721 52.39080 595.91652 597.08690 0.22435
12722 52.39440 596.03528 596.49757 0.22457
12723 52.39800 596.13659 598.92391 0.22354
12724 52.40160 596.21962 599.01136 0.22320
12725 52.40520 596.28362 595.98362 0.22471
12726 52.40880 596.32797 599.34458 0.22360
12727 52.41240 596.35212 599.24104 0.22356
12728 52.41600 596.35570 599.96480 0.22311
12729 52.41960 596.33841 599.47193 0.22307
12730 52.42320 596.30013 598.93052 0.22353
12731 52.42680 596.24084 595.06951 0.22509
12732 52.43040 596.16069 596.17382 0.22471
12733 52.43400 596.05995 596.41725 0.22433
12734 52.43760 595.93901 594.62216 0.22510
12735 52.44120 595.79780 593.19003 0.22588
12736 52.44480 595.63820 595.44811 0.22527
12737 52.44840 595.46032 596.38500 0.22480
12738 52.45200 595.26514 595.31669 0.22491
12739 52.45560 595.05414 594.50909 0.22508
12740 52.45920 594.83701 595.99023 0.22462
12741 52.46280 594.59536 595.58141 0.22466
12742 52.46640 594.34039 595.29291 0.22490
12743 52.47000 594.07325 591.66839 0.22634
12744 52.47360 593.79516 590.56093 0.22681
12745 52.47720 593.50716 590.76542 0.22663
12746 52.48080 593.21043 594.07068 0.22516
12747 52.48440 592.90613 589.94536 0.22706
12748 52.48800 592.59538 590.06482 0.22712
12749 52.49160 592.27927 590.83084 0.22687
12750 52.49520 591.95884 588.68326 0.22761
12751 52.49880 591.63341 586.83975 0.22811
12752 52.50240 591.30720 590.26331 0.22685
12753 52.50600 590.97211 588.95864 0.22746
12754 52.50960 590.64345 586.93128 0.22833
12755 52.51320 590.31544 586.84655 0.22817
12756 52.51680 589.98833 587.91138 0.22775
12757 52.52040 589.66281 584.13328 0.22947
12758 52.52400 589.34392 585.92531 0.22882
12759 52.52760 589.02343 585.01361 0.22923
12760 52.53120 588.70626 583.34641 0.22971
12761 52.53480 588.39291 586.41264 0.22813
12762 52.53840 588.08228 586.57008 0.22827
12763 52.54200 587.77777 586.80295 0.22819
12764 52.54560 587.47841 585.78363 0.22850
12765 52.54920 587.17181 584.82266 0.22895
12766 52.55280 586.88274 585.90578 0.22855
12767 52.55640 586.60051 583.13407 0.22957
12768 52.56000 586.32459 586.01268 0.22844
12769 52.56360 586.05526 588.11918 0.22782
12770 52.56720 585.79180 581.33078 0.23043
12771 52.57080 585.53648 582.52288 0.23007
12772 52.57440 585.28875 581.35784 0.23043
12773 52.57800 585.04892 582.52511 0.22996
12774 52.58160 584.81739 583.72951 0.22960
12775 52.58520 584.59467 581.20154 0.23051
12776 52.58880 584.38134 580.37691 0.23085
12777 52.59240 584.17810 578.06588 0.23176
12778 52.59600 583.98582 581.42062 0.23023
12779 52.59960 583.80552 580.12608 0.23120
12780 52.60320 583.63845 580.02311 0.23105
12781 52.60680 583.48611 581.83413 0.23040
12782 52.61040 583.35024 582.18133 0.23026
12783 52.61400 583.23282 580.51105 0.23045
12784 52.61760 583.11667 584.04253 0.22924
12785 52.62120 583.04241 586.72451 0.22845
12786 52.62480 582.99030 583.28712 0.22941
12787 52.62840 582.96358 585.01977 0.22888
12788 52.63200 582.95718 587.08675 0.22817
12789 52.63560 582.96280 586.60698 0.22822
12790 52.63920 582.96548 584.12655 0.22925
12791 52.64280 582.94378 589.63998 0.22736
12792 52.64640 582.87367 586.44255 0.22863
12793 52.65000 582.73651 588.98422 0.22753
12794 52.65360 582.52712 584.03578 0.22957
12795 52.65720 582.25625 585.96843 0.22872
12796 52.66080 581.94545 585.01797 0.22932
12797 52.66440 581.61834 584.36225 0.22941
12798 52.66800 581.29394 583.01385 0.22990
12799 52.67160 580.98440 583.70125 0.22968
12800 52.67520 580.69571 582.50351 0.22995
12801 52.67880 580.42965 578.31167 0.23189
12802 52.68240 580.18555 577.06064 0.23252
12803 52.68600 579.96157 579.87020 0.23146
12804 52.68960 579.75545 576.81550 0.23248
12805 52.69320 579.56496 577.19540 0.23191
12806 52.69680 579.38804 580.02747 0.23087
12807 52.70040 579.22290 574.74511 0.23321
12808 52.70400 579.06799 572.82557 0.23381
12809 52.70760 578.92202 573.80761 0.23336
12810 52.71120 578.78393 571.97602 0.23422
12811 52.71480 578.65280 573.18147 0.23355
12812 52.71840 578.52791 573.05105 0.23377
12813 52.72200 578.40862 572.52498 0.23422
12814 52.72560 578.29443 572.31491 0.23447
12815 52.72920 578.18491 570.71568 0.23494
12816 52.73280 578.07969 570.59664 0.23497
12817 52.73640 577.97848 570.59917 0.23494
12818 52.74000 577.88103 572.85198 0.23417
12819 52.74360 577.78841 573.06009 0.23413
12820 52.74720 577.69793 571.31442 0.23467
12821 52.75080 577.61064 569.57725 0.23551
12822 52.75440 577.52646 571.10981 0.23470
12823 52.75800 577.44532 570.41785 0.23520
12824 52.76160 577.36523 571.82403 0.23466
12825 52.76520 577.28998 568.66984 0.23614
12826 52.76880 577.21764 572.33144 0.23436
12827 52.77240 577.14822 569.62722 0.20708
12828 52.77600 577.08176 567.10125 0.23457
12829 52.77960 577.01832 566.26296 0.23676
12830 52.78320 576.95801 566.98701 0.23640
12831 52.78680 576.90097 566.38202 0.23638
12832 52.79040 576.84741 569.06872 0.23546
12833 52.79400 576.81244 568.60204 0.23555
12834 52.79760 576.76669 568.48121 0.23569
12835 52.80120 576.72540 565.31609 0.23724
12836 52.80480 576.68908 568.68764 0.23610
12837 52.80840 576.65837 569.46976 0.23552
12838 52.81200 576.63390 568.73498 0.23568
12839 52.81560 576.61691 566.92563 0.23651
12840 52.81920 576.60842 566.43407 0.23675
12841 52.82280 576.60977 563.99210 0.23801
12842 52.82640 576.62250 566.99562 0.23650
12843 52.83000 576.64825 565.77230 0.23705
12844 52.83360 576.68860 566.83665 0.23640
12845 52.83720 576.74467 568.82564 0.23579
12846 52.84080 576.81643 567.50919 0.23656
12847 52.84440 576.90160 569.26001 0.23570
12848 52.84800 576.99422 568.36732 0.23660
12849 52.85160 577.08304 567.34878 0.21405
12850 52.85520 577.15248 565.19437 0.22893
12851 52.85880 577.18400 564.65059 0.23750
12852 52.86240 577.15735 565.26074 0.23717
12853 52.86600 577.07834 565.16367 0.23688
12854 52.86960 576.93297 561.45546 0.23865
12855 52.87320 576.76164 567.08261 0.23633
12856 52.87680 576.58327 566.16055 0.23674
12857 52.88040 576.40420 562.84921 0.23825
12858 52.88400 576.23421 562.86677 0.23859
12859 52.88760 576.07832 566.09840 0.23708
12860 52.89120 575.93817 567.52193 0.23632
12861 52.89480 575.81344 567.55518 0.23637
12862 52.89840 575.70285 565.45757 0.23719
12863 52.90200 575.60483 566.69946 0.23683
12864 52.90560 575.51772 563.67103 0.23801
12865 52.90920 575.44005 565.74693 0.23715
12866 52.91280 575.37055 566.98474 0.23638
12867 52.91640 575.30815 566.51303 0.23673
12868 52.92000 575.25200 563.83971 0.23811
12869 52.92360 575.20143 562.64957 0.23859
12870 52.92720 575.13513 565.94035 0.23778
12871 52.93080 575.09441 563.25289 0.22004
12872 52.93440 575.05805 564.76998 0.19498
12873 52.93800 575.02051 562.67700 0.23903
12874 52.94160 574.99310 563.08439 0.23821
12875 52.94520 574.97021 563.13291 0.23796
12876 52.94880 574.95209 562.10585 0.23852
12877 52.95240 574.93905 563.25527 0.23804
12878 52.95600 574.93147 566.27031 0.23667
12879 52.95960 574.92969 563.99724 0.23763
12880 52.96320 574.93395 562.73344 0.23865
12881 52.96680 574.94414 563.53476 0.23825
12882 52.97040 574.95946 562.80722 0.23827
12883 52.97400 574.97814 563.06560 0.23832
12884 52.97760 574.99798 565.85412 0.23710
12885 52.98120 575.01346 563.08801 0.23844
12886 52.98480 575.02165 563.36943 0.23833
12887 52.98840 575.02058 563.40833 0.23832
12888 52.99200 575.01130 563.37240 0.23808
12889 52.99560 574.99774 563.74189 0.23793
12890 52.99920 574.98533 561.45719 0.23913
12891 53.00280 574.97949 561.65760 0.23904
12892 53.00640 574.98469 562.81132 0.23904
12893 53.01000 575.01451 563.74180 0.22763
12894 53.01360 575.05059 563.12279 0.19377
12895 53.01720 575.10418 562.48477 0.23323
12896 53.02080 575.17480 564.72488 0.23765
12897 53.02440 575.25959 564.03652 0.23790
12898 53.02800 575.35206 562.62850 0.23824
12899 53.03160 575.44115 562.56419 0.23834
12900 53.03520 575.51151 562.48513 0.23823
12901 53.03880 575.54657 563.27626 0.23793
12902 53.04240 575.53412 561.29086 0.23904
12903 53.04600 575.47164 561.10577 0.23932
12904 53.04960 575.36750 566.15621 0.23692
12905 53.05320 575.23696 564.14182 0.23786
12906 53.05680 575.09624 563.68206 0.23808
12907 53.06040 574.95821 563.57259 0.23818
12908 53.06400 574.83105 564.55092 0.23783
12909 53.06760 574.71892 562.20028 0.23878
12910 53.07120 574.62324 562.31528 0.23858
12911 53.07480 574.54396 562.38855 0.23855
12912 53.07840 574.48031 561.50644 0.23915
12913 53.08200 574.43134 563.80055 0.23820
12914 53.08560 574.39610 562.62266 0.23891
12915 53.08920 574.37361 560.73128 0.23544
12916 53.09280 574.36268 561.28207 0.19334
12917 53.09640 574.36157 558.22563 0.22980
12918 53.10000 574.37883 559.69625 0.23998
12919 53.10360 574.38717 563.62587 0.23818
12920 53.10720 574.39195 560.54794 0.23916
12921 53.11080 574.38637 558.58960 0.24005
12922 53.11440 574.36486 559.29413 0.23952
12923 53.11800 574.32532 560.82145 0.23898
12924 53.12160 574.26989 559.00473 0.23984
12925 53.12520 574.20388 561.67914 0.23902
12926 53.12880 574.13340 562.48928 0.23844
12927 53.13240 574.06355 563.63842 0.23796
12928 53.13600 573.99766 560.84595 0.23917
12929 53.13960 573.93740 562.72230 0.23829
12930 53.14320 573.88329 562.95802 0.23849
12931 53.14680 573.83517 562.03173 0.23883
12932 53.15040 573.79255 561.40193 0.23897
12933 53.15400 573.75481 561.02883 0.23898
12934 53.15760 573.72135 558.89683 0.24009
12935 53.16120 573.69161 561.63107 0.23902
12936 53.16480 573.66512 559.39892 0.23995
12937 53.16840 573.64147 557.65893 0.24164
12938 53.17200 573.62033 558.93854 0.20189
12939 53.17560 573.60145 560.69742 0.21609
12940 53.17920 573.58463 560.71250 0.23976
12941 53.18280 573.56971 560.92584 0.23910
12942 53.18640 573.55659 560.79605 0.23915
12943 53.19000 573.54522 561.95392 0.23862
12944 53.19360 573.53556 560.38128 0.23903
12945 53.19720 573.52764 561.59216 0.23865
12946 53.20080 573.52285 562.42453 0.23820
12947 53.20440 573.51925 562.56340 0.23857
12948 53.20800 573.51709 562.48642 0.23858
12949 53.21160 573.51720 559.43357 0.23980
12950 53.21520 573.51982 560.39266 0.23943
12951 53.21880 573.52529 559.81475 0.23952
12952 53.22240 573.53403 559.25883 0.24001
12953 53.22600 573.54651 560.70116 0.23946
12954 53.22960 573.56468 562.39325 0.23863
12955 53.23320 573.58635 560.29523 0.23929
12956 53.23680 573.61348 561.87920 0.23866
12957 53.24040 573.64645 559.53980 0.23984
12958 53.24400 573.68522 560.81681 0.23920
12959 53.24760 573.72891 564.35996 0.23865
12960 53.25120 573.77527 565.28693 0.21280
12961 53.25480 573.82061 562.24116 0.20242
12962 53.25840 573.85934 563.00688 0.23918
12963 53.26200 573.88320 567.03648 0.23622
12964 53.26560 573.88806 567.38413 0.23642
12965 53.26920 573.87247 566.18291 0.23679
12966 53.27280 573.83934 566.31725 0.23644
12967 53.27640 573.79457 566.41776 0.23650
12968 53.28000 573.74466 563.02850 0.23810
12969 53.28360 573.69483 567.57149 0.23630
12970 53.28720 573.64838 565.75250 0.23711
12971 53.29080 573.60692 564.89348 0.23727
12972 53.29440 573.57088 563.78715 0.23778
12973 53.29800 573.54015 564.81109 0.23729
12974 53.30160 573.51433 564.84923 0.23728
12975 53.30520 573.49300 565.51085 0.23722
12976 53.30880 573.47571 567.41975 0.23631
12977 53.31240 573.46265 563.11159 0.23798
12978 53.31600 573.45222 565.05721 0.23721
12979 53.31960 573.44466 567.08478 0.23651
12980 53.32320 573.43965 565.24536 0.23709
12981 53.32680 573.43694 563.24791 0.23850
12982 53.33040 573.43629 563.69166 0.22837
12983 53.33400 573.43753 562.16463 0.19151
12984 53.33760 573.44052 560.72942 0.23616
12985 53.34120 573.44513 562.26937 0.23833
12986 53.34480 573.45128 562.34756 0.23822
12987 53.34840 573.45909 564.61266 0.23732
12988 53.35200 573.46398 562.61591 0.23799
12989 53.35560 573.47445 562.57640 0.23810
12990 53.35920 573.48628 561.50074 0.23863
12991 53.36280 573.49949 558.77740 0.23984
12992 53.36640 573.51407 563.11536 0.23807
12993 53.37000 573.53003 558.66652 0.23985
12994 53.37360 573.54739 560.10896 0.23941
12995 53.37720 573.56618 559.06161 0.23982
12996 53.38080 573.58643 558.30859 0.23994
12997 53.38440 573.60818 560.04255 0.23938
12998 53.38800 573.63148 562.12901 0.23849
12999 53.39160 573.65638 561.38362 0.23858
13000 53.39520 573.68294 562.89720 0.23784
13001 53.39880 573.71122 560.55036 0.23903
13002 53.40240 573.74130 564.57499 0.23730
13003 53.40600 573.77324 563.78375 0.23789
13004 53.40960 573.80714 561.00522 0.23966
13005 53.41320 573.84308 561.33062 0.21851
13006 53.41680 573.88116 560.58028 0.22903
13007 53.42040 573.92150 563.66251 0.23802
13008 53.42400 573.96420 559.60332 0.23921
13009 53.42760 574.00938 558.83695 0.23988
13010 53.43120 574.05752 560.01710 0.23912
13011 53.43480 574.10814 563.09597 0.23776
13012 53.43840 574.16162 560.56110 0.23889
13013 53.44200 574.21818 560.98197 0.23892
13014 53.44560 574.27799 558.69910 0.23990
13015 53.44920 574.34125 560.12608 0.23925
13016 53.45280 574.40816 563.82153 0.23785
13017 53.45640 574.47895 561.06807 0.23894
13018 53.46000 574.55386 560.15683 0.23922
13019 53.46360 574.63314 561.61398 0.23852
13020 53.46720 574.71708 561.19415 0.23879
13021 53.47080 574.80599 561.65158 0.23865
13022 53.47440 574.89814 563.41605 0.23768
13023 53.47800 574.99800 564.95629 0.23697
13024 53.48160 575.10391 563.55291 0.23758
13025 53.48520 575.21629 560.32191 0.23915
13026 53.48880 575.33561 560.08599 0.23975
13027 53.49240 575.46239 562.05117 0.22555
13028 53.49600 575.59719 561.54351 0.22088
13029 53.49960 575.74065 561.04980 0.23932
13030 53.50320 575.89346 561.57990 0.23822
13031 53.50680 576.05641 561.71969 0.23854
13032 53.51040 576.23038 563.01897 0.23786
13033 53.51400 576.41635 564.39270 0.23697
13034 53.51760 576.61544 564.14337 0.23720
13035 53.52120 576.82891 562.97189 0.23800
13036 53.52480 577.05818 562.71460 0.23823
13037 53.52840 577.30484 560.56465 0.23911
13038 53.53200 577.57066 562.76923 0.23810
13039 53.53560 577.85752 565.26297 0.23712
13040 53.53920 578.16735 564.26876 0.23758
13041 53.54280 578.50184 565.91314 0.23662
13042 53.54640 578.86206 564.73123 0.23723
13043 53.55000 579.24773 568.68931 0.23559
13044 53.55360 579.65610 564.08628 0.23739
13045 53.55720 580.08072 566.64659 0.23617
13046 53.56080 580.51066 567.49556 0.23591
13047 53.56440 580.93193 568.77026 0.23535
13048 53.56800 581.32838 567.99916 0.23589
13049 53.57160 581.69085 567.99441 0.23576
13050 53.57520 582.01883 568.23017 0.23573
13051 53.57880 582.32087 569.79630 0.23498
13052 53.58240 582.61007 569.80061 0.23473
13053 53.58600 582.89865 568.67096 0.23547
13054 53.58960 583.19467 569.95232 0.23498
13055 53.59320 583.50130 571.60996 0.23401
13056 53.59680 583.81761 569.58666 0.23490
13057 53.60040 584.13980 568.65568 0.23557
13058 53.60400 584.46232 569.21134 0.23555
13059 53.60760 584.77858 567.28846 0.23622
13060 53.61120 585.08148 569.03257 0.23532
13061 53.61480 585.36385 569.44663 0.23522
13062 53.61840 585.61841 568.86514 0.23551
13063 53.62200 585.83857 567.46681 0.23579
13064 53.62560 586.01827 567.48603 0.23592
13065 53.62920 586.15240 567.42534 0.23591
13066 53.63280 586.23693 568.61314 0.23542
13067 53.63640 586.26914 571.05430 0.23420
13068 53.64000 586.24886 568.78563 0.23527
13069 53.64360 586.17392 569.28533 0.23499
13070 53.64720 586.04699 568.85910 0.23537
13071 53.65080 585.85897 575.01269 0.23279
13072 53.65440 585.63692 571.69154 0.23444
13073 53.65800 585.37521 569.31559 0.23536
13074 53.66160 585.07852 568.89483 0.23507
13075 53.66520 584.75262 570.38340 0.23444
13076 53.66880 584.40340 571.48654 0.23416
13077 53.67240 584.03666 571.98977 0.23390
13078 53.67600 583.65791 571.08987 0.23429
13079 53.67960 583.27224 572.70284 0.23366
13080 53.68320 582.88423 570.55824 0.23481
13081 53.68680 582.49647 570.95944 0.23458
13082 53.69040 582.11530 568.39476 0.23544
13083 53.69400 581.74235 568.88831 0.23541
13084 53.69760 581.37993 569.25386 0.23529
13085 53.70120 581.02999 570.74076 0.23433
13086 53.70480 580.69405 566.27146 0.23635
13087 53.70840 580.37324 568.30075 0.23551
13088 53.71200 580.06843 567.81408 0.23589
13089 53.71560 579.78021 569.28253 0.23481
13090 53.71920 579.50897 568.29583 0.23533
13091 53.72280 579.25496 566.80150 0.23581
13092 53.72640 579.01832 565.11763 0.23675
13093 53.73000 578.79912 568.90843 0.23512
13094 53.73360 578.59739 569.09590 0.23529
13095 53.73720 578.41318 568.98648 0.23552
13096 53.74080 578.24655 565.38116 0.23666
13097 53.74440 578.09764 568.06270 0.23536
13098 53.74800 577.96670 572.16523 0.23372
13099 53.75160 577.85411 569.28383 0.23501
13100 53.75520 577.76050 570.02516 0.23458
13101 53.75880 577.68641 569.71648 0.23477
13102 53.76240 577.63296 571.12160 0.23440
13103 53.76600 577.60152 570.50021 0.23485
13104 53.76960 577.59384 569.99306 0.23487
13105 53.77320 577.61216 572.56258 0.23387
13106 53.77680 577.65933 575.44507 0.23271
13107 53.78040 577.73891 575.60569 0.23244
13108 53.78400 577.85532 573.16145 0.23330
13109 53.78760 578.01403 574.08056 0.23306
13110 53.79120 578.22164 577.40585 0.23187
13111 53.79480 578.48606 578.73194 0.23118
13112 53.79840 578.81648 580.39647 0.23029
13113 53.80200 579.22314 582.72737 0.22942
13114 53.80560 579.71655 583.41692 0.22943
13115 53.80920 580.30586 583.28247 0.22936
13116 53.81280 580.99522 585.13887 0.22868
13117 53.81640 581.77976 584.82202 0.22914
13118 53.82000 582.63516 586.03827 0.22841
13119 53.82360 583.50963 586.12645 0.22814
13120 53.82720 584.31760 583.92096 0.22895
13121 53.83080 584.94609 586.81022 0.22815
13122 53.83440 585.28152 586.69048 0.22788
13123 53.83800 585.25153 584.13442 0.22897
13124 53.84160 584.85804 584.93707 0.22883
13125 53.84520 584.17623 586.02340 0.22857
13126 53.84880 583.32038 583.61852 0.22930
13127 53.85240 582.40229 584.09495 0.22893
13128 53.85600 581.50561 584.15697 0.22921
13129 53.85960 580.68024 583.56561 0.22930
13130 53.86320 579.94873 582.37110 0.22940
13131 53.86680 579.31441 582.84652 0.22938
13132 53.87040 578.77420 579.10909 0.23108
13133 53.87400 578.31844 576.88831 0.23185
13134 53.87760 577.93568 577.30813 0.23158
13135 53.88120 577.61543 577.30088 0.23159
13136 53.88480 577.34825 577.49615 0.23178
13137 53.88840 577.12596 577.27039 0.23163
13138 53.89200 576.94167 572.57140 0.23349
13139 53.89560 576.78963 571.33244 0.23435
13140 53.89920 576.66510 569.45956 0.23497
13141 53.90280 576.56416 570.40916 0.23443
13142 53.90640 576.48362 571.97457 0.23361
13143 53.91000 576.42084 567.80444 0.23579
13144 53.91360 576.37367 569.05507 0.23490
13145 53.91720 576.34037 571.59352 0.23385
13146 53.92080 576.31948 571.65798 0.23399
13147 53.92440 576.30985 567.94517 0.23586
13148 53.92800 576.31051 567.94058 0.23565
13149 53.93160 576.31390 571.93310 0.23369
13150 53.93520 576.32935 570.69902 0.23455
13151 53.93880 576.35670 567.17257 0.23590
13152 53.94240 576.39202 567.69650 0.23540
13153 53.94600 576.43552 570.08021 0.23442
13154 53.94960 576.48677 568.61551 0.23545
13155 53.95320 576.54565 570.44738 0.23451
13156 53.95680 576.61227 572.29235 0.23352
13157 53.96040 576.68680 569.19456 0.23493
13158 53.96400 576.76955 568.83187 0.23522
13159 53.96760 576.86094 569.13437 0.23489
13160 53.97120 576.96154 565.98319 0.23618
13161 53.97480 577.07211 565.17537 0.23685
13162 53.97840 577.19360 566.10683 0.23631
13163 53.98200 577.32717 569.14698 0.23499
13164 53.98560 577.47426 567.23767 0.23561
13165 53.98920 577.63656 571.82455 0.23410
13166 53.99280 577.81601 567.15621 0.23579
13167 53.99640 578.01474 567.36687 0.23554
13168 54.00000 578.23483 568.86671 0.23508
13169 54.00360 578.47792 567.72868 0.23587
13170 54.00720 578.74444 569.15222 0.23518
13171 54.01080 579.03232 571.14191 0.23410
13172 54.01440 579.33534 571.50561 0.23412
13173 54.01800 579.64148 571.56234 0.23419
13174 54.02160 579.93254 572.13473 0.23370
13175 54.02520 580.18701 574.12833 0.23271
13176 54.02880 580.38658 575.95673 0.23231
13177 54.03240 580.52556 572.88132 0.23367
13178 54.03600 580.60864 573.92660 0.23303
13179 54.03960 580.65673 574.01169 0.23288
13180 54.04320 580.69322 573.53327 0.23316
13181 54.04680 580.73865 569.56387 0.23482
13182 54.05040 580.80758 572.68844 0.23355
13183 54.05400 580.90897 575.63870 0.23246
13184 54.05760 581.04584 574.27039 0.23313
13185 54.06120 581.21900 575.54274 0.23244
13186 54.06480 581.42578 574.33683 0.23329
13187 54.06840 581.66002 573.10937 0.21647
13188 54.07200 581.91131 571.44302 0.20482
13189 54.07560 582.16474 573.94780 0.21839
13190 54.07920 582.40276 575.79923 0.23253
13191 54.08280 582.60978 574.12243 0.23309
13192 54.08640 582.77796 574.04826 0.23309
13193 54.09000 582.89791 571.61096 0.23386
13194 54.09360 583.00688 568.29334 0.23517
13195 54.09720 583.10932 571.24451 0.23426
13196 54.10080 583.21930 570.62796 0.23438
13197 54.10440 583.34721 572.32309 0.23347
13198 54.10800 583.49877 572.58840 0.23355
13199 54.11160 583.67673 574.43070 0.23280
13200 54.11520 583.88150 571.26647 0.23407
13201 54.11880 584.11387 572.32195 0.23349
13202 54.12240 584.36768 573.99294 0.23290
13203 54.12600 584.64096 576.06469 0.23215
13204 54.12960 584.92806 574.10356 0.23285
13205 54.13320 585.22183 572.80400 0.23349
13206 54.13680 585.51486 573.94933 0.23335
13207 54.14040 585.80171 573.29933 0.23333
13208 54.14400 586.08114 571.33892 0.23445
13209 54.14760 586.35644 571.62840 0.22357
13210 54.15120 586.63364 576.87382 0.20300
13211 54.15480 586.91859 573.59874 0.21195
13212 54.15840 587.21455 574.87592 0.23296
13213 54.16200 587.52061 572.09479 0.23373
13214 54.16560 587.83103 573.87524 0.23304
13215 54.16920 588.13533 571.42804 0.23389
13216 54.17280 588.41998 575.78949 0.23200
13217 54.17640 588.67202 573.33879 0.23313
13218 54.18000 588.88368 573.46058 0.23307
13219 54.18360 589.05516 574.24794 0.23260
13220 54.18720 589.19362 579.32463 0.23065
13221 54.19080 589.30919 574.61385 0.23270
13222 54.19440 589.41094 573.85582 0.23285
13223 54.19800 589.50479 575.08830 0.23231
13224 54.20160 589.59340 577.08241 0.23145
13225 54.20520 589.67697 577.05090 0.23171
13226 54.20880 589.75422 578.40637 0.23099
13227 54.21240 589.82322 575.48547 0.23231
13228 54.21600 589.88188 576.85542 0.23186
13229 54.21960 589.92828 579.92579 0.23059
13230 54.22320 589.96082 580.88266 0.23028
13231 54.22680 589.97827 576.19313 0.22682
13232 54.23040 589.97978 577.67380 0.20263
13233 54.23400 589.95720 578.51724 0.20492
13234 54.23760 589.89059 578.13794 0.23151
13235 54.24120 589.84140 579.02146 0.23087
13236 54.24480 589.77351 579.86739 0.23046
13237 54.24840 589.68585 580.11946 0.23023
13238 54.25200 589.56015 580.40658 0.22994
13239 54.25560 589.41680 575.00016 0.23230
13240 54.25920 589.24751 576.68371 0.23165
13241 54.26280 589.04710 576.18273 0.23181
13242 54.26640 588.81783 575.87198 0.23186
13243 54.27000 588.56464 574.79156 0.23249
13244 54.27360 588.29355 577.99369 0.23102
13245 54.27720 588.01019 578.47450 0.23088
13246 54.28080 587.71892 577.82119 0.23123
13247 54.28440 587.42282 576.14158 0.23185
13248 54.28800 587.12398 578.23589 0.23108
13249 54.29160 586.82379 577.15856 0.23145
13250 54.29520 586.52330 577.14216 0.23137
13251 54.29880 586.22557 576.10519 0.23212
13252 54.30240 585.92685 576.29808 0.23194
13253 54.30600 585.63004 573.19656 0.23342
13254 54.30960 585.33577 576.81397 0.20358
13255 54.31320 585.04465 574.55035 0.20341
13256 54.31680 584.75727 572.70564 0.23072
13257 54.32040 584.47420 575.60025 0.23231
13258 54.32400 584.19600 574.64242 0.23264
13259 54.32760 583.92321 572.74943 0.23332
13260 54.33120 583.64998 573.15515 0.23286
13261 54.33480 583.38961 574.18720 0.23259
13262 54.33840 583.13627 572.88219 0.23316
13263 54.34200 582.89051 572.90558 0.23323
13264 54.34560 582.65292 571.55981 0.23348
13265 54.34920 582.42419 571.26546 0.23384
13266 54.35280 582.20561 570.56534 0.23388
13267 54.35640 581.99659 570.83014 0.23396
13268 54.36000 581.79857 572.41143 0.23323
13269 54.36360 581.61223 573.87496 0.23284
13270 54.36720 581.43807 575.00453 0.23224
13271 54.37080 581.27613 574.53073 0.23255
13272 54.37440 581.12553 576.01924 0.23170
13273 54.37800 580.98396 575.05482 0.23231
13274 54.38160 580.84714 571.10811 0.23398
13275 54.38520 580.70883 572.68627 0.23375
13276 54.38880 580.56190 569.88353 0.21187
13277 54.39240 580.40058 570.02714 0.20507
13278 54.39600 580.22280 571.84511 0.22466
13279 54.39960 580.03300 570.11066 0.23459
13280 54.40320 579.83487 572.18968 0.23360
13281 54.40680 579.62929 571.24107 0.23381
13282 54.41040 579.42932 572.16525 0.23316
13283 54.41400 579.24738 573.10451 0.23290
13284 54.41760 579.07378 573.40684 0.23290
13285 54.42120 578.91715 573.95735 0.23277
13286 54.42480 578.77327 570.15393 0.23398
13287 54.42840 578.64122 572.79262 0.23315
13288 54.43200 578.51961 576.93416 0.23131
13289 54.43560 578.40673 573.72510 0.23249
13290 54.43920 578.30508 570.12723 0.23413
13291 54.44280 578.20535 573.04127 0.23289
13292 54.44640 578.11076 570.11310 0.23395
13293 54.45000 578.05242 571.43801 0.23354
13294 54.45360 577.97302 577.28157 0.23112
13295 54.45720 577.89967 573.22888 0.23273
13296 54.46080 577.83498 574.66245 0.23225
13297 54.46440 577.77862 576.97985 0.23164
13298 54.46800 577.72921 575.05234 0.22004
13299 54.47160 577.68427 574.03780 0.20381
13300 54.47520 577.64057 575.06303 0.21318
13301 54.47880 577.59491 573.29397 0.23326
13302 54.48240 577.54538 574.23616 0.23271
13303 54.48600 577.49211 572.41455 0.23331
13304 54.48960 577.43716 571.82332 0.23332
13305 54.49320 577.38353 575.38727 0.23181
13306 54.49680 577.33409 574.77357 0.23205
13307 54.50040 577.29092 572.59793 0.23310
13308 54.50400 577.25523 571.29368 0.23337
13309 54.50760 577.22778 572.56580 0.23301
13310 54.51120 577.20960 570.92565 0.23366
13311 54.51480 577.19791 572.66965 0.23274
13312 54.51840 577.19390 575.88199 0.23152
13313 54.52200 577.19730 573.28105 0.23253
13314 54.52560 577.20789 575.41980 0.23164
13315 54.52920 577.22550 577.79745 0.23078
13316 54.53280 577.25005 575.96050 0.23160
13317 54.53640 577.28150 575.84382 0.23144
13318 54.54000 577.31990 577.74792 0.23109
13319 54.54360 577.36531 578.83935 0.23063
13320 54.54720 577.41785 577.35305 0.22547
13321 54.55080 577.47767 577.07059 0.20264
13322 54.55440 577.54493 576.49928 0.20630
13323 54.55800 577.61974 576.33388 0.23199
13324 54.56160 577.70217 576.24857 0.23176
13325 54.56520 577.79235 579.24504 0.23040
13326 54.56880 577.88934 578.84394 0.23049
13327 54.57240 577.99429 575.86136 0.23184
13328 54.57600 578.10276 575.63193 0.23175
13329 54.57960 578.21477 577.78685 0.23101
13330 54.58320 578.32941 577.12375 0.23114
13331 54.58680 578.44651 578.21793 0.23072
13332 54.59040 578.56691 575.69830 0.23171
13333 54.59400 578.69218 575.52994 0.23166
13334 54.59760 578.82409 575.83596 0.23144
13335 54.60120 578.96415 577.24448 0.23086
13336 54.60480 579.11348 578.39803 0.23056
13337 54.60840 579.27279 575.57220 0.23162
13338 54.61200 579.44254 572.34015 0.23308
13339 54.61560 579.62306 575.93105 0.23147
13340 54.61920 579.81460 576.54388 0.23162
13341 54.62280 580.01741 577.71840 0.23091
13342 54.62640 580.23280 573.42572 0.23348
13343 54.63000 580.45910 577.49555 0.20325
13344 54.63360 580.69753 577.16652 0.20229
13345 54.63720 580.94859 576.10598 0.22862
13346 54.64080 581.21274 574.43215 0.23263
13347 54.64440 581.49047 574.59190 0.23225
13348 54.64800 581.78235 577.38775 0.23108
13349 54.65160 582.08898 577.33393 0.23124
13350 54.65520 582.41102 576.11820 0.23149
13351 54.65880 582.74920 577.44943 0.23093
13352 54.66240 583.10426 578.98545 0.23039
13353 54.66600 583.46680 580.28424 0.22997
13354 54.66960 583.85826 580.71408 0.22968
13355 54.67320 584.26923 577.50753 0.23099
13356 54.67680 584.70074 577.43329 0.23086
13357 54.68040 585.15382 575.79153 0.23152
13358 54.68400 585.62960 577.69881 0.23101
13359 54.68760 586.12928 579.58352 0.22992
13360 54.69120 586.65410 576.37112 0.23135
13361 54.69480 587.20539 579.94527 0.22997
13362 54.69840 587.78456 579.60159 0.23029
13363 54.70200 588.39311 581.20846 0.22961
13364 54.70560 589.03260 581.89303 0.22931
13365 54.70920 589.70465 579.55367 0.23046
13366 54.71280 590.41094 579.53179 0.23042
13367 54.71640 591.14136 578.34449 0.23075
13368 54.72000 591.92139 583.63081 0.22894
13369 54.72360 592.74094 582.47390 0.22910
13370 54.72720 593.60181 581.24314 0.22972
13371 54.73080 594.50576 582.10820 0.22928
13372 54.73440 595.45449 580.93363 0.22976
13373 54.73800 596.44959 582.33634 0.22900
13374 54.74160 597.49253 585.17298 0.22799
13375 54.74520 598.58450 583.70901 0.22856
13376 54.74880 599.72870 585.23401 0.22794
13377 54.75240 600.92131 584.22648 0.22844
13378 54.75600 602.16421 588.28781 0.22678
13379 54.75960 603.45692 590.47200 0.22586
13380 54.76320 604.79789 589.71539 0.22639
13381 54.76680 606.18453 588.38274 0.22645
13382 54.77040 607.61300 589.63725 0.22622
13383 54.77400 609.07803 589.33640 0.22642
13384 54.77760 610.57287 589.35169 0.22648
13385 54.78120 612.08929 589.59555 0.22637
13386 54.78480 613.61764 589.61938 0.22635
13387 54.78840 615.14676 590.21907 0.22632
13388 54.79200 616.66380 591.18182 0.22593
13389 54.79560 618.15401 594.42291 0.22449
13390 54.79920 619.60077 594.94879 0.22464
13391 54.80280 620.98571 595.94903 0.22408
13392 54.80640 622.28913 594.69956 0.22454
13393 54.81000 623.49055 596.81943 0.22356
13394 54.81360 624.56938 597.80190 0.22343
13395 54.81720 625.50570 598.73583 0.22283
13396 54.82080 626.28102 598.34008 0.22311
13397 54.82440 626.87921 598.69399 0.22286
13398 54.82800 627.28721 601.34663 0.22200
13399 54.83160 627.49574 602.42847 0.22164
13400 54.83520 627.49980 604.77839 0.22063
13401 54.83880 627.29897 605.77331 0.22020
13402 54.84240 626.89743 601.92452 0.22177
13403 54.84600 626.30381 601.95121 0.22153
13404 54.84960 625.53066 599.49349 0.22260
13405 54.85320 624.59387 600.20389 0.22229
13406 54.85680 623.51158 600.95661 0.22223
13407 54.86040 622.30240 602.13998 0.22174
13408 54.86400 620.98983 596.14704 0.22407
13409 54.86760 619.59175 597.61031 0.22366
13410 54.87120 618.12602 597.28843 0.22360
13411 54.87480 616.60797 596.77770 0.22373
13412 54.87840 615.05039 594.42517 0.22484
13413 54.88200 613.46457 596.09531 0.22426
13414 54.88560 611.86194 598.33522 0.22324
13415 54.88920 610.25530 596.03727 0.22400
13416 54.89280 608.65862 594.98608 0.22472
13417 54.89640 607.08555 593.63606 0.22493
13418 54.90000 605.54775 591.49050 0.22571
13419 54.90360 604.05410 592.26607 0.22537
13420 54.90720 602.61063 592.12463 0.22559
13421 54.91080 601.22131 592.75753 0.22537
13422 54.91440 599.88593 593.73643 0.22482
13423 54.91800 598.60787 589.97459 0.22612
13424 54.92160 597.38478 587.42652 0.22706
13425 54.92520 596.21469 583.71035 0.22863
13426 54.92880 595.09492 584.30474 0.22837
13427 54.93240 594.02259 584.54908 0.22840
13428 54.93600 592.99531 583.13374 0.22898
13429 54.93960 592.01148 585.27767 0.22811
13430 54.94320 591.07040 585.26725 0.22827
13431 54.94680 590.17153 582.43302 0.22946
13432 54.95040 589.31434 583.81520 0.22885
13433 54.95400 588.49790 582.45165 0.22931
13434 54.95760 587.72090 581.35650 0.22973
13435 54.96120 586.98175 579.95150 0.23046
13436 54.96480 586.27872 581.98364 0.22938
13437 54.96840 585.60984 581.96153 0.22951
13438 54.97200 584.97342 579.11852 0.23080
13439 54.97560 584.36834 579.90327 0.23031
13440 54.97920 583.79267 579.90869 0.23011
13441 54.98280 583.24492 581.08113 0.22973
13442 54.98640 582.72374 579.64314 0.23043
13443 54.99000 582.22788 579.64788 0.23045
13444 54.99360 581.75617 579.89660 0.23029
13445 54.99720 581.30757 578.82173 0.23059
13446 55.00080 580.88115 577.92026 0.23076
13447 55.00440 580.47607 577.10088 0.23138
13448 55.00800 580.09055 578.61227 0.23069
13449 55.01160 579.72611 577.44572 0.23124
13450 55.01520 579.38121 578.68292 0.23078
13451 55.01880 579.05549 575.80921 0.23193
13452 55.02240 578.74875 576.24568 0.23176
13453 55.02600 578.46096 577.39105 0.23144
13454 55.02960 578.19225 578.33923 0.23107
13455 55.03320 577.94298 577.83029 0.23127
13456 55.03680 577.71371 575.79055 0.23196
13457 55.04040 577.50523 575.00326 0.23263
13458 55.04400 577.31855 576.91656 0.23155
13459 55.04760 577.15486 576.09887 0.23196
13460 55.05120 577.01532 576.30256 0.23201
13461 55.05480 576.90081 575.91932 0.23211
13462 55.05840 576.81134 577.48948 0.23121
13463 55.06200 576.74515 579.45638 0.23036
13464 55.06560 576.69752 579.56374 0.23051
13465 55.06920 576.65970 582.90127 0.22923
13466 55.07280 576.61881 581.43959 0.22986
13467 55.07640 576.56004 582.55884 0.22913
13468 55.08000 576.47147 584.52752 0.22828
13469 55.08360 576.34943 581.45575 0.22996
13470 55.08720 576.20088 581.15193 0.22995
13471 55.09080 576.04043 584.31156 0.22872
13472 55.09440 575.88645 585.76005 0.22831
13473 55.09800 575.75393 583.15307 0.22934
13474 55.10160 575.65428 582.46675 0.22959
13475 55.10520 575.59296 583.28432 0.22921
13476 55.10880 575.57133 582.64657 0.22958
13477 55.11240 575.58604 583.64791 0.22909
13478 55.11600 575.62737 580.74619 0.23012
13479 55.11960 575.67832 582.40531 0.22970
13480 55.12320 575.71521 584.51092 0.22871
13481 55.12680 575.71187 584.49691 0.22864
13482 55.13040 575.64780 583.31963 0.22926
13483 55.13400 575.51666 583.14276 0.22963
13484 55.13760 575.33015 579.87659 0.23054
13485 55.14120 575.10826 580.94952 0.22999
13486 55.14480 574.87737 579.97853 0.23058
13487 55.14840 574.65846 579.91008 0.23065
13488 55.15200 574.46557 579.10955 0.23099
13489 55.15560 574.30624 579.36483 0.23063
13490 55.15920 574.18320 580.29265 0.23019
13491 55.16280 574.09593 581.13441 0.23023
13492 55.16640 574.04146 578.11041 0.23137
13493 55.17000 574.01457 578.92205 0.23101
13494 55.17360 574.00793 582.37706 0.22977
13495 55.17720 574.01268 580.48825 0.23062
13496 55.18080 574.02040 579.11615 0.23103
13497 55.18440 574.02591 580.32149 0.23054
13498 55.18800 574.02960 581.14752 0.23043
13499 55.19160 574.03745 581.97435 0.22990
13500 55.19520 574.05871 581.41268 0.23006
13501 55.19880 574.10303 579.69722 0.23091
13502 55.20240 574.17835 580.76936 0.23045
13503 55.20600 574.29001 581.82577 0.22981
13504 55.20960 574.44018 582.13061 0.22976
13505 55.21320 574.62701 579.38256 0.23110
13506 55.21680 574.84302 581.54906 0.22997
13507 55.22040 575.07312 580.84680 0.23002
13508 55.22400 575.29292 584.30665 0.22885
13509 55.22760 575.47359 584.43199 0.22899
13510 55.23120 575.58588 585.10462 0.22853
13511 55.23480 575.61195 584.39050 0.22875
13512 55.23840 575.55523 584.12667 0.22881
13513 55.24200 575.43480 583.10574 0.22936
13514 55.24560 575.28028 580.68835 0.23051
13515 55.24920 575.11988 583.06512 0.22947
13516 55.25280 574.97583 586.46727 0.22824
13517 55.25640 574.85713 584.54567 0.22902
13518 55.26000 574.77066 579.41035 0.23099
13519 55.26360 574.71772 585.43718 0.22856
13520 55.26720 574.69718 582.81634 0.22975
13521 55.27080 574.70693 581.19901 0.23011
13522 55.27440 574.74459 584.42273 0.22896
13523 55.27800 574.80824 586.29351 0.22832
13524 55.28160 574.89605 583.71485 0.22937
13525 55.28520 575.00675 581.73928 0.22992
13526 55.28880 575.14254 583.32426 0.22938
13527 55.29240 575.29715 586.89600 0.22811
13528 55.29600 575.47368 585.97836 0.22841
13529 55.29960 575.67268 583.33657 0.22925
13530 55.30320 575.89511 582.11892 0.22969
13531 55.30680 576.14227 579.68524 0.23083
13532 55.31040 576.41536 582.44325 0.22971
13533 55.31400 576.71629 586.50590 0.22809
13534 55.31760 577.04667 581.44375 0.22984
13535 55.32120 577.40370 581.47316 0.22993
13536 55.32480 577.78505 583.88026 0.22930
13537 55.32840 578.18309 585.66643 0.22850
13538 55.33200 578.58489 585.20558 0.22880
13539 55.33560 578.97293 579.97509 0.23091
13540 55.33920 579.32898 583.96186 0.22935
13541 55.34280 579.64048 587.59590 0.22779
13542 55.34640 579.90623 582.96580 0.22974
13543 55.35000 580.13692 585.57327 0.22851
13544 55.35360 580.35025 586.43743 0.22836
13545 55.35720 580.56425 584.52354 0.22908
13546 55.36080 580.79270 582.83612 0.22976
13547 55.36440 581.04383 586.00660 0.22839
13548 55.36800 581.32104 587.18522 0.22797
13549 55.37160 581.62438 587.89614 0.22796
13550 55.37520 581.95178 587.24393 0.22812
13551 55.37880 582.29993 585.42539 0.22860
13552 55.38240 582.66469 586.73909 0.22785
13553 55.38600 583.04125 588.99494 0.22728
13554 55.38960 583.42408 588.63263 0.22746
13555 55.39320 583.80672 588.17662 0.22746
13556 55.39680 584.18171 590.24135 0.22623
13557 55.40040 584.54063 594.19735 0.22490
13558 55.40400 584.87478 590.43459 0.22693
13559 55.40760 585.17619 592.10629 0.22631
13560 55.41120 585.43871 591.20548 0.22650
13561 55.41480 585.65830 590.63614 0.22676
13562 55.41840 585.83307 594.59136 0.22527
13563 55.42200 585.96174 596.60164 0.22439
13564 55.42560 586.04357 593.73500 0.22551
13565 55.42920 586.07814 593.04702 0.22572
13566 55.43280 586.06679 588.25122 0.22772
13567 55.43640 586.00699 590.45250 0.22679
13568 55.44000 585.90040 591.44901 0.22643
13569 55.44360 585.74654 590.85299 0.22662
13570 55.44720 585.54317 592.98686 0.22578
13571 55.45080 585.28543 591.58667 0.22651
13572 55.45440 584.96627 587.89949 0.22794
13573 55.45800 584.58036 588.49825 0.22748
13574 55.46160 584.13110 585.71756 0.22826
13575 55.46520 583.60679 588.72778 0.22730
13576 55.46880 583.02950 586.99298 0.22809
13577 55.47240 582.41655 586.58862 0.22814
13578 55.47600 581.78507 586.41732 0.22810
13579 55.47960 581.15004 582.17483 0.22964
13580 55.48320 580.52216 583.64777 0.22958
13581 55.48680 579.90287 583.57001 0.22967
13582 55.49040 579.29883 582.68105 0.22982
13583 55.49400 578.71213 578.57684 0.23155
13584 55.49760 578.14383 582.27616 0.23009
13585 55.50120 577.59440 582.22084 0.23023
13586 55.50480 577.06394 581.89714 0.23036
13587 55.50840 576.55235 580.14268 0.23105
13588 55.51200 576.05933 581.50417 0.23097
13589 55.51560 575.58451 580.19277 0.23182
13590 55.51920 575.13089 578.99086 0.23306
13591 55.52280 574.69109 579.43845 0.23410
13592 55.52640 574.26800 577.16523 0.23702
13593 55.53000 573.86104 577.19822 0.21813
13594 55.53360 573.48392 576.52003 0.20341
13595 55.53720 573.10934 575.76433 0.20344
13596 55.54080 572.74823 576.96150 0.20285
13597 55.54440 572.39999 578.67306 0.20225
13598 55.54800 572.06494 578.81948 0.20237
13599 55.55160 571.74253 574.93447 0.20357
13600 55.55520 571.43220 578.85413 0.20232
13601 55.55880 571.13342 575.90894 0.20311
13602 55.56240 570.84567 574.42072 0.20408
13603 55.56600 570.56847 573.30025 0.20463
13604 55.56960 570.30133 574.30587 0.20402
13605 55.57320 570.04382 576.43624 0.20340
13606 55.57680 569.79549 576.38295 0.20333
13607 55.58040 569.55595 575.30134 0.20387
13608 55.58400 569.32480 576.46307 0.20346
13609 55.58760 569.10167 576.28839 0.20352
13610 55.59120 568.88623 578.22512 0.20320
13611 55.59480 568.67813 574.53325 0.20488
13612 55.59840 568.47299 574.58888 0.20555
13613 55.60200 568.27841 574.78626 0.20666
13614 55.60560 568.09057 575.00928 0.20826
13615 55.60920 567.90892 570.72679 0.19901
13616 55.61280 567.73319 571.48984 0.17590
13617 55.61640 567.56322 573.16208 0.17517
13618 55.62000 567.39876 575.93601 0.17431
13619 55.62360 567.23959 573.21657 0.17494
13620 55.62720 567.08553 572.91080 0.17528
13621 55.63080 566.93638 570.68215 0.17582
13622 55.63440 566.79345 572.31310 0.17549
13623 55.63800 566.65599 572.53621 0.17506
13624 55.64160 566.52061 572.18059 0.17554
13625 55.64520 566.38951 572.04251 0.17586
13626 55.64880 566.26256 575.30073 0.17458
13627 55.65240 566.13965 572.69570 0.17549
13628 55.65600 566.02064 574.56341 0.17494
13629 55.65960 565.90361 572.62665 0.17558
13630 55.66320 565.78915 573.90614 0.17517
13631 55.66680 565.68128 570.04215 0.17642
13632 55.67040 565.57695 571.13263 0.17631
13633 55.67400 565.47608 573.86524 0.17588
13634 55.67760 565.37861 573.77461 0.17652
13635 55.68120 565.28449 573.66117 0.17755
13636 55.68480 565.19366 572.89256 0.17942
13637 55.68840 565.10746 574.87144 0.17460
13638 55.69200 565.02313 571.03945 0.14661
13639 55.69560 564.94191 571.60261 0.14633
13640 55.69920 564.86377 569.02424 0.14703
13641 55.70280 564.78860 567.84508 0.14715
13642 55.70640 564.71625 575.23111 0.14539
13643 55.71000 564.64649 573.49893 0.14578
13644 55.71360 564.57906 573.11753 0.15369
13645 55.71720 564.51318 571.58583 0.18047
13646 55.72080 564.44955 573.30671 0.17787
13647 55.72440 564.38761 568.63251 0.17826
13648 55.72800 564.32750 572.76951 0.17595
13649 55.73160 564.26949 574.61307 0.17500
13650 55.73520 564.21387 570.21953 0.17612
13651 55.73880 564.16091 573.52683 0.17506
13652 55.74240 564.11082 570.70695 0.17582
13653 55.74600 564.06370 575.87394 0.17433
13654 55.74960 564.01962 572.30413 0.17531
13655 55.75320 563.97883 572.90464 0.17561
13656 55.75680 563.94083 572.27661 0.17654
13657 55.76040 563.90575 573.46532 0.17692
13658 55.76400 563.87335 574.59795 0.17811
13659 55.76760 563.84312 572.83867 0.18079
13660 55.77120 563.81479 573.02385 0.14687
13661 55.77480 563.78760 571.87363 0.14587
13662 55.77840 563.76105 571.78613 0.14580
13663 55.78200 563.73497 573.62052 0.14527
13664 55.78560 563.70957 571.91794 0.14574
13665 55.78920 563.68535 571.62515 0.14588
13666 55.79280 563.66291 570.00659 0.14697
13667 55.79640 563.64277 573.47606 0.17918
13668 55.80000 563.62527 572.90877 0.17783
13669 55.80360 563.61060 573.75016 0.17638
13670 55.80720 563.59884 572.42784 0.17575
13671 55.81080 563.59196 573.75745 0.17465
13672 55.81440 563.58611 574.47320 0.17443
13673 55.81800 563.58670 572.10827 0.17502
13674 55.82160 563.58653 569.87218 0.17557
13675 55.82520 563.58920 573.29663 0.17469
13676 55.82880 563.59467 574.36517 0.17407
13677 55.83240 563.60295 571.38874 0.17538
13678 55.83600 563.61403 573.79909 0.17549
13679 55.83960 563.63169 578.58020 0.17474
13680 55.84320 563.64849 574.83324 0.17714
13681 55.84680 563.66804 575.40615 0.17925
13682 55.85040 563.69045 576.75332 0.15252
13683 55.85400 563.71575 572.80342 0.14516
13684 55.85760 563.74396 573.54620 0.14479
13685 55.86120 563.77513 574.82346 0.14446
13686 55.86480 563.80928 573.10552 0.14490
13687 55.86840 563.84646 571.09256 0.14551
13688 55.87200 563.88671 572.07125 0.14519
13689 55.87560 563.93008 573.65144 0.17339
13690 55.87920 563.97662 575.79723 0.17679
13691 55.88280 564.02639 574.42878 0.17591
13692 55.88640 564.07946 573.01017 0.17521
13693 55.89000 564.13592 573.15745 0.17449
13694 55.89360 564.19584 574.40108 0.17385
13695 55.89720 564.25933 572.44209 0.17451
13696 55.90080 564.32653 574.81205 0.17352
13697 55.90440 564.39759 577.28474 0.17297
13698 55.90800 564.47270 574.23767 0.17354
13699 55.91160 564.55210 574.70221 0.17372
13700 55.91520 564.63475 576.54604 0.17388
13701 55.91880 564.72373 577.07330 0.17434
13702 55.92240 564.80750 578.68373 0.17497
13703 55.92600 564.90276 577.59795 0.17713
13704 55.92960 565.00982 579.66146 0.16332
13705 55.93320 565.12447 579.67582 0.14315
13706 55.93680 565.24737 579.36963 0.14297
13707 55.94040 565.37962 578.31732 0.14320
13708 55.94400 565.52210 577.87885 0.14340
13709 55.94760 565.67535 579.38979 0.14312
13710 55.95120 565.83908 577.77161 0.14342
13711 55.95480 566.01138 580.04804 0.16422
13712 55.95840 566.18774 581.96565 0.17509
13713 55.96200 566.35984 585.94456 0.17227
13714 55.96560 566.51454 583.67965 0.17174
13715 55.96920 566.64204 581.28602 0.17190
13716 55.97280 566.72907 584.33026 0.17050
13717 55.97640 566.77104 584.60555 0.17047
13718 55.98000 566.77217 584.01092 0.17035
13719 55.98360 566.74319 585.80417 0.16992
13720 55.98720 566.69699 588.00434 0.16907
13721 55.99080 566.64465 584.21053 0.17033
13722 55.99440 566.59363 587.58859 0.16990
13723 55.99800 566.54793 587.86585 0.17062
13724 56.00160 566.50905 581.99422 0.17312
13725 56.00520 566.47699 585.45576 0.17375
13726 56.00880 566.45104 586.36467 0.16840
13727 56.01240 566.43026 586.21419 0.14098
13728 56.01600 566.41313 584.49777 0.14123
13729 56.01960 566.40051 584.10164 0.14127
13730 56.02320 566.39100 582.49841 0.14183
13731 56.02680 566.38472 583.75616 0.14163
13732 56.03040 566.38195 585.14804 0.14128
13733 56.03400 566.38328 585.51086 0.15514
13734 56.03760 566.38961 585.34960 0.17436
13735 56.04120 566.40209 584.43439 0.17260
13736 56.04480 566.42203 585.36927 0.17090
13737 56.04840 566.45066 582.58277 0.17106
13738 56.05200 566.48882 584.47019 0.17011
13739 56.05560 566.53628 585.61950 0.16974
13740 56.05920 566.59098 585.52517 0.16948
13741 56.06280 566.64817 582.81359 0.17037
13742 56.06640 566.69759 586.05812 0.16943
13743 56.07000 566.74559 591.72224 0.16760
13744 56.07360 566.76846 590.03861 0.16870
13745 56.07720 566.75649 592.88858 0.16862
13746 56.08080 566.72215 593.36763 0.16920
13747 56.08440 566.67748 598.84464 0.16887
13748 56.08800 566.63699 594.91864 0.17240
13749 56.09160 566.61437 591.95799 0.14082
13750 56.09520 566.62019 594.69489 0.13854
13751 56.09880 566.66096 595.11581 0.13823
13752 56.10240 566.73858 593.14657 0.13881
13753 56.10600 566.84927 591.87547 0.13917
13754 56.10960 566.98176 593.55018 0.13887
13755 56.11320 567.11545 595.00236 0.14061
13756 56.11680 567.22093 594.01621 0.17193
13757 56.12040 567.26413 594.78452 0.16950
13758 56.12400 567.21778 594.77277 0.16789
13759 56.12760 567.07186 593.21884 0.16752
13760 56.13120 566.83822 591.28551 0.16763
13761 56.13480 566.54481 588.32732 0.16839
13762 56.13840 566.22428 589.84979 0.16771
13763 56.14200 565.90426 588.85423 0.16789
13764 56.14560 565.60331 584.43088 0.16919
13765 56.14920 565.33134 589.21066 0.16732
13766 56.15280 565.09198 584.41804 0.16902
13767 56.15640 564.88512 590.87030 0.16746
13768 56.16000 564.70874 588.70393 0.16795
13769 56.16360 564.56006 591.32730 0.16697
13770 56.16720 564.43628 591.60229 0.16711
13771 56.17080 564.33699 591.64850 0.16702
13772 56.17440 564.25533 590.76747 0.16726
13773 56.17800 564.19078 589.49672 0.16740
13774 56.18160 564.13093 591.98347 0.16669
13775 56.18520 564.10054 590.88120 0.16717
13776 56.18880 564.08529 588.90341 0.16772
13777 56.19240 564.08480 585.68802 0.16862
13778 56.19600 564.09898 590.00933 0.19610
13779 56.19960 564.12802 589.09739 0.19953
13780 56.20320 564.17242 588.48671 0.19806
13781 56.20680 564.23296 585.65372 0.19784
13782 56.21040 564.31076 590.96534 0.19558
13783 56.21400 564.40727 594.88437 0.19407
13784 56.21760 564.52437 594.91484 0.19391
13785 56.22120 564.66440 594.17384 0.19398
13786 56.22480 564.83025 597.35255 0.19302
13787 56.22840 565.02540 596.67875 0.19277
13788 56.23200 565.25405 595.34225 0.19354
13789 56.23560 565.52113 596.67911 0.19337
13790 56.23920 565.83232 602.79423 0.19134
13791 56.24280 566.19358 606.89122 0.18988
13792 56.24640 566.61186 603.07531 0.19118
13793 56.25000 567.09041 605.44460 0.19046
13794 56.25360 567.63832 611.14010 0.18860
13795 56.25720 568.25532 610.94134 0.18839
13796 56.26080 568.94011 614.39475 0.18734
13797 56.26440 569.68997 615.72847 0.18711
13798 56.26800 570.50364 614.35274 0.18754
13799 56.27160 571.38399 616.16306 0.18698
13800 56.27520 572.33588 619.76065 0.20538
13801 56.27880 573.35661 619.88727 0.21673
13802 56.28240 574.41990 619.79966 0.21502
13803 56.28600 575.46880 620.15068 0.21353
13804 56.28960 576.40729 618.39651 0.21378
13805 56.29320 577.12434 619.82052 0.21278
13806 56.29680 577.53034 620.57378 0.21244
13807 56.30040 577.60004 616.90027 0.21363
13808 56.30400 577.36611 615.56110 0.21418
13809 56.30760 576.90775 613.52050 0.21451
13810 56.31120 576.30097 612.81238 0.21487
13811 56.31480 575.59651 607.86121 0.21691
13812 56.31840 574.82275 609.22348 0.21645
13813 56.32200 574.00306 608.46093 0.21655
13814 56.32560 573.16848 607.42918 0.21686
13815 56.32920 572.35665 606.13635 0.21748
13816 56.33280 571.60251 605.81857 0.21758
13817 56.33640 570.93048 601.86002 0.21871
13818 56.34000 570.35232 602.25613 0.21848
13819 56.34360 569.86946 599.91634 0.21955
13820 56.34720 569.47673 602.03206 0.21880
13821 56.35080 569.16570 599.88638 0.21956
13822 56.35440 568.92690 602.08867 0.21876
13823 56.35800 568.75110 597.99970 0.22045
13824 56.36160 568.63000 596.10710 0.22104
13825 56.36520 568.55634 596.62005 0.22054
13826 56.36880 568.52400 597.43340 0.22055
13827 56.37240 568.52789 594.20240 0.22158
13828 56.37600 568.56379 594.48451 0.22142
13829 56.37960 568.62828 597.68340 0.22032
13830 56.38320 568.71854 594.38025 0.22166
13831 56.38680 568.83233 592.90186 0.22211
13832 56.39040 568.96786 590.22256 0.22312
13833 56.39400 569.12369 592.07484 0.22263
13834 56.39760 569.29922 590.10763 0.22342
13835 56.40120 569.49270 586.55582 0.22479
13836 56.40480 569.70405 590.48354 0.22294
13837 56.40840 569.93323 593.12298 0.22231
13838 56.41200 570.17957 591.85361 0.22285
13839 56.41560 570.44342 592.22676 0.22252
13840 56.41920 570.72511 590.80382 0.22286
13841 56.42280 571.02516 589.52466 0.22347
13842 56.42640 571.34433 592.05599 0.22259
13843 56.43000 571.68360 589.58666 0.22358
13844 56.43360 572.04415 587.93137 0.22402
13845 56.43720 572.42737 588.59130 0.22410
13846 56.44080 572.83679 589.73818 0.22351
13847 56.44440 573.26944 591.56413 0.22239
13848 56.44800 573.72808 593.37914 0.22215
13849 56.45160 574.21196 591.46499 0.22289
13850 56.45520 574.71787 593.75822 0.22186
13851 56.45880 575.23898 591.39067 0.22278
13852 56.46240 575.76330 590.27369 0.22339
13853 56.46600 576.27560 591.75746 0.22274
13854 56.46960 576.76013 592.86451 0.22206
13855 56.47320 577.20642 593.82649 0.22201
13856 56.47680 577.61398 592.72229 0.22231
13857 56.48040 577.99266 593.57731 0.22211
13858 56.48400 578.35834 595.04306 0.22142
13859 56.48760 578.72826 595.48793 0.22147
13860 56.49120 579.11258 593.33594 0.22251
13861 56.49480 579.51993 599.09193 0.22004
13862 56.49840 579.95426 598.17482 0.22031
13863 56.50200 580.41619 598.62876 0.22024
13864 56.50560 580.90411 600.06610 0.21986
13865 56.50920 581.41431 597.27640 0.22075
13866 56.51280 581.94079 599.84864 0.21957
13867 56.51640 582.47501 602.52426 0.21900
13868 56.52000 583.00627 603.47945 0.21849
13869 56.52360 583.52337 605.51631 0.21743
13870 56.52720 584.01757 604.19240 0.21803
13871 56.53080 584.48527 600.82230 0.21955
13872 56.53440 584.92851 603.21458 0.21844
13873 56.53800 585.35293 604.89711 0.21780
13874 56.54160 585.76468 607.45622 0.21717
13875 56.54520 586.16818 607.38434 0.21733
13876 56.54880 586.56537 608.10790 0.21672
13877 56.55240 586.95600 606.51732 0.21758
13878 56.55600 587.33831 604.92207 0.21800
13879 56.55960 587.70974 604.38244 0.21829
13880 56.56320 588.06719 607.80692 0.21687
13881 56.56680 588.40739 610.40816 0.21613
13882 56.57040 588.72692 614.06512 0.21508
13883 56.57400 589.02209 613.65990 0.21489
13884 56.57760 589.28887 614.75648 0.21460
13885 56.58120 589.52274 616.22678 0.21410
13886 56.58480 589.71886 614.30414 0.21489
13887 56.58840 589.87311 616.87083 0.21380
13888 56.59200 589.98113 614.01166 0.21456
13889 56.59560 590.04187 616.47277 0.21404
13890 56.59920 590.05674 615.94676 0.21416
13891 56.60280 590.02581 614.46242 0.21444
13892 56.60640 589.95213 613.13711 0.21495
13893 56.61000 589.83776 616.66077 0.21406
13894 56.61360 589.68432 614.56465 0.21459
13895 56.61720 589.49314 610.03766 0.21612
13896 56.62080 589.26552 609.87456 0.21639
13897 56.62440 589.00274 609.82741 0.21680
13898 56.62800 588.70871 607.19204 0.21719
13899 56.63160 588.38013 608.37792 0.21707
13900 56.63520 588.02131 607.44401 0.21730
13901 56.63880 587.63427 608.81136 0.21677
13902 56.64240 587.22119 608.97555 0.21677
13903 56.64600 586.78435 607.90164 0.21718
13904 56.64960 586.32612 605.79035 0.21826
13905 56.65320 585.84892 607.52762 0.21726
13906 56.65680 585.35515 603.69835 0.21870
13907 56.66040 584.84722 604.93141 0.21831
13908 56.66400 584.32746 602.99328 0.21909
13909 56.66760 583.79814 604.67681 0.21823
13910 56.67120 583.26145 603.14177 0.21871
13911 56.67480 582.71945 602.15938 0.21901
13912 56.67840 582.17410 599.69876 0.22022
13913 56.68200 581.62722 596.57970 0.22113
13914 56.68560 581.08051 599.35235 0.22002
13915 56.68920 580.53554 596.97068 0.22136
13916 56.69280 579.99375 595.54729 0.22179
13917 56.69640 579.45643 593.27657 0.22250
13918 56.70000 578.92573 595.96352 0.22166
13919 56.70360 578.40079 598.20277 0.22124
13920 56.70720 577.88352 599.69108 0.22024
13921 56.71080 577.37476 594.58324 0.22222
13922 56.71440 576.87525 590.78474 0.22372
13923 56.71800 576.38567 591.27586 0.22340
13924 56.72160 575.90658 593.29344 0.22276
13925 56.72520 575.43851 593.00686 0.22275
13926 56.72880 574.98191 592.93685 0.22318
13927 56.73240 574.53718 591.81118 0.22331
13928 56.73600 574.10467 589.40826 0.22408
13929 56.73960 573.68469 590.79205 0.22369
13930 56.74320 573.27749 594.35341 0.22244
13931 56.74680 572.88409 593.56409 0.22261
13932 56.75040 572.50287 589.94679 0.22389
13933 56.75400 572.13439 591.13812 0.22317
13934 56.75760 571.77820 588.27006 0.22451
13935 56.76120 571.43337 585.06235 0.22577
13936 56.76480 571.09860 591.05003 0.22354
13937 56.76840 570.77240 591.36114 0.22353
13938 56.77200 570.45356 588.11621 0.22499
13939 56.77560 570.14166 588.69362 0.22450
13940 56.77920 569.83722 588.00838 0.22479
13941 56.78280 569.54141 588.64113 0.22490
13942 56.78640 569.25564 584.65473 0.22637
13943 56.79000 568.98106 586.88919 0.22539
13944 56.79360 568.71842 587.14395 0.22543
13945 56.79720 568.46818 590.53099 0.22393
13946 56.80080 568.23096 587.34316 0.22513
13947 56.80440 568.00494 589.89188 0.22414
13948 56.80800 567.79043 586.98719 0.22548
13949 56.81160 567.58552 585.38687 0.22608
13950 56.81520 567.39173 590.74371 0.22379
13951 56.81880 567.20710 588.15301 0.22492
13952 56.82240 567.03125 584.88700 0.22633
13953 56.82600 566.86427 585.63409 0.22594
13954 56.82960 566.70672 586.01845 0.22582
13955 56.83320 566.55926 588.62759 0.22428
13956 56.83680 566.42228 588.72926 0.22442
13957 56.84040 566.29568 586.83078 0.22533
13958 56.84400 566.17855 587.93469 0.22499
13959 56.84760 566.06916 586.58971 0.22564
13960 56.85120 565.96506 585.46184 0.22643
13961 56.85480 565.86362 588.02551 0.22507
13962 56.85840 565.76294 587.31227 0.22540
13963 56.86200 565.66262 588.33650 0.22530
13964 56.86560 565.56386 585.95709 0.22642
13965 56.86920 565.46895 590.74071 0.22421
13966 56.87280 565.38041 589.97685 0.22460
13967 56.87640 565.29951 588.07965 0.22519
13968 56.88000 565.22670 589.12294 0.22468
13969 56.88360 565.16488 586.94441 0.22552
13970 56.88720 565.11301 587.93112 0.22526
13971 56.89080 565.07101 591.48938 0.22402
13972 56.89440 565.03874 589.75347 0.22452
13973 56.89800 565.01602 590.96807 0.22428
13974 56.90160 565.00268 590.05648 0.22465
13975 56.90520 564.99864 587.99071 0.22539
13976 56.90880 565.00385 587.05820 0.22578
13977 56.91240 565.01730 591.02081 0.22377
13978 56.91600 565.04114 590.61687 0.22403
13979 56.91960 565.07446 588.53338 0.22509
13980 56.92320 565.11747 585.61743 0.22617
13981 56.92680 565.17038 587.91619 0.22556
13982 56.93040 565.23338 588.13118 0.22566
13983 56.93400 565.30655 588.25691 0.22562
13984 56.93760 565.38977 589.63335 0.22482
13985 56.94120 565.48246 586.82186 0.22605
13986 56.94480 565.58345 587.54384 0.22629
13987 56.94840 565.69084 589.16699 0.22497
13988 56.95200 565.80220 588.58779 0.22528
13989 56.95560 565.91524 586.76217 0.22616
13990 56.95920 566.02865 590.04864 0.22462
13991 56.96280 566.13989 592.11876 0.22391
13992 56.96640 566.25715 590.29757 0.22464
13993 56.97000 566.37970 588.41702 0.22536
13994 56.97360 566.51025 590.67128 0.22438
13995 56.97720 566.65097 589.83399 0.22500
13996 56.98080 566.80319 587.41722 0.22595
13997 56.98440 566.96768 589.10915 0.22534
13998 56.98800 567.14483 589.81546 0.22504
13999 56.99160 567.33484 588.32068 0.22522
14000 56.99520 567.53785 590.67256 0.22424
14001 56.99880 567.75398 588.15565 0.22557
14002 57.00240 567.98339 588.05114 0.22560
14003 57.00600 568.22629 587.89273 0.22579
14004 57.00960 568.48294 588.16929 0.22581
14005 57.01320 568.75365 587.22731 0.22635
14006 57.01680 569.03881 589.29391 0.22544
14007 57.02040 569.33885 591.13936 0.22479
14008 57.02400 569.65424 591.81356 0.22498
14009 57.02760 569.98551 592.25069 0.22427
14010 57.03120 570.33326 590.01259 0.22483
14011 57.03480 570.69820 590.62077 0.22511
14012 57.03840 571.08096 589.53674 0.22523
14013 57.04200 571.48205 594.52467 0.22330
14014 57.04560 571.90237 592.94532 0.22394
14015 57.04920 572.34271 594.70207 0.22325
14016 57.05280 572.80390 597.24104 0.22203
14017 57.05640 573.28680 595.11670 0.22321
14018 57.06000 573.79229 592.30918 0.22433
14019 57.06360 574.32126 594.32694 0.22360
14020 57.06720 574.87462 594.70510 0.22347
14021 57.07080 575.45328 596.98205 0.22251
14022 57.07440 576.04644 598.03456 0.22181
14023 57.07800 576.67831 598.24834 0.22200
14024 57.08160 577.33798 597.27060 0.22239
14025 57.08520 578.02615 599.13431 0.22201
14026 57.08880 578.74337 600.91461 0.22127
14027 57.09240 579.49012 602.14806 0.22104
14028 57.09600 580.26706 601.23955 0.22118
14029 57.09960 581.07314 601.85662 0.22105
14030 57.10320 581.91013 605.90621 0.21990
14031 57.10680 582.77209 603.88375 0.22039
14032 57.11040 583.66221 606.42299 0.21923
14033 57.11400 584.57748 609.44039 0.21839
14034 57.11760 585.51521 603.51537 0.22041
14035 57.12120 586.47208 610.43159 0.21785
14036 57.12480 587.44387 611.02125 0.21761
14037 57.12840 588.42542 608.89561 0.21832
14038 57.13200 589.41055 611.21132 0.21730
14039 57.13560 590.38131 615.08242 0.21615
14040 57.13920 591.35081 614.80636 0.21636
14041 57.14280 592.30338 615.95981 0.21598
14042 57.14640 593.21948 619.42546 0.21476
14043 57.15000 594.09237 620.38017 0.21448
14044 57.15360 594.91006 621.58677 0.21381
14045 57.15720 595.65625 623.69307 0.21309
14046 57.16080 596.32653 622.75954 0.21358
14047 57.16440 596.90489 623.30723 0.21368
14048 57.16800 597.38010 624.70291 0.21322
14049 57.17160 597.74223 626.64047 0.21256
14050 57.17520 597.98302 626.24307 0.21254
14051 57.17880 598.09643 626.84452 0.21243
14052 57.18240 598.07850 626.30483 0.21282
14053 57.18600 597.92817 626.06502 0.21302
14054 57.18960 597.64889 620.00152 0.21470
14055 57.19320 597.24095 621.30043 0.21438
14056 57.19680 596.71282 622.74983 0.21412
14057 57.20040 596.07317 619.87179 0.21474
14058 57.20400 595.33243 614.89161 0.21664
14059 57.20760 594.50229 617.26324 0.21566
14060 57.21120 593.59530 616.03858 0.21592
14061 57.21480 592.62440 615.44602 0.21625
14062 57.21840 591.60247 615.15857 0.21635
14063 57.22200 590.54196 611.54417 0.21772
14064 57.22560 589.45450 610.53585 0.21805
14065 57.22920 588.35055 609.43235 0.21862
14066 57.23280 587.23902 608.51441 0.21878
14067 57.23640 586.12695 606.64836 0.21915
14068 57.24000 585.01932 608.91359 0.21865
14069 57.24360 583.91927 609.35648 0.21867
14070 57.24720 582.82884 605.58673 0.22005
14071 57.25080 581.75024 605.41541 0.22004
14072 57.25440 580.68689 608.33919 0.21892
14073 57.25800 579.64353 603.61240 0.22071
14074 57.26160 578.62542 602.91228 0.22123
14075 57.26520 577.63732 602.88212 0.22135
14076 57.26880 576.68271 602.32240 0.22129
14077 57.27240 575.76366 596.64348 0.22334
14078 57.27600 574.88096 596.06043 0.22403
14079 57.27960 574.03427 593.94442 0.22439
14080 57.28320 573.22230 595.75238 0.22371
14081 57.28680 572.44279 592.96343 0.22472
14082 57.29040 571.69266 594.76353 0.22379
14083 57.29400 570.96837 591.55907 0.22522
14084 57.29760 570.26669 592.92772 0.22473
14085 57.30120 569.58555 593.68477 0.22442
14086 57.30480 568.92442 591.28478 0.22534
14087 57.30840 568.28406 590.70237 0.22562
14088 57.31200 567.66421 592.66292 0.22487
14089 57.31560 567.06883 589.14832 0.22596
14090 57.31920 566.49683 590.55224 0.22560
14091 57.32280 565.94801 589.20957 0.22624
14092 57.32640 565.42175 589.26468 0.22627
14093 57.33000 564.91717 589.95623 0.22572
14094 57.33360 564.43330 585.94898 0.22739
14095 57.33720 563.96915 586.90984 0.22695
14096 57.34080 563.52375 584.66264 0.22827
14097 57.34440 563.09621 584.97464 0.22818
14098 57.34800 562.68573 583.37642 0.22865
14099 57.35160 562.29156 584.22089 0.22822
14100 57.35520 561.91306 585.55645 0.22811
14101 57.35880 561.54966 586.89985 0.22727
14102 57.36240 561.20087 584.33367 0.22826
14103 57.36600 560.86551 584.92143 0.22791
14104 57.36960 560.54485 585.14232 0.22763
14105 57.37320 560.23786 586.32474 0.22724
14106 57.37680 559.94445 583.50969 0.22845
14107 57.38040 559.66459 584.80890 0.22783
14108 57.38400 559.39842 587.71424 0.22680
14109 57.38760 559.14619 587.92196 0.22680
14110 57.39120 558.90833 587.19517 0.22704
14111 57.39480 558.68552 584.52435 0.22782
14112 57.39840 558.47948 583.88566 0.22820
14113 57.40200 558.28927 582.74570 0.22871
14114 57.40560 558.11719 580.89315 0.22944
14115 57.40920 557.96469 583.02944 0.22838
14116 57.41280 557.83329 586.29489 0.22723
14117 57.41640 557.72441 585.51913 0.22737
14118 57.42000 557.63886 585.74117 0.22780
14119 57.42360 557.57848 586.55207 0.22758
14120 57.42720 557.53679 586.20545 0.22744
14121 57.43080 557.51057 588.23303 0.22655
14122 57.43440 557.49336 587.14905 0.22728
14123 57.43800 557.45760 585.21189 0.22812
14124 57.44160 557.43652 585.79799 0.22776
14125 57.44520 557.39720 587.70954 0.22686
14126 57.44880 557.35254 588.27370 0.22646
14127 57.45240 557.32466 585.91475 0.22728
14128 57.45600 557.29337 584.21144 0.22814
14129 57.45960 557.24438 585.82090 0.22747
14130 57.46320 557.15616 582.93325 0.22858
14131 57.46680 557.00666 583.79005 0.22838
14132 57.47040 556.78343 582.39381 0.22890
14133 57.47400 556.49043 582.79699 0.22860
14134 57.47760 556.14008 582.32238 0.22877
14135 57.48120 555.77143 583.51664 0.22838
14136 57.48480 555.40217 583.61081 0.22831
14137 57.48840 555.04997 580.48337 0.22944
14138 57.49200 554.72520 579.87819 0.22962
14139 57.49560 554.43253 579.18766 0.22977
14140 57.49920 554.17302 582.45267 0.22899
14141 57.50280 553.93801 579.00597 0.23055
14142 57.50640 553.74102 578.02394 0.23063
14143 57.51000 553.57350 576.73327 0.23088
14144 57.51360 553.43310 574.48007 0.23206
14145 57.51720 553.31788 577.65439 0.23120
14146 57.52080 553.22523 579.20846 0.23026
14147 57.52440 553.15123 577.51887 0.23076
14148 57.52800 553.08975 577.05901 0.23081
14149 57.53160 553.03202 574.53820 0.23179
14150 57.53520 552.96732 574.25076 0.23194
14151 57.53880 552.88537 574.94736 0.23161
14152 57.54240 552.77991 575.44865 0.23151
14153 57.54600 552.65145 575.40507 0.23175
14154 57.54960 552.50702 573.32912 0.23244
14155 57.55320 552.35720 574.60572 0.23201
14156 57.55680 552.21252 577.40398 0.23056
14157 57.56040 552.08109 576.66057 0.23114
14158 57.56400 551.96856 573.67844 0.23224
14159 57.56760 551.87547 573.93667 0.23209
14160 57.57120 551.80163 575.65925 0.23118
14161 57.57480 551.74329 578.42388 0.22985
14162 57.57840 551.69370 578.19712 0.23039
14163 57.58200 551.64343 574.03387 0.23236
14164 57.58560 551.58202 574.10711 0.23210
14165 57.58920 551.50107 574.88162 0.23174
14166 57.59280 551.39754 573.86097 0.23231
14167 57.59640 551.27503 575.20106 0.23215
14168 57.60000 551.14208 576.35649 0.23135
14169 57.60360 551.00880 577.03982 0.23102
14170 57.60720 550.88398 574.21437 0.23194
14171 57.61080 550.77372 575.78093 0.23147
14172 57.61440 550.68159 573.75640 0.23214
14173 57.61800 550.61082 574.12709 0.23196
14174 57.62160 550.55625 572.69153 0.23250
14175 57.62520 550.51671 571.86169 0.23317
14176 57.62880 550.48626 573.45355 0.23244
14177 57.63240 550.44973 572.46475 0.23295
14178 57.63600 550.40861 572.19063 0.23263
14179 57.63960 550.34604 572.45863 0.23287
14180 57.64320 550.25542 575.51099 0.23160
14181 57.64680 550.13675 572.85638 0.23263
14182 57.65040 549.99635 571.08488 0.23314
14183 57.65400 549.84386 571.42907 0.23261
14184 57.65760 549.68868 573.36245 0.23210
14185 57.66120 549.53777 573.69416 0.23239
14186 57.66480 549.39547 574.06070 0.23215
14187 57.66840 549.26354 573.99094 0.23203
14188 57.67200 549.14229 571.24037 0.23339
14189 57.67560 549.03117 573.98782 0.23246
14190 57.67920 548.92923 570.00324 0.23386
14191 57.68280 548.83542 568.91306 0.23432
14192 57.68640 548.74873 567.15334 0.23486
14193 57.69000 548.66824 569.05922 0.23426
14194 57.69360 548.59315 569.18536 0.23410
14195 57.69720 548.52263 572.95769 0.23230
14196 57.70080 548.45633 573.05907 0.23256
14197 57.70440 548.39378 569.26844 0.23423
14198 57.70800 548.33453 568.97775 0.23424
14199 57.71160 548.27825 568.05693 0.23460
14200 57.71520 548.22468 569.15968 0.23385
14201 57.71880 548.17361 569.65794 0.23395
14202 57.72240 548.12488 571.59791 0.23321
14203 57.72600 548.07836 568.90736 0.23426
14204 57.72960 548.03396 570.63550 0.23337
14205 57.73320 547.99161 569.33034 0.23356
14206 57.73680 547.95128 570.18718 0.23334
14207 57.74040 547.91297 570.29233 0.23369
14208 57.74400 547.87668 566.84698 0.23521
14209 57.74760 547.84248 567.53191 0.23479
14210 57.75120 547.81091 570.80796 0.23350
14211 57.75480 547.78066 568.31553 0.23476
14212 57.75840 547.74884 568.94785 0.23445
14213 57.76200 547.72427 570.33074 0.23366
14214 57.76560 547.70263 570.44338 0.23365
14215 57.76920 547.68425 570.54126 0.23365
14216 57.77280 547.66950 571.69675 0.23316
14217 57.77640 547.65879 567.94564 0.23451
14218 57.78000 547.65254 567.77595 0.23472
14219 57.78360 547.65110 566.99000 0.23520
14220 57.78720 547.65459 567.39549 0.23502
14221 57.79080 547.66274 568.44204 0.23440
14222 57.79440 547.67454 570.55861 0.23343
14223 57.79800 547.68762 572.76953 0.23260
14224 57.80160 547.69864 570.89736 0.23363
14225 57.80520 547.70310 572.36047 0.23291
14226 57.80880 547.69661 570.06366 0.23372
14227 57.81240 547.67650 568.96159 0.23396
14228 57.81600 547.64304 569.02955 0.23389
14229 57.81960 547.59936 567.46251 0.23488
14230 57.82320 547.55008 569.22186 0.23425
14231 57.82680 547.49980 567.73926 0.23469
14232 57.83040 547.45204 567.42303 0.23476
14233 57.83400 547.40906 565.15513 0.23585
14234 57.83760 547.37206 565.85603 0.23556
14235 57.84120 547.34155 567.98107 0.23465
14236 57.84480 547.31766 567.85710 0.23467
14237 57.84840 547.30035 565.51915 0.23575
14238 57.85200 547.28947 569.12853 0.23420
14239 57.85560 547.28477 565.52985 0.23562
14240 57.85920 547.28580 567.17098 0.23522
14241 57.86280 547.29172 564.24938 0.23638
14242 57.86640 547.30107 565.94350 0.23584
14243 57.87000 547.31168 565.56824 0.23563
14244 57.87360 547.31787 566.66185 0.23516
14245 57.87720 547.32277 566.89023 0.23508
14246 57.88080 547.32180 565.32003 0.23607
14247 57.88440 547.31513 566.07489 0.23562
14248 57.88800 547.30479 565.77355 0.23568
14249 57.89160 547.29391 569.22021 0.23408
14250 57.89520 547.28572 565.83525 0.23534
14251 57.89880 547.28292 568.53181 0.23444
14252 57.90240 547.28747 569.17273 0.23429
14253 57.90600 547.30067 566.05190 0.23553
14254 57.90960 547.32327 567.55447 0.23472
14255 57.91320 547.35549 567.74349 0.23494
14256 57.91680 547.39680 568.76569 0.23443
14257 57.92040 547.44550 569.87116 0.23401
14258 57.92400 547.49831 567.88609 0.23477
14259 57.92760 547.54960 568.57515 0.23454
14260 57.93120 547.59221 567.37538 0.23510
14261 57.93480 547.61861 566.86179 0.23510
14262 57.93840 547.62346 568.79298 0.23460
14263 57.94200 547.60591 568.51010 0.23474
14264 57.94560 547.56986 569.17292 0.23460
14265 57.94920 547.52226 565.48932 0.23587
14266 57.95280 547.45780 566.60264 0.23520
14267 57.95640 547.40765 567.95686 0.23465
14268 57.96000 547.36284 565.73181 0.23605
14269 57.96360 547.32530 566.18271 0.23566
14270 57.96720 547.29565 569.78113 0.23421
14271 57.97080 547.27381 568.06382 0.23463
14272 57.97440 547.25928 567.57507 0.23463
14273 57.97800 547.25147 565.30531 0.23596
14274 57.98160 547.24980 569.21599 0.23426
14275 57.98520 547.25375 568.80955 0.23469
14276 57.98880 547.26289 565.33957 0.23577
14277 57.99240 547.27686 570.06399 0.23401
14278 57.99600 547.29537 565.49014 0.23587
14279 57.99960 547.31815 565.99159 0.23569
14280 58.00320 547.34522 568.85104 0.23442
14281 58.00680 547.37511 565.59374 0.23573
14282 58.01040 547.40749 565.36914 0.23601
14283 58.01400 547.44127 567.77292 0.23484
14284 58.01760 547.47519 564.31441 0.23663
14285 58.02120 547.50819 564.29129 0.23676
14286 58.02480 547.53977 567.96255 0.23521
14287 58.02840 547.57021 565.90687 0.23597
14288 58.03200 547.60039 568.60896 0.23456
14289 58.03560 547.63158 563.97026 0.23665
14290 58.03920 547.66520 566.83506 0.23567
14291 58.04280 547.70082 567.00048 0.23552
14292 58.04640 547.73947 565.59094 0.23608
14293 58.05000 547.78131 565.95572 0.23583
14294 58.05360 547.82638 566.42686 0.23537
14295 58.05720 547.87463 566.01483 0.23580
14296 58.06080 547.92601 563.73954 0.23660
14297 58.06440 547.98062 565.58205 0.23631
14298 58.06800 548.03813 566.61820 0.23561
14299 58.07160 548.09690 566.10532 0.23581
14300 58.07520 548.14752 565.17013 0.23623
14301 58.07880 548.21436 567.45703 0.23519
14302 58.08240 548.28441 568.24759 0.23489
14303 58.08600 548.35774 567.97333 0.23490
14304 58.08960 548.43440 565.86602 0.23597
14305 58.09320 548.51420 565.78367 0.23603
14306 58.09680 548.59780 564.97822 0.23655
14307 58.10040 548.68498 566.92856 0.23586
14308 58.10400 548.77586 566.37892 0.23619
14309 58.10760 548.87055 565.80205 0.23636
14310 58.11120 548.96916 564.86274 0.23632
14311 58.11480 549.07267 563.52941 0.23698
14312 58.11840 549.17957 564.68673 0.23659
14313 58.12200 549.29085 566.27351 0.23615
14314 58.12560 549.40666 567.64076 0.23517
14315 58.12920 549.52720 563.66519 0.23693
14316 58.13280 549.65266 567.16431 0.23529
14317 58.13640 549.78325 563.32034 0.23698
14318 58.14000 549.91905 565.53975 0.23580
14319 58.14360 550.06050 563.96646 0.23693
14320 58.14720 550.20788 564.05081 0.23697
14321 58.15080 550.36136 565.69661 0.23608
14322 58.15440 550.52123 565.18399 0.23627
14323 58.15800 550.68781 563.98790 0.23667
14324 58.16160 550.86139 564.89939 0.23634
14325 58.16520 551.04233 567.46776 0.23534
14326 58.16880 551.23097 564.88522 0.23636
14327 58.17240 551.42771 564.71467 0.23651
14328 58.17600 551.63292 565.64643 0.23629
14329 58.17960 551.84717 565.16097 0.23667
14330 58.18320 552.07072 565.71445 0.23644
14331 58.18680 552.30438 565.64022 0.23638
14332 58.19040 552.55186 566.53086 0.23567
14333 58.19400 552.80679 565.52045 0.23597
14334 58.19760 553.09060 563.41880 0.23721
14335 58.20120 553.36917 565.04262 0.23665
14336 58.20480 553.66130 564.49331 0.23655
14337 58.20840 553.96379 566.28850 0.23584
14338 58.21200 554.27964 565.43994 0.23617
14339 58.21560 554.60937 566.56918 0.23575
14340 58.21920 554.95350 568.39014 0.23502
14341 58.22280 555.31248 569.04383 0.23483
14342 58.22640 555.68675 566.27390 0.23625
14343 58.23000 556.07666 566.95947 0.23551
14344 58.23360 556.48250 565.46816 0.23617
14345 58.23720 556.90445 566.98676 0.23537
14346 58.24080 557.34275 567.07801 0.23549
14347 58.24440 557.79687 570.22863 0.23434
14348 58.24800 558.26670 568.81703 0.23485
14349 58.25160 558.75167 571.24260 0.23383
14350 58.25520 559.25096 570.96902 0.23400
14351 58.25880 559.76339 568.34924 0.23547
14352 58.26240 560.28744 568.05227 0.23554
14353 58.26600 560.82115 569.86374 0.23458
14354 58.26960 561.36213 571.50048 0.23370
14355 58.27320 561.90745 570.08235 0.23416
14356 58.27680 562.45370 568.31788 0.23520
14357 58.28040 562.99691 567.18704 0.23573
14358 58.28400 563.53165 573.61904 0.23286
14359 58.28760 564.05479 573.22133 0.23311
14360 58.29120 564.55987 572.26729 0.23335
14361 58.29480 565.04107 570.01583 0.23440
14362 58.29840 565.49226 569.71612 0.23452
14363 58.30200 565.90723 569.91555 0.23443
14364 58.30560 566.27977 572.89063 0.23365
14365 58.30920 566.60381 574.28471 0.23264
14366 58.31280 566.87181 573.50778 0.23295
14367 58.31640 567.08350 570.70634 0.23394
14368 58.32000 567.23256 570.49495 0.23420
14369 58.32360 567.31610 572.15718 0.23349
14370 58.32720 567.33240 574.86843 0.23227
14371 58.33080 567.28100 571.99695 0.23350
14372 58.33440 567.16278 570.97870 0.23398
14373 58.33800 566.97986 570.87878 0.23442
14374 58.34160 566.73559 571.56284 0.23409
14375 58.34520 566.43437 573.43889 0.23310
14376 58.34880 566.08279 574.64283 0.23245
14377 58.35240 565.68424 573.28185 0.23282
14378 58.35600 565.24651 575.51645 0.23228
14379 58.35960 564.77632 575.95397 0.23210
14380 58.36320 564.28056 574.69428 0.23248
14381 58.36680 563.76597 571.64117 0.23356
14382 58.37040 563.23908 567.43258 0.23537
14383 58.37400 562.70610 572.51526 0.23340
14384 58.37760 562.17273 573.45081 0.23291
14385 58.38120 561.64407 572.52238 0.23329
14386 58.38480 561.12336 572.38793 0.23383
14387 58.38840 560.61557 572.55491 0.23329
14388 58.39200 560.12110 571.51489 0.23366
14389 58.39560 559.63913 571.88399 0.23350
14390 58.39920 559.16630 573.26250 0.23301
14391 58.40280 558.69713 573.37678 0.23305
14392 58.40640 558.22556 575.37303 0.23200
14393 58.41000 557.74751 573.42950 0.23288
14394 58.41360 557.26300 574.75500 0.23227
14395 58.41720 556.77645 574.50352 0.23284
14396 58.42080 556.29507 572.31967 0.23380
14397 58.42440 555.82550 572.43958 0.23354
14398 58.42800 555.37341 572.84956 0.23327
14399 58.43160 554.94170 573.11216 0.23295
14400 58.43520 554.53194 572.85639 0.23327
14401 58.43880 554.14497 573.05888 0.23330
14402 58.44240 553.77956 572.28675 0.23344
14403 58.44600 553.43467 570.89772 0.23374
14404 58.44960 553.10912 570.74149 0.23396
14405 58.45320 552.80168 570.64635 0.23407
14406 58.45680 552.51122 567.10911 0.23555
14407 58.46040 552.23665 565.21913 0.23619
14408 58.46400 551.97699 565.23339 0.23685
14409 58.46760 551.73134 565.70458 0.23626
14410 58.47120 551.49888 565.39477 0.23608
14411 58.47480 551.27887 567.20531 0.23562
14412 58.47840 551.07064 566.67160 0.23574
14413 58.48200 550.87355 567.55882 0.23540
14414 58.48560 550.68618 566.74903 0.23544
14415 58.48920 550.50971 564.37103 0.23657
14416 58.49280 550.34291 566.02356 0.23587
14417 58.49640 550.18529 566.71858 0.23585
14418 58.50000 550.03645 567.18400 0.23569
14419 58.50360 549.89604 566.12327 0.23616
14420 58.50720 549.76373 564.22941 0.23678
14421 58.51080 549.63922 566.60503 0.23557
14422 58.51440 549.52226 566.55393 0.23558
14423 58.51800 549.41262 566.54933 0.23598
14424 58.52160 549.31008 565.05539 0.23646
14425 58.52520 549.21449 566.27550 0.23567
14426 58.52880 549.12570 564.99930 0.23622
14427 58.53240 549.04362 563.50866 0.23706
14428 58.53600 548.96818 565.01200 0.23618
14429 58.53960 548.89937 565.62036 0.23593
14430 58.54320 548.83720 563.45129 0.23735
14431 58.54680 548.78177 562.64128 0.23764
14432 58.55040 548.73322 565.54313 0.23594
14433 58.55400 548.69173 567.04878 0.23537
14434 58.55760 548.65758 566.64208 0.23573
14435 58.56120 548.63110 566.58120 0.23574
14436 58.56480 548.61263 565.95025 0.23563
14437 58.56840 548.60252 567.25453 0.23523
14438 58.57200 548.60099 567.11561 0.23523
14439 58.57560 548.60795 565.69480 0.23600
14440 58.57920 548.62272 565.36606 0.23617
14441 58.58280 548.64366 566.24673 0.23595
14442 58.58640 548.66782 567.94675 0.23507
14443 58.59000 548.69087 567.84239 0.23510
14444 58.59360 548.70783 566.39824 0.23549
14445 58.59720 548.71440 564.88767 0.23653
14446 58.60080 548.70874 566.97500 0.23551
14447 58.60440 548.69228 567.79547 0.23514
14448 58.60800 548.66905 563.71358 0.23679
14449 58.61160 548.64397 564.80486 0.23659
14450 58.61520 548.62150 566.92614 0.23554
14451 58.61880 548.60473 563.94988 0.23667
14452 58.62240 548.59542 563.39988 0.23726
14453 58.62600 548.59432 567.01432 0.23584
14454 58.62960 548.60152 567.55570 0.23540
14455 58.63320 548.61680 567.22817 0.23528
14456 58.63680 548.63977 563.33118 0.23714
14457 58.64040 548.67004 563.77447 0.23702
14458 58.64400 548.70722 564.45009 0.23655
14459 58.64760 548.75098 564.46072 0.23657
14460 58.65120 548.80106 563.23466 0.23699
14461 58.65480 548.85694 564.86995 0.23640
14462 58.65840 548.91896 565.70811 0.23602
14463 58.66200 548.98695 561.63370 0.23792
14464 58.66560 549.06073 560.62828 0.23813
14465 58.66920 549.14026 564.37834 0.23655
14466 58.67280 549.22555 565.44718 0.23588
14467 58.67640 549.31664 563.84886 0.23682
14468 58.68000 549.41357 566.00439 0.23589
14469 58.68360 549.51644 565.94182 0.23592
14470 58.68720 549.62535 565.63368 0.23606
14471 58.69080 549.74040 566.03180 0.23608
14472 58.69440 549.86175 567.60125 0.23538
14473 58.69800 549.98955 567.15713 0.23551
14474 58.70160 550.12399 567.88368 0.23533
14475 58.70520 550.26561 564.35316 0.23695
14476 58.70880 550.41386 568.71177 0.23488
14477 58.71240 550.56935 564.27825 0.23666
14478 58.71600 550.73233 562.03785 0.23757
14479 58.71960 550.89745 563.35053 0.23712
14480 58.72320 551.07608 565.14336 0.23638
14481 58.72680 551.26297 565.68811 0.23605
14482 58.73040 551.46020 566.38423 0.23565
14483 58.73400 551.66483 566.35561 0.23581
14484 58.73760 551.87876 564.37717 0.23652
14485 58.74120 552.10236 564.80720 0.23644
14486 58.74480 552.33605 564.77958 0.23623
14487 58.74840 552.58023 566.02438 0.23584
14488 58.75200 552.83545 568.29023 0.23479
14489 58.75560 553.10194 566.71491 0.23553
14490 58.75920 553.38031 567.21584 0.23533
14491 58.76280 553.67105 567.94720 0.23490
14492 58.76640 553.97471 565.08274 0.23635
14493 58.77000 554.29183 567.44136 0.23543
14494 58.77360 554.62298 568.60191 0.23514
14495 58.77720 554.96876 566.35444 0.23591
14496 58.78080 555.32972 565.34576 0.23635
14497 58.78440 555.70599 569.13713 0.23503
14498 58.78800 556.09941 567.37545 0.23540
14499 58.79160 556.51000 567.53281 0.23528
14500 58.79520 556.93841 569.59710 0.23468
14501 58.79880 557.38532 567.39244 0.23549
14502 58.80240 557.84835 573.55258 0.23297
14503 58.80600 558.33384 570.42282 0.23413
14504 58.80960 558.83998 570.89726 0.23399
14505 58.81320 559.36697 571.27929 0.23380
14506 58.81680 559.91516 570.69047 0.23396
14507 58.82040 560.48468 571.67631 0.23367
14508 58.82400 561.07523 572.83671 0.23300
14509 58.82760 561.68586 572.30779 0.23337
14510 58.83120 562.31454 573.66423 0.23278
14511 58.83480 562.95770 575.64685 0.23189
14512 58.83840 563.60986 575.34721 0.23204
14513 58.84200 564.26366 571.60634 0.23349
14514 58.84560 564.91077 571.34330 0.23383
14515 58.84920 565.54365 571.19123 0.23390
14516 58.85280 566.15779 573.68178 0.23314
14517 58.85640 566.75081 572.69160 0.23332
14518 58.86000 567.32229 573.35270 0.23292
14519 58.86360 567.87227 572.36961 0.23369
14520 58.86720 568.39795 570.23458 0.23443
14521 58.87080 568.89340 571.93717 0.23367
14522 58.87440 569.34873 573.12375 0.23319
14523 58.87800 569.75126 573.61266 0.23316
14524 58.88160 570.08741 570.94637 0.23403
14525 58.88520 570.34576 572.33436 0.23320
14526 58.88880 570.52041 575.27238 0.23216
14527 58.89240 570.60956 575.93127 0.23195
14528 58.89600 570.61750 571.46334 0.23379
14529 58.89960 570.54971 576.07249 0.23187
14530 58.90320 570.41126 574.64071 0.23223
14531 58.90680 570.20620 571.48123 0.23376
14532 58.91040 569.93807 571.81317 0.23363
14533 58.91400 569.61098 572.93938 0.23299
14534 58.91760 569.23034 573.73063 0.23273
14535 58.92120 568.80294 572.83177 0.23301
14536 58.92480 568.33652 573.98496 0.23274
14537 58.92840 567.83910 575.00185 0.23227
14538 58.93200 567.31862 571.14634 0.23425
14539 58.93560 566.78255 571.56367 0.23380
14540 58.93920 566.23608 566.77327 0.23573
14541 58.94280 565.68475 566.82187 0.23587
14542 58.94640 565.13166 569.69273 0.23476
14543 58.95000 564.57256 568.87411 0.23506
14544 58.95360 564.01413 569.28611 0.23470
14545 58.95720 563.44732 570.98072 0.23416
14546 58.96080 562.86623 567.62383 0.23550
14547 58.96440 562.26771 569.40625 0.23455
14548 58.96800 561.65347 569.66881 0.23462
14549 58.97160 561.03022 566.01442 0.23610
14550 58.97520 560.40771 567.94940 0.23535
14551 58.97880 559.79589 566.08109 0.23600
14552 58.98240 559.20048 568.21488 0.23497
14553 58.98600 558.62726 565.87905 0.23621
14554 58.98960 558.07790 564.05152 0.23688
14555 58.99320 557.55336 567.32579 0.23533
14556 58.99680 557.05333 565.09886 0.23628
14557 59.00040 556.57716 565.37000 0.23623
14558 59.00400 556.12344 566.86553 0.23576
14559 59.00760 555.69120 567.27794 0.23555
14560 59.01120 555.27934 566.24237 0.23631
14561 59.01480 554.88678 566.78894 0.23587
14562 59.01840 554.51254 568.89727 0.23499
14563 59.02200 554.15570 566.61438 0.23604
14564 59.02560 553.81545 567.65013 0.23572
14565 59.02920 553.49103 564.59389 0.23704
14566 59.03280 553.18204 561.42237 0.23822
14567 59.03640 552.88734 561.78712 0.23806
14568 59.04000 552.60663 565.10848 0.23667
14569 59.04360 552.33945 561.75914 0.23799
14570 59.04720 552.08784 565.53895 0.23637
14571 59.05080 551.84658 562.02471 0.23796
14572 59.05440 551.61780 564.58029 0.23701
14573 59.05800 551.40123 563.69467 0.23717
14574 59.06160 551.19737 564.71858 0.23655
14575 59.06520 551.00428 564.21971 0.23685
14576 59.06880 550.82215 560.50846 0.23829
14577 59.07240 550.65005 566.01908 0.23602
14578 59.07600 550.48648 569.14792 0.23469
14579 59.07960 550.32939 567.05760 0.23567
14580 59.08320 550.17679 565.04492 0.23657
14581 59.08680 550.02533 564.91065 0.23665
14582 59.09040 549.87405 565.21670 0.23681
14583 59.09400 549.72299 564.18360 0.23719
14584 59.09760 549.57349 565.26869 0.23656
14585 59.10120 549.42752 565.52446 0.23668
14586 59.10480 549.28701 562.40525 0.23803
14587 59.10840 549.15334 561.60305 0.23843
14588 59.11200 549.02726 560.50984 0.23885
14589 59.11560 548.90900 562.94096 0.23747
14590 59.11920 548.79841 560.83977 0.23842
14591 59.12280 548.69511 558.53336 0.23974
14592 59.12640 548.59853 558.00396 0.23981
14593 59.13000 548.50801 562.13675 0.23825
14594 59.13360 548.42296 559.75828 0.23918
14595 59.13720 548.34328 559.06151 0.23927
14596 59.14080 548.26796 561.25949 0.23828
14597 59.14440 548.19736 559.53075 0.23880
14598 59.14800 548.13157 560.20773 0.23861
14599 59.15160 548.07071 561.96787 0.23789
14600 59.15520 548.01484 561.21748 0.23835
14601 59.15880 547.96396 564.46384 0.23697
14602 59.16240 547.91802 562.20115 0.23791
14603 59.16600 547.87695 564.22217 0.23718
14604 59.16960 547.84093 565.22764 0.23699
14605 59.17320 547.80931 564.43730 0.23734
14606 59.17680 547.78230 565.98252 0.23644
14607 59.18040 547.75984 564.06686 0.23739
14608 59.18400 547.74189 562.68366 0.23803
14609 59.18760 547.72838 560.64017 0.23909
14610 59.19120 547.71927 559.69393 0.23942
14611 59.19480 547.71450 562.31111 0.23798
14612 59.19840 547.71406 565.47487 0.23650
14613 59.20200 547.71753 562.96363 0.23811
14614 59.20560 547.72480 564.07546 0.23743
14615 59.20920 547.73559 562.88833 0.23819
14616 59.21280 547.74969 560.14565 0.23931
14617 59.21640 547.76708 560.44895 0.23892
14618 59.22000 547.78792 562.79398 0.23813
14619 59.22360 547.81257 563.46049 0.23733
14620 59.22720 547.84149 561.78884 0.23831
14621 59.23080 547.87512 557.86479 0.23983
14622 59.23440 547.91385 559.69500 0.23920
14623 59.23800 547.95797 560.94416 0.23874
14624 59.24160 548.00770 561.54775 0.23842
14625 59.24520 548.06310 558.30605 0.23983
14626 59.24880 548.12396 560.74719 0.23901
14627 59.25240 548.18967 560.93785 0.23913
14628 59.25600 548.25836 561.02084 0.23866
14629 59.25960 548.32934 560.25014 0.23897
14630 59.26320 548.39955 561.60052 0.23841
14631 59.26680 548.46645 558.87800 0.23987
14632 59.27040 548.52890 560.34500 0.23910
14633 59.27400 548.58574 560.77397 0.23883
14634 59.27760 548.63897 559.87919 0.23874
14635 59.28120 548.69095 558.53195 0.23982
14636 59.28480 548.74409 563.81790 0.23750
14637 59.28840 548.80054 560.53948 0.23904
14638 59.29200 548.86087 558.38932 0.24001
14639 59.29560 548.92591 559.54402 0.23922
14640 59.29920 548.99574 560.02986 0.23929
14641 59.30280 549.07022 558.56396 0.23963
14642 59.30640 549.14908 559.76367 0.23925
14643 59.31000 549.23200 558.31301 0.23969
14644 59.31360 549.31867 557.36253 0.24034
14645 59.31720 549.40889 561.39604 0.23858
14646 59.32080 549.50207 561.51006 0.23842
14647 59.32440 549.59807 563.25212 0.23773
14648 59.32800 549.69664 559.18355 0.23967
14649 59.33160 549.79751 560.02999 0.23949
14650 59.33520 549.90045 559.92942 0.23923
14651 59.33880 550.00520 561.35397 0.23847
14652 59.34240 550.11155 563.37695 0.23751
14653 59.34600 550.21925 561.50361 0.23872
14654 59.34960 550.32806 560.93465 0.23901
14655 59.35320 550.43775 563.15803 0.23798
14656 59.35680 550.54806 562.01744 0.23800
14657 59.36040 550.65875 563.55885 0.23761
14658 59.36400 550.76955 558.42193 0.23982
14659 59.36760 550.88019 564.77301 0.23715
14660 59.37120 550.99040 563.10256 0.23807
14661 59.37480 551.09990 562.91070 0.23789
14662 59.37840 551.20841 562.65427 0.23822
14663 59.38200 551.31564 561.69457 0.23860
14664 59.38560 551.42130 562.01554 0.23837
14665 59.38920 551.52510 562.64222 0.23783
14666 59.39280 551.62674 563.76467 0.23771
14667 59.39640 551.72594 560.33962 0.23922
14668 59.40000 551.82239 562.48434 0.23819
14669 59.40360 551.91582 565.92621 0.23677
14670 59.40720 552.00592 561.26553 0.23890
14671 59.41080 552.09243 561.19971 0.23898
14672 59.41440 552.17509 561.60462 0.23862
14673 59.41800 552.25362 562.34757 0.23780
14674 59.42160 552.32781 562.40344 0.23809
14675 59.42520 552.39742 566.33910 0.23678
14676 59.42880 552.46223 566.92631 0.23659
14677 59.43240 552.52201 564.16732 0.23773
14678 59.43600 552.57653 564.90680 0.23686
14679 59.43960 552.62547 562.03607 0.23826
14680 59.44320 552.66846 562.17891 0.23837
14681 59.44680 552.70455 563.94229 0.23745
14682 59.45040 552.73410 562.12322 0.23847
14683 59.45400 552.75622 562.82255 0.23810
14684 59.45760 552.77035 563.05416 0.23786
14685 59.46120 552.77655 565.41644 0.23716
14686 59.46480 552.77509 564.93907 0.23698
14687 59.46840 552.76644 563.44728 0.23760
14688 59.47200 552.75112 562.04692 0.23856
14689 59.47560 552.72956 565.65231 0.23712
14690 59.47920 552.70213 565.54933 0.23702
14691 59.48280 552.66912 564.33082 0.23758
14692 59.48640 552.63078 560.40935 0.23921
14693 59.49000 552.58735 562.94815 0.23828
14694 59.49360 552.53915 562.43241 0.23847
14695 59.49720 552.48648 564.97497 0.23687
14696 59.50080 552.42968 560.45123 0.23890
14697 59.50440 552.36919 560.12712 0.23940
14698 59.50800 552.30553 560.99358 0.23904
14699 59.51160 552.23925 562.77945 0.23837
14700 59.51520 552.17098 562.77282 0.23793
14701 59.51880 552.10139 562.12149 0.23816
14702 59.52240 552.03119 560.23730 0.23937
14703 59.52600 551.96103 562.60992 0.23807
14704 59.52960 551.89140 559.26131 0.23977
14705 59.53320 551.82245 560.42456 0.23931
14706 59.53680 551.75395 561.81848 0.23829
14707 59.54040 551.68388 562.14203 0.23880
14708 59.54400 551.60982 562.47664 0.23823
14709 59.54760 551.52805 563.25011 0.23770
14710 59.55120 551.43463 563.28407 0.23798
14711 59.55480 551.32676 564.57266 0.23764
14712 59.55840 551.20427 566.92907 0.23645
14713 59.56200 551.06977 567.53828 0.23635
14714 59.56560 550.92765 563.94387 0.23775
14715 59.56920 550.78264 566.71005 0.23674
14716 59.57280 550.63861 566.23876 0.23690
14717 59.57640 550.49815 564.32978 0.23741
14718 59.58000 550.36266 564.91659 0.23697
14719 59.58360 550.23259 565.14349 0.23740
14720 59.58720 550.10759 563.32423 0.23819
14721 59.59080 549.98677 562.88639 0.23836
14722 59.59440 549.86875 563.98519 0.23771
14723 59.59800 549.75204 565.45741 0.23680
14724 59.60160 549.63541 561.90879 0.23863
14725 59.60520 549.51839 561.55010 0.23865
14726 59.60880 549.40140 563.29420 0.23799
14727 59.61240 549.28551 562.25450 0.23874
14728 59.61600 549.17203 562.32376 0.23819
14729 59.61960 549.06210 560.24323 0.23965
14730 59.62320 548.95660 560.15997 0.23944
14731 59.62680 548.85591 557.91258 0.23994
14732 59.63040 548.76040 560.73049 0.23907
14733 59.63400 548.67025 562.19279 0.23894
14734 59.63760 548.58559 560.14275 0.23955
14735 59.64120 548.50657 564.22829 0.23774
14736 59.64480 548.43340 560.65702 0.23928
14737 59.64840 548.36634 563.98324 0.23814
14738 59.65200 548.30577 562.67605 0.23860
14739 59.65560 548.25213 560.03160 0.23949
14740 59.65920 548.20601 561.92385 0.23812
14741 59.66280 548.16811 561.59223 0.23905
14742 59.66640 548.13926 559.29913 0.24000
14743 59.67000 548.12038 561.75385 0.23880
14744 59.67360 548.11245 560.43929 0.23939
14745 59.67720 548.11635 561.99749 0.23843
14746 59.68080 548.13265 565.64673 0.23713
14747 59.68440 548.16120 561.24817 0.23902
14748 59.68800 548.20049 561.31094 0.23882
14749 59.69160 548.24700 562.37114 0.23883
14750 59.69520 548.29469 561.10003 0.23888
14751 59.69880 548.33483 561.67417 0.23888
14752 59.70240 548.35993 561.86564 0.23898
14753 59.70600 548.36354 562.21320 0.23834
14754 59.70960 548.34516 561.90796 0.23867
14755 59.71320 548.31012 565.16692 0.23764
14756 59.71680 548.26728 562.09928 0.23884
14757 59.72040 548.22558 558.42111 0.24022
14758 59.72400 548.19121 560.70475 0.23973
14759 59.72760 548.16625 560.29077 0.23984
14760 59.73120 548.14870 561.48055 0.23938
14761 59.73480 548.13278 565.78132 0.23730
14762 59.73840 548.11394 563.73768 0.23759
14763 59.74200 548.08717 562.43125 0.23866
14764 59.74560 548.05202 565.03534 0.23762
14765 59.74920 548.01211 563.63658 0.23807
14766 59.75280 547.97351 562.76303 0.23861
14767 59.75640 547.94253 563.97449 0.23791
14768 59.76000 547.92406 560.76616 0.23941
14769 59.76360 547.92111 562.22820 0.23875
14770 59.76720 547.93469 560.88239 0.23895
14771 59.77080 547.96353 559.39389 0.24001
14772 59.77440 548.00430 560.58239 0.23944
14773 59.77800 548.05141 558.58600 0.24034
14774 59.78160 548.09751 558.94080 0.24049
14775 59.78520 548.13526 561.05556 0.23919
14776 59.78880 548.15830 559.00789 0.24010
14777 59.79240 548.16568 559.90790 0.24014
14778 59.79600 548.16076 557.07072 0.24116
14779 59.79960 548.15007 556.81017 0.24093
14780 59.80320 548.14072 557.34960 0.24133
14781 59.80680 548.13861 554.79034 0.24229
14782 59.81040 548.14762 555.39076 0.24222
14783 59.81400 548.16892 554.81958 0.24234
14784 59.81760 548.20461 555.43648 0.24148
14785 59.82120 548.25305 555.64512 0.24154
14786 59.82480 548.31233 557.34855 0.24115
14787 59.82840 548.37948 558.37757 0.24052
14788 59.83200 548.45076 557.84390 0.24086
14789 59.83560 548.52243 555.00493 0.24196
14790 59.83920 548.59185 560.29417 0.23972
14791 59.84280 548.65850 556.38777 0.24150
14792 59.84640 548.72477 557.16842 0.24073
14793 59.85000 548.79239 558.22426 0.24044
14794 59.85360 548.86542 557.58048 0.24104
14795 59.85720 548.94660 557.47229 0.24082
14796 59.86080 549.03768 557.93804 0.24105
14797 59.86440 549.13937 560.05696 0.24016
14798 59.86800 549.25143 558.09435 0.24071
14799 59.87160 549.37261 554.91444 0.24237
14800 59.87520 549.50067 557.73199 0.24117
14801 59.87880 549.63258 558.51379 0.24046
14802 59.88240 549.76512 558.47593 0.24088
14803 59.88600 549.89591 556.24254 0.24191
14804 59.88960 550.02442 557.00780 0.24158
14805 59.89320 550.15224 556.30499 0.24161
14806 59.89680 550.28244 555.11506 0.24206
14807 59.90040 550.41851 556.56523 0.24093
14808 59.90400 550.56344 556.59944 0.24176
14809 59.90760 550.71514 553.87761 0.24246
14810 59.91120 550.88281 554.16486 0.24253
14811 59.91480 551.06300 556.87883 0.24132
14812 59.91840 551.24154 556.91217 0.24142
14813 59.92200 551.42306 556.06774 0.24187
14814 59.92560 551.62828 557.14342 0.24116
14815 59.92920 551.83281 554.78242 0.24199
14816 59.93280 552.03052 556.99741 0.24146
14817 59.93640 552.21641 555.28959 0.24193
14818 59.94000 552.38838 554.72114 0.24235
14819 59.94360 552.54868 557.56523 0.24140
14820 59.94720 552.70182 555.97350 0.24173
14821 59.95080 552.85333 553.08651 0.24318
14822 59.95440 553.00793 557.22768 0.24154
14823 59.95800 553.16871 558.83590 0.24065
14824 59.96160 553.33709 554.69584 0.24260
14825 59.96520 553.51310 556.83437 0.24176
14826 59.96880 553.69557 555.10840 0.24251
14827 59.97240 553.88222 555.33471 0.24226
14828 59.97600 554.06955 557.36581 0.24128
14829 59.97960 554.25528 555.92511 0.24114
14830 59.98320 554.42883 555.48179 0.24262
14831 59.98680 554.58691 555.83024 0.24187
14832 59.99040 554.72525 556.19616 0.24165
14833 59.99400 554.84196 556.24179 0.24181
14834 59.99760 554.93764 553.91522 0.24293
14835 60.00120 555.01439 555.73826 0.24217
14836 60.00480 555.07460 556.03053 0.24204
14837 60.00840 555.11922 558.71360 0.24048
14838 60.01200 555.14898 557.08107 0.24162
14839 60.01560 555.16361 555.82279 0.24199
14840 60.01920 555.16239 556.43282 0.24169
14841 60.02280 555.14449 557.61363 0.24172
14842 60.02640 555.10911 553.83378 0.24291
14843 60.03000 555.05563 554.18979 0.24282
14844 60.03360 554.98357 555.69747 0.24242
14845 60.03720 554.89251 558.23859 0.24126
14846 60.04080 554.78530 556.23919 0.24211
14847 60.04440 554.65511 558.20178 0.24149
14848 60.04800 554.50501 556.74536 0.24203
14849 60.05160 554.33539 555.14611 0.24268
14850 60.05520 554.14766 553.64902 0.24320
14851 60.05880 553.94371 554.30451 0.24264
14852 60.06240 553.72643 552.73294 0.24362
14853 60.06600 553.49965 554.23906 0.24305
14854 60.06960 553.26402 552.34608 0.24357
14855 60.07320 553.02275 552.99262 0.24350
14856 60.07680 552.78245 552.56264 0.24377
14857 60.08040 552.53509 554.31250 0.24276
14858 60.08400 552.28671 556.17548 0.24223
14859 60.08760 552.03839 552.97643 0.24322
14860 60.09120 551.79105 552.78216 0.24348
14861 60.09480 551.54551 552.00112 0.24389
14862 60.09840 551.30247 554.84423 0.24259
14863 60.10200 551.06254 558.63701 0.24136
14864 60.10560 550.82624 556.80252 0.24201
14865 60.10920 550.59405 549.86931 0.24469
14866 60.11280 550.36634 549.96306 0.24478
14867 60.11640 550.14346 553.12749 0.24357
14868 60.12000 549.92550 553.96957 0.24295
14869 60.12360 549.71315 553.45880 0.24351
14870 60.12720 549.50647 553.30602 0.24356
14871 60.13080 549.30565 553.04611 0.24366
14872 60.13440 549.11090 551.31960 0.24419
14873 60.13800 548.92239 554.27194 0.24269
14874 60.14160 548.74024 552.68839 0.24338
14875 60.14520 548.56446 555.08700 0.24281
14876 60.14880 548.39487 554.65471 0.24254
14877 60.15240 548.23100 552.86992 0.24346
14878 60.15600 548.07308 555.26703 0.24254
14879 60.15960 547.91738 551.18160 0.24413
14880 60.16320 547.76326 552.43464 0.24396
14881 60.16680 547.60895 550.15888 0.24472
14882 60.17040 547.45332 552.25563 0.24367
14883 60.17400 547.29632 551.49387 0.24404
14884 60.17760 547.13896 550.11200 0.24470
14885 60.18120 546.98283 552.84819 0.24369
14886 60.18480 546.82953 550.93425 0.24470
14887 60.18840 546.68027 549.45086 0.24499
14888 60.19200 546.53577 551.77148 0.24400
14889 60.19560 546.39631 553.05862 0.24368
14890 60.19920 546.26194 551.25246 0.24426
14891 60.20280 546.13250 550.66972 0.24467
14892 60.20640 546.00817 552.35866 0.24387
14893 60.21000 545.88793 553.62389 0.24334
14894 60.21360 545.77191 550.92356 0.24440
14895 60.21720 545.65991 550.58124 0.24433
14896 60.22080 545.55170 552.33731 0.24339
14897 60.22440 545.44710 552.47510 0.24379
14898 60.22800 545.34597 550.73140 0.24415
14899 60.23160 545.24814 552.74826 0.24344
14900 60.23520 545.15351 554.08934 0.24306
14901 60.23880 545.06197 552.13890 0.24375
14902 60.24240 544.97342 550.32391 0.24486
14903 60.24600 544.88780 550.24268 0.24480
14904 60.24960 544.80504 549.52915 0.24480
14905 60.25320 544.72511 549.02075 0.24495
14906 60.25680 544.64891 550.53895 0.24451
14907 60.26040 544.57455 550.48455 0.24449
14908 60.26400 544.50297 550.27908 0.24496
14909 60.26760 544.43461 551.05406 0.24441
14910 60.27120 544.37137 551.17166 0.24425
14911 60.27480 544.30834 551.33197 0.24437
14912 60.27840 544.24824 551.50446 0.24409
14913 60.28200 544.19110 551.13993 0.24444
14914 60.28560 544.13687 550.18268 0.24489
14915 60.28920 544.08537 548.04294 0.24564
14916 60.29280 544.03654 551.92174 0.24385
14917 60.29640 543.98909 550.95528 0.24424
14918 60.30000 543.94234 548.26096 0.24515
14919 60.30360 543.89519 551.71728 0.24381
14920 60.30720 543.84666 550.20435 0.24451
14921 60.31080 543.79633 549.25666 0.24476
14922 60.31440 543.74452 553.83622 0.24307
14923 60.31800 543.69214 550.95317 0.24421
14924 60.32160 543.64029 549.46562 0.24497
14925 60.32520 543.58985 548.88034 0.24525
14926 60.32880 543.54157 549.90414 0.24458
14927 60.33240 543.49569 550.13859 0.24445
14928 60.33600 543.45214 551.27743 0.24416
14929 60.33960 543.41054 552.59216 0.24356
14930 60.34320 543.37032 554.61859 0.24301
14931 60.34680 543.33085 553.72874 0.24324
14932 60.35040 543.29170 550.96479 0.24432
14933 60.35400 543.25274 551.54016 0.24432
14934 60.35760 543.21420 551.13681 0.24437
14935 60.36120 543.17652 552.56828 0.24356
14936 60.36480 543.14016 550.10320 0.24464
14937 60.36840 543.10575 552.28410 0.24359
14938 60.37200 543.07303 551.07918 0.24398
14939 60.37560 543.04233 554.63526 0.24256
14940 60.37920 543.01368 552.02284 0.24342
14941 60.38280 542.98701 552.47963 0.24326
14942 60.38640 542.96215 549.21904 0.24501
14943 60.39000 542.93881 554.42389 0.24255
14944 60.39360 542.91658 551.45436 0.24406
14945 60.39720 542.89491 550.66214 0.24421
14946 60.40080 542.87322 553.81924 0.23678
14947 60.40440 542.85104 554.00874 0.21701
14948 60.40800 542.82787 552.56881 0.24336
14949 60.41160 542.80463 553.58264 0.24272
14950 60.41520 542.78135 553.25471 0.24295
14951 60.41880 542.75850 552.98987 0.24311
14952 60.42240 542.73649 553.16852 0.24343
14953 60.42600 542.71556 550.40772 0.24471
14954 60.42960 542.69586 549.31136 0.24479
14955 60.43320 542.67742 550.48633 0.24458
14956 60.43680 542.66021 551.08411 0.24419
14957 60.44040 542.64406 551.49706 0.24387
14958 60.44400 542.62919 551.84613 0.24360
14959 60.44760 542.61538 551.69658 0.24372
14960 60.45120 542.60259 551.16442 0.24363
14961 60.45480 542.59062 552.35688 0.24314
14962 60.45840 542.57969 550.18399 0.24396
14963 60.46200 542.56962 546.92675 0.24546
14964 60.46560 542.56039 549.91917 0.24473
14965 60.46920 542.55196 550.02025 0.24448
14966 60.47280 542.54431 550.56885 0.24439
14967 60.47640 542.53741 549.31973 0.24483
14968 60.48000 542.53125 550.57383 0.24354
14969 60.48360 542.52580 551.44438 0.21470
14970 60.48720 542.52105 551.06859 0.23534
14971 60.49080 542.51711 550.32804 0.21840
14972 60.49440 542.51373 547.31479 0.24554
14973 60.49800 542.51101 549.46023 0.24492
14974 60.50160 542.50895 550.03602 0.24477
14975 60.50520 542.50754 548.36401 0.24561
14976 60.50880 542.50677 549.30368 0.24538
14977 60.51240 542.50664 550.79542 0.24536
14978 60.51600 542.50727 549.94045 0.24656
14979 60.51960 542.50862 552.41375 0.24684
14980 60.52320 542.51036 548.93252 0.25057
14981 60.52680 542.51272 548.57559 0.22263
14982 60.53040 542.51569 547.60386 0.21449
14983 60.53400 542.51927 550.43625 0.21339
14984 60.53760 542.52350 548.91971 0.21383
14985 60.54120 542.52830 546.99742 0.21458
14986 60.54480 542.53371 548.83976 0.21444
14987 60.54840 542.53972 551.94487 0.21324
14988 60.55200 542.54634 554.96035 0.21196
14989 60.55560 542.55356 552.30043 0.21300
14990 60.55920 542.56051 548.28755 0.21402
14991 60.56280 542.56895 547.83117 0.19022
14992 60.56640 542.57800 547.76974 0.20641
14993 60.57000 542.58767 550.80846 0.18386
14994 60.57360 542.59799 548.70585 0.21210
14995 60.57720 542.60888 548.00651 0.21486
14996 60.58080 542.62039 547.96589 0.21497
14997 60.58440 542.63253 548.13256 0.21492
14998 60.58800 542.64530 550.48824 0.21420
14999 60.59160 542.65870 552.93608 0.21370
15000 60.59520 542.67213 549.61609 0.21583
15001 60.59880 542.68684 549.74878 0.21695
15002 60.60240 542.70219 548.41925 0.21957
15003 60.60600 542.71819 548.74686 0.20004
15004 60.60960 542.73486 550.11221 0.18289
15005 60.61320 542.75222 549.80799 0.18293
15006 60.61680 542.77317 549.28588 0.18306
15007 60.62040 542.79190 551.02020 0.18235
15008 60.62400 542.81134 552.01500 0.18249
15009 60.62760 542.82961 552.04304 0.18266
15010 60.63120 542.84735 548.43766 0.18364
15011 60.63480 542.86898 553.37611 0.18209
15012 60.63840 542.89137 554.81457 0.18107
15013 60.64200 542.91395 551.16312 0.16446
15014 60.64560 542.93792 551.46642 0.16870
15015 60.64920 542.96268 548.86088 0.15868
15016 60.65280 542.98827 549.21057 0.17586
15017 60.65640 543.01471 550.71389 0.18293
15018 60.66000 543.04201 550.70973 0.18315
15019 60.66360 543.07020 549.07781 0.18365
15020 60.66720 543.09931 547.79437 0.18442
15021 60.67080 543.12936 547.77380 0.18463
15022 60.67440 543.16038 549.33604 0.18498
15023 60.67800 543.19241 551.98835 0.18505
15024 60.68160 543.22548 555.42328 0.18587
15025 60.68520 543.25963 547.46535 0.17603
15026 60.68880 543.29489 552.03245 0.15157
15027 60.69240 543.33100 552.16989 0.15145
15028 60.69600 543.36864 550.27806 0.15203
15029 60.69960 543.40755 553.85831 0.15083
15030 60.70320 543.44778 553.73791 0.15126
15031 60.70680 543.48940 552.75822 0.15177
15032 60.71040 543.53248 553.51407 0.15138
15033 60.71400 543.57710 554.76769 0.16281
15034 60.71760 543.62335 553.08546 0.18583
15035 60.72120 543.67132 553.29967 0.17228
15036 60.72480 543.72114 551.88997 0.16317
15037 60.72840 543.77291 552.96801 0.16373
15038 60.73200 543.82679 550.75824 0.16929
15039 60.73560 543.88294 552.03791 0.18207
15040 60.73920 543.94125 552.24364 0.18211
15041 60.74280 544.00247 555.88123 0.18078
15042 60.74640 544.06014 554.57365 0.18159
15043 60.75000 544.12262 553.03992 0.18214
15044 60.75360 544.19346 554.38824 0.18264
15045 60.75720 544.26819 554.29890 0.18318
15046 60.76080 544.34724 557.33733 0.18413
15047 60.76440 544.43115 559.35707 0.17898
15048 60.76800 544.52056 557.92031 0.14943
15049 60.77160 544.61963 560.39396 0.14863
15050 60.77520 544.72241 553.43364 0.15073
15051 60.77880 544.83338 557.79643 0.14937
15052 60.78240 544.95382 559.04147 0.14924
15053 60.78600 545.08524 559.54332 0.14935
15054 60.78960 545.22921 564.65080 0.14794
15055 60.79320 545.38789 566.17774 0.15137
15056 60.79680 545.56412 565.74244 0.18190
15057 60.80040 545.76017 565.44628 0.17826
15058 60.80400 545.97867 562.93718 0.15028
15059 60.80760 546.22196 561.71481 0.16641
15060 60.81120 546.49133 561.51797 0.15923
15061 60.81480 546.78592 565.04902 0.17740
15062 60.81840 547.10099 559.84967 0.17902
15063 60.82200 547.42607 559.40293 0.17929
15064 60.82560 547.74380 562.59923 0.17840
15065 60.82920 548.03112 560.75514 0.17927
15066 60.83280 548.26451 560.51147 0.17996
15067 60.83640 548.42821 563.29985 0.17961
15068 60.84000 548.52123 562.02816 0.18165
15069 60.84360 548.55773 563.66536 0.18362
15070 60.84720 548.56234 564.67858 0.14866
15071 60.85080 548.55925 562.28859 0.14789
15072 60.85440 548.56795 566.02346 0.14699
15073 60.85800 548.60149 560.83957 0.14826
15074 60.86160 548.66814 565.00840 0.14714
15075 60.86520 548.77365 568.09460 0.14673
15076 60.86880 548.92237 566.12371 0.14730
15077 60.87240 549.11676 570.34492 0.14609
15078 60.87600 549.35576 565.97530 0.17947
15079 60.87960 549.63254 566.31737 0.17911
15080 60.88320 549.93152 563.79654 0.15446
15081 60.88680 550.22914 567.45592 0.16847
15082 60.89040 550.49215 567.02823 0.14762
15083 60.89400 550.68650 565.62055 0.17646
15084 60.89760 550.78763 563.18756 0.17746
15085 60.90120 550.79034 564.25848 0.17729
15086 60.90480 550.71057 566.83574 0.17650
15087 60.90840 550.57839 562.69099 0.17793
15088 60.91200 550.42610 562.54712 0.17847
15089 60.91560 550.28014 560.45790 0.17972
15090 60.91920 550.15790 560.58926 0.18105
15091 60.92280 550.06847 563.28165 0.18222
15092 60.92640 550.01508 563.96549 0.16087
15093 60.93000 549.99743 562.25926 0.14750
15094 60.93360 550.01342 563.53109 0.14709
15095 60.93720 550.06034 560.25384 0.14815
15096 60.94080 550.13539 561.68441 0.14767
15097 60.94440 550.23654 562.58371 0.14794
15098 60.94800 550.36120 561.32701 0.14819
15099 60.95160 550.50728 563.45832 0.14754
15100 60.95520 550.67400 559.17102 0.17436
15101 60.95880 550.86054 559.20346 0.18164
15102 60.96240 551.06647 559.62822 0.16277
15103 60.96600 551.29175 559.92823 0.16465
15104 60.96960 551.53663 558.00689 0.15405
15105 60.97320 551.80170 556.26049 0.17290
15106 60.97680 552.08779 562.07386 0.17748
15107 60.98040 552.39730 560.47213 0.17795
15108 60.98400 552.72860 556.06515 0.17961
15109 60.98760 553.08389 556.82099 0.17957
15110 60.99120 553.46339 559.80022 0.17895
15111 60.99480 553.86594 557.79526 0.18028
15112 60.99840 554.28818 559.23545 0.18066
15113 61.00200 554.72370 560.96148 0.18228
15114 61.00560 555.16287 562.24039 0.16899
15115 61.00920 555.59428 559.84738 0.14796
15116 61.01280 556.00801 559.45568 0.14790
15117 61.01640 556.39968 557.85473 0.14853
15118 61.02000 556.77267 555.52306 0.14881
15119 61.02360 557.13678 561.56181 0.14791
15120 61.02720 557.50503 561.32898 0.14772
15121 61.03080 557.88904 562.09154 0.14719
15122 61.03440 558.29744 558.28898 0.16666
15123 61.03800 558.73544 560.15255 0.18165
15124 61.04160 559.18789 559.25796 0.18011
15125 61.04520 559.68967 559.75247 0.17863
15126 61.04880 560.22149 558.59266 0.16088
15127 61.05240 560.77990 558.02024 0.16462
15128 61.05600 561.36003 558.51620 0.17840
15129 61.05960 561.95620 560.66173 0.17739
15130 61.06320 562.56306 561.61730 0.17725
15131 61.06680 563.17689 556.61212 0.17902
15132 61.07040 563.79627 556.08241 0.17946
15133 61.07400 564.42165 555.02482 0.18058
15134 61.07760 565.05396 557.93338 0.18023
15135 61.08120 565.69344 556.50499 0.18272
15136 61.08480 566.33885 557.29481 0.17896
15137 61.08840 566.98743 560.61922 0.14720
15138 61.09200 567.63507 556.30517 0.14814
15139 61.09560 568.27664 557.82637 0.14809
15140 61.09920 568.90624 561.27785 0.14714
15141 61.10280 569.51747 558.23589 0.14808
15142 61.10640 570.10360 565.32934 0.14583
15143 61.11000 570.65453 564.82429 0.14571
15144 61.11360 571.16970 563.01785 0.15264
15145 61.11720 571.63962 560.58620 0.18167
15146 61.12080 572.05730 567.21726 0.17730
15147 61.12440 572.41728 566.34135 0.17632
15148 61.12800 572.70004 570.99337 0.17391
15149 61.13160 572.92636 566.28899 0.17492
15150 61.13520 573.08291 563.01715 0.17609
15151 61.13880 573.16369 564.45622 0.17519
15152 61.14240 573.16502 568.15144 0.17407
15153 61.14600 573.08417 568.91605 0.17375
15154 61.14960 572.92000 566.91052 0.17420
15155 61.15320 572.66933 569.69059 0.17378
15156 61.15680 572.34627 568.40147 0.17387
15157 61.16040 571.95351 564.66455 0.17509
15158 61.16400 571.49977 560.86633 0.17654
15159 61.16760 570.99413 560.78575 0.17643
15160 61.17120 570.44462 565.38659 0.17495
15161 61.17480 569.85852 564.55281 0.17515
15162 61.17840 569.24269 560.45846 0.17674
15163 61.18200 568.60391 559.02957 0.17703
15164 61.18560 567.94906 559.84159 0.17661
15165 61.18920 567.28489 558.69895 0.17643
15166 61.19280 566.61767 560.39918 0.17630
15167 61.19640 565.95291 557.31786 0.21123
15168 61.20000 565.29523 554.89931 0.21105
15169 61.20360 564.64834 558.41367 0.20825
15170 61.20720 564.01499 558.71239 0.20731
15171 61.21080 563.39696 556.47018 0.20770
15172 61.21440 562.79478 555.54297 0.20806
15173 61.21800 562.20778 558.37776 0.20657
15174 61.22160 561.63480 554.73112 0.20794
15175 61.22520 561.07302 555.49086 0.20756
15176 61.22880 560.52165 555.25500 0.20737
15177 61.23240 559.98093 553.09619 0.20857
15178 61.23600 559.45266 550.86796 0.20938
15179 61.23960 558.93949 551.51759 0.20898
15180 61.24320 558.44404 554.29666 0.20815
15181 61.24680 557.96823 553.18824 0.20864
15182 61.25040 557.51309 553.87435 0.20824
15183 61.25400 557.07889 554.75305 0.20775
15184 61.25760 556.66541 548.44333 0.21031
15185 61.26120 556.27201 549.77935 0.20975
15186 61.26480 555.89807 552.87253 0.20893
15187 61.26840 555.54311 553.84015 0.20794
15188 61.27200 555.20552 549.16990 0.20979
15189 61.27560 554.88491 550.94950 0.23501
15190 61.27920 554.58050 554.92659 0.24167
15191 61.28280 554.29157 553.57036 0.24026
15192 61.28640 554.01745 553.59629 0.23914
15193 61.29000 553.75750 550.67765 0.24009
15194 61.29360 553.51113 549.87678 0.24019
15195 61.29720 553.27781 551.33801 0.23923
15196 61.30080 553.05703 553.81179 0.23813
15197 61.30440 552.84833 551.99308 0.23881
15198 61.30800 552.65132 550.39362 0.23912
15199 61.31160 552.46562 550.37801 0.23938
15200 61.31520 552.29094 548.98304 0.24023
15201 61.31880 552.12714 551.80079 0.23875
15202 61.32240 551.97344 550.89985 0.23934
15203 61.32600 551.82975 551.94766 0.23906
15204 61.32960 551.69566 550.17658 0.23973
15205 61.33320 551.57055 549.35763 0.23995
15206 61.33680 551.45354 551.22652 0.23914
15207 61.34040 551.34316 546.10773 0.24127
15208 61.34400 551.23863 549.53121 0.24028
15209 61.34760 551.13822 550.62805 0.23927
15210 61.35120 551.04094 547.66348 0.24040
15211 61.35480 550.94656 550.84008 0.23962
15212 61.35840 550.85561 552.17563 0.23906
15213 61.36200 550.76906 550.98479 0.23925
15214 61.36560 550.68796 550.78138 0.23891
15215 61.36920 550.61328 550.18664 0.23981
15216 61.37280 550.54501 547.49564 0.24074
15217 61.37640 550.48350 548.01803 0.24058
15218 61.38000 550.42861 548.99409 0.24012
15219 61.38360 550.37999 546.61455 0.24122
15220 61.38720 550.33714 549.09929 0.23985
15221 61.39080 550.29948 551.02706 0.23907
15222 61.39440 550.26647 550.62036 0.23962
15223 61.39800 550.23775 549.74594 0.23978
15224 61.40160 550.21323 551.22235 0.23923
15225 61.40520 550.19303 547.51659 0.24102
15226 61.40880 550.17738 550.34163 0.23979
15227 61.41240 550.16647 551.73996 0.23914
15228 61.41600 550.16031 548.83125 0.24023
15229 61.41960 550.15873 547.61743 0.24091
15230 61.42320 550.16136 548.66487 0.24065
15231 61.42680 550.16774 548.79018 0.24024
15232 61.43040 550.17740 549.19254 0.23967
15233 61.43400 550.19005 549.17440 0.24033
15234 61.43760 550.20571 550.58437 0.24000
15235 61.44120 550.22462 546.88797 0.24112
15236 61.44480 550.24713 550.27085 0.23930
15237 61.44840 550.27357 548.05402 0.24075
15238 61.45200 550.30414 551.33518 0.23904
15239 61.45560 550.33892 550.99185 0.23933
15240 61.45920 550.37788 549.91114 0.23979
15241 61.46280 550.42104 548.66830 0.24038
15242 61.46640 550.46787 549.86423 0.23957
15243 61.47000 550.51833 546.74277 0.24059
15244 61.47360 550.57226 547.84348 0.24072
15245 61.47720 550.62960 549.45765 0.23958
15246 61.48080 550.69038 550.89151 0.23902
15247 61.48440 550.75469 551.26981 0.23888
15248 61.48800 550.82264 551.14311 0.23927
15249 61.49160 550.89429 549.69320 0.23977
15250 61.49520 550.96967 550.15396 0.23938
15251 61.49880 551.04879 552.18452 0.23885
15252 61.50240 551.13163 552.70317 0.23882
15253 61.50600 551.21814 551.16582 0.23928
15254 61.50960 551.30830 554.02944 0.23741
15255 61.51320 551.40206 550.50643 0.23949
15256 61.51680 551.49939 546.65519 0.24161
15257 61.52040 551.60026 550.14310 0.23974
15258 61.52400 551.70463 549.23667 0.24018
15259 61.52760 551.81006 550.95480 0.23933
15260 61.53120 551.92002 556.80449 0.23674
15261 61.53480 552.03468 549.79085 0.23964
15262 61.53840 552.15268 552.20138 0.23871
15263 61.54200 552.27409 550.91191 0.23945
15264 61.54560 552.39862 554.29241 0.23782
15265 61.54920 552.52633 549.46708 0.23946
15266 61.55280 552.65715 545.02732 0.24204
15267 61.55640 552.79101 548.34174 0.24031
15268 61.56000 552.92782 549.54987 0.23949
15269 61.56360 553.06749 545.39863 0.24155
15270 61.56720 553.20994 550.70752 0.23936
15271 61.57080 553.35504 549.06626 0.24019
15272 61.57440 553.50267 549.71300 0.23961
15273 61.57800 553.65269 549.81585 0.23964
15274 61.58160 553.80496 549.59635 0.24001
15275 61.58520 553.95931 547.76894 0.24089
15276 61.58880 554.11555 551.42250 0.23864
15277 61.59240 554.27348 552.70833 0.23835
15278 61.59600 554.43287 551.09355 0.23953
15279 61.59960 554.59363 552.84129 0.23846
15280 61.60320 554.75518 551.63612 0.23908
15281 61.60680 554.91738 551.34945 0.23914
15282 61.61040 555.07989 551.83154 0.23939
15283 61.61400 555.24236 549.45864 0.24000
15284 61.61760 555.40438 553.03311 0.23826
15285 61.62120 555.56552 552.60060 0.23892
15286 61.62480 555.72531 552.85229 0.23831
15287 61.62840 555.88323 551.38827 0.23849
15288 61.63200 556.03871 546.50101 0.24108
15289 61.63560 556.19116 551.42471 0.23922
15290 61.63920 556.33991 553.70228 0.23785
15291 61.64280 556.48425 552.55565 0.23826
15292 61.64640 556.62343 551.89802 0.23877
15293 61.65000 556.75666 550.57525 0.23947
15294 61.65360 556.88308 550.66900 0.23932
15295 61.65720 557.00184 553.93784 0.23755
15296 61.66080 557.11202 551.58145 0.23901
15297 61.66440 557.21270 553.47557 0.23843
15298 61.66800 557.30297 552.70325 0.23832
15299 61.67160 557.38191 551.81014 0.23879
15300 61.67520 557.44865 551.44690 0.23947
15301 61.67880 557.50239 553.80510 0.23838
15302 61.68240 557.54234 555.38710 0.23758
15303 61.68600 557.56786 555.98835 0.23712
15304 61.68960 557.57843 555.94459 0.23751
15305 61.69320 557.57139 552.57561 0.23877
15306 61.69680 557.55085 553.42470 0.23820
15307 61.70040 557.51481 549.89742 0.24010
15308 61.70400 557.46319 550.56820 0.23933
15309 61.70760 557.39625 555.36030 0.23700
15310 61.71120 557.31441 552.31278 0.23825
15311 61.71480 557.21829 550.76526 0.23971
15312 61.71840 557.10835 550.99515 0.23916
15313 61.72200 556.98201 552.87131 0.23821
15314 61.72560 556.84078 551.34955 0.23909
15315 61.72920 556.68634 550.36118 0.23956
15316 61.73280 556.53206 550.87489 0.23962
15317 61.73640 556.36747 550.00943 0.23922
15318 61.74000 556.19686 549.58829 0.23994
15319 61.74360 556.02093 551.46522 0.23936
15320 61.74720 555.84016 551.98233 0.23889
15321 61.75080 555.65571 549.38578 0.23991
15322 61.75440 555.46705 551.25083 0.23942
15323 61.75800 555.27722 552.36296 0.23916
15324 61.76160 555.08866 554.26058 0.23828
15325 61.76520 554.90093 552.05910 0.23899
15326 61.76880 554.71876 550.14676 0.24017
15327 61.77240 554.53587 551.95811 0.23930
15328 61.77600 554.35693 552.72782 0.23856
15329 61.77960 554.18492 551.78778 0.23934
15330 61.78320 554.01535 553.45808 0.23818
15331 61.78680 553.85046 552.81188 0.23831
15332 61.79040 553.68911 552.64891 0.23816
15333 61.79400 553.52896 550.67388 0.23987
15334 61.79760 553.36648 552.10764 0.23875
15335 61.80120 553.19758 552.17290 0.23846
15336 61.80480 553.01882 549.93713 0.23967
15337 61.80840 552.82883 552.04474 0.23875
15338 61.81200 552.62899 551.79074 0.23912
15339 61.81560 552.42289 556.14170 0.23668
15340 61.81920 552.21489 555.47348 0.23729
15341 61.82280 552.00890 556.16945 0.23743
15342 61.82640 551.80771 553.74821 0.23840
15343 61.83000 551.61292 552.80383 0.23854
15344 61.83360 551.42522 553.29544 0.23834
15345 61.83720 551.24474 552.14060 0.23918
15346 61.84080 551.07125 552.70125 0.23916
15347 61.84440 550.90440 551.83938 0.23942
15348 61.84800 550.74377 547.55214 0.24126
15349 61.85160 550.58896 546.78292 0.24168
15350 61.85520 550.43959 549.84787 0.23986
15351 61.85880 550.29534 547.99975 0.24101
15352 61.86240 550.15591 546.88426 0.24121
15353 61.86600 550.02107 548.12083 0.24037
15354 61.86960 549.89060 547.01605 0.24078
15355 61.87320 549.76317 543.80836 0.24273
15356 61.87680 549.64006 543.56749 0.24275
15357 61.88040 549.52177 545.59313 0.24152
15358 61.88400 549.40703 547.04701 0.24112
15359 61.88760 549.29620 545.77981 0.24154
15360 61.89120 549.18915 547.57320 0.24103
15361 61.89480 549.08575 546.40456 0.24117
15362 61.89840 548.98599 546.41270 0.24132
15363 61.90200 548.88838 544.41707 0.24262
15364 61.90560 548.79561 544.74715 0.24204
15365 61.90920 548.70689 548.50183 0.24007
15366 61.91280 548.62201 546.52209 0.24111
15367 61.91640 548.54109 546.19126 0.24159
15368 61.92000 548.46432 544.91250 0.24259
15369 61.92360 548.39156 543.52626 0.24329
15370 61.92720 548.32387 544.68362 0.24245
15371 61.93080 548.26125 543.88442 0.24301
15372 61.93440 548.20414 542.87147 0.24295
15373 61.93800 548.15310 544.97832 0.24230
15374 61.94160 548.10872 544.03470 0.24249
15375 61.94520 548.07169 540.74804 0.24378
15376 61.94880 548.04266 544.88858 0.24189
15377 61.95240 548.02237 543.64190 0.24257
15378 61.95600 548.01044 546.19549 0.24187
15379 61.95960 548.00652 545.56978 0.24164
15380 61.96320 548.00883 542.52067 0.24331
15381 61.96680 548.01399 544.64512 0.24219
15382 61.97040 548.01694 542.31136 0.24314
15383 61.97400 548.01145 543.05419 0.24266
15384 61.97760 547.99131 543.23478 0.24249
15385 61.98120 547.95186 544.39558 0.24294
15386 61.98480 547.89098 547.73783 0.24078
15387 61.98840 547.80958 545.93436 0.24126
15388 61.99200 547.71138 546.30601 0.24117
15389 61.99560 547.60205 546.92146 0.24124
15390 61.99920 547.48792 545.28803 0.24241
15391 62.00280 547.37462 544.20770 0.24284
15392 62.00640 547.26622 544.76014 0.24247
15393 62.01000 547.16485 546.00185 0.24193
15394 62.01360 547.07218 544.84883 0.24209
15395 62.01720 546.98815 544.05889 0.24252
15396 62.02080 546.91240 540.77709 0.24388
15397 62.02440 546.84444 543.43326 0.24245
15398 62.02800 546.78371 544.36603 0.24209
15399 62.03160 546.72973 545.16804 0.24164
15400 62.03520 546.68362 543.53394 0.24292
15401 62.03880 546.64208 543.72019 0.24256
15402 62.04240 546.60658 542.04569 0.24339
15403 62.04600 546.57739 545.50833 0.24212
15404 62.04960 546.55404 542.60134 0.24296
15405 62.05320 546.53693 540.52378 0.24387
15406 62.05680 546.52618 543.65836 0.24209
15407 62.06040 546.52167 542.44048 0.24359
15408 62.06400 546.52285 539.36850 0.24479
15409 62.06760 546.52840 540.39798 0.24395
15410 62.07120 546.53593 541.36524 0.24335
15411 62.07480 546.54189 542.13190 0.24323
15412 62.07840 546.54206 540.75855 0.24436
15413 62.08200 546.53263 540.75857 0.24446
15414 62.08560 546.51171 540.62636 0.24441
15415 62.08920 546.48000 540.12673 0.24452
15416 62.09280 546.44151 539.58690 0.24459
15417 62.09640 546.40066 539.85884 0.24428
15418 62.10000 546.36193 541.72795 0.24354
15419 62.10360 546.32862 542.86208 0.24282
15420 62.10720 546.30260 540.84616 0.24377
15421 62.11080 546.28424 538.62798 0.24480
15422 62.11440 546.27247 541.29696 0.24389
15423 62.11800 546.26477 542.80389 0.24338
15424 62.12160 546.25735 540.36578 0.24431
15425 62.12520 546.24579 540.95332 0.24440
15426 62.12880 546.22621 540.12161 0.24420
15427 62.13240 546.19676 542.68549 0.24304
15428 62.13600 546.15829 542.05509 0.24299
15429 62.13960 546.11399 541.27493 0.24399
15430 62.14320 546.06807 541.06197 0.24428
15431 62.14680 546.02443 542.84248 0.24318
15432 62.15040 545.98597 540.06132 0.24400
15433 62.15400 545.95436 540.23223 0.24423
15434 62.15760 545.93017 542.04504 0.24393
15435 62.16120 545.91301 539.73173 0.24502
15436 62.16480 545.90147 541.09895 0.24417
15437 62.16840 545.89317 538.33138 0.24553
15438 62.17200 545.88486 541.39955 0.24400
15439 62.17560 545.87150 540.72882 0.24397
15440 62.17920 545.85313 539.27508 0.24469
15441 62.18280 545.82708 538.45884 0.24500
15442 62.18640 545.79435 537.40400 0.24536
15443 62.19000 545.75757 538.74786 0.24493
15444 62.19360 545.72004 539.69064 0.24467
15445 62.19720 545.68467 540.75477 0.24451
15446 62.20080 545.65356 539.93816 0.24480
15447 62.20440 545.62788 540.22853 0.24453
15448 62.20800 545.60803 538.56147 0.24515
15449 62.21160 545.59356 539.61862 0.24453
15450 62.21520 545.58384 539.97950 0.24382
15451 62.21880 545.57665 540.60761 0.24426
15452 62.22240 545.56961 541.62511 0.24413
15453 62.22600 545.56030 540.39744 0.24409
15454 62.22960 545.54403 537.87077 0.24503
15455 62.23320 545.52193 537.83539 0.24533
15456 62.23680 545.49318 538.10140 0.24565
15457 62.24040 545.45952 538.48325 0.24590
15458 62.24400 545.42339 538.97717 0.24520
15459 62.24760 545.38713 539.46457 0.24498
15460 62.25120 545.35249 537.63550 0.24567
15461 62.25480 545.32050 535.97269 0.24602
15462 62.25840 545.29159 542.23236 0.24333
15463 62.26200 545.26594 538.39301 0.24492
15464 62.26560 545.24336 538.91661 0.24480
15465 62.26920 545.22360 539.44127 0.24475
15466 62.27280 545.20709 540.31349 0.24432
15467 62.27640 545.19191 539.26696 0.24511
15468 62.28000 545.17559 536.07170 0.24662
15469 62.28360 545.16286 537.70480 0.24591
15470 62.28720 545.15080 534.55555 0.24746
15471 62.29080 545.13870 538.73412 0.24510
15472 62.29440 545.12627 539.39651 0.24430
15473 62.29800 545.11356 537.02915 0.24579
15474 62.30160 545.10076 541.13532 0.24456
15475 62.30520 545.08818 538.57683 0.24501
15476 62.30880 545.07614 537.21681 0.24565
15477 62.31240 545.06482 537.94008 0.24538
15478 62.31600 545.05435 537.83712 0.24571
15479 62.31960 545.04476 540.51348 0.24490
15480 62.32320 545.03604 537.05015 0.24610
15481 62.32680 545.02816 538.24950 0.24549
15482 62.33040 545.02108 537.30826 0.24588
15483 62.33400 545.01474 536.26914 0.24601
15484 62.33760 545.00915 535.57866 0.24637
15485 62.34120 545.00427 536.94764 0.24557
15486 62.34480 545.00010 536.71891 0.24601
15487 62.34840 544.99674 540.45905 0.24453
15488 62.35200 544.99410 538.61358 0.24530
15489 62.35560 544.99215 536.95796 0.24620
15490 62.35920 544.99102 537.59700 0.24586
15491 62.36280 544.99079 536.16874 0.24655
15492 62.36640 544.99154 536.29532 0.24680
15493 62.37000 544.99337 536.33397 0.24652
15494 62.37360 544.99639 537.48531 0.24529
15495 62.37720 545.00070 538.82245 0.24504
15496 62.38080 545.00638 537.39967 0.24591
15497 62.38440 545.01342 536.12918 0.24647
15498 62.38800 545.02168 538.68721 0.24519
15499 62.39160 545.03079 537.36869 0.24546
15500 62.39520 545.04005 535.09225 0.24688
15501 62.39880 545.04847 536.44552 0.24666
15502 62.40240 545.05489 534.57700 0.24724
15503 62.40600 545.05831 535.36531 0.24671
15504 62.40960 545.05831 537.07343 0.24586
15505 62.41320 545.05526 536.95535 0.24587
15506 62.41680 545.05034 537.10134 0.24586
15507 62.42040 545.04453 534.48574 0.24689
15508 62.42400 545.03923 536.43496 0.24626
15509 62.42760 545.03538 538.01486 0.24569
15510 62.43120 545.03357 541.11170 0.24425
15511 62.43480 545.03414 536.54520 0.24637
15512 62.43840 545.03716 537.09655 0.24632
15513 62.44200 545.04246 538.37727 0.24579
15514 62.44560 545.04960 536.54051 0.24690
15515 62.44920 545.05775 535.55523 0.24714
15516 62.45280 545.06568 536.80325 0.24584
15517 62.45640 545.07185 537.71639 0.24550
15518 62.46000 545.07471 535.12242 0.24706
15519 62.46360 545.07326 534.55646 0.24742
15520 62.46720 545.06762 536.60986 0.24592
15521 62.47080 545.05812 536.16790 0.24606
15522 62.47440 545.04638 539.48411 0.24497
15523 62.47800 545.03383 538.76623 0.24558
15524 62.48160 545.02163 538.69356 0.24563
15525 62.48520 545.01050 536.08187 0.24643
15526 62.48880 545.00082 536.87478 0.24607
15527 62.49240 544.99272 539.05546 0.24508
15528 62.49600 544.98617 537.87692 0.24545
15529 62.49960 544.98107 538.28913 0.24511
15530 62.50320 544.97730 536.46451 0.24644
15531 62.50680 544.97471 536.08791 0.24665
15532 62.51040 544.97321 534.35132 0.24745
15533 62.51400 544.97268 535.36599 0.24704
15534 62.51760 544.97304 537.53638 0.24604
15535 62.52120 544.97419 537.18841 0.24632
15536 62.52480 544.97615 539.66233 0.24529
15537 62.52840 544.97867 537.92377 0.24615
15538 62.53200 544.98159 537.29242 0.24576
15539 62.53560 544.98479 541.35385 0.24370
15540 62.53920 544.98809 540.85686 0.24447
15541 62.54280 544.99135 538.49328 0.24584
15542 62.54640 544.99452 539.39728 0.24494
15543 62.55000 544.99764 539.13072 0.24493
15544 62.55360 545.00084 540.03837 0.24465
15545 62.55720 545.00427 537.92009 0.24587
15546 62.56080 545.00804 539.28792 0.24531
15547 62.56440 545.01218 538.13198 0.24545
15548 62.56800 545.01666 534.35616 0.24732
15549 62.57160 545.02137 536.78329 0.24629
15550 62.57520 545.02625 537.53206 0.24578
15551 62.57880 545.03083 539.16827 0.24482
15552 62.58240 545.03506 536.58846 0.24632
15553 62.58600 545.03884 538.10220 0.24580
15554 62.58960 545.04222 540.65678 0.24472
15555 62.59320 545.04535 540.03210 0.24510
15556 62.59680 545.04843 540.25861 0.24493
15557 62.60040 545.05165 537.68763 0.24610
15558 62.60400 545.05515 536.23586 0.24663
15559 62.60760 545.05899 535.92134 0.24716
15560 62.61120 545.06322 537.16741 0.24612
15561 62.61480 545.06841 537.93880 0.24529
15562 62.61840 545.07457 539.77692 0.24489
15563 62.62200 545.07989 534.96678 0.24712
15564 62.62560 545.08552 534.82212 0.24731
15565 62.62920 545.09145 538.95719 0.24509
15566 62.63280 545.09555 541.07948 0.24397
15567 62.63640 545.10148 539.85754 0.24480
15568 62.64000 545.10818 538.42415 0.24572
15569 62.64360 545.11511 537.02669 0.24630
15570 62.64720 545.12225 538.21622 0.24576
15571 62.65080 545.12960 539.42895 0.24525
15572 62.65440 545.13715 538.53149 0.24553
15573 62.65800 545.14489 536.72100 0.24621
15574 62.66160 545.15282 537.32234 0.24624
15575 62.66520 545.16094 536.26455 0.24690
15576 62.66880 545.16881 536.89279 0.24688
15577 62.67240 545.17730 536.35421 0.24724
15578 62.67600 545.18596 535.59740 0.24758
15579 62.67960 545.19481 536.43122 0.24682
15580 62.68320 545.20383 534.66512 0.24740
15581 62.68680 545.21304 535.55874 0.24733
15582 62.69040 545.22243 536.05656 0.24697
15583 62.69400 545.23201 534.94189 0.24680
15584 62.69760 545.24178 536.23941 0.24651
15585 62.70120 545.25175 536.12644 0.24657
15586 62.70480 545.26193 537.53741 0.24617
15587 62.70840 545.27231 536.43054 0.24645
15588 62.71200 545.28292 535.72603 0.24666
15589 62.71560 545.29375 533.95469 0.24774
15590 62.71920 545.30483 535.90917 0.24680
15591 62.72280 545.31617 537.21067 0.24629
15592 62.72640 545.32778 537.07463 0.24622
15593 62.73000 545.33970 532.97420 0.24829
15594 62.73360 545.35194 534.24049 0.24775
15595 62.73720 545.36453 539.15639 0.24568
15596 62.74080 545.37751 536.25428 0.24682
15597 62.74440 545.39093 532.23892 0.24868
15598 62.74800 545.40482 535.15982 0.24783
15599 62.75160 545.41927 535.35446 0.24764
15600 62.75520 545.43781 535.34016 0.24791
15601 62.75880 545.45378 535.75857 0.24720
15602 62.76240 545.47037 536.15294 0.24677
15603 62.76600 545.48790 535.21625 0.24751
15604 62.76960 545.50972 535.51285 0.24752
15605 62.77320 545.53133 534.88823 0.24715
15606 62.77680 545.55289 534.46231 0.24734
15607 62.78040 545.57599 536.81274 0.24624
15608 62.78400 545.60097 537.45821 0.24628
15609 62.78760 545.62815 535.11685 0.24712
15610 62.79120 545.65769 536.45217 0.24646
15611 62.79480 545.68965 534.33575 0.24755
15612 62.79840 545.72381 533.82013 0.24763
15613 62.80200 545.75953 535.99693 0.24675
15614 62.80560 545.79553 536.04288 0.24663
15615 62.80920 545.82984 540.20139 0.24502
15616 62.81280 545.85997 535.86041 0.24712
15617 62.81640 545.88353 537.08370 0.24663
15618 62.82000 545.89905 537.07183 0.24665
15619 62.82360 545.90664 535.86337 0.24708
15620 62.82720 545.90796 535.04234 0.24799
15621 62.83080 545.90549 535.11775 0.24741
15622 62.83440 545.90177 537.83599 0.24663
15623 62.83800 545.89903 534.89226 0.24756
15624 62.84160 545.89782 534.04889 0.24776
15625 62.84520 545.89962 537.11736 0.24675
15626 62.84880 545.90444 533.73156 0.24850
15627 62.85240 545.91190 532.83982 0.24849
15628 62.85600 545.92282 533.59074 0.24800
15629 62.85960 545.93667 536.66727 0.24645
15630 62.86320 545.95340 534.84321 0.24748
15631 62.86680 545.97312 534.59669 0.24756
15632 62.87040 545.99565 534.74083 0.24752
15633 62.87400 546.02119 534.71296 0.24751
15634 62.87760 546.04992 536.38857 0.24663
15635 62.88120 546.08199 539.38188 0.24516
15636 62.88480 546.11757 537.62697 0.24612
15637 62.88840 546.15669 536.52735 0.24669
15638 62.89200 546.19916 539.63719 0.24548
15639 62.89560 546.24432 537.93347 0.24644
15640 62.89920 546.29083 540.69933 0.24507
15641 62.90280 546.33653 538.06495 0.24627
15642 62.90640 546.37851 539.13138 0.24608
15643 62.91000 546.41373 540.98262 0.24489
15644 62.91360 546.43993 538.36982 0.24636
15645 62.91720 546.45236 537.87087 0.24646
15646 62.92080 546.46053 536.96984 0.24632
15647 62.92440 546.46366 541.14764 0.24465
15648 62.92800 546.46451 541.63790 0.24463
15649 62.93160 546.46566 541.00930 0.24479
15650 62.93520 546.46887 538.71040 0.24572
15651 62.93880 546.47511 537.18900 0.24642
15652 62.94240 546.48477 539.30194 0.24536
15653 62.94600 546.49785 540.31663 0.24502
15654 62.94960 546.51385 538.70861 0.24554
15655 62.95320 546.53331 539.53515 0.24516
15656 62.95680 546.55556 542.70402 0.24384
15657 62.96040 546.58038 537.99353 0.24596
15658 62.96400 546.60755 537.95221 0.24625
15659 62.96760 546.63689 539.69479 0.24554
15660 62.97120 546.66828 540.37798 0.24524
15661 62.97480 546.70161 535.38244 0.24756
15662 62.97840 546.73679 538.87793 0.24610
15663 62.98200 546.77377 537.74444 0.24670
15664 62.98560 546.81254 535.04714 0.24811
15665 62.98920 546.85309 536.12532 0.24725
15666 62.99280 546.89529 538.67762 0.24629
15667 62.99640 546.93918 540.48058 0.24558
15668 63.00000 546.98523 538.59657 0.24593
15669 63.00360 547.03323 538.15332 0.24626
15670 63.00720 547.08329 536.01054 0.24742
15671 63.01080 547.13551 535.14487 0.24759
15672 63.01440 547.19007 537.70950 0.24630
15673 63.01800 547.24712 540.48806 0.24497
15674 63.02160 547.30689 537.24912 0.24634
15675 63.02520 547.36965 534.52467 0.24780
15676 63.02880 547.43570 535.65973 0.24706
15677 63.03240 547.50543 535.99741 0.24702
15678 63.03600 547.57927 538.18307 0.24615
15679 63.03960 547.65777 539.92319 0.24516
15680 63.04320 547.74125 539.82369 0.24549
15681 63.04680 547.83103 539.11442 0.24590
15682 63.05040 547.92765 537.08468 0.24708
15683 63.05400 548.03201 537.58005 0.24674
15684 63.05760 548.14505 536.83067 0.24721
15685 63.06120 548.26759 538.10879 0.24660
15686 63.06480 548.40016 540.34564 0.24593
15687 63.06840 548.54267 540.34869 0.24606
15688 63.07200 548.69396 538.54208 0.24627
15689 63.07560 548.85134 544.98602 0.24379
15690 63.07920 549.01022 543.51055 0.24398
15691 63.08280 549.16415 539.79390 0.24539
15692 63.08640 549.30542 544.24702 0.24358
15693 63.09000 549.42665 542.81823 0.24426
15694 63.09360 549.52294 541.38250 0.24502
15695 63.09720 549.59378 541.74778 0.24450
15696 63.10080 549.64468 542.58852 0.24405
15697 63.10440 549.68412 543.00830 0.24400
15698 63.10800 549.72182 544.69078 0.24326
15699 63.11160 549.76606 542.73136 0.24416
15700 63.11520 549.82237 542.10949 0.24476
15701 63.11880 549.89328 541.12367 0.24488
15702 63.12240 549.97845 544.02869 0.24364
15703 63.12600 550.07472 543.91290 0.24373
15704 63.12960 550.17632 543.05685 0.24428
15705 63.13320 550.27549 543.32150 0.24420
15706 63.13680 550.36409 541.18337 0.24524
15707 63.14040 550.43606 542.32098 0.24480
15708 63.14400 550.48956 548.00648 0.24240
15709 63.14760 550.52751 545.59414 0.24392
15710 63.15120 550.55605 543.49741 0.24417
15711 63.15480 550.58205 543.51678 0.24457
15712 63.15840 550.61121 546.94194 0.24284
15713 63.16200 550.64740 545.13708 0.24314
15714 63.16560 550.69255 542.92003 0.24435
15715 63.16920 550.74730 543.11205 0.24438
15716 63.17280 550.81148 544.30955 0.24399
15717 63.17640 550.88450 543.00508 0.24419
15718 63.18000 550.96561 542.32430 0.24436
15719 63.18360 551.05402 542.34785 0.24430
15720 63.18720 551.14901 541.10316 0.24497
15721 63.19080 551.24991 539.17730 0.24592
15722 63.19440 551.35616 540.11346 0.24598
15723 63.19800 551.46728 540.29377 0.24548
15724 63.20160 551.58285 536.37665 0.24714
15725 63.20520 551.70251 539.96471 0.24582
15726 63.20880 551.82598 543.30309 0.24428
15727 63.21240 551.95300 541.64714 0.24509
15728 63.21600 552.08335 539.78445 0.24574
15729 63.21960 552.21684 540.73308 0.24565
15730 63.22320 552.35331 539.06276 0.24672
15731 63.22680 552.49262 539.82407 0.24648
15732 63.23040 552.63464 542.01624 0.24500
15733 63.23400 552.77926 541.43339 0.24547
15734 63.23760 552.92638 542.03400 0.24527
15735 63.24120 553.07592 541.69306 0.24491
15736 63.24480 553.22778 539.55059 0.24583
15737 63.24840 553.38190 538.77188 0.24656
15738 63.25200 553.53814 538.28694 0.24681
15739 63.25560 553.69637 540.57089 0.24570
15740 63.25920 553.85631 541.84744 0.24489
15741 63.26280 554.01752 538.66783 0.24606
15742 63.26640 554.17924 542.28744 0.24446
15743 63.27000 554.34025 542.72953 0.24448
15744 63.27360 554.49873 542.51184 0.24513
15745 63.27720 554.65277 540.63316 0.24568
15746 63.28080 554.80010 541.51796 0.24497
15747 63.28440 554.93905 540.37511 0.24585
15748 63.28800 555.06860 541.07925 0.24534
15749 63.29160 555.18932 544.75467 0.24377
15750 63.29520 555.30231 542.35532 0.24463
15751 63.29880 555.40876 542.17214 0.24508
15752 63.30240 555.50540 544.30638 0.24428
15753 63.30600 555.60112 545.26044 0.24402
15754 63.30960 555.69090 543.34481 0.24439
15755 63.31320 555.77431 543.57447 0.24434
15756 63.31680 555.85009 546.11030 0.24332
15757 63.32040 555.91638 543.87987 0.24399
15758 63.32400 555.97072 545.96052 0.24292
15759 63.32760 556.00999 547.34225 0.24258
15760 63.33120 556.03149 545.70937 0.24354
15761 63.33480 556.03290 546.95972 0.24299
15762 63.33840 556.01350 547.07053 0.24278
15763 63.34200 555.97454 545.30413 0.24337
15764 63.34560 555.91773 544.79441 0.24342
15765 63.34920 555.84631 546.81211 0.24260
15766 63.35280 555.76292 545.59683 0.24372
15767 63.35640 555.66851 544.34924 0.24407
15768 63.36000 555.56534 545.86355 0.24311
15769 63.36360 555.45465 545.93857 0.24335
15770 63.36720 555.33748 547.72767 0.24256
15771 63.37080 555.21469 546.44058 0.24303
15772 63.37440 555.08699 546.60250 0.24282
15773 63.37800 554.95485 543.84513 0.24402
15774 63.38160 554.81840 542.14111 0.24503
15775 63.38520 554.67738 544.53317 0.24449
15776 63.38880 554.53123 544.50573 0.24414
15777 63.39240 554.37946 544.69508 0.24378
15778 63.39600 554.22203 543.53691 0.24467
15779 63.39960 554.05976 544.85653 0.24377
15780 63.40320 553.89431 544.94179 0.24357
15781 63.40680 553.72776 542.51464 0.24455
15782 63.41040 553.56244 543.52934 0.24450
15783 63.41400 553.39946 543.01801 0.24467
15784 63.41760 553.24030 541.88183 0.24524
15785 63.42120 553.08565 540.75361 0.24558
15786 63.42480 552.93576 543.04366 0.24425
15787 63.42840 552.79041 542.09018 0.24471
15788 63.43200 552.64894 542.53122 0.24492
15789 63.43560 552.51026 543.36845 0.24457
15790 63.43920 552.37307 540.16972 0.24586
15791 63.44280 552.23622 540.88345 0.24557
15792 63.44640 552.09915 538.06804 0.24693
15793 63.45000 551.96213 539.99441 0.24581
15794 63.45360 551.82641 539.09472 0.24636
15795 63.45720 551.69285 540.79830 0.24554
15796 63.46080 551.56276 541.09064 0.24542
15797 63.46440 551.43704 540.01688 0.24637
15798 63.46800 551.31619 540.69172 0.24595
15799 63.47160 551.19868 541.18028 0.24544
15800 63.47520 551.08799 539.34864 0.24655
15801 63.47880 550.98229 537.17890 0.24746
15802 63.48240 550.88144 540.97245 0.24556
15803 63.48600 550.78526 536.45614 0.24718
15804 63.48960 550.69360 540.57435 0.24563
15805 63.49320 550.60631 536.06009 0.24794
15806 63.49680 550.52324 534.97678 0.24831
15807 63.50040 550.44427 540.99547 0.24571
15808 63.50400 550.36947 537.83769 0.24685
15809 63.50760 550.29838 538.47023 0.24645
15810 63.51120 550.23110 539.88778 0.24604
15811 63.51480 550.16753 538.61478 0.24684
15812 63.51840 550.10762 537.52006 0.24707
15813 63.52200 550.05131 537.84272 0.24697
15814 63.52560 549.99853 539.60412 0.24635
15815 63.52920 549.94923 539.18752 0.24623
15816 63.53280 549.90337 535.34736 0.24812
15817 63.53640 549.86091 539.21621 0.24607
15818 63.54000 549.82181 540.55509 0.24584
15819 63.54360 549.78603 538.65992 0.24691
15820 63.54720 549.75354 539.23552 0.24666
15821 63.55080 549.72432 537.44332 0.24708
15822 63.55440 549.69850 539.97299 0.24617
15823 63.55800 549.67572 540.50790 0.24589
15824 63.56160 549.65870 538.75441 0.24666
15825 63.56520 549.64229 535.24822 0.24773
15826 63.56880 549.62904 538.42273 0.24647
15827 63.57240 549.61895 536.58806 0.24766
15828 63.57600 549.61200 536.49339 0.24766
15829 63.57960 549.60820 540.23617 0.24580
15830 63.58320 549.60753 540.65869 0.24554
15831 63.58680 549.61001 538.63440 0.24629
15832 63.59040 549.61562 538.80561 0.24644
15833 63.59400 549.62437 540.25886 0.24608
15834 63.59760 549.63628 536.77177 0.24730
15835 63.60120 549.65135 539.04438 0.24631
15836 63.60480 549.66959 540.51565 0.24575
15837 63.60840 549.69097 540.62671 0.24558
15838 63.61200 549.71540 540.70596 0.24575
15839 63.61560 549.74325 540.41400 0.24543
15840 63.61920 549.77434 539.56439 0.24623
15841 63.62280 549.80867 538.02524 0.24711
15842 63.62640 549.84624 538.85707 0.24683
15843 63.63000 549.88702 541.33264 0.24537
15844 63.63360 549.92953 540.75241 0.24554
15845 63.63720 549.97655 538.15355 0.24687
15846 63.64080 550.02660 536.10671 0.24777
15847 63.64440 550.07962 537.99759 0.24652
15848 63.64800 550.13565 537.66976 0.24666
15849 63.65160 550.19475 537.71678 0.24717
15850 63.65520 550.25705 536.80652 0.24750
15851 63.65880 550.32269 539.93516 0.24607
15852 63.66240 550.39212 539.72760 0.24628
15853 63.66600 550.46477 536.46784 0.24739
15854 63.66960 550.54105 537.87016 0.24678
15855 63.67320 550.62104 541.58616 0.24543
15856 63.67680 550.70516 539.23578 0.24610
15857 63.68040 550.79276 537.68843 0.24701
15858 63.68400 550.88422 537.71510 0.24700
15859 63.68760 550.97941 537.75855 0.24701
15860 63.69120 551.07893 540.25671 0.24589
15861 63.69480 551.18262 539.41771 0.24579
15862 63.69840 551.29061 536.42771 0.24750
15863 63.70200 551.40301 536.56032 0.24763
15864 63.70560 551.51996 537.69280 0.24733
15865 63.70920 551.64154 539.57447 0.24610
15866 63.71280 551.76781 540.39554 0.24557
15867 63.71640 551.89870 539.38673 0.24629
15868 63.72000 552.03396 540.22029 0.24582
15869 63.72360 552.17312 537.60492 0.24678
15870 63.72720 552.31535 540.63121 0.24549
15871 63.73080 552.45959 543.19384 0.24456
15872 63.73440 552.60482 541.42249 0.24537
15873 63.73800 552.75035 540.31635 0.24590
15874 63.74160 552.89614 541.30431 0.24553
15875 63.74520 553.04278 541.52083 0.24517
15876 63.74880 553.19129 540.68703 0.24543
15877 63.75240 553.34271 541.47251 0.24541
15878 63.75600 553.49784 543.80496 0.24415
15879 63.75960 553.65954 543.39772 0.24423
15880 63.76320 553.82332 542.09908 0.24493
15881 63.76680 553.99153 539.19690 0.24645
15882 63.77040 554.16403 539.27713 0.24630
15883 63.77400 554.34059 539.69877 0.24590
15884 63.77760 554.52094 538.80078 0.24629
15885 63.78120 554.70450 539.24526 0.24626
15886 63.78480 554.89139 539.02878 0.24663
15887 63.78840 555.08098 540.33222 0.24578
15888 63.79200 555.27283 541.30994 0.24492
15889 63.79560 555.46645 542.60310 0.24450
15890 63.79920 555.66130 542.68025 0.24452
15891 63.80280 555.85678 544.82161 0.24344
15892 63.80640 556.05223 540.41652 0.24555
15893 63.81000 556.24691 542.39826 0.24477
15894 63.81360 556.43999 542.49322 0.24487
15895 63.81720 556.63057 540.51007 0.24574
15896 63.82080 556.81766 540.19977 0.24592
15897 63.82440 557.00020 537.70967 0.24673
15898 63.82800 557.17701 539.57573 0.24574
15899 63.83160 557.34687 539.96414 0.24611
15900 63.83520 557.50846 543.68288 0.24418
15901 63.83880 557.66040 539.31085 0.24588
15902 63.84240 557.80129 540.74979 0.24544
15903 63.84600 557.92969 540.01887 0.24601
15904 63.84960 558.04416 541.11726 0.24545
15905 63.85320 558.14327 541.94464 0.24499
15906 63.85680 558.22576 539.65068 0.24594
15907 63.86040 558.29024 542.33700 0.24466
15908 63.86400 558.33556 541.78922 0.24515
15909 63.86760 558.35761 539.53046 0.24608
15910 63.87120 558.36193 538.61757 0.24612
15911 63.87480 558.34476 537.87187 0.24650
15912 63.87840 558.30575 539.10791 0.24597
15913 63.88200 558.24479 540.59031 0.24516
15914 63.88560 558.16201 539.35919 0.24606
15915 63.88920 558.05783 541.02106 0.24528
15916 63.89280 557.93285 542.23339 0.24495
15917 63.89640 557.78790 541.77219 0.24504
15918 63.90000 557.62396 541.92960 0.24494
15919 63.90360 557.44214 541.67126 0.24504
15920 63.90720 557.24361 543.13870 0.24407
15921 63.91080 557.02963 542.67112 0.24452
15922 63.91440 556.80150 540.13270 0.24570
15923 63.91800 556.56065 543.42880 0.24402
15924 63.92160 556.30865 537.66208 0.24664
15925 63.92520 556.04712 538.15990 0.24655
15926 63.92880 555.77773 539.61189 0.24607
15927 63.93240 555.50208 540.26509 0.24563
15928 63.93600 555.22163 537.69302 0.24675
15929 63.93960 554.93769 539.71338 0.24572
15930 63.94320 554.65145 541.59380 0.24496
15931 63.94680 554.36394 542.07291 0.24483
15932 63.95040 554.07606 539.63506 0.24560
15933 63.95400 553.78855 538.31407 0.24612
15934 63.95760 553.50234 537.92609 0.24650
15935 63.96120 553.21785 540.40304 0.24544
15936 63.96480 552.93506 539.46394 0.24603
15937 63.96840 552.65584 538.13064 0.24673
15938 63.97200 552.37984 536.83319 0.24732
15939 63.97560 552.10739 535.94410 0.24772
15940 63.97920 551.83878 536.57262 0.24712
15941 63.98280 551.57424 536.73633 0.24719
15942 63.98640 551.31396 537.88393 0.24642
15943 63.99000 551.05809 539.82062 0.24574
15944 63.99360 550.80674 539.86951 0.24565
15945 63.99720 550.56001 539.37746 0.24585
15946 64.00080 550.31795 534.78005 0.24799
15947 64.00440 550.08060 534.52144 0.24800
15948 64.00800 549.84770 536.06659 0.24765
15949 64.01160 549.61937 536.87875 0.24714
15950 64.01520 549.39622 538.13146 0.24649
15951 64.01880 549.17778 538.12378 0.24666
15952 64.02240 548.96401 535.63759 0.24776
15953 64.02600 548.75488 538.43385 0.24653
15954 64.02960 548.55035 540.06522 0.24570
15955 64.03320 548.35037 539.73203 0.24560
15956 64.03680 548.15488 534.81693 0.24787
15957 64.04040 547.96383 535.29333 0.24770
15958 64.04400 547.77718 536.17900 0.24745
15959 64.04760 547.59487 535.36565 0.24834
15960 64.05120 547.41684 535.49815 0.24812
15961 64.05480 547.24304 537.66094 0.24726
15962 64.05840 547.07343 537.05479 0.24693
15963 64.06200 546.90797 535.69888 0.24763
15964 64.06560 546.74661 533.32998 0.24849
15965 64.06920 546.58932 535.18622 0.24783
15966 64.07280 546.43608 538.24174 0.24638
15967 64.07640 546.28342 535.05808 0.24790
15968 64.08000 546.13730 534.66489 0.24787
15969 64.08360 545.98949 536.17113 0.24744
15970 64.08720 545.84163 535.21253 0.24817
15971 64.09080 545.70869 535.16432 0.24823
15972 64.09440 545.57715 536.73041 0.24703
15973 64.09800 545.45262 534.69896 0.24804
15974 64.10160 545.33246 533.05881 0.24893
15975 64.10520 545.21682 533.43463 0.24903
15976 64.10880 545.10589 534.30474 0.24859
15977 64.11240 544.99992 533.40968 0.24874
15978 64.11600 544.89920 535.87938 0.24733
15979 64.11960 544.80406 534.42056 0.24814
15980 64.12320 544.71484 535.02240 0.24773
15981 64.12680 544.63202 535.74298 0.24809
15982 64.13040 544.55561 533.08362 0.24927
15983 64.13400 544.48581 532.20206 0.24981
15984 64.13760 544.42229 534.77747 0.24825
15985 64.14120 544.36420 537.21820 0.24699
15986 64.14480 544.30991 535.16605 0.24752
15987 64.14840 544.25721 533.16279 0.24851
15988 64.15200 544.20363 532.71690 0.24904
15989 64.15560 544.14712 534.70229 0.24810
15990 64.15920 544.08723 535.75328 0.24750
15991 64.16280 544.02407 536.07522 0.24736
15992 64.16640 543.95829 535.95264 0.24785
15993 64.17000 543.88991 533.39346 0.24925
15994 64.17360 543.81805 531.03194 0.24995
15995 64.17720 543.74152 532.92219 0.24902
15996 64.18080 543.65989 532.35418 0.24895
15997 64.18440 543.57432 537.18034 0.24716
15998 64.18800 543.48745 535.77818 0.24808
15999 64.19160 543.40242 534.05281 0.24841
16000 64.19520 543.32184 535.40051 0.24754
16001 64.19880 543.24703 534.45556 0.24796
16002 64.20240 543.17777 531.21392 0.24943
16003 64.20600 543.11218 529.67291 0.25090
16004 64.20960 543.04819 533.97917 0.24890
16005 64.21320 542.98297 534.60998 0.24853
16006 64.21680 542.91156 533.75444 0.24885
16007 64.22040 542.84058 535.77278 0.24764
16008 64.22400 542.76832 534.09080 0.24824
16009 64.22760 542.69705 530.91493 0.24960
16010 64.23120 542.62909 530.86684 0.24990
16011 64.23480 542.56625 530.29529 0.25023
16012 64.23840 542.50972 534.64103 0.24809
16013 64.24200 542.46015 535.91055 0.24728
16014 64.24560 542.41782 534.44549 0.24848
16015 64.24920 542.38566 531.12561 0.25037
16016 64.25280 542.35804 531.15637 0.24994
16017 64.25640 542.33766 530.73782 0.24997
16018 64.26000 542.32421 531.61173 0.24938
16019 64.26360 542.31791 533.23854 0.24875
16020 64.26720 542.31601 532.16623 0.24978
16021 64.27080 542.31751 533.65709 0.24861
16022 64.27440 542.31985 531.68861 0.24945
16023 64.27800 542.32010 531.71547 0.24912
16024 64.28160 542.31571 532.32570 0.24908
16025 64.28520 542.30551 533.80873 0.24894
16026 64.28880 542.29018 532.85139 0.24950
16027 64.29240 542.27205 533.43060 0.24894
16028 64.29600 542.25421 536.56829 0.24766
16029 64.29960 542.23949 533.89248 0.24853
16030 64.30320 542.22997 533.56177 0.24833
16031 64.30680 542.22666 535.87649 0.24702
16032 64.31040 542.22956 536.44383 0.24727
16033 64.31400 542.23749 532.24422 0.24932
16034 64.31760 542.24865 533.86341 0.24835
16035 64.32120 542.26014 534.55872 0.24779
16036 64.32480 542.26892 532.66115 0.24918
16037 64.32840 542.27264 533.91981 0.24891
16038 64.33200 542.27044 531.99039 0.24963
16039 64.33560 542.26317 535.35214 0.24778
16040 64.33920 542.25298 533.01400 0.24883
16041 64.34280 542.24233 532.26882 0.24914
16042 64.34640 542.23330 533.93905 0.24854
16043 64.35000 542.22722 535.70952 0.24795
16044 64.35360 542.22460 532.30800 0.24930
16045 64.35720 542.22523 531.31431 0.24930
16046 64.36080 542.22823 533.12138 0.24871
16047 64.36440 542.23213 532.12209 0.24956
16048 64.36800 542.23484 529.47861 0.25099
16049 64.37160 542.23398 531.60959 0.24968
16050 64.37520 542.22725 533.39050 0.24913
16051 64.37880 542.21313 531.78130 0.24977
16052 64.38240 542.19125 532.99109 0.24871
16053 64.38600 542.16261 530.81342 0.24960
16054 64.38960 542.12806 533.86982 0.24841
16055 64.39320 542.08929 537.88702 0.24676
16056 64.39680 542.04766 532.71181 0.24875
16057 64.40040 542.00323 533.61069 0.24827
16058 64.40400 541.95642 531.86495 0.24930
16059 64.40760 541.90698 531.98835 0.24960
16060 64.41120 541.85423 529.75324 0.25079
16061 64.41480 541.79704 529.94506 0.25026
16062 64.41840 541.73386 530.36892 0.25023
16063 64.42200 541.66289 532.80311 0.24872
16064 64.42560 541.58252 534.11485 0.24841
16065 64.42920 541.49187 532.41682 0.24939
16066 64.43280 541.39118 534.74515 0.24842
16067 64.43640 541.28177 535.41908 0.24765
16068 64.44000 541.16636 533.03725 0.24885
16069 64.44360 541.04536 531.15483 0.24998
16070 64.44720 540.92106 530.22673 0.25059
16071 64.45080 540.79470 531.97378 0.24963
16072 64.45440 540.66707 532.72407 0.24928
16073 64.45800 540.53871 534.88095 0.24842
16074 64.46160 540.41001 528.82966 0.25085
16075 64.46520 540.28128 531.28454 0.24949
16076 64.46880 540.15278 533.51126 0.24862
16077 64.47240 540.02480 531.78062 0.24964
16078 64.47600 539.89763 530.17980 0.24993
16079 64.47960 539.77157 529.82709 0.25018
16080 64.48320 539.64696 529.81389 0.25022
16081 64.48680 539.52415 531.34521 0.24969
16082 64.49040 539.40352 532.85228 0.24939
16083 64.49400 539.28549 531.82702 0.24944
16084 64.49760 539.17048 533.69064 0.24868
16085 64.50120 539.05892 530.57704 0.24994
16086 64.50480 538.95121 532.27144 0.24931
16087 64.50840 538.84768 532.37629 0.24962
16088 64.51200 538.74844 530.84278 0.25015
16089 64.51560 538.65326 531.36573 0.24986
16090 64.51920 538.56133 533.11559 0.24885
16091 64.52280 538.47102 530.27192 0.25041
16092 64.52640 538.37978 528.93333 0.25125
16093 64.53000 538.28443 529.36119 0.25096
16094 64.53360 538.18219 528.84593 0.25106
16095 64.53720 538.07066 529.11177 0.25117
16096 64.54080 537.95020 530.96829 0.25017
16097 64.54440 537.82289 527.06832 0.25185
16098 64.54800 537.69190 527.66371 0.25149
16099 64.55160 537.56043 529.70443 0.25074
16100 64.55520 537.43103 526.94467 0.25181
16101 64.55880 537.30535 526.94840 0.25166
16102 64.56240 537.18424 527.99568 0.25106
16103 64.56600 537.06802 528.11584 0.25116
16104 64.56960 536.95664 527.91795 0.25173
16105 64.57320 536.84990 527.89595 0.25165
16106 64.57680 536.74750 530.12455 0.25049
16107 64.58040 536.64910 528.56632 0.25121
16108 64.58400 536.55430 529.86075 0.25030
16109 64.58760 536.46266 528.95678 0.25108
16110 64.59120 536.37366 529.10875 0.25114
16111 64.59480 536.28679 529.38910 0.25098
16112 64.59840 536.20157 529.78110 0.25036
16113 64.60200 536.11771 529.47651 0.25083
16114 64.60560 536.03515 528.62180 0.25138
16115 64.60920 535.95398 526.29242 0.25239
16116 64.61280 535.87471 529.33155 0.25088
16117 64.61640 535.79756 525.52091 0.25284
16118 64.62000 535.72279 532.50964 0.24973
16119 64.62360 535.65058 528.92852 0.25110
16120 64.62720 535.58101 532.75874 0.24920
16121 64.63080 535.51415 528.75654 0.25115
16122 64.63440 535.44973 529.06379 0.25112
16123 64.63800 535.38756 524.54025 0.25318
16124 64.64160 535.32720 528.24760 0.25105
16125 64.64520 535.26800 529.48812 0.25065
16126 64.64880 535.20918 528.07946 0.25167
16127 64.65240 535.14999 531.37506 0.25021
16128 64.65600 535.08994 530.43672 0.25038
16129 64.65960 535.02904 529.73386 0.25067
16130 64.66320 534.96780 531.55769 0.24941
16131 64.66680 534.90692 532.39929 0.24925
16132 64.67040 534.84704 530.15298 0.25053
16133 64.67400 534.78742 526.86766 0.25219
16134 64.67760 534.72838 529.89410 0.25042
16135 64.68120 534.67445 530.25116 0.25074
16136 64.68480 534.62320 529.23152 0.25115
16137 64.68840 534.57449 530.94499 0.25019
16138 64.69200 534.52834 529.89822 0.25038
16139 64.69560 534.48480 529.35530 0.25065
16140 64.69920 534.44389 527.96957 0.25166
16141 64.70280 534.40565 528.56855 0.25124
16142 64.70640 534.37011 527.72340 0.25170
16143 64.71000 534.33725 527.78336 0.25155
16144 64.71360 534.30693 527.18208 0.25211
16145 64.71720 534.27887 529.15447 0.25105
16146 64.72080 534.25586 528.63738 0.25096
16147 64.72440 534.23032 530.52896 0.25028
16148 64.72800 534.20479 531.16351 0.25007
16149 64.73160 534.17790 529.18607 0.25118
16150 64.73520 534.14934 528.54962 0.25134
16151 64.73880 534.12124 528.91629 0.25117
16152 64.74240 534.08978 528.42319 0.25075
16153 64.74600 534.05830 528.40694 0.25086
16154 64.74960 534.02785 528.36572 0.25136
16155 64.75320 533.99926 528.12572 0.25147
16156 64.75680 533.97308 527.29283 0.25184
16157 64.76040 533.94963 528.69841 0.25153
16158 64.76400 533.92906 531.24498 0.25037
16159 64.76760 533.91142 527.10831 0.25209
16160 64.77120 533.89676 528.79493 0.25107
16161 64.77480 533.88508 530.42363 0.25015
16162 64.77840 533.87638 531.86948 0.24964
16163 64.78200 533.87067 529.29974 0.25100
16164 64.78560 533.86796 529.55504 0.25108
16165 64.78920 533.86825 528.50268 0.25135
16166 64.79280 533.87163 528.98713 0.25119
16167 64.79640 533.87811 529.74866 0.25082
16168 64.80000 533.88701 533.14048 0.24892
16169 64.80360 533.89983 530.68752 0.25016
16170 64.80720 533.91598 529.56988 0.25061
16171 64.81080 533.93544 528.62619 0.25122
16172 64.81440 533.95824 526.73968 0.25215
16173 64.81800 533.98435 531.75493 0.24987
16174 64.82160 534.01378 530.43262 0.25003
16175 64.82520 534.04650 528.68850 0.25070
16176 64.82880 534.08259 530.21607 0.25053
16177 64.83240 534.12215 527.88321 0.25184
16178 64.83600 534.16537 527.37212 0.25207
16179 64.83960 534.21245 528.54079 0.25166
16180 64.84320 534.26359 525.62658 0.25312
16181 64.84680 534.31891 525.76259 0.25261
16182 64.85040 534.37853 529.95151 0.25060
16183 64.85400 534.44260 530.20579 0.25030
16184 64.85760 534.51096 529.28991 0.25101
16185 64.86120 534.58367 530.81792 0.25056
16186 64.86480 534.66068 528.68139 0.25142
16187 64.86840 534.74189 529.03358 0.25141
16188 64.87200 534.82716 529.76534 0.25087
16189 64.87560 534.91630 529.57754 0.25097
16190 64.87920 535.00905 529.00156 0.25112
16191 64.88280 535.10508 530.55014 0.25038
16192 64.88640 535.20401 530.05664 0.25045
16193 64.89000 535.30470 529.22792 0.25076
16194 64.89360 535.40787 527.80916 0.25160
16195 64.89720 535.51221 529.45506 0.25110
16196 64.90080 535.61698 533.63470 0.24883
16197 64.90440 535.72126 530.49497 0.24975
16198 64.90800 535.82412 531.83115 0.24962
16199 64.91160 535.92449 532.43217 0.24975
16200 64.91520 536.02121 533.60977 0.24914
16201 64.91880 536.11307 531.61680 0.25017
16202 64.92240 536.19878 530.49180 0.25087
16203 64.92600 536.27704 530.81573 0.25001
16204 64.92960 536.34651 532.31617 0.24941
16205 64.93320 536.40592 533.94023 0.24854
16206 64.93680 536.45402 533.65795 0.24869
16207 64.94040 536.48969 532.96721 0.24967
16208 64.94400 536.51192 535.94904 0.24822
16209 64.94760 536.51990 532.95214 0.24973
16210 64.95120 536.51298 535.17287 0.24833
16211 64.95480 536.49078 533.32076 0.24938
16212 64.95840 536.45315 533.64821 0.24922
16213 64.96200 536.40019 534.31476 0.24873
16214 64.96560 536.33225 532.94205 0.24925
16215 64.96920 536.24995 533.63265 0.24867
16216 64.97280 536.15410 535.04132 0.24816
16217 64.97640 536.04565 532.53375 0.24943
16218 64.98000 535.92571 536.27968 0.24785
16219 64.98360 535.79536 533.85817 0.24821
16220 64.98720 535.65556 532.64602 0.24915
16221 64.99080 535.50705 531.35855 0.25024
16222 64.99440 535.35027 533.50289 0.24930
16223 64.99800 535.18541 531.38912 0.25010
16224 65.00160 535.01264 531.67142 0.25043
16225 65.00520 534.83249 531.81891 0.24975
16226 65.00880 534.64616 529.99013 0.25062
16227 65.01240 534.45546 530.20816 0.25035
16228 65.01600 534.26257 529.29389 0.25049
16229 65.01960 534.06958 530.55643 0.25040
16230 65.02320 533.87838 528.88873 0.25169
16231 65.02680 533.69016 531.12833 0.25061
16232 65.03040 533.50570 530.50613 0.25063
16233 65.03400 533.32625 529.13030 0.25129
16234 65.03760 533.15205 530.97806 0.25054
16235 65.04120 532.98347 531.88701 0.24983
16236 65.04480 532.82082 531.49722 0.25028
16237 65.04840 532.66435 528.87441 0.25095
16238 65.05200 532.51406 527.60388 0.25150
16239 65.05560 532.37060 527.76104 0.25179
16240 65.05920 532.23416 530.13795 0.25103
16241 65.06280 532.10489 531.64543 0.24959
16242 65.06640 531.98303 530.58374 0.25023
16243 65.07000 531.86878 531.46929 0.25031
16244 65.07360 531.76224 530.37173 0.25086
16245 65.07720 531.66332 529.72416 0.25085
16246 65.08080 531.57159 530.15342 0.25106
16247 65.08440 531.48618 530.70516 0.25041
16248 65.08800 531.40561 531.84563 0.24991
16249 65.09160 531.32834 533.33784 0.24904
16250 65.09520 531.25318 531.87637 0.24941
16251 65.09880 531.17946 530.25743 0.25028
16252 65.10240 531.10802 530.42118 0.25112
16253 65.10600 531.04091 533.47351 0.24978
16254 65.10960 530.98080 534.68742 0.24882
16255 65.11320 530.93018 532.83867 0.24965
16256 65.11680 530.89078 534.92754 0.24893
16257 65.12040 530.86302 533.48094 0.24907
16258 65.12400 530.84559 535.32218 0.24875
16259 65.12760 530.83488 531.53762 0.24999
16260 65.13120 530.82470 532.02003 0.24944
16261 65.13480 530.80658 532.55017 0.24955
16262 65.13840 530.77132 534.77986 0.24886
16263 65.14200 530.71174 534.51666 0.24855
16264 65.14560 530.62537 530.92000 0.24990
16265 65.14920 530.51544 535.85245 0.24837
16266 65.15280 530.38941 536.22310 0.24825
16267 65.15640 530.25609 531.85094 0.25002
16268 65.16000 530.12300 529.82258 0.25123
16269 65.16360 529.99606 531.89428 0.25012
16270 65.16720 529.87812 531.76574 0.25000
16271 65.17080 529.77047 529.90073 0.25085
16272 65.17440 529.67175 533.10972 0.24911
16273 65.17800 529.58189 531.67474 0.24965
16274 65.18160 529.50395 530.69975 0.25080
16275 65.18520 529.43444 531.54076 0.25063
16276 65.18880 529.37258 531.62891 0.25057
16277 65.19240 529.31768 527.74953 0.25207
16278 65.19600 529.26694 528.60561 0.25160
16279 65.19960 529.22436 529.51217 0.25105
16280 65.20320 529.18469 528.78497 0.25170
16281 65.20680 529.15302 528.68942 0.25168
16282 65.21040 529.12658 528.73893 0.25091
16283 65.21400 529.10536 526.09671 0.25254
16284 65.21760 529.09394 526.13735 0.25276
16285 65.22120 529.08329 526.23220 0.25258
16286 65.22480 529.07826 528.20295 0.25128
16287 65.22840 529.07917 526.46237 0.25295
16288 65.23200 529.08638 529.28430 0.25152
16289 65.23560 529.10029 527.74673 0.25236
16290 65.23920 529.12120 528.47737 0.25191
16291 65.24280 529.14922 527.69725 0.25246
16292 65.24640 529.18402 527.77889 0.25195
16293 65.25000 529.22460 527.32354 0.25219
16294 65.25360 529.26888 528.31177 0.25142
16295 65.25720 529.31437 530.18975 0.25045
16296 65.26080 529.35739 530.93521 0.25068
16297 65.26440 529.39447 528.69037 0.25204
16298 65.26800 529.42307 530.83086 0.25106
16299 65.27160 529.44225 530.77662 0.25091
16300 65.27520 529.45299 527.43700 0.25210
16301 65.27880 529.45410 530.78983 0.25041
16302 65.28240 529.45765 531.84523 0.25042
16303 65.28600 529.46484 535.47764 0.24894
16304 65.28960 529.47948 530.71829 0.25019
16305 65.29320 529.50458 530.28285 0.25055
16306 65.29680 529.54125 527.15756 0.25219
16307 65.30040 529.58905 533.17524 0.24966
16308 65.30400 529.64509 530.41451 0.25037
16309 65.30760 529.70456 531.28612 0.25050
16310 65.31120 529.75986 531.30360 0.25078
16311 65.31480 529.80242 531.59572 0.25060
16312 65.31840 529.82478 527.61338 0.25222
16313 65.32200 529.82321 529.31741 0.25169
16314 65.32560 529.79913 530.85338 0.25052
16315 65.32920 529.75838 530.42941 0.25080
16316 65.33280 529.70873 529.53819 0.25126
16317 65.33640 529.65757 530.13255 0.25076
16318 65.34000 529.61016 531.13066 0.25081
16319 65.34360 529.56981 529.42540 0.25197
16320 65.34720 529.53805 527.86339 0.25254
16321 65.35080 529.51520 531.14164 0.25087
16322 65.35440 529.50092 530.03923 0.25124
16323 65.35800 529.49457 529.23385 0.25120
16324 65.36160 529.49540 528.05162 0.25210
16325 65.36520 529.50271 528.77990 0.25203
16326 65.36880 529.51585 528.29840 0.25152
16327 65.37240 529.53429 529.86356 0.25083
16328 65.37600 529.55761 528.60546 0.25166
16329 65.37960 529.58545 530.15077 0.25124
16330 65.38320 529.61748 526.65352 0.25261
16331 65.38680 529.65334 529.52798 0.25137
16332 65.39040 529.69249 526.86137 0.25313
16333 65.39400 529.73406 522.10323 0.25530
16334 65.39760 529.77669 524.82727 0.25350
16335 65.40120 529.81834 524.69716 0.25407
16336 65.40480 529.85636 528.02628 0.25218
16337 65.40840 529.88791 527.80663 0.25216
16338 65.41200 529.91040 526.90141 0.25285
16339 65.41560 529.92354 527.78091 0.25204
16340 65.41920 529.92766 528.04656 0.25205
16341 65.42280 529.92464 527.08655 0.25313
16342 65.42640 529.91675 527.25481 0.25289
16343 65.43000 529.90598 527.08679 0.25283
16344 65.43360 529.89365 524.33854 0.25429
16345 65.43720 529.88045 527.67553 0.25195
16346 65.44080 529.86652 527.73101 0.25241
16347 65.44440 529.85172 526.97445 0.25305
16348 65.44800 529.83569 527.54235 0.25208
16349 65.45160 529.81805 528.84814 0.25142
16350 65.45520 529.79835 529.93189 0.25121
16351 65.45880 529.77623 529.65589 0.25156
16352 65.46240 529.75132 528.27644 0.25199
16353 65.46600 529.72334 529.11452 0.25154
16354 65.46960 529.69205 527.40276 0.25292
16355 65.47320 529.65727 528.22810 0.25225
16356 65.47680 529.61884 529.10603 0.25164
16357 65.48040 529.57675 530.05036 0.25147
16358 65.48400 529.53090 525.90027 0.25348
16359 65.48760 529.48123 528.97515 0.25198
16360 65.49120 529.42846 529.47240 0.25177
16361 65.49480 529.37072 526.64096 0.25293
16362 65.49840 529.30847 526.28747 0.25296
16363 65.50200 529.24119 528.44951 0.25248
16364 65.50560 529.16828 528.37463 0.25288
16365 65.50920 529.08925 529.98168 0.25207
16366 65.51280 529.00400 525.33946 0.25549
16367 65.51640 528.91291 525.60121 0.25587
16368 65.52000 528.81673 527.76848 0.25681
16369 65.52360 528.71632 528.74055 0.24036
16370 65.52720 528.61228 527.04337 0.22087
16371 65.53080 528.50462 528.22743 0.22030
16372 65.53440 528.39301 527.49799 0.22087
16373 65.53800 528.27644 524.50230 0.22209
16374 65.54160 528.15385 523.18163 0.22272
16375 65.54520 528.02461 526.39476 0.22130
16376 65.54880 527.88885 527.02113 0.22143
16377 65.55240 527.74758 527.93030 0.22091
16378 65.55600 527.60232 524.61365 0.22220
16379 65.55960 527.45466 530.45291 0.21976
16380 65.56320 527.30599 526.64936 0.22145
16381 65.56680 527.15729 526.51602 0.22155
16382 65.57040 527.00924 524.04279 0.22266
16383 65.57400 526.86226 524.81788 0.22245
16384 65.57760 526.71665 524.14027 0.22228
16385 65.58120 526.57263 527.69362 0.22107
16386 65.58480 526.43038 521.55193 0.22422
16387 65.58840 526.29004 521.03366 0.22450
16388 65.59200 526.15171 525.20344 0.22357
16389 65.59560 526.01537 522.93765 0.22509
16390 65.59920 525.88080 524.05615 0.22632
16391 65.60280 525.74746 525.60445 0.21827
16392 65.60640 525.61442 525.13112 0.19014
16393 65.61000 525.48027 526.30568 0.18950
16394 65.61360 525.34363 527.96775 0.18917
16395 65.61720 525.20327 525.15025 0.19028
16396 65.62080 525.05868 522.52370 0.19112
16397 65.62440 524.91036 520.98028 0.19186
16398 65.62800 524.75962 526.12911 0.19001
16399 65.63160 524.60805 524.30181 0.19076
16400 65.63520 524.45712 525.30229 0.19018
16401 65.63880 524.30792 524.95419 0.19033
16402 65.64240 524.16110 526.32733 0.18999
16403 65.64600 524.01700 521.57053 0.19173
16404 65.64960 523.87594 520.66042 0.19207
16405 65.65320 523.73749 524.41859 0.19100
16406 65.65680 523.60179 524.07017 0.19080
16407 65.66040 523.46873 523.70760 0.19086
16408 65.66400 523.33823 525.56136 0.19062
16409 65.66760 523.21021 522.09810 0.19221
16410 65.67120 523.08460 522.00364 0.19273
16411 65.67480 522.96135 527.41022 0.19146
16412 65.67840 522.84045 524.55649 0.19399
16413 65.68200 522.72189 523.20181 0.19395
16414 65.68560 522.60569 525.30363 0.15848
16415 65.68920 522.49187 526.41823 0.15787
16416 65.69280 522.38049 525.47976 0.15850
16417 65.69640 522.27160 523.11780 0.15913
16418 65.70000 522.16554 522.82325 0.15893
16419 65.70360 522.06188 524.42213 0.15869
16420 65.70720 521.96253 524.49473 0.15868
16421 65.71080 521.86436 524.48893 0.15892
16422 65.71440 521.76888 528.38908 0.17955
16423 65.71800 521.67588 524.75024 0.19595
16424 65.72160 521.58494 523.91336 0.19451
16425 65.72520 521.49537 524.60654 0.19269
16426 65.72880 521.40627 522.33212 0.19265
16427 65.73240 521.31668 522.06781 0.19260
16428 65.73600 521.22593 524.89608 0.19134
16429 65.73960 521.13386 524.09601 0.19148
16430 65.74320 521.04094 523.66123 0.19175
16431 65.74680 520.94808 524.89402 0.19137
16432 65.75040 520.85626 524.18949 0.19196
16433 65.75400 520.76634 526.62477 0.19185
16434 65.75760 520.67895 524.31643 0.19407
16435 65.76120 520.59434 524.50507 0.19635
16436 65.76480 520.51265 524.27854 0.16395
16437 65.76840 520.43383 523.97671 0.15895
16438 65.77200 520.35772 524.09207 0.15944
16439 65.77560 520.28413 524.84749 0.15926
16440 65.77920 520.21288 522.47005 0.15950
16441 65.78280 520.14388 520.04583 0.16027
16442 65.78640 520.07714 523.08319 0.15967
16443 65.79000 520.01274 525.54876 0.15887
16444 65.79360 519.95083 524.65905 0.17266
16445 65.79720 519.89154 524.06352 0.19709
16446 65.80080 519.83499 523.72828 0.19516
16447 65.80440 519.78126 523.24527 0.19362
16448 65.80800 519.73042 522.60480 0.19286
16449 65.81160 519.68254 521.47272 0.19287
16450 65.81520 519.63766 521.92495 0.19271
16451 65.81880 519.59585 523.06382 0.19222
16452 65.82240 519.55718 526.55467 0.19109
16453 65.82600 519.52172 523.89929 0.19191
16454 65.82960 519.47896 523.50392 0.19244
16455 65.83320 519.44930 526.81335 0.19231
16456 65.83680 519.42390 523.21296 0.19485
16457 65.84040 519.40195 521.51200 0.19748
16458 65.84400 519.38347 527.27788 0.17135
16459 65.84760 519.36847 522.79451 0.15980
16460 65.85120 519.35696 521.03254 0.16065
16461 65.85480 519.34904 525.87926 0.15938
16462 65.85840 519.34488 521.99619 0.16045
16463 65.86200 519.34475 521.38141 0.16028
16464 65.86560 519.34900 523.95246 0.15973
16465 65.86920 519.35801 524.06936 0.15983
16466 65.87280 519.37201 525.16085 0.16641
16467 65.87640 519.39134 524.57252 0.19778
16468 65.88000 519.41619 525.90709 0.19507
16469 65.88360 519.44657 524.90552 0.19362
16470 65.88720 519.48269 525.33627 0.19253
16471 65.89080 519.52415 522.68434 0.19305
16472 65.89440 519.57043 522.53968 0.19317
16473 65.89800 519.62073 524.18497 0.19236
16474 65.90160 519.67415 527.43820 0.19122
16475 65.90520 519.72997 525.31316 0.19174
16476 65.90880 519.78792 526.81360 0.19159
16477 65.91240 519.84839 523.79440 0.19367
16478 65.91600 519.91223 524.85919 0.19443
16479 65.91960 519.98051 527.56601 0.19497
16480 65.92320 520.05410 528.14982 0.18444
16481 65.92680 520.13351 527.93133 0.15888
16482 65.93040 520.21908 523.62313 0.16044
16483 65.93400 520.31081 524.78161 0.16028
16484 65.93760 520.40852 524.69038 0.16049
16485 65.94120 520.51184 527.05949 0.15936
16486 65.94480 520.62028 525.34200 0.16009
16487 65.94840 520.73327 523.90800 0.16069
16488 65.95200 520.85012 525.53608 0.16022
16489 65.95560 520.97002 524.92584 0.19767
16490 65.95920 521.09209 522.52003 0.19723
16491 65.96280 521.21530 524.79200 0.19464
16492 65.96640 521.33853 522.43613 0.19447
16493 65.97000 521.46054 521.46708 0.19440
16494 65.97360 521.57996 520.90517 0.19431
16495 65.97720 521.69514 523.17480 0.19335
16496 65.98080 521.80493 523.25481 0.19339
16497 65.98440 521.90751 526.82230 0.19180
16498 65.98800 522.00121 526.22786 0.19243
16499 65.99160 522.08432 522.59295 0.19441
16500 65.99520 522.15518 522.72450 0.19552
16501 65.99880 522.21217 523.99302 0.19651
16502 66.00240 522.25374 524.95096 0.19437
16503 66.00600 522.27850 524.23285 0.16081
16504 66.00960 522.28522 521.90486 0.16155
16505 66.01320 522.27290 522.94906 0.16142
16506 66.01680 522.24056 528.59023 0.15986
16507 66.02040 522.18626 526.50963 0.16021
16508 66.02400 522.11281 521.45785 0.16164
16509 66.02760 522.01930 522.49954 0.16154
16510 66.03120 521.90568 526.45909 0.16021
16511 66.03480 521.77258 527.20898 0.18962
16512 66.03840 521.62088 522.21883 0.19860
16513 66.04200 521.45171 525.67578 0.19522
16514 66.04560 521.26638 522.11060 0.19538
16515 66.04920 521.06635 524.98176 0.19385
16516 66.05280 520.85321 522.99818 0.19414
16517 66.05640 520.62859 521.50326 0.19444
16518 66.06000 520.39417 520.97484 0.19491
16519 66.06360 520.15164 523.58846 0.19362
16520 66.06720 519.90261 524.40032 0.19347
16521 66.07080 519.64865 523.08097 0.19464
16522 66.07440 519.39125 521.02739 0.19637
16523 66.07800 519.13178 520.98956 0.19787
16524 66.08160 518.87150 524.74360 0.19832
16525 66.08520 518.61155 526.09253 0.16638
16526 66.08880 518.35295 521.15674 0.16217
16527 66.09240 518.09658 519.88991 0.16278
16528 66.09600 517.84322 522.91152 0.16171
16529 66.09960 517.59355 526.33462 0.16059
16530 66.10320 517.34812 521.07316 0.16201
16531 66.10680 517.10739 526.65299 0.16038
16532 66.11040 516.87175 522.19108 0.16207
16533 66.11400 516.64150 522.79809 0.17823
16534 66.11760 516.41691 524.56884 0.19870
16535 66.12120 516.19815 524.09481 0.19670
16536 66.12480 515.98538 521.81127 0.19604
16537 66.12840 515.77871 522.90730 0.19479
16538 66.13200 515.57825 521.73583 0.19487
16539 66.13560 515.38406 519.20774 0.19554
16540 66.13920 515.19420 520.48262 0.19500
16541 66.14280 515.01132 525.33250 0.19318
16542 66.14640 514.83607 520.50894 0.19455
16543 66.15000 514.66713 524.78329 0.19328
16544 66.15360 514.50400 522.47990 0.19389
16545 66.15720 514.34659 522.73871 0.19400
16546 66.16080 514.19409 523.18661 0.19382
16547 66.16440 514.04537 525.80550 0.19295
16548 66.16800 513.89911 526.02431 0.19271
16549 66.17160 513.75399 527.05937 0.19252
16550 66.17520 513.60998 527.10295 0.19236
16551 66.17880 513.46540 522.85952 0.19396
16552 66.18240 513.32321 523.74354 0.19340
16553 66.18600 513.18277 520.47968 0.19444
16554 66.18960 513.04502 522.36560 0.19424
16555 66.19320 512.90959 525.58609 0.20071
16556 66.19680 512.77853 521.65623 0.23294
16557 66.20040 512.65110 523.50003 0.22951
16558 66.20400 512.52870 523.41680 0.22778
16559 66.20760 512.40986 525.81363 0.22574
16560 66.21120 512.29369 523.29054 0.22652
16561 66.21480 512.17916 520.14985 0.22756
16562 66.21840 512.06543 521.86541 0.22667
16563 66.22200 511.95201 522.21979 0.22670
16564 66.22560 511.83897 519.50794 0.22753
16565 66.22920 511.72676 518.66310 0.22795
16566 66.23280 511.61603 520.02411 0.22723
16567 66.23640 511.50734 519.08840 0.22786
16568 66.24000 511.40111 517.68068 0.22846
16569 66.24360 511.29752 518.72979 0.22802
16570 66.24720 511.19664 519.56664 0.22747
16571 66.25080 511.09840 518.12045 0.22832
16572 66.25440 511.00269 518.96205 0.22788
16573 66.25800 510.90938 518.15554 0.22826
16574 66.26160 510.81839 516.71977 0.22889
16575 66.26520 510.72967 516.72853 0.22854
16576 66.26880 510.64279 520.88934 0.22711
16577 66.27240 510.55784 523.04371 0.22609
16578 66.27600 510.47474 521.29653 0.26450
16579 66.27960 510.39341 518.76843 0.26461
16580 66.28320 510.31381 519.29165 0.26237
16581 66.28680 510.23591 521.71561 0.26012
16582 66.29040 510.15967 520.59191 0.26033
16583 66.29400 510.08483 519.54102 0.26050
16584 66.29760 510.01193 517.12551 0.26142
16585 66.30120 509.94072 519.95887 0.26031
16586 66.30480 509.87127 520.57296 0.25962
16587 66.30840 509.80364 519.35168 0.26012
16588 66.31200 509.73792 520.43973 0.25965
16589 66.31560 509.67424 521.10658 0.25948
16590 66.31920 509.61278 521.08278 0.25950
16591 66.32280 509.55372 523.67986 0.25822
16592 66.32640 509.49732 522.69045 0.25862
16593 66.33000 509.44387 519.46327 0.26021
16594 66.33360 509.39373 521.51857 0.25922
16595 66.33720 509.34728 525.40050 0.25727
16596 66.34080 509.30493 519.99100 0.26024
16597 66.34440 509.26706 520.25622 0.25973
16598 66.34800 509.23396 519.23996 0.26023
16599 66.35160 509.20559 519.87436 0.26002
16600 66.35520 509.18158 520.49986 0.26029
16601 66.35880 509.16026 518.93159 0.26048
16602 66.36240 509.13924 521.45183 0.25893
16603 66.36600 509.11470 521.55127 0.25897
16604 66.36960 509.08196 520.81942 0.25958
16605 66.37320 509.03659 521.82638 0.25926
16606 66.37680 508.97586 519.74874 0.25990
16607 66.38040 508.89994 522.28167 0.25888
16608 66.38400 508.81174 520.47816 0.25976
16609 66.38760 508.71580 521.21506 0.25922
16610 66.39120 508.61663 522.25771 0.25898
16611 66.39480 508.51804 521.36462 0.25964
16612 66.39840 508.42236 518.87680 0.26083
16613 66.40200 508.33073 518.52202 0.26084
16614 66.40560 508.24388 519.36923 0.26048
16615 66.40920 508.16148 521.00916 0.25938
16616 66.41280 508.08330 520.36890 0.25971
16617 66.41640 508.00811 522.70021 0.25845
16618 66.42000 507.93386 519.15176 0.26056
16619 66.42360 507.86567 519.52029 0.26029
16620 66.42720 507.80013 520.42334 0.25961
16621 66.43080 507.73700 519.70077 0.26038
16622 66.43440 507.67588 516.42934 0.26230
16623 66.43800 507.61656 518.99590 0.26080
16624 66.44160 507.55884 520.60522 0.25961
16625 66.44520 507.50258 515.66565 0.26227
16626 66.44880 507.44766 518.38365 0.26107
16627 66.45240 507.39399 520.76811 0.26028
16628 66.45600 507.34149 520.91558 0.25972
16629 66.45960 507.29012 517.33710 0.26145
16630 66.46320 507.23985 518.08560 0.26114
16631 66.46680 507.19067 517.91176 0.26129
16632 66.47040 507.14258 517.45123 0.26147
16633 66.47400 507.09562 515.83899 0.26231
16634 66.47760 507.04982 517.69207 0.26153
16635 66.48120 507.00527 519.94728 0.26042
16636 66.48480 506.96204 521.46398 0.25977
16637 66.48840 506.92025 518.73740 0.26076
16638 66.49200 506.88003 518.56741 0.26075
16639 66.49560 506.84204 517.61809 0.26105
16640 66.49920 506.80534 520.54671 0.25980
16641 66.50280 506.77087 519.25187 0.26062
16642 66.50640 506.73867 518.28164 0.26077
16643 66.51000 506.70880 518.96374 0.26084
16644 66.51360 506.68115 515.95962 0.26239
16645 66.51720 506.65560 521.06569 0.25996
16646 66.52080 506.63085 519.53541 0.26014
16647 66.52440 506.60585 519.76880 0.26003
16648 66.52800 506.57900 519.56076 0.26030
16649 66.53160 506.54836 520.49271 0.26034
16650 66.53520 506.51280 518.76209 0.26076
16651 66.53880 506.47217 521.06656 0.25949
16652 66.54240 506.42750 518.54048 0.26100
16653 66.54600 506.38068 519.26669 0.26067
16654 66.54960 506.33380 523.20041 0.25867
16655 66.55320 506.28864 516.75054 0.26195
16656 66.55680 506.24647 517.81769 0.26136
16657 66.56040 506.20794 519.35218 0.26071
16658 66.56400 506.17306 519.65897 0.26050
16659 66.56760 506.14127 519.80524 0.26031
16660 66.57120 506.11163 518.08800 0.26106
16661 66.57480 506.08154 517.98365 0.26104
16662 66.57840 506.04896 520.29994 0.25988
16663 66.58200 506.01159 517.97056 0.26128
16664 66.58560 505.96794 518.30603 0.26064
16665 66.58920 505.91789 517.32596 0.26135
16666 66.59280 505.86267 520.67234 0.25981
16667 66.59640 505.80434 517.44035 0.26186
16668 66.60000 505.74505 517.97766 0.26117
16669 66.60360 505.68657 519.68122 0.26006
16670 66.60720 505.63003 518.42760 0.26082
16671 66.61080 505.57606 522.26685 0.25912
16672 66.61440 505.52488 519.45312 0.26085
16673 66.61800 505.47634 518.66819 0.26051
16674 66.62160 505.43047 522.50510 0.25905
16675 66.62520 505.38687 523.96344 0.25829
16676 66.62880 505.34515 520.38466 0.26001
16677 66.63240 505.30486 517.62467 0.26155
16678 66.63600 505.26548 518.83026 0.26084
16679 66.63960 505.22652 521.12486 0.26008
16680 66.64320 505.18759 519.63819 0.26062
16681 66.64680 505.14852 518.68500 0.26101
16682 66.65040 505.10936 519.86550 0.26013
16683 66.65400 505.07035 518.31681 0.26093
16684 66.65760 505.03175 521.10462 0.25941
16685 66.66120 504.99389 517.86769 0.26136
16686 66.66480 504.95871 518.91996 0.26065
16687 66.66840 504.92317 518.17373 0.26097
16688 66.67200 504.88831 517.74441 0.26137
16689 66.67560 504.85390 519.68343 0.26087
16690 66.67920 504.82036 520.20951 0.26040
16691 66.68280 504.78766 518.81808 0.26065
16692 66.68640 504.75576 518.49713 0.26085
16693 66.69000 504.72463 520.49847 0.25992
16694 66.69360 504.69425 518.58419 0.26152
16695 66.69720 504.66462 518.99213 0.26073
16696 66.70080 504.63573 521.77517 0.25966
16697 66.70440 504.60758 522.17229 0.25949
16698 66.70800 504.58031 519.31134 0.26083
16699 66.71160 504.55392 517.57915 0.26180
16700 66.71520 504.52816 516.24406 0.26220
16701 66.71880 504.50327 518.67086 0.26126
16702 66.72240 504.47929 518.49630 0.26131
16703 66.72600 504.45626 518.46140 0.22940
16704 66.72960 504.43419 516.37340 0.26205
16705 66.73320 504.41307 519.72602 0.26073
16706 66.73680 504.39277 517.90909 0.26139
16707 66.74040 504.37313 520.76101 0.26047
16708 66.74400 504.35380 519.76413 0.26086
16709 66.74760 504.33436 520.25282 0.26014
16710 66.75120 504.31440 518.44761 0.26102
16711 66.75480 504.29365 519.21767 0.26126
16712 66.75840 504.27212 519.24271 0.26129
16713 66.76200 504.25013 520.54510 0.26005
16714 66.76560 504.22819 521.32465 0.25970
16715 66.76920 504.20685 518.79925 0.26104
16716 66.77280 504.18660 520.98038 0.26070
16717 66.77640 504.16781 520.93364 0.26014
16718 66.78000 504.15069 518.79754 0.26138
16719 66.78360 504.13531 519.22319 0.26138
16720 66.78720 504.12003 519.28808 0.26117
16721 66.79080 504.10754 522.55974 0.25966
16722 66.79440 504.09598 523.06572 0.25921
16723 66.79800 504.08441 520.34792 0.26043
16724 66.80160 504.07182 521.83767 0.26098
16725 66.80520 504.05722 520.86698 0.23414
16726 66.80880 504.03998 517.96814 0.25446
16727 66.81240 504.02006 521.78099 0.25983
16728 66.81600 503.99802 520.42153 0.26025
16729 66.81960 503.97478 521.34173 0.26013
16730 66.82320 503.95134 519.81094 0.26107
16731 66.82680 503.92848 522.78874 0.25905
16732 66.83040 503.90674 521.44605 0.25980
16733 66.83400 503.88639 520.93705 0.26041
16734 66.83760 503.86755 520.08584 0.26105
16735 66.84120 503.85022 519.65705 0.26088
16736 66.84480 503.83435 519.74138 0.26074
16737 66.84840 503.81986 521.33677 0.26006
16738 66.85200 503.80666 520.38557 0.26108
16739 66.85560 503.79469 523.39435 0.25924
16740 66.85920 503.78386 520.68152 0.26064
16741 66.86280 503.77425 519.46019 0.26145
16742 66.86640 503.76556 520.86156 0.26044
16743 66.87000 503.75788 521.20543 0.26049
16744 66.87360 503.75119 520.03937 0.26111
16745 66.87720 503.74545 520.71801 0.26044
16746 66.88080 503.74060 520.40042 0.26160
16747 66.88440 503.73676 521.01640 0.24027
16748 66.88800 503.73387 519.76377 0.24805
16749 66.89160 503.73191 520.50731 0.26081
16750 66.89520 503.73091 519.47580 0.26082
16751 66.89880 503.73087 518.64629 0.26152
16752 66.90240 503.73180 518.33292 0.26178
16753 66.90600 503.73371 517.73709 0.26188
16754 66.90960 503.73662 520.90952 0.26012
16755 66.91320 503.74056 518.56356 0.26152
16756 66.91680 503.74553 519.26519 0.26168
16757 66.92040 503.75157 520.70574 0.26080
16758 66.92400 503.75870 521.72351 0.25998
16759 66.92760 503.76694 519.68501 0.26127
16760 66.93120 503.77633 523.66262 0.25943
16761 66.93480 503.78705 522.93372 0.25988
16762 66.93840 503.79867 520.78649 0.26073
16763 66.94200 503.80967 521.48978 0.26068
16764 66.94560 503.82391 519.69787 0.26141
16765 66.94920 503.83946 519.31471 0.26144
16766 66.95280 503.85633 520.12940 0.26139
16767 66.95640 503.87456 523.22362 0.25936
16768 66.96000 503.89418 521.58677 0.26095
16769 66.96360 503.91524 520.01687 0.24763
16770 66.96720 503.93776 521.09323 0.24091
16771 66.97080 503.96177 523.14278 0.25998
16772 66.97440 503.98731 519.81397 0.26100
16773 66.97800 504.01444 521.09391 0.26052
16774 66.98160 504.04312 522.92064 0.25942
16775 66.98520 504.07340 522.25934 0.26001
16776 66.98880 504.10530 523.90398 0.25881
16777 66.99240 504.13821 522.39333 0.25978
16778 66.99600 504.17057 522.94675 0.25995
16779 66.99960 504.20735 522.19492 0.26037
16780 67.00320 504.24570 523.60386 0.25944
16781 67.00680 504.28554 518.00010 0.26257
16782 67.01040 504.32672 519.93843 0.26124
16783 67.01400 504.36903 523.13326 0.25992
16784 67.01760 504.41216 521.70942 0.26043
16785 67.02120 504.45570 523.90213 0.25959
16786 67.02480 504.49917 523.75917 0.25982
16787 67.02840 504.54212 525.51236 0.25863
16788 67.03200 504.58421 523.81721 0.25989
16789 67.03560 504.62524 522.55542 0.25984
16790 67.03920 504.66510 520.79583 0.26127
16791 67.04280 504.70372 523.72403 0.25316
16792 67.04640 504.74097 524.59291 0.23252
16793 67.05000 504.77663 524.02345 0.26011
16794 67.05360 504.81038 527.57835 0.25740
16795 67.05720 504.84183 525.93206 0.25828
16796 67.06080 504.87045 524.55958 0.25923
16797 67.06440 504.89602 523.56914 0.25936
16798 67.06800 504.91798 523.38550 0.25936
16799 67.07160 504.93591 524.92894 0.25870
16800 67.07520 504.94945 523.05384 0.25980
16801 67.07880 504.95827 523.94338 0.25976
16802 67.08240 504.96211 522.75059 0.26014
16803 67.08600 504.96082 524.56628 0.25940
16804 67.08960 504.95431 524.19699 0.25932
16805 67.09320 504.94259 524.73934 0.25918
16806 67.09680 504.92577 524.99606 0.25892
16807 67.10040 504.90408 524.98071 0.25920
16808 67.10400 504.87774 524.44999 0.25958
16809 67.10760 504.84735 523.57342 0.25958
16810 67.11120 504.81330 524.66799 0.25968
16811 67.11480 504.77618 521.60042 0.26065
16812 67.11840 504.73659 523.23063 0.25969
16813 67.12200 504.69515 524.32222 0.26033
16814 67.12560 504.65240 526.63722 0.23012
16815 67.12920 504.60871 525.64560 0.25412
16816 67.13280 504.56413 524.23429 0.25962
16817 67.13640 504.51824 525.43403 0.25866
16818 67.14000 504.47001 524.52441 0.25948
16819 67.14360 504.41785 521.72381 0.26070
16820 67.14720 504.35998 525.20977 0.25856
16821 67.15080 504.29500 526.60337 0.25789
16822 67.15440 504.22262 527.67205 0.25735
16823 67.15800 504.14388 525.38381 0.25919
16824 67.16160 504.06086 522.44341 0.26046
16825 67.16520 503.97602 524.13901 0.25957
16826 67.16880 503.89062 524.37934 0.25946
16827 67.17240 503.80687 526.01612 0.25868
16828 67.17600 503.72741 523.98047 0.25956
16829 67.17960 503.65152 525.90794 0.25868
16830 67.18320 503.57942 527.02663 0.25830
16831 67.18680 503.51117 526.56560 0.25828
16832 67.19040 503.44671 521.41476 0.26120
16833 67.19400 503.38599 523.03218 0.26003
16834 67.19760 503.32894 521.76536 0.26045
16835 67.20120 503.27546 524.03387 0.26027
16836 67.20480 503.22556 523.69961 0.23902
16837 67.20840 503.17921 523.15438 0.24809
16838 67.21200 503.13642 520.83809 0.26169
16839 67.21560 503.09716 521.43922 0.26080
16840 67.21920 503.06133 522.85002 0.26032
16841 67.22280 503.02870 524.38075 0.25946
16842 67.22640 502.99879 523.89245 0.25933
16843 67.23000 502.97082 525.20528 0.25877
16844 67.23360 502.94366 523.73584 0.25969
16845 67.23720 502.91598 524.21447 0.25973
16846 67.24080 502.88655 526.80570 0.25839
16847 67.24440 502.85469 526.33464 0.25861
16848 67.24800 502.82053 526.76229 0.25870
16849 67.25160 502.78498 524.03454 0.25970
16850 67.25520 502.74937 521.39143 0.26103
16851 67.25880 502.71502 523.96440 0.25962
16852 67.26240 502.68249 524.73466 0.25944
16853 67.26600 502.65349 526.03337 0.25880
16854 67.26960 502.62785 524.87772 0.25941
16855 67.27320 502.60566 524.38511 0.25965
16856 67.27680 502.58670 524.97949 0.25888
16857 67.28040 502.57052 519.73237 0.26196
16858 67.28400 502.55642 524.44854 0.24692
16859 67.28760 502.54344 523.84438 0.23961
16860 67.29120 502.53060 521.24252 0.26175
16861 67.29480 502.51709 523.42661 0.25993
16862 67.29840 502.50260 521.96516 0.26084
16863 67.30200 502.48739 521.36344 0.26115
16864 67.30560 502.47222 524.12667 0.25937
16865 67.30920 502.45802 525.19060 0.25865
16866 67.31280 502.44566 523.87884 0.25974
16867 67.31640 502.43582 524.76247 0.25933
16868 67.32000 502.42896 523.54475 0.25989
16869 67.32360 502.42541 521.86532 0.26086
16870 67.32720 502.42539 522.85208 0.26058
16871 67.33080 502.42911 519.78080 0.26181
16872 67.33440 502.43681 518.58464 0.26251
16873 67.33800 502.44874 521.15823 0.26099
16874 67.34160 502.46524 524.36234 0.25950
16875 67.34520 502.48672 524.47486 0.25964
16876 67.34880 502.51361 526.72231 0.25838
16877 67.35240 502.54640 525.65965 0.25902
16878 67.35600 502.58548 525.19515 0.25878
16879 67.35960 502.63107 523.88544 0.25959
16880 67.36320 502.68299 528.39836 0.25752
16881 67.36680 502.74034 527.42545 0.25796
16882 67.37040 502.80125 524.77726 0.25943
16883 67.37400 502.86266 527.92416 0.25756
16884 67.37760 502.92060 529.55904 0.25703
16885 67.38120 502.97102 527.02872 0.25824
16886 67.38480 503.01105 527.15414 0.25811
16887 67.38840 503.03997 528.69529 0.25702
16888 67.39200 503.05920 525.95670 0.25887
16889 67.39560 503.07119 525.19882 0.25903
16890 67.39920 503.07801 529.50560 0.25704
16891 67.40280 503.08061 528.54931 0.25739
16892 67.40640 503.07910 528.43744 0.25768
16893 67.41000 503.07355 527.49194 0.25791
16894 67.41360 503.06457 525.48171 0.25883
16895 67.41720 503.05380 522.61268 0.26017
16896 67.42080 503.04330 525.46834 0.25879
16897 67.42440 503.03588 526.07031 0.25874
16898 67.42800 503.03364 527.67630 0.25776
16899 67.43160 503.03827 525.58430 0.25913
16900 67.43520 503.05082 527.08279 0.25796
16901 67.43880 503.07159 525.75486 0.25867
16902 67.44240 503.10006 524.00162 0.25954
16903 67.44600 503.13487 523.44989 0.25998
16904 67.44960 503.17368 524.15029 0.25997
16905 67.45320 503.21336 522.72537 0.26030
16906 67.45680 503.25034 524.42983 0.25947
16907 67.46040 503.28158 522.91104 0.26033
16908 67.46400 503.30550 522.18560 0.26061
16909 67.46760 503.32257 522.58805 0.26014
16910 67.47120 503.33475 522.17635 0.26047
16911 67.47480 503.34554 524.55940 0.25932
16912 67.47840 503.35757 521.81489 0.26072
16913 67.48200 503.37304 523.69393 0.25950
16914 67.48560 503.39329 524.28780 0.25953
16915 67.48920 503.41901 520.87186 0.26132
16916 67.49280 503.45041 524.16772 0.25929
16917 67.49640 503.48744 524.03304 0.25936
16918 67.50000 503.52995 523.31881 0.25967
16919 67.50360 503.57771 524.56973 0.25935
16920 67.50720 503.63056 526.27129 0.25846
16921 67.51080 503.68833 523.45158 0.25993
16922 67.51440 503.75094 523.85633 0.25954
16923 67.51800 503.81831 524.28880 0.25928
16924 67.52160 503.89038 523.27841 0.25972
16925 67.52520 503.96711 527.57547 0.25781
16926 67.52880 504.04831 523.76340 0.26006
16927 67.53240 504.13368 523.31678 0.25994
16928 67.53600 504.22264 521.87890 0.26065
16929 67.53960 504.31416 523.56873 0.25993
16930 67.54320 504.40680 525.63511 0.25903
16931 67.54680 504.49879 526.95601 0.25800
16932 67.55040 504.58844 525.40010 0.25871
16933 67.55400 504.67464 525.59104 0.25881
16934 67.55760 504.75727 525.96817 0.25855
16935 67.56120 504.83715 525.04781 0.25886
16936 67.56480 504.91582 525.13685 0.25891
16937 67.56840 504.99471 526.53872 0.25835
16938 67.57200 505.07497 526.03235 0.25831
16939 67.57560 505.15684 526.62421 0.25800
16940 67.57920 505.24028 528.04371 0.25716
16941 67.58280 505.32421 523.88022 0.25937
16942 67.58640 505.40659 524.50657 0.25936
16943 67.59000 505.48488 524.71891 0.25908
16944 67.59360 505.55330 529.40038 0.25667
16945 67.59720 505.61334 529.74073 0.25630
16946 67.60080 505.66000 527.93936 0.25731
16947 67.60440 505.69248 526.76688 0.25795
16948 67.60800 505.71141 527.03422 0.25827
16949 67.61160 505.71907 524.26212 0.25934
16950 67.61520 505.71802 525.74640 0.25861
16951 67.61880 505.71053 526.25346 0.25835
16952 67.62240 505.69827 522.23190 0.26066
16953 67.62600 505.68232 525.54883 0.25852
16954 67.62960 505.66309 527.20326 0.25764
16955 67.63320 505.64104 525.13395 0.25895
16956 67.63680 505.61642 524.77615 0.25884
16957 67.64040 505.58943 526.15197 0.25824
16958 67.64400 505.56040 525.62378 0.25847
16959 67.64760 505.52905 526.46268 0.25805
16960 67.65120 505.49595 526.55113 0.25790
16961 67.65480 505.46288 525.74349 0.25842
16962 67.65840 505.42921 527.12266 0.25778
16963 67.66200 505.39523 525.80243 0.25832
16964 67.66560 505.36108 527.26970 0.25754
16965 67.66920 505.32676 525.69808 0.25850
16966 67.67280 505.29179 523.55469 0.25955
16967 67.67640 505.25072 527.63362 0.25707
16968 67.68000 505.21262 524.99493 0.25852
16969 67.68360 505.17242 525.39640 0.25852
16970 67.68720 505.13037 522.55105 0.26014
16971 67.69080 505.08727 524.48895 0.25921
16972 67.69440 505.04421 524.96677 0.25891
16973 67.69800 505.00239 524.72216 0.25902
16974 67.70160 504.96289 524.73466 0.25916
16975 67.70520 504.92636 524.77527 0.25897
16976 67.70880 504.89326 522.06938 0.25994
16977 67.71240 504.86388 522.36481 0.26024
16978 67.71600 504.83851 523.77408 0.25936
16979 67.71960 504.81369 522.82154 0.25975
16980 67.72320 504.79622 522.97128 0.25966
16981 67.72680 504.78278 524.06592 0.25909
16982 67.73040 504.77335 521.70736 0.25996
16983 67.73400 504.76774 525.79604 0.25822
16984 67.73760 504.76563 522.65161 0.25995
16985 67.74120 504.76639 525.23999 0.25842
16986 67.74480 504.76913 526.41435 0.25799
16987 67.74840 504.77269 526.55086 0.25789
16988 67.75200 504.77592 523.74510 0.25947
16989 67.75560 504.77798 524.16000 0.25873
16990 67.75920 504.77871 525.29148 0.25815
16991 67.76280 504.77648 524.06031 0.25894
16992 67.76640 504.77649 524.07341 0.25897
16993 67.77000 504.77811 524.35230 0.25916
16994 67.77360 504.78218 523.56147 0.25931
16995 67.77720 504.78942 523.16058 0.25963
16996 67.78080 504.80030 524.67491 0.25885
16997 67.78440 504.81506 526.40034 0.25795
16998 67.78800 504.83384 524.29023 0.25865
16999 67.79160 504.85669 525.06313 0.25861
17000 67.79520 504.88362 523.21555 0.25961
17001 67.79880 504.91460 522.67754 0.25988
17002 67.80240 504.94950 523.45371 0.25952
17003 67.80600 504.98804 523.79476 0.25936
17004 67.80960 505.02966 522.67652 0.25950
17005 67.81320 505.07346 522.93103 0.25942
17006 67.81680 505.11814 524.59762 0.25903
17007 67.82040 505.16215 523.26645 0.25950
17008 67.82400 505.20405 525.60930 0.25835
17009 67.82760 505.24300 525.27110 0.25852
17010 67.83120 505.27905 523.68416 0.25925
17011 67.83480 505.31317 525.30114 0.25830
17012 67.83840 505.34684 525.31093 0.25814
17013 67.84200 505.38155 522.43270 0.25966
17014 67.84560 505.41848 523.24057 0.25911
17015 67.84920 505.45841 521.08333 0.26077
17016 67.85280 505.50165 524.85217 0.25855
17017 67.85640 505.54821 525.73396 0.25812
17018 67.86000 505.59783 528.67184 0.25668
17019 67.86360 505.65010 523.71715 0.25905
17020 67.86720 505.70457 526.13381 0.25780
17021 67.87080 505.76076 523.28497 0.25929
17022 67.87440 505.81850 522.45708 0.25961
17023 67.87800 505.87784 526.94863 0.25755
17024 67.88160 505.93903 526.41469 0.25780
17025 67.88520 506.00238 524.88575 0.25866
17026 67.88880 506.06819 524.84036 0.25837
17027 67.89240 506.13665 524.49876 0.25832
17028 67.89600 506.20785 525.70845 0.25811
17029 67.89960 506.28175 528.29986 0.25695
17030 67.90320 506.35826 527.22984 0.25752
17031 67.90680 506.43718 524.66556 0.25864
17032 67.91040 506.51831 524.38374 0.25871
17033 67.91400 506.60157 524.28600 0.25882
17034 67.91760 506.68672 523.88948 0.25881
17035 67.92120 506.77393 524.75802 0.25856
17036 67.92480 506.86336 525.87285 0.25751
17037 67.92840 506.95517 527.70127 0.25734
17038 67.93200 507.04955 526.72558 0.25771
17039 67.93560 507.14660 529.59811 0.25603
17040 67.93920 507.24636 524.69641 0.25840
17041 67.94280 507.34881 527.50040 0.25714
17042 67.94640 507.45394 528.93887 0.25635
17043 67.95000 507.56175 528.24582 0.25678
17044 67.95360 507.67227 526.11273 0.25760
17045 67.95720 507.78561 524.82635 0.25860
17046 67.96080 507.90186 529.95915 0.25600
17047 67.96440 508.02116 528.22675 0.25680
17048 67.96800 508.14360 528.74081 0.25647
17049 67.97160 508.26927 527.56168 0.25684
17050 67.97520 508.39823 526.49631 0.25755
17051 67.97880 508.53053 528.18823 0.25681
17052 67.98240 508.66619 526.17977 0.25780
17053 67.98600 508.80524 528.02447 0.25669
17054 67.98960 508.94774 526.98493 0.25718
17055 67.99320 509.09372 528.25551 0.25701
17056 67.99680 509.24324 528.26978 0.25691
17057 68.00040 509.39637 529.78528 0.25593
17058 68.00400 509.55315 529.87156 0.25558
17059 68.00760 509.71361 530.12804 0.25589
17060 68.01120 509.87779 529.81633 0.25615
17061 68.01480 510.04570 530.61062 0.25557
17062 68.01840 510.21731 530.77965 0.25511
17063 68.02200 510.39261 530.59933 0.25546
17064 68.02560 510.57154 528.70644 0.25614
17065 68.02920 510.75412 528.54496 0.25637
17066 68.03280 510.94007 530.61594 0.25525
17067 68.03640 511.12934 531.06475 0.25526
17068 68.04000 511.32155 532.30698 0.25490
17069 68.04360 511.51690 529.79054 0.25609
17070 68.04720 511.71497 530.68608 0.25556
17071 68.05080 511.91541 527.98627 0.25668
17072 68.05440 512.11788 526.69351 0.25733
17073 68.05800 512.32195 530.96950 0.25543
17074 68.06160 512.52711 530.17456 0.25582
17075 68.06520 512.73280 530.40785 0.25546
17076 68.06880 512.93833 531.58570 0.25490
17077 68.07240 513.14292 531.94260 0.25508
17078 68.07600 513.34566 531.94847 0.25520
17079 68.07960 513.54548 532.45469 0.25475
17080 68.08320 513.74119 532.02381 0.25468
17081 68.08680 513.93153 530.04129 0.25566
17082 68.09040 514.11525 531.17413 0.25549
17083 68.09400 514.29119 535.11750 0.25342
17084 68.09760 514.45835 533.86811 0.25360
17085 68.10120 514.61586 534.33299 0.25347
17086 68.10480 514.76294 535.71002 0.25274
17087 68.10840 514.89880 534.53794 0.25333
17088 68.11200 515.02267 536.95209 0.25240
17089 68.11560 515.13381 534.80756 0.25334
17090 68.11920 515.23151 534.73612 0.25378
17091 68.12280 515.31519 538.57742 0.25199
17092 68.12640 515.38439 534.48959 0.25371
17093 68.13000 515.43880 534.94004 0.25337
17094 68.13360 515.47812 538.74766 0.25160
17095 68.13720 515.50210 536.68668 0.25266
17096 68.14080 515.50894 538.39067 0.25189
17097 68.14440 515.50453 533.62447 0.25400
17098 68.14800 515.48490 533.41479 0.25401
17099 68.15160 515.45248 531.59675 0.25521
17100 68.15520 515.40894 534.32837 0.25395
17101 68.15880 515.35401 535.14446 0.25345
17102 68.16240 515.28867 535.62067 0.25314
17103 68.16600 515.21395 534.96524 0.25319
17104 68.16960 515.13092 530.86524 0.25562
17105 68.17320 515.04065 530.21921 0.25566
17106 68.17680 514.94419 529.42994 0.25567
17107 68.18040 514.84260 531.16332 0.25481
17108 68.18400 514.73685 530.65757 0.25503
17109 68.18760 514.62785 528.70718 0.25587
17110 68.19120 514.51662 530.38041 0.25550
17111 68.19480 514.40393 530.08911 0.25540
17112 68.19840 514.29051 534.87888 0.25352
17113 68.20200 514.17705 531.95022 0.25503
17114 68.20560 514.06411 529.99827 0.25596
17115 68.20920 513.94950 530.48893 0.25540
17116 68.21280 513.83936 531.85829 0.25473
17117 68.21640 513.73126 529.03140 0.25616
17118 68.22000 513.62556 530.96849 0.25540
17119 68.22360 513.52256 529.90504 0.25589
17120 68.22720 513.42254 528.84757 0.25618
17121 68.23080 513.32571 526.35602 0.25764
17122 68.23440 513.23226 524.55666 0.25874
17123 68.23800 513.14234 527.35191 0.25730
17124 68.24160 513.05606 528.06774 0.25699
17125 68.24520 512.97356 528.59873 0.25629
17126 68.24880 512.89485 531.18321 0.25518
17127 68.25240 512.82003 528.60095 0.25656
17128 68.25600 512.74914 526.82501 0.25695
17129 68.25960 512.68221 524.50295 0.25805
17130 68.26320 512.61928 526.87403 0.25705
17131 68.26680 512.56036 528.03684 0.25604
17132 68.27040 512.50546 525.96488 0.25755
17133 68.27400 512.45420 524.85377 0.25790
17134 68.27760 512.40721 527.52409 0.25704
17135 68.28120 512.36423 526.00184 0.25799
17136 68.28480 512.32503 528.98015 0.25639
17137 68.28840 512.28936 528.36488 0.25655
17138 68.29200 512.25688 529.07924 0.25596
17139 68.29560 512.22716 526.33980 0.25721
17140 68.29920 512.19946 526.25168 0.25748
17141 68.30280 512.17396 525.90468 0.25789
17142 68.30640 512.15024 523.70148 0.25876
17143 68.31000 512.12834 525.33396 0.25785
17144 68.31360 512.10877 525.46952 0.25815
17145 68.31720 512.09178 525.15954 0.25835
17146 68.32080 512.07770 529.55509 0.25621
17147 68.32440 512.06675 529.21148 0.25588
17148 68.32800 512.05902 526.95825 0.25710
17149 68.33160 512.05456 525.68223 0.25804
17150 68.33520 512.05333 524.29662 0.25806
17151 68.33880 512.05530 525.45557 0.25727
17152 68.34240 512.06039 522.87928 0.25900
17153 68.34600 512.06854 524.60913 0.25772
17154 68.34960 512.07969 524.01649 0.25835
17155 68.35320 512.09346 523.69743 0.25859
17156 68.35680 512.11047 521.84701 0.25958
17157 68.36040 512.13035 523.75733 0.25913
17158 68.36400 512.15307 521.29659 0.26021
17159 68.36760 512.17861 523.49570 0.25903
17160 68.37120 512.20695 524.45340 0.25823
17161 68.37480 512.23810 525.53870 0.25764
17162 68.37840 512.27207 524.52093 0.25814
17163 68.38200 512.30886 524.83252 0.25814
17164 68.38560 512.34850 523.49077 0.25887
17165 68.38920 512.39102 525.28069 0.25768
17166 68.39280 512.43649 522.82396 0.25926
17167 68.39640 512.48495 526.19650 0.25790
17168 68.40000 512.53648 527.18817 0.25734
17169 68.40360 512.59119 526.74801 0.25718
17170 68.40720 512.64919 526.38473 0.25723
17171 68.41080 512.71061 523.63440 0.25891
17172 68.41440 512.77564 525.42549 0.25749
17173 68.41800 512.84447 526.01664 0.25696
17174 68.42160 512.91734 525.95114 0.25733
17175 68.42520 512.99453 525.07316 0.25751
17176 68.42880 513.07635 525.77045 0.25738
17177 68.43240 513.16317 525.36450 0.25798
17178 68.43600 513.25534 525.64201 0.25754
17179 68.43960 513.35321 526.21475 0.25749
17180 68.44320 513.45697 525.48050 0.25799
17181 68.44680 513.56681 526.47265 0.25760
17182 68.45040 513.68258 526.89646 0.25704
17183 68.45400 513.80358 528.55021 0.25614
17184 68.45760 513.92831 527.46096 0.25650
17185 68.46120 514.05489 530.36503 0.25514
17186 68.46480 514.18095 530.91581 0.25507
17187 68.46840 514.30406 530.06313 0.25503
17188 68.47200 514.42230 530.94216 0.25497
17189 68.47560 514.53481 530.83984 0.25549
17190 68.47920 514.64210 529.37657 0.25588
17191 68.48280 514.74599 528.54186 0.25622
17192 68.48640 514.84896 526.29828 0.25715
17193 68.49000 514.95332 526.82102 0.25729
17194 68.49360 515.06029 526.30481 0.25697
17195 68.49720 515.17137 527.75733 0.25586
17196 68.50080 515.28571 527.90111 0.25614
17197 68.50440 515.40340 526.94370 0.25663
17198 68.50800 515.52422 529.18913 0.25556
17199 68.51160 515.64787 526.08038 0.25766
17200 68.51520 515.77412 524.19534 0.25825
17201 68.51880 515.90274 524.30301 0.25865
17202 68.52240 516.03379 525.82552 0.25777
17203 68.52600 516.16788 522.97759 0.25929
17204 68.52960 516.30614 525.06565 0.25799
17205 68.53320 516.44989 525.90858 0.25749
17206 68.53680 516.60027 525.66181 0.25754
17207 68.54040 516.75809 526.29064 0.25689
17208 68.54400 516.92362 522.88630 0.25893
17209 68.54760 517.09661 524.34900 0.25779
17210 68.55120 517.27624 525.78879 0.25708
17211 68.55480 517.46107 525.89505 0.25756
17212 68.55840 517.64915 529.00632 0.25583
17213 68.56200 517.83832 524.45239 0.25817
17214 68.56560 518.02668 524.12704 0.25808
17215 68.56920 518.21323 526.35959 0.25729
17216 68.57280 518.39813 525.41795 0.25751
17217 68.57640 518.58237 524.39270 0.25752
17218 68.58000 518.76764 526.08241 0.25680
17219 68.58360 518.95514 523.42491 0.25830
17220 68.58720 519.14559 523.94799 0.25808
17221 68.59080 519.33903 526.83960 0.25710
17222 68.59440 519.53535 526.22248 0.25723
17223 68.59800 519.73217 525.07648 0.25786
17224 68.60160 519.92820 526.09404 0.25766
17225 68.60520 520.12128 525.07763 0.25823
17226 68.60880 520.30929 521.37793 0.25987
17227 68.61240 520.49053 523.84928 0.25834
17228 68.61600 520.66401 526.04835 0.25730
17229 68.61960 520.82940 524.58494 0.25775
17230 68.62320 520.98583 525.88529 0.25744
17231 68.62680 521.13522 523.67737 0.25842
17232 68.63040 521.27623 524.72109 0.25755
17233 68.63400 521.40854 525.78258 0.25739
17234 68.63760 521.53148 525.66220 0.25741
17235 68.64120 521.64425 525.09418 0.25783
17236 68.64480 521.74608 526.01477 0.25719
17237 68.64840 521.83632 524.74444 0.25779
17238 68.65200 521.91466 523.06989 0.25862
17239 68.65560 521.97973 524.65585 0.25733
17240 68.65920 522.03173 526.37537 0.25651
17241 68.66280 522.07053 525.09786 0.25733
17242 68.66640 522.09619 526.11621 0.25721
17243 68.67000 522.10893 526.40391 0.25721
17244 68.67360 522.10914 525.87069 0.25729
17245 68.67720 522.09736 522.97879 0.25879
17246 68.68080 522.07425 525.70897 0.25781
17247 68.68440 522.04056 527.99872 0.25676
17248 68.68800 521.99716 522.05180 0.25927
17249 68.69160 521.94495 521.99650 0.25914
17250 68.69520 521.88489 523.56121 0.25838
17251 68.69880 521.81794 526.73561 0.25670
17252 68.70240 521.74509 527.16396 0.25669
17253 68.70600 521.66728 525.71222 0.25753
17254 68.70960 521.58547 522.91229 0.25831
17255 68.71320 521.50053 520.25094 0.25970
17256 68.71680 521.41334 520.94063 0.25963
17257 68.72040 521.32452 523.92954 0.25843
17258 68.72400 521.23515 523.95770 0.25801
17259 68.72760 521.14577 521.70183 0.25902
17260 68.73120 521.05700 522.41880 0.25894
17261 68.73480 520.96941 523.22440 0.25792
17262 68.73840 520.88349 522.75996 0.25817
17263 68.74200 520.79964 524.51539 0.25761
17264 68.74560 520.71814 525.54816 0.25734
17265 68.74920 520.63914 523.80381 0.25826
17266 68.75280 520.56261 524.30492 0.25782
17267 68.75640 520.48840 522.19379 0.25905
17268 68.76000 520.41637 523.92444 0.25850
17269 68.76360 520.34610 522.30555 0.25941
17270 68.76720 520.27775 521.80635 0.25919
17271 68.77080 520.21164 524.61724 0.25758
17272 68.77440 520.14824 524.51433 0.25777
17273 68.77800 520.08810 521.37282 0.25923
17274 68.78160 520.03173 521.05819 0.25936
17275 68.78520 519.97947 522.71586 0.25896
17276 68.78880 519.93148 521.35119 0.25900
17277 68.79240 519.88770 521.30972 0.25898
17278 68.79600 519.84786 523.47122 0.25822
17279 68.79960 519.81149 522.21110 0.25919
17280 68.80320 519.77788 521.74266 0.25899
17281 68.80680 519.74636 522.79147 0.25820
17282 68.81040 519.71603 525.71960 0.25715
17283 68.81400 519.68667 524.76141 0.25707
17284 68.81760 519.65833 521.92112 0.25855
17285 68.82120 519.63145 519.36097 0.26005
17286 68.82480 519.60663 520.19998 0.25987
17287 68.82840 519.58442 519.55167 0.26040
17288 68.83200 519.56524 523.89052 0.25809
17289 68.83560 519.54931 521.78279 0.25912
17290 68.83920 519.53670 519.92640 0.26041
17291 68.84280 519.52740 521.02086 0.25976
17292 68.84640 519.52132 518.24189 0.26086
17293 68.85000 519.51836 518.98704 0.26038
17294 68.85360 519.51847 519.05458 0.26030
17295 68.85720 519.52138 517.34720 0.26131
17296 68.86080 519.52706 520.13627 0.25951
17297 68.86440 519.53541 521.08280 0.25957
17298 68.86800 519.54635 521.05663 0.25924
17299 68.87160 519.55979 518.10237 0.26062
17300 68.87520 519.57569 521.02351 0.25921
17301 68.87880 519.59397 521.07481 0.25947
17302 68.88240 519.61462 521.57513 0.25899
17303 68.88600 519.63770 523.51353 0.25772
17304 68.88960 519.66305 519.59930 0.26018
17305 68.89320 519.69077 518.24699 0.26028
17306 68.89680 519.72087 520.15742 0.25910
17307 68.90040 519.75332 517.84325 0.26052
17308 68.90400 519.78804 518.35827 0.26043
17309 68.90760 519.82488 517.81965 0.26111
17310 68.91120 519.86352 517.62946 0.26120
17311 68.91480 519.90342 520.09540 0.25978
17312 68.91840 519.94393 520.60903 0.25995
17313 68.92200 519.98429 516.65788 0.26184
17314 68.92560 520.02386 515.51025 0.26222
17315 68.92920 520.06237 518.31126 0.26063
17316 68.93280 520.09996 523.13367 0.25822
17317 68.93640 520.13714 520.92451 0.25964
17318 68.94000 520.17460 520.31659 0.25924
17319 68.94360 520.21298 518.68950 0.26048
17320 68.94720 520.25273 518.97590 0.26031
17321 68.95080 520.29415 520.83455 0.25917
17322 68.95440 520.33737 519.08552 0.25991
17323 68.95800 520.38242 519.75616 0.26020
17324 68.96160 520.42925 518.09570 0.26108
17325 68.96520 520.47780 520.76428 0.25900
17326 68.96880 520.52799 518.33468 0.26082
17327 68.97240 520.57975 519.59078 0.25970
17328 68.97600 520.63299 521.18110 0.25866
17329 68.97960 520.68766 522.92809 0.25802
17330 68.98320 520.74370 519.26320 0.25980
17331 68.98680 520.80104 518.68636 0.26049
17332 68.99040 520.85968 519.39883 0.26014
17333 68.99400 520.91957 521.38478 0.25887
17334 68.99760 520.98069 520.37779 0.25980
17335 69.00120 521.04299 520.29526 0.25979
17336 69.00480 521.10648 521.25331 0.25911
17337 69.00840 521.17113 518.51539 0.26043
17338 69.01200 521.23692 520.39703 0.25932
17339 69.01560 521.30385 520.78576 0.25928
17340 69.01920 521.37189 520.24042 0.25936
17341 69.02280 521.44104 521.93327 0.25893
17342 69.02640 521.51128 520.09817 0.25993
17343 69.03000 521.58262 519.14327 0.25998
17344 69.03360 521.65506 520.19141 0.25931
17345 69.03720 521.72861 517.79734 0.26092
17346 69.04080 521.80329 515.69166 0.26240
17347 69.04440 521.87911 516.20697 0.26125
17348 69.04800 521.95609 518.89030 0.26032
17349 69.05160 522.03424 518.34679 0.26046
17350 69.05520 522.11357 517.87693 0.26039
17351 69.05880 522.19411 517.17075 0.26101
17352 69.06240 522.27584 518.10030 0.26054
17353 69.06600 522.35877 517.81319 0.26110
17354 69.06960 522.44289 517.05726 0.26148
17355 69.07320 522.52818 516.72873 0.26113
17356 69.07680 522.61458 520.03179 0.25992
17357 69.08040 522.70201 518.53908 0.26089
17358 69.08400 522.79036 518.41982 0.26063
17359 69.08760 522.87949 519.52115 0.26003
17360 69.09120 522.96928 516.62713 0.26120
17361 69.09480 523.05964 516.20533 0.26142
17362 69.09840 523.15052 517.53713 0.26091
17363 69.10200 523.24195 518.09353 0.26060
17364 69.10560 523.33395 517.06571 0.26177
17365 69.10920 523.42655 518.75268 0.26047
17366 69.11280 523.51972 516.93232 0.26129
17367 69.11640 523.61338 519.47637 0.25996
17368 69.12000 523.70741 520.45755 0.25998
17369 69.12360 523.80164 518.98503 0.26013
17370 69.12720 523.89583 518.90350 0.26004
17371 69.13080 523.98967 518.19405 0.26027
17372 69.13440 524.08280 520.12915 0.25932
17373 69.13800 524.17479 518.11287 0.26069
17374 69.14160 524.26521 516.15004 0.26162
17375 69.14520 524.35369 515.00670 0.26241
17376 69.14880 524.43987 518.15477 0.26079
17377 69.15240 524.52358 519.54017 0.25961
17378 69.15600 524.60471 519.62184 0.25988
17379 69.15960 524.68316 519.72114 0.26014
17380 69.16320 524.75882 517.66635 0.26105
17381 69.16680 524.83157 522.22708 0.25863
17382 69.17040 524.90125 520.18715 0.25934
17383 69.17400 524.96772 520.29515 0.25923
17384 69.17760 525.03083 518.54787 0.26034
17385 69.18120 525.09047 517.74315 0.26084
17386 69.18480 525.14660 519.46695 0.26046
17387 69.18840 525.19917 517.23590 0.26132
17388 69.19200 525.24821 516.14814 0.26193
17389 69.19560 525.29192 514.68633 0.26241
17390 69.19920 525.33415 518.28820 0.26090
17391 69.20280 525.37325 516.26368 0.26177
17392 69.20640 525.40938 515.61832 0.26153
17393 69.21000 525.44277 514.30352 0.26255
17394 69.21360 525.47367 516.27147 0.26102
17395 69.21720 525.50235 519.29944 0.25996
17396 69.22080 525.52908 518.47809 0.26057
17397 69.22440 525.55415 517.73501 0.26087
17398 69.22800 525.57785 518.20787 0.26054
17399 69.23160 525.60044 518.28277 0.26035
17400 69.23520 525.62221 518.26744 0.26059
17401 69.23880 525.64340 521.34172 0.25937
17402 69.24240 525.66426 520.67911 0.25948
17403 69.24600 525.68499 517.15803 0.26123
17404 69.24960 525.70582 517.69084 0.26053
17405 69.25320 525.72692 519.62856 0.25962
17406 69.25680 525.74846 519.65621 0.25967
17407 69.26040 525.77059 520.42011 0.25948
17408 69.26400 525.79344 516.15939 0.26210
17409 69.26760 525.81713 518.24209 0.26084
17410 69.27120 525.83810 520.99260 0.25933
17411 69.27480 525.86379 520.31951 0.25923
17412 69.27840 525.89061 517.63771 0.26110
17413 69.28200 525.91862 518.70309 0.26075
17414 69.28560 525.94701 516.70857 0.26101
17415 69.28920 525.97386 518.09897 0.26068
17416 69.29280 526.00460 519.40426 0.25959
17417 69.29640 526.03810 517.89011 0.26058
17418 69.30000 526.07314 515.11435 0.26244
17419 69.30360 526.10980 516.90147 0.26110
17420 69.30720 526.14816 518.34913 0.26026
17421 69.31080 526.18831 519.40415 0.25986
17422 69.31440 526.23036 518.29247 0.26061
17423 69.31800 526.27443 518.50453 0.26083
17424 69.32160 526.32065 519.04797 0.26032
17425 69.32520 526.36912 520.73896 0.25924
17426 69.32880 526.41996 520.00739 0.25916
17427 69.33240 526.47321 519.14422 0.25990
17428 69.33600 526.52881 521.56431 0.25876
17429 69.33960 526.58655 517.89329 0.26062
17430 69.34320 526.64600 519.75773 0.26020
17431 69.34680 526.70657 522.21979 0.25904
17432 69.35040 526.76758 519.80686 0.25992
17433 69.35400 526.82855 519.37454 0.25974
17434 69.35760 526.88940 519.37173 0.25998
17435 69.36120 526.95058 523.45857 0.25846
17436 69.36480 527.01321 523.66067 0.25784
17437 69.36840 527.07847 519.81449 0.25977
17438 69.37200 527.14714 519.64890 0.25952
17439 69.37560 527.22036 521.35943 0.25877
17440 69.37920 527.29801 521.49463 0.25924
17441 69.38280 527.37937 521.51031 0.25891
17442 69.38640 527.46281 522.72857 0.25827
17443 69.39000 527.54575 521.71282 0.25905
17444 69.39360 527.62490 517.32267 0.26121
17445 69.39720 527.69682 519.44970 0.26025
17446 69.40080 527.75926 520.74620 0.25942
17447 69.40440 527.81132 518.73429 0.26031
17448 69.40800 527.85407 519.82848 0.25931
17449 69.41160 527.89005 522.27493 0.25826
17450 69.41520 527.92130 520.75226 0.25914
17451 69.41880 527.95312 520.02595 0.25942
17452 69.42240 527.98736 519.09713 0.26019
17453 69.42600 528.02554 519.67665 0.26044
17454 69.42960 528.06869 518.76914 0.26065
17455 69.43320 528.11734 518.24365 0.26044
17456 69.43680 528.17170 521.59927 0.25874
17457 69.44040 528.23181 519.15737 0.26043
17458 69.44400 528.29771 522.13669 0.25876
17459 69.44760 528.36944 520.88247 0.25921
17460 69.45120 528.44713 521.36624 0.25885
17461 69.45480 528.53098 525.02324 0.25710
17462 69.45840 528.62129 526.16649 0.25691
17463 69.46200 528.71836 523.29884 0.25820
17464 69.46560 528.82229 522.83534 0.25833
17465 69.46920 528.93355 522.91309 0.25812
17466 69.47280 529.05163 522.97970 0.25819
17467 69.47640 529.17551 523.32064 0.25830
17468 69.48000 529.30315 524.93416 0.25732
17469 69.48360 529.43128 522.17908 0.25880
17470 69.48720 529.55562 524.84535 0.25702
17471 69.49080 529.67173 524.62688 0.25715
17472 69.49440 529.77645 524.52687 0.25735
17473 69.49800 529.86918 525.82409 0.25672
17474 69.50160 529.95234 526.54888 0.25633
17475 69.50520 530.03041 524.32993 0.25807
17476 69.50880 530.10837 524.54174 0.25787
17477 69.51240 530.19080 527.52312 0.25597
17478 69.51600 530.28040 523.76028 0.25783
17479 69.51960 530.37846 523.79842 0.25831
17480 69.52320 530.48509 522.32000 0.25898
17481 69.52680 530.59969 524.91776 0.25708
17482 69.53040 530.72125 522.56008 0.25834
17483 69.53400 530.84829 522.70827 0.25800
17484 69.53760 530.97832 521.82705 0.25897
17485 69.54120 531.10734 522.16927 0.25876
17486 69.54480 531.22991 522.40480 0.25847
17487 69.54840 531.34019 524.52546 0.25746
17488 69.55200 531.43388 522.47657 0.25838
17489 69.55560 531.51001 521.02942 0.25918
17490 69.55920 531.57143 524.55239 0.25763
17491 69.56280 531.62366 523.98061 0.25783
17492 69.56640 531.67300 523.48550 0.25786
17493 69.57000 531.72484 520.37305 0.25918
17494 69.57360 531.78296 522.07538 0.25862
17495 69.57720 531.84951 520.47238 0.25925
17496 69.58080 531.92538 521.82569 0.25855
17497 69.58440 532.01063 522.10591 0.25906
17498 69.58800 532.10488 521.17789 0.25977
17499 69.59160 532.20751 521.06577 0.25938
17500 69.59520 532.31784 521.63224 0.25873
17501 69.59880 532.43516 520.49233 0.25941
17502 69.60240 532.55882 521.42484 0.25953
17503 69.60600 532.68821 522.41648 0.25837
17504 69.60960 532.82276 522.30534 0.25845
17505 69.61320 532.96194 522.31767 0.25829
17506 69.61680 533.10523 520.78719 0.25947
17507 69.62040 533.25214 521.22907 0.25942
17508 69.62400 533.40215 522.76461 0.25827
17509 69.62760 533.55473 522.58383 0.25855
17510 69.63120 533.70930 521.22989 0.25904
17511 69.63480 533.86519 523.71010 0.25766
17512 69.63840 534.02158 523.15728 0.25833
17513 69.64200 534.17746 521.15835 0.25942
17514 69.64560 534.33151 522.84126 0.25838
17515 69.64920 534.48209 523.25636 0.25781
17516 69.65280 534.62733 522.96373 0.25831
17517 69.65640 534.76495 518.00161 0.26071
17518 69.66000 534.89315 520.60472 0.25920
17519 69.66360 535.01049 521.43116 0.25898
17520 69.66720 535.11640 523.94173 0.25820
17521 69.67080 535.21072 523.09354 0.25835
17522 69.67440 535.29361 521.10289 0.25898
17523 69.67800 535.36519 523.05835 0.25804
17524 69.68160 535.42536 522.37649 0.25898
17525 69.68520 535.47378 520.24066 0.25947
17526 69.68880 535.50983 524.85003 0.25718
17527 69.69240 535.53273 522.95198 0.25792
17528 69.69600 535.54149 523.22135 0.25802
17529 69.69960 535.53502 523.12336 0.25809
17530 69.70320 535.51232 521.77720 0.25860
17531 69.70680 535.47273 523.07848 0.25811
17532 69.71040 535.41613 520.17592 0.25956
17533 69.71400 535.34340 521.54122 0.25850
17534 69.71760 535.25580 520.50697 0.25929
17535 69.72120 535.15502 520.00336 0.25971
17536 69.72480 535.04282 518.75258 0.26031
17537 69.72840 534.92079 518.32477 0.26001
17538 69.73200 534.79034 518.68619 0.26028
17539 69.73560 534.65262 521.61645 0.25884
17540 69.73920 534.50855 518.87636 0.26005
17541 69.74280 534.35883 517.33943 0.26081
17542 69.74640 534.20389 518.46711 0.26070
17543 69.75000 534.04400 519.29770 0.26034
17544 69.75360 533.87951 517.64743 0.26059
17545 69.75720 533.71067 518.96599 0.25967
17546 69.76080 533.53833 519.97313 0.26027
17547 69.76440 533.36357 520.24709 0.25945
17548 69.76800 533.18758 516.93305 0.26120
17549 69.77160 533.01141 518.10271 0.26076
17550 69.77520 532.83579 516.17245 0.26134
17551 69.77880 532.66106 517.44304 0.26081
17552 69.78240 532.48719 517.97557 0.26031
17553 69.78600 532.31400 518.18942 0.26043
17554 69.78960 532.14127 516.06573 0.26145
17555 69.79320 531.96849 513.96757 0.26238
17556 69.79680 531.79758 516.36822 0.26116
17557 69.80040 531.62818 518.22053 0.26054
17558 69.80400 531.46079 517.63651 0.26094
17559 69.80760 531.29574 514.91515 0.26170
17560 69.81120 531.13318 516.80230 0.26099
17561 69.81480 530.97315 514.91932 0.26216
17562 69.81840 530.81484 516.32180 0.26131
17563 69.82200 530.66010 517.55206 0.26048
17564 69.82560 530.50807 516.87631 0.26127
17565 69.82920 530.35898 514.90616 0.26271
17566 69.83280 530.21280 514.07591 0.26241
17567 69.83640 530.06950 514.69454 0.26172
17568 69.84000 529.92902 514.38574 0.26293
17569 69.84360 529.79123 512.63927 0.26329
17570 69.84720 529.65597 514.14086 0.26210
17571 69.85080 529.52169 515.83816 0.26169
17572 69.85440 529.39126 514.12738 0.26244
17573 69.85800 529.26303 514.13216 0.26261
17574 69.86160 529.13688 514.98131 0.26181
17575 69.86520 529.01269 515.32315 0.26174
17576 69.86880 528.89035 511.78332 0.26366
17577 69.87240 528.76976 513.59932 0.26249
17578 69.87600 528.65081 516.74548 0.26067
17579 69.87960 528.53343 516.33339 0.26159
17580 69.88320 528.41752 515.58494 0.26175
17581 69.88680 528.30299 512.66358 0.26296
17582 69.89040 528.18978 514.04794 0.26221
17583 69.89400 528.07780 513.82949 0.26232
17584 69.89760 527.96699 513.38098 0.26290
17585 69.90120 527.85727 515.22404 0.26168
17586 69.90480 527.74859 517.25415 0.26071
17587 69.90840 527.64088 514.36908 0.26275
17588 69.91200 527.53409 510.12053 0.26460
17589 69.91560 527.42816 514.82393 0.26190
17590 69.91920 527.32304 514.13448 0.26275
17591 69.92280 527.21868 512.39395 0.26370
17592 69.92640 527.11504 514.24230 0.26181
17593 69.93000 527.01206 514.23360 0.26238
17594 69.93360 526.90972 514.39362 0.26209
17595 69.93720 526.80797 512.09348 0.26373
17596 69.94080 526.70678 512.50920 0.26312
17597 69.94440 526.60612 513.31408 0.26266
17598 69.94800 526.50596 512.65531 0.26313
17599 69.95160 526.40625 515.96388 0.26132
17600 69.95520 526.30697 514.35377 0.26182
17601 69.95880 526.20810 512.65332 0.26299
17602 69.96240 526.10963 513.46295 0.26283
17603 69.96600 526.01152 512.20622 0.26331
17604 69.96960 525.91376 515.04503 0.26187
17605 69.97320 525.81635 514.60149 0.26186
17606 69.97680 525.71926 513.30321 0.26282
17607 69.98040 525.62249 514.34585 0.26197
17608 69.98400 525.52604 514.30793 0.26194
17609 69.98760 525.42992 511.48938 0.26395
17610 69.99120 525.33417 512.53430 0.26343
17611 69.99480 525.23870 515.81927 0.26160
17612 69.99840 525.14358 514.76280 0.26194
17613 70.00200 525.04882 515.17578 0.26230
17614 70.00560 524.95262 514.18017 0.26173
17615 70.00920 524.85866 516.10767 0.26117
17616 70.01280 524.76515 513.29931 0.26268
17617 70.01640 524.67213 514.77310 0.26233
17618 70.02000 524.57961 514.19568 0.26224
17619 70.02360 524.48763 512.62006 0.26275
17620 70.02720 524.39619 513.94657 0.26210
17621 70.03080 524.30525 514.08092 0.26206
17622 70.03440 524.21470 511.78633 0.26320
17623 70.03800 524.12436 510.98920 0.26389
17624 70.04160 524.03395 512.68683 0.26321
17625 70.04520 523.94315 514.52328 0.26226
17626 70.04880 523.85169 514.33769 0.26230
17627 70.05240 523.75942 511.08172 0.26378
17628 70.05600 523.66638 515.43406 0.26155
17629 70.05960 523.57281 512.90763 0.26287
17630 70.06320 523.47906 514.49828 0.26202
17631 70.06680 523.38549 514.52526 0.26197
17632 70.07040 523.29236 516.19408 0.26154
17633 70.07400 523.19987 513.51978 0.26283
17634 70.07760 523.10810 515.00064 0.26146
17635 70.08120 523.01709 514.17724 0.26287
17636 70.08480 522.92543 513.32906 0.26223
17637 70.08840 522.83589 513.55990 0.26242
17638 70.09200 522.74704 514.92581 0.26190
17639 70.09560 522.65887 515.04593 0.26234
17640 70.09920 522.57136 514.84015 0.26215
17641 70.10280 522.48452 510.76583 0.26350
17642 70.10640 522.39831 515.83614 0.26057
17643 70.11000 522.31271 516.43114 0.26087
17644 70.11360 522.22769 514.89589 0.26142
17645 70.11720 522.14318 513.06944 0.26256
17646 70.12080 522.05912 513.04176 0.26301
17647 70.12440 521.97541 513.90137 0.26256
17648 70.12800 521.89197 512.89355 0.26289
17649 70.13160 521.80865 513.68761 0.26222
17650 70.13520 521.72534 513.48444 0.26247
17651 70.13880 521.64185 512.72918 0.26264
17652 70.14240 521.55801 514.51624 0.26197
17653 70.14600 521.47360 514.24050 0.26167
17654 70.14960 521.38838 514.67580 0.26209
17655 70.15320 521.30207 513.65862 0.26220
17656 70.15680 521.21437 515.41568 0.26056
17657 70.16040 521.12494 515.32324 0.26191
17658 70.16400 521.03341 513.20737 0.26249
17659 70.16760 520.93934 516.48151 0.26088
17660 70.17120 520.84227 513.36058 0.26286
17661 70.17480 520.74168 513.47152 0.26308
17662 70.17840 520.63695 515.08120 0.26230
17663 70.18200 520.52745 512.33697 0.26297
17664 70.18560 520.41248 513.19177 0.26188
17665 70.18920 520.29137 515.29636 0.26122
17666 70.19280 520.16355 515.81500 0.26095
17667 70.19640 520.02856 515.14327 0.26149
17668 70.20000 519.88607 514.02440 0.26224
17669 70.20360 519.73588 518.20441 0.26031
17670 70.20720 519.57782 514.45623 0.26193
17671 70.21080 519.41177 514.96754 0.26139
17672 70.21440 519.23762 511.38724 0.26342
17673 70.21800 519.05530 513.63427 0.26228
17674 70.22160 518.86480 513.54155 0.26265
17675 70.22520 518.66616 516.77893 0.26035
17676 70.22880 518.45950 515.81692 0.26108
17677 70.23240 518.24502 515.11589 0.26121
17678 70.23600 518.02298 513.69527 0.26190
17679 70.23960 517.79370 514.57362 0.26201
17680 70.24320 517.55756 515.68582 0.26161
17681 70.24680 517.31500 516.01463 0.26091
17682 70.25040 517.06647 515.61730 0.26162
17683 70.25400 516.81245 513.60764 0.26266
17684 70.25760 516.55334 511.08690 0.26457
17685 70.26120 516.28983 513.15167 0.26271
17686 70.26480 516.02231 509.49727 0.26382
17687 70.26840 515.75125 512.38047 0.26260
17688 70.27200 515.47708 512.49277 0.26276
17689 70.27560 515.20025 512.77374 0.26271
17690 70.27920 514.92112 513.98602 0.26244
17691 70.28280 514.64006 510.31171 0.26429
17692 70.28640 514.35739 509.28529 0.26471
17693 70.29000 514.07340 513.14470 0.26223
17694 70.29360 513.78833 512.67651 0.26287
17695 70.29720 513.50240 511.45457 0.26341
17696 70.30080 513.21553 512.04089 0.26343
17697 70.30440 512.92839 512.68375 0.26288
17698 70.30800 512.64084 511.40016 0.26338
17699 70.31160 512.35296 510.91869 0.26369
17700 70.31520 512.06314 510.84628 0.26346
17701 70.31880 511.77483 510.38570 0.26414
17702 70.32240 511.48658 510.07637 0.26473
17703 70.32600 511.19824 509.34522 0.26442
17704 70.32960 510.90982 510.34211 0.26449
17705 70.33320 510.62134 508.50670 0.26542
17706 70.33680 510.33276 509.57922 0.26573
17707 70.34040 510.04407 507.96884 0.26592
17708 70.34400 509.75524 509.86284 0.26403
17709 70.34760 509.46624 511.89820 0.26276
17710 70.35120 509.17703 512.06870 0.26305
17711 70.35480 508.88755 509.06696 0.26490
17712 70.35840 508.59776 508.28759 0.26556
17713 70.36200 508.30762 510.08388 0.26474
17714 70.36560 508.01707 510.03123 0.26471
17715 70.36920 507.72605 508.06709 0.26508
17716 70.37280 507.43452 506.18429 0.26637
17717 70.37640 507.14242 507.76411 0.26553
17718 70.38000 506.84969 509.85063 0.26456
17719 70.38360 506.55628 508.92096 0.26507
17720 70.38720 506.26213 510.31145 0.26384
17721 70.39080 505.96720 509.31631 0.26449
17722 70.39440 505.67144 510.64015 0.26351
17723 70.39800 505.37424 507.80857 0.26524
17724 70.40160 505.07665 506.16463 0.26672
17725 70.40520 504.77807 504.24937 0.26702
17726 70.40880 504.47846 506.57201 0.26614
17727 70.41240 504.17776 507.02683 0.26602
17728 70.41600 503.87594 507.49980 0.26682
17729 70.41960 503.57295 508.85012 0.26554
17730 70.42320 503.26783 509.42720 0.26460
17731 70.42680 502.96095 508.36891 0.26458
17732 70.43040 502.65407 507.09558 0.26558
17733 70.43400 502.34601 507.54308 0.26561
17734 70.43760 502.03658 508.06167 0.26574
17735 70.44120 501.72574 505.67831 0.26686
17736 70.44480 501.41348 504.45946 0.26753
17737 70.44840 501.09975 506.22791 0.26611
17738 70.45200 500.78452 508.31728 0.26510
17739 70.45560 500.46704 504.69616 0.26708
17740 70.45920 500.14874 506.28323 0.26619
17741 70.46280 499.82885 505.57452 0.26668
17742 70.46640 499.50737 506.08657 0.26591
17743 70.47000 499.18426 505.35394 0.26644
17744 70.47360 498.85950 505.51745 0.26606
17745 70.47720 498.53308 503.81195 0.26731
17746 70.48080 498.20498 505.79367 0.26681
17747 70.48440 497.87519 507.34967 0.26564
17748 70.48800 497.54370 509.09508 0.26518
17749 70.49160 497.21051 507.73218 0.26579
17750 70.49520 496.87561 506.54238 0.26731
17751 70.49880 496.53902 507.31340 0.26693
