#------------------------------------------------------------------------------
#$Date: 2017-02-04 16:16:36 +0200 (Sat, 04 Feb 2017) $
#$Revision: 191761 $
#$URL: file:///home/coder/svn-repositories/cod/cif/7/22/73/7227312.cif $
#------------------------------------------------------------------------------
#
# This file is available in the Crystallography Open Database (COD),
# http://www.crystallography.net/
#
# All data on this site have been placed in the public domain by the
# contributors.
#
data_7227312
loop_
_publ_author_name
'Rams, Micha\/l'
'Tomkowicz, Zbigniew'
'B\"ohme, Michael'
'Plass, Winfried'
'Suckert, Stefan'
'Werner, Julia'
'Jess, Inke'
'N\"ather, Christian'
_publ_section_title
;
 Influence of metal coordination and co-ligands on the magnetic properties
 of 1D Co(NCS)2 coordination polymers.
;
_journal_issue                   4
_journal_name_full               'Physical chemistry chemical physics : PCCP'
_journal_page_first              3232
_journal_page_last               3243
_journal_paper_doi               10.1039/c6cp08193b
_journal_volume                  19
_journal_year                    2017
_chemical_formula_moiety         'C16 H14 Co N4 S2'
_chemical_formula_sum            'C16 H14 Co N4 S2'
_chemical_formula_weight         385.36
_space_group_crystal_system      triclinic
_space_group_IT_number           2
_space_group_name_Hall           '-P 1'
_space_group_name_H-M_alt        'P -1'
_symmetry_space_group_name_Hall  '-P 1'
_symmetry_space_group_name_H-M   'P -1'
_atom_sites_solution_hydrogens   geom
_audit_creation_method           SHELXL-2014/7
_audit_update_record
;
2016-09-28 deposited with the CCDC.
2016-12-19 downloaded from the CCDC.
;
_cell_angle_alpha                115.112(4)
_cell_angle_beta                 93.167(5)
_cell_angle_gamma                110.952(4)
_cell_formula_units_Z            2
_cell_length_a                   9.1050(5)
_cell_length_b                   10.7073(6)
_cell_length_c                   11.0049(6)
_cell_measurement_reflns_used    14007
_cell_measurement_temperature    200(2)
_cell_measurement_theta_max      28.000
_cell_measurement_theta_min      2.108
_cell_volume                     879.62(10)
_computing_structure_refinement  'SHELXL-2014/7 (Sheldrick, 2014)'
_diffrn_ambient_temperature      200(2)
_diffrn_measured_fraction_theta_full 0.999
_diffrn_measured_fraction_theta_max 0.999
_diffrn_measurement_device_type  'STOE IPDS-2'
_diffrn_measurement_method       'omega scans'
_diffrn_radiation_type           MoK\a
_diffrn_radiation_wavelength     0.71073
_diffrn_reflns_av_R_equivalents  0.0353
_diffrn_reflns_av_unetI/netI     0.0311
_diffrn_reflns_Laue_measured_fraction_full 0.999
_diffrn_reflns_Laue_measured_fraction_max 0.999
_diffrn_reflns_limit_h_max       12
_diffrn_reflns_limit_h_min       -12
_diffrn_reflns_limit_k_max       14
_diffrn_reflns_limit_k_min       -14
_diffrn_reflns_limit_l_max       14
_diffrn_reflns_limit_l_min       -14
_diffrn_reflns_number            14007
_diffrn_reflns_point_group_measured_fraction_full 0.999
_diffrn_reflns_point_group_measured_fraction_max 0.999
_diffrn_reflns_theta_full        25.242
_diffrn_reflns_theta_max         28.000
_diffrn_reflns_theta_min         2.108
_exptl_absorpt_coefficient_mu    1.215
_exptl_absorpt_correction_T_max  0.901
_exptl_absorpt_correction_T_min  0.852
_exptl_absorpt_correction_type   numerical
_exptl_absorpt_process_details   'X-Shape and X-Red 32 (STOE, 2008)'
_exptl_crystal_colour            blue
_exptl_crystal_density_diffrn    1.455
_exptl_crystal_description       block
_exptl_crystal_F_000             394
_exptl_crystal_size_max          0.1230
_exptl_crystal_size_mid          0.0845
_exptl_crystal_size_min          0.0612
_refine_diff_density_max         0.313
_refine_diff_density_min         -0.430
_refine_diff_density_rms         0.050
_refine_ls_extinction_method     none
_refine_ls_goodness_of_fit_ref   1.044
_refine_ls_hydrogen_treatment    constr
_refine_ls_matrix_type           full
_refine_ls_number_parameters     247
_refine_ls_number_reflns         4232
_refine_ls_number_restraints     2
_refine_ls_restrained_S_all      1.043
_refine_ls_R_factor_all          0.0695
_refine_ls_R_factor_gt           0.0400
_refine_ls_shift/su_max          0.001
_refine_ls_shift/su_mean         0.000
_refine_ls_structure_factor_coef Fsqd
_refine_ls_weighting_details
'w=1/[\s^2^(Fo^2^)+(0.0436P)^2^+0.0713P] where P=(Fo^2^+2Fc^2^)/3'
_refine_ls_weighting_scheme      calc
_refine_ls_wR_factor_gt          0.0808
_refine_ls_wR_factor_ref         0.0900
_reflns_Friedel_coverage         0.000
_reflns_number_gt                2851
_reflns_number_total             4232
_reflns_threshold_expression     'I > 2\s(I)'
_cod_data_source_file            c6cp08193b2.cif
_cod_data_source_block           tr512a
_cod_depositor_comments
'Adding full bibliography for 7227311--7227312.cif.'
_cod_original_cell_volume        879.62(9)
_cod_database_code               7227312
_shelx_shelxl_version_number     2014/7
_shelx_space_group_comment
;
The symmetry employed for this shelxl refinement is uniquely defined
by the following loop, which should always be used as a source of
symmetry information in preference to the above space-group names.
They are only intended as comments.
;
_shelx_res_file
;

    tr512a.res created by SHELXL-2014/7


TITL Co(NCS)2(4-Vinylpyridin)2 in P-1 (tr512a)
CELL  0.71073    9.1050   10.7073   11.0049   115.112    93.167   110.952
ZERR  2           0.0005    0.0006    0.0006     0.004     0.005     0.004
LATT   1
SFAC  C  H  Co  N  S
UNIT  32 28  2  8  4
L.S. 10
BOND $H
HTAB
EQIV $1 -x+2, -y+2, -z+1
HTAB C14 S2_$1
HTAB C15 N2
ACTA
TEMP -73
WGHT    0.043600    0.071300
FVAR       0.84656
CO1   3    1.000000    0.500000    0.500000    10.50000    0.02956    0.02723 =
         0.03825    0.01975    0.00894    0.01023
N1    4    0.576226    0.120924    0.395175    11.00000    0.03150    0.03633 =
         0.04302    0.02513    0.00835    0.00976
C1    1    0.636946    0.216500    0.366828    11.00000    0.02608    0.03200 =
         0.03206    0.01502    0.00479    0.01164
S1    5    0.719985    0.351036    0.325280    11.00000    0.03588    0.03666 =
         0.04872    0.02876    0.00310    0.00733
N11   4    0.907799    0.644613    0.644016    11.00000    0.03819    0.03582 =
         0.04227    0.02052    0.01005    0.01653
C11   1    0.923566    0.671754    0.775356    11.00000    0.05471    0.04977 =
         0.04684    0.02420    0.01652    0.02610
AFIX  43
H11   2    0.978384    0.625919    0.806152    11.00000   -1.20000
AFIX   0
C12   1    0.863575    0.763476    0.867900    11.00000    0.06685    0.05503 =
         0.04942    0.01921    0.02309    0.02333
AFIX  43
H12   2    0.877433    0.779076    0.960208    11.00000   -1.20000
AFIX   0
C13   1    0.783478    0.833100    0.828169    11.00000    0.04507    0.04116 =
         0.07815    0.01960    0.02637    0.01685
C14   1    0.767459    0.805060    0.692245    11.00000    0.04743    0.04517 =
         0.08051    0.02779    0.01943    0.02635
AFIX  43
H14   2    0.713556    0.850055    0.659269    11.00000   -1.20000
AFIX   0
C15   1    0.829468    0.712289    0.605285    11.00000    0.04449    0.04564 =
         0.05830    0.02680    0.01173    0.02282
AFIX  43
H15   2    0.816492    0.694668    0.512349    11.00000   -1.20000
AFIX   0
PART 1
C16   1    0.708463    0.932889    0.908607    10.68000    0.04878    0.04462 =
         0.04947    0.01052    0.00620    0.02459
AFIX  43
H16   2    0.654072    0.968445    0.863657    10.68000   -1.20000
AFIX   0
C17   1    0.714148    0.973636    1.038084    10.68000    0.10229    0.08779 =
         0.06190    0.02454    0.03206    0.06173
AFIX  93
H17A  2    0.768018    0.939178    1.084725    10.68000   -1.20000
H17B  2    0.664456    1.038035    1.086586    10.68000   -1.20000
AFIX   0
PART 2
SAME C16 C17
C16'  1    0.750342    0.935971    0.966010    10.32000    0.05256    0.06443 =
         0.04436    0.01954    0.00585    0.03296
AFIX  43
H16'  2    0.778458    0.937657    1.051294    10.32000   -1.20000
AFIX   0
C17'  1    0.680981    1.018723    0.953168    10.32000    0.07878    0.06260 =
         0.04607    0.01227    0.00876    0.03137
AFIX  93
H17C  2    0.655006    1.013385    0.865785    10.32000   -1.20000
H17D  2    0.656425    1.084347    1.031196    10.32000   -1.20000
AFIX   0
PART 0
CO2   3    0.500000    0.000000    0.500000    10.50000    0.02828    0.02913 =
         0.04038    0.02115    0.01158    0.01060
N2    4    1.056629    0.638424    0.407020    11.00000    0.03195    0.03203 =
         0.04276    0.02378    0.00472    0.00831
C2    1    1.123768    0.723893    0.369174    11.00000    0.02766    0.02949 =
         0.03245    0.01375    0.00461    0.01188
S2    5    1.223195    0.845329    0.316495    11.00000    0.03430    0.03870 =
         0.04456    0.02780    0.00842    0.00840
N21   4    0.410442    0.162128    0.625323    11.00000    0.03490    0.03671 =
         0.04402    0.02220    0.01320    0.01619
C21   1    0.270106    0.116147    0.661240    11.00000    0.03802    0.04834 =
         0.04843    0.02472    0.01537    0.01893
AFIX  43
H21   2    0.206643    0.010015    0.624149    11.00000   -1.20000
AFIX   0
C22   1    0.213528    0.214607    0.748838    11.00000    0.04518    0.06828 =
         0.05002    0.03295    0.02074    0.03310
AFIX  43
H22   2    0.112636    0.175944    0.769952    11.00000   -1.20000
AFIX   0
C23   1    0.303280    0.369952    0.806324    11.00000    0.05804    0.05996 =
         0.03968    0.02608    0.01217    0.04004
C24   1    0.447832    0.418572    0.767224    11.00000    0.05533    0.03970 =
         0.05076    0.02021    0.00996    0.02491
AFIX  43
H24   2    0.512414    0.524075    0.801643    11.00000   -1.20000
AFIX   0
C25   1    0.496081    0.313115    0.678810    11.00000    0.04050    0.03733 =
         0.05150    0.02130    0.01065    0.01722
AFIX  43
H25   2    0.595196    0.348673    0.654108    11.00000   -1.20000
AFIX   0
PART 1
C26   1    0.232301    0.460244    0.899061    10.63000    0.05848    0.03913 =
         0.04056    0.01431    0.00441    0.01813
AFIX  43
H26   2    0.124351    0.411627    0.903792    10.63000   -1.20000
AFIX   0
C27   1    0.313162    0.608579    0.977563    10.63000    0.09554    0.07446 =
         0.04921    0.02345    0.02819    0.05390
AFIX  93
H27A  2    0.421201    0.658668    0.973877    10.63000   -1.20000
H27B  2    0.263362    0.665327    1.037789    10.63000   -1.20000
AFIX   0
PART 2
SAME C26 C27
C26'  1    0.283012    0.509715    0.919726    10.37000    0.04339    0.02231 =
         0.02939   -0.00360   -0.00096    0.01754
AFIX  43
H26'  2    0.365373    0.610096    0.956348    10.37000   -1.20000
AFIX   0
C27'  1    0.148878    0.483441    0.962209    10.37000    0.05885    0.06695 =
         0.04770    0.01007    0.01703    0.03773
AFIX  93
H27C  2    0.067700    0.382378    0.924533    10.37000   -1.20000
H27D  2    0.132845    0.565463    1.030675    10.37000   -1.20000
PART 0
AFIX   0
HKLF 4

REM  Co(NCS)2(4-Vinylpyridin)2 in P-1 (tr512a)
REM R1 =  0.0400 for    2851 Fo > 4sig(Fo)  and  0.0695 for all    4232 data
REM    247 parameters refined using      2 restraints

END

WGHT      0.0436      0.0713

REM Instructions for potential hydrogen bonds
HTAB C14 S2_$1
HTAB C15 N2

REM Highest difference peak  0.313,  deepest hole -0.430,  1-sigma level  0.050
Q1    1   0.8451  0.4230  0.4415  11.00000  0.05    0.31
Q2    1   0.5478  0.0567  0.4144  11.00000  0.05    0.31
Q3    1   1.3793  0.9277  0.3829  11.00000  0.05    0.31
Q4    1   1.3423  0.9099  0.4227  11.00000  0.05    0.30
Q5    1   1.0522  0.5536  0.4174  11.00000  0.05    0.29
Q6    1   0.9342  0.5645  0.5944  11.00000  0.05    0.27
Q7    1   0.9656  0.5627  0.4280  11.00000  0.05    0.26
Q8    1   0.6218  0.0821  0.4794  11.00000  0.05    0.26
Q9    1   0.8783  0.4339  0.3864  11.00000  0.05    0.24
Q10   1   0.4304  0.0665  0.5912  11.00000  0.05    0.24
Q11   1   0.4414  0.1029  0.5496  11.00000  0.05    0.24
Q12   1   1.1181  0.5906  0.4870  11.00000  0.05    0.23
Q13   1   1.0435  0.6227  0.4832  11.00000  0.05    0.21
Q14   1   0.4408 -0.1354  0.4172  11.00000  0.05    0.21
Q15   1   0.8721  0.5235  0.5530  11.00000  0.05    0.21
Q16   1   0.5300  0.1256  0.4988  11.00000  0.05    0.21
Q17   1   0.8780  0.5383  0.5063  11.00000  0.05    0.19
Q18   1   0.9418  0.4121  0.3684  11.00000  0.05    0.18
Q19   1   0.7522  0.4546  0.4597  11.00000  0.05    0.18
Q20   1   1.2630  0.7400  0.2558  11.00000  0.05    0.18
;
_shelx_res_checksum              45652
_shelx_hkl_file
;
  -1   0   0    2.95   17.40   0
  -1   0   0    6.72   14.09   0
   1   0   0    5.72   18.03   0
   1   0   0    5.88   14.13   0
   2   0   0  881.01   16.90   0
  -2   0   0  904.67   19.18   0
   2   0   0  898.57   19.36   0
  -2   0   0  897.89   18.21   0
  -3   0   0   88.61   11.00   0
   3   0   0   93.01    9.90   0
   3   0   0   89.08   11.65   0
  -3   0   0  100.37   10.43   0
   4   0   0 2509.25   17.91   0
  -4   0   0 2536.32   18.15   0
   4   0   0 2523.62   18.64   0
  -4   0   0 2523.09   17.28   0
  -5   0   0   44.14    9.41   0
  -5   0   0   47.80    7.92   0
   5   0   0   41.95    8.93   0
   5   0   0   44.09    8.08   0
  -6   0   0    8.61    7.53   0
   6   0   0    0.91    7.14   0
  -6   0   0    2.35    8.33   0
   6   0   0    3.53    8.42   0
  -7   0   0    2.37    7.95   0
   7   0   0    5.10    8.11   0
   7   0   0   10.09    8.17   0
  -7   0   0    5.63    8.45   0
  -8   0   0  187.29    7.72   0
   8   0   0  178.67    8.70   0
   8   0   0  186.46    8.72   0
  -8   0   0  186.62    9.03   0
   9   0   0    0.01    8.12   0
   9   0   0   -4.78    7.98   0
  -9   0   0   -1.00    8.04   0
  -9   0   0    5.00    8.10   0
  10   0   0    3.27    8.57   0
  10   0   0    3.24    8.80   0
 -10   0   0  113.04    8.95   0
 -10   0   0   85.76    9.02   0
 -11   1   0  107.47   10.86   0
  11  -1   0    5.33    8.33   0
 -11   1   0  124.02    9.48   0
  11  -1   0    0.38    9.25   0
 -10   1   0    3.99    8.01   0
 -10   1   0   -1.01    6.95   0
  10  -1   0   -0.24    6.95   0
  10  -1   0    0.85    7.28   0
   9  -1   0   67.51    8.20   0
  -9   1   0   59.01    8.32   0
   9  -1   0   62.74    9.38   0
  -9   1   0   57.06    7.16   0
  -8   1   0    4.92    7.99   0
   8  -1   0    6.14    8.08   0
  -8   1   0   -2.22    6.89   0
   8  -1   0    5.33    6.68   0
  -7   1   0  367.32    9.21   0
  -7   1   0  381.30   11.17   0
   7  -1   0  374.52   10.57   0
   7  -1   0  380.87    8.27   0
   6  -1   0   29.43    7.53   0
  -6   1   0   29.29    7.69   0
  -6   1   0   27.96    8.55   0
   6  -1   0   32.32    8.75   0
   5  -1   0   46.08    7.66   0
   5  -1   0   50.95    9.88   0
  -5   1   0   39.77    7.68   0
  -5   1   0   43.73    9.37   0
   4  -1   0   46.57    8.64   0
   4  -1   0   50.04   10.56   0
  -4   1   0   50.65    8.77   0
  -4   1   0   45.56    9.22   0
   3  -1   0  918.46   16.94   0
  -3   1   0  921.45   14.62   0
   3  -1   0  913.40   14.60   0
  -3   1   0  914.84   16.41   0
   2  -1   0   -0.97   13.59   0
   2  -1   0    0.35   12.14   0
  -2   1   0    5.88   12.02   0
  -2   1   0    2.86   13.02   0
   1  -1   0 2494.91   26.45   0
  -1   1   0 2493.55   26.53   0
   0   1   0   50.86   14.82   0
   0  -1   0   47.29   17.29   0
   0   1   0   51.15   19.48   0
   0  -1   0   47.33   14.73   0
   1   1   0 4508.10   28.95   0
  -1  -1   0 4440.60   28.96   0
  -2  -1   0 2132.00   27.79   0
   2   1   0 2107.00   19.65   0
  -2  -1   0 2104.66   20.01   0
   2   1   0 2089.13   28.12   0
   3   1   0 1891.15   15.76   0
   3   1   0 1871.70   20.36   0
  -3  -1   0 1899.07   20.27   0
  -3  -1   0 1903.25   16.49   0
  -4  -1   0  131.90   10.36   0
   4   1   0  131.49   10.38   0
  -4  -1   0  132.71    8.88   0
   4   1   0  131.45    8.35   0
   5   1   0    0.63    9.16   0
   5   1   0   -0.74    7.89   0
  -5  -1   0   10.60    9.68   0
  -5  -1   0    6.20    9.14   0
  -6  -1   0   11.74    8.74   0
  -6  -1   0   10.02    8.43   0
   6   1   0    8.30    7.01   0
   6   1   0   14.16    9.29   0
   7   1   0  481.93   11.00   0
  -7  -1   0  479.76   10.19   0
   7   1   0  476.10    9.00   0
  -7  -1   0  490.00   10.96   0
   8   1   0   15.02    6.81   0
   8   1   0    7.94    8.04   0
  -8  -1   0    6.93    7.21   0
  -8  -1   0   16.83    8.68   0
  -9  -1   0    1.03    8.05   0
   9   1   0    3.48    8.33   0
   9   1   0    2.11    8.14   0
  -9  -1   0    5.93    7.20   0
 -10  -1   0    5.43    8.81   0
  10   1   0    3.65    8.17   0
  10   1   0    1.70   10.05   0
 -10  -1   0   -1.49    9.70   0
  11  -2   0   -1.37    8.87   0
 -11   2   0    2.71    9.63   0
 -11   2   0    5.77    7.45   0
  11  -2   0   10.76    7.42   0
  10  -2   0    4.33    6.91   0
  10  -2   0   -1.25    8.55   0
 -10   2   0    2.39    6.93   0
 -10   2   0   -1.91    8.99   0
   9  -2   0    6.68    6.77   0
   9  -2   0   -6.08    9.35   0
  -9   2   0   -1.50    6.86   0
  -9   2   0    2.18    7.82   0
   8  -2   0  708.00   12.46   0
  -8   2   0  694.04   11.23   0
   8  -2   0  685.41    9.21   0
  -8   2   0  699.82    9.21   0
   7  -2   0   16.74    7.45   0
   7  -2   0   24.71    8.84   0
  -7   2   0   33.76    7.42   0
  -7   2   0   24.67    8.36   0
  -6   2   0  198.58    9.45   0
   6  -2   0  197.24   10.01   0
  -6   2   0  194.36    7.94   0
   6  -2   0  189.30    7.88   0
  -5   2   0    6.89    8.36   0
   5  -2   0    6.20    5.97   0
   5  -2   0    9.49    8.79   0
  -5   2   0   -2.91    7.66   0
   4  -2   0 3494.60   22.72   0
  -4   2   0 3431.44   17.66   0
  -4   2   0 3503.31   22.35   0
   4  -2   0 3458.44   17.67   0
   3  -2   0   11.17    9.19   0
   3  -2   0   12.48    8.92   0
  -3   2   0   13.75    9.23   0
  -3   2   0   15.78   10.88   0
  -2   2   0  943.06   13.88   0
   2  -2   0  940.09   13.72   0
   2  -2   0  965.80   16.19   0
  -1   2   0    0.96    9.82   0
   1  -2   0   -0.82   11.36   0
   1  -2   0    0.99    9.54   0
   0  -2   0  100.19   10.06   0
   0   2   0   96.81   14.28   0
   0   2   0  107.21   12.33   0
   0  -2   0   93.77   14.22   0
   1   2   0  974.96   13.05   0
  -1  -2   0  955.67   14.73   0
  -2  -2   0 2408.82   16.17   0
   2   2   0 2450.05   15.95   0
  -3  -2   0 1018.05   22.29   0
   3   2   0  990.23   11.58   0
  -3  -2   0  968.30   11.99   0
   3   2   0  982.89   22.08   0
   4   2   0  124.50   11.82   0
   4   2   0  132.40    7.97   0
  -4  -2   0  132.10   11.59   0
  -4  -2   0  132.97    8.90   0
   5   2   0   47.47    7.48   0
  -5  -2   0   48.02   10.21   0
  -5  -2   0   44.50    8.29   0
   5   2   0   43.93   11.24   0
   6   2   0  797.32   14.70   0
  -6  -2   0  768.65   11.27   0
   6   2   0  791.89    9.92   0
  -6  -2   0  812.06   14.38   0
  -7  -2   0   42.82    7.46   0
   7   2   0   31.36    8.11   0
  -7  -2   0   35.11    9.79   0
   7   2   0   36.13   10.48   0
  -8  -2   0   35.95   10.82   0
   8   2   0   32.37    8.12   0
   8   2   0   -0.76    9.55   0
  -8  -2   0   33.83    7.62   0
   9   2   0   12.60    8.51   0
  -9  -2   0   10.13    7.61   0
   9   2   0    3.10   11.42   0
  -9  -2   0    1.18   11.79   0
  11  -3   0    1.85    8.95   0
  11  -3   0    4.24    7.31   0
 -11   3   0    5.30    7.17   0
 -10   3   0    2.37    8.91   0
  10  -3   0    1.41    8.87   0
  10  -3   0    9.29    6.82   0
 -10   3   0   15.50    6.77   0
  -9   3   0  577.67    8.83   0
   9  -3   0  571.21    8.71   0
  -9   3   0  570.45   11.98   0
   9  -3   0  590.57   12.46   0
  -8   3   0   41.69    8.86   0
   8  -3   0   44.32    8.54   0
   8  -3   0   40.40    7.03   0
  -8   3   0   36.52    7.07   0
   7  -3   0   96.73    9.37   0
  -7   3   0   97.38    8.67   0
   7  -3   0   97.35    7.44   0
  -7   3   0   97.01    7.48   0
   6  -3   0    0.15    8.75   0
   6  -3   0    5.73    7.71   0
  -6   3   0    4.84    7.69   0
  -6   3   0    6.24    8.35   0
   5  -3   0 5094.71   18.29   0
   5  -3   0 5124.06   24.79   0
  -5   3   0 5063.79   17.62   0
   4  -3   0   24.58    6.68   0
  -4   3   0   37.69    8.29   0
   4  -3   0   26.41    8.65   0
   3  -3   0   33.37   10.51   0
  -3   3   0   13.52    9.75   0
   3  -3   0   32.59    9.67   0
  -2   3   0   59.99   11.27   0
   2  -3   0   60.02   11.15   0
  -1   3   0  599.44   14.20   0
   1  -3   0  604.74   11.15   0
   1  -3   0  592.77   13.99   0
   0   3   0   24.08   11.14   0
   0  -3   0   24.49    8.50   0
   0   3   0   14.60    8.36   0
   0  -3   0   29.47   11.18   0
  -1  -3   0  252.61    8.57   0
  -1  -3   0  245.57   16.54   0
   1   3   0  241.79   17.23   0
   1   3   0  248.08    9.68   0
  -2  -3   0  517.01    8.88   0
   2   3   0  523.10    9.87   0
   3   3   0  190.82    6.80   0
  -3  -3   0  181.66    7.22   0
  -4  -3   0   64.27    8.00   0
   4   3   0   77.95    7.26   0
  -5  -3   0 1685.94   12.80   0
   5   3   0 1715.08   12.11   0
   6   3   0   76.33    7.96   0
  -6  -3   0   56.75    7.80   0
  -7  -3   0   12.87    7.63   0
   7   3   0   -1.35    6.65   0
   8   3   0    1.00    7.18   0
  -8  -3   0    4.58    8.81   0
  -9  -3   0  266.17    9.76   0
   9   3   0  297.97    9.57   0
  11  -4   0    8.34    7.22   0
 -11   4   0   -1.11    7.12   0
  11  -4   0    2.57    9.81   0
 -10   4   0   10.76    6.68   0
  10  -4   0    9.81    5.73   0
  10  -4   0    8.61    8.98   0
   9  -4   0    8.29    9.74   0
   9  -4   0    9.92    6.81   0
  -9   4   0    7.88    6.72   0
   8  -4   0  292.07   10.89   0
   8  -4   0  261.94    7.81   0
  -8   4   0  285.13    7.81   0
  -7   4   0    1.60    7.11   0
   7  -4   0   -0.33    8.64   0
   7  -4   0   -3.62    7.27   0
   6  -4   0 2407.08   16.38   0
   6  -4   0 2358.47   12.26   0
  -6   4   0 2337.75   12.23   0
   5  -4   0   -1.64    7.66   0
  -5   4   0   11.97    7.85   0
   5  -4   0    5.10    8.56   0
   4  -4   0  301.71    8.57   0
   4  -4   0  308.20    7.41   0
  -4   4   0  305.25    7.52   0
  -3   4   0  413.81    9.98   0
   3  -4   0  401.94    9.83   0
  -2   4   0 1842.33   13.82   0
   2  -4   0 1834.71   14.70   0
   2  -4   0 1882.06   14.28   0
  -1   4   0   11.34    8.33   0
   1  -4   0   14.10    8.77   0
   1  -4   0    2.71    6.90   0
   0   4   0   71.35    8.00   0
   0   4   0   65.01    9.21   0
   0  -4   0   66.87    9.33   0
   0  -4   0   62.94    8.22   0
  -1  -4   0   92.95   13.36   0
  -1  -4   0   88.61    8.08   0
   1   4   0   90.38   12.32   0
   1   4   0   93.90    7.73   0
   2   4   0  755.98    9.66   0
  -2  -4   0  719.50    8.85   0
   3   4   0   50.84    7.45   0
  -3  -4   0   48.13    6.72   0
   4   4   0   16.82    6.89   0
  -4  -4   0   15.01    7.83   0
  -5  -4   0   26.44    7.47   0
   5   4   0   21.41    6.89   0
  -6  -4   0  327.13    8.74   0
   6   4   0  341.04    8.23   0
  -7  -4   0    9.48    7.58   0
   7   4   0    3.71    8.12   0
  -8  -4   0  231.06   10.18   0
   8   4   0  239.01    8.71   0
  12  -5   0   17.23    7.81   0
  12  -5   0   -1.75   12.52   0
 -12   5   0    9.62    6.42   0
  11  -5   0   -1.73   10.00   0
 -11   5   0   75.53    6.16   0
  11  -5   0   69.59    7.46   0
  10  -5   0    2.25    9.62   0
 -10   5   0    4.81    5.57   0
  10  -5   0   -1.02    7.04   0
   9  -5   0   16.89    6.63   0
  -9   5   0   13.07    6.85   0
   9  -5   0    5.18    8.58   0
   8  -5   0    8.21    9.16   0
   8  -5   0   -0.74    5.69   0
  -8   5   0    6.75    5.70   0
   7  -5   0  536.88   10.73   0
  -7   5   0  539.09    7.73   0
   7  -5   0  537.60    7.66   0
  -6   5   0    8.14    6.21   0
   6  -5   0    6.33    8.63   0
   6  -5   0   -4.07    7.57   0
   5  -5   0   14.99    7.76   0
  -5   5   0   10.25    7.88   0
   5  -5   0    4.13    7.49   0
  -4   5   0   40.01    7.74   0
   4  -5   0   32.54    7.70   0
   3  -5   0 1799.74   11.96   0
   3  -5   0 1836.40   12.99   0
  -3   5   0 1791.09   12.03   0
   2  -5   0   96.55    8.26   0
  -2   5   0   91.99    8.44   0
   2  -5   0   89.31    6.51   0
  -1   5   0   33.13    7.55   0
   1  -5   0   26.57    7.76   0
   1  -5   0   31.10    6.06   0
   0  -5   0   37.06    6.50   0
   0   5   0   34.91    9.80   0
   0   5   0   35.92    7.61   0
   0  -5   0   30.74    8.86   0
  -1  -5   0 1926.58   22.30   0
   1   5   0 1875.71   21.60   0
   1   5   0 1919.37   11.50   0
  -1  -5   0 1860.90   12.55   0
  -2  -5   0   33.84    6.54   0
   2   5   0   31.77    7.50   0
  -3  -5   0   14.23    7.51   0
   3   5   0   20.18    7.03   0
  -4  -5   0    2.60    7.56   0
   4   5   0   15.95    6.80   0
  -5  -5   0  367.73    7.28   0
   5   5   0  383.36    7.04   0
  -6  -5   0    5.02    6.30   0
   6   5   0   -8.76    7.06   0
  -7  -5   0  138.30    9.71   0
   7   5   0  160.00    7.84   0
   8   5   0    5.67    7.81   0
  -8  -5   0    4.70    8.31   0
  11  -6   0    2.96    9.47   0
 -11   6   0   12.49    5.89   0
  11  -6   0    4.35    7.17   0
  10  -6   0  553.23    7.74   0
 -10   6   0  598.52    8.81   0
  10  -6   0  542.34   12.51   0
   9  -6   0   36.34    6.87   0
   9  -6   0   37.77    8.40   0
  -9   6   0   40.54    6.90   0
  -8   6   0   10.72    7.16   0
   8  -6   0   27.72    8.16   0
   8  -6   0   21.18    5.66   0
   7  -6   0  173.96    7.73   0
  -7   6   0  173.77    7.86   0
   7  -6   0  178.66    7.64   0
  -6   6   0   43.42    6.14   0
   6  -6   0   41.97    7.08   0
   6  -6   0   44.39    7.40   0
  -5   6   0   14.39    6.40   0
   5  -6   0   17.45    6.57   0
   5  -6   0   14.12    6.99   0
   5  -6   0   10.26    6.21   0
   4  -6   0  809.34   10.06   0
   4  -6   0  850.14    8.72   0
  -4   6   0  844.70   10.24   0
  -3   6   0    3.03    6.11   0
   3  -6   0    1.43    5.90   0
   3  -6   0    1.32    7.44   0
   2  -6   0  246.15    8.19   0
  -2   6   0  261.40    8.81   0
   2  -6   0  262.07    8.28   0
   1  -6   0    9.83    7.58   0
  -1   6   0   15.09    7.89   0
   1  -6   0   13.30    9.15   0
   0   6   0 2210.75   17.13   0
   0  -6   0 2206.40   18.04   0
   0  -6   0 2172.29   12.64   0
   1   6   0    5.08   11.33   0
   1   6   0   -1.50    5.81   0
  -1  -6   0    4.76   11.87   0
  -1  -6   0    7.57    6.25   0
   2   6   0    3.91    7.01   0
  -2  -6   0   21.64    6.07   0
   3   6   0    4.33    6.67   0
  -3  -6   0   -1.10    5.99   0
   4   6   0  941.62    9.72   0
  -4  -6   0  920.59   10.09   0
  -5  -6   0   16.09    7.37   0
   5   6   0    0.90    5.50   0
   6   6   0    3.74    7.09   0
  -6  -6   0    6.35    7.39   0
  -7  -6   0   -3.34    8.00   0
   7   6   0    6.20    7.55   0
  11  -7   0   -0.69    9.22   0
 -11   7   0  214.87    6.80   0
  11  -7   0  186.44    6.57   0
 -10   7   0    6.72    6.82   0
  10  -7   0   -3.32    6.68   0
  10  -7   0    7.40    8.50   0
   9  -7   0   21.78    8.35   0
   9  -7   0   24.22    6.93   0
  -9   7   0   26.85    5.81   0
   8  -7   0    6.98    6.57   0
   8  -7   0   -1.51    5.59   0
  -8   7   0    6.36    5.72   0
  -7   7   0  331.66    6.83   0
   7  -7   0  346.89    8.34   0
   7  -7   0  347.65    8.43   0
   7  -7   0  347.84    6.88   0
   6  -7   0   30.15    7.43   0
  -6   7   0   31.35    6.13   0
   6  -7   0   36.90    6.87   0
   6  -7   0   31.76    7.07   0
   5  -7   0    7.43    7.18   0
  -5   7   0    3.67    7.29   0
   5  -7   0    7.28    5.83   0
   4  -7   0   21.06    7.02   0
   4  -7   0   22.54    7.27   0
  -4   7   0   28.36    7.33   0
  -3   7   0  772.16    9.97   0
   3  -7   0  808.56    9.69   0
   3  -7   0  783.00   10.01   0
   2  -7   0   27.64    7.34   0
  -2   7   0   29.99    7.46   0
   2  -7   0   25.95    7.45   0
  -1   7   0  523.49   10.57   0
   1  -7   0  506.97    8.41   0
   1  -7   0  526.17   10.72   0
   0  -7   0   28.11    7.43   0
   0   7   0   18.11    9.29   0
   0  -7   0   21.06    9.67   0
   1   7   0  348.90   13.30   0
  -1  -7   0  354.63   13.81   0
  -1  -7   0  332.52    7.08   0
  -2  -7   0   21.65    7.06   0
   2   7   0   -0.53    6.65   0
  -3  -7   0  887.93    9.76   0
   3   7   0  946.55    8.35   0
   4   7   0   -4.82    5.87   0
  -4  -7   0    9.00    5.60   0
   5   7   0   10.99    7.07   0
  -5  -7   0   -1.85    7.52   0
  -6  -7   0    1.68    7.89   0
  11  -8   0    4.93    8.91   0
 -11   8   0   -1.99    6.02   0
  11  -8   0   -0.39    7.26   0
  11  -8   0    3.52    8.39   0
  10  -8   0    3.35    8.47   0
  10  -8   0   12.10    6.96   0
 -10   8   0    8.31    7.10   0
  10  -8   0    5.99    8.25   0
   9  -8   0    7.78    5.65   0
   9  -8   0    7.09    7.98   0
  -9   8   0   16.45    5.59   0
   9  -8   0    9.09    8.16   0
   8  -8   0  468.04    8.83   0
   8  -8   0  437.05    7.11   0
   8  -8   0  470.23    9.61   0
  -8   8   0  447.80    8.39   0
  -7   8   0  169.77    6.20   0
   7  -8   0  153.65    6.08   0
   7  -8   0  164.84    7.33   0
   7  -8   0  168.56    7.39   0
   6  -8   0   56.28    5.84   0
   6  -8   0   57.74    7.00   0
   6  -8   0   53.22    6.92   0
  -6   8   0   44.29    7.12   0
   5  -8   0   25.61    6.59   0
  -5   8   0   49.70    7.21   0
   5  -8   0   31.57    5.97   0
   4  -8   0  228.73    6.46   0
   4  -8   0  249.94    6.36   0
  -4   8   0  249.76    8.01   0
   3  -8   0  105.33    7.40   0
   3  -8   0  108.31    7.37   0
  -3   8   0  114.76    7.55   0
   2  -8   0    9.29    7.09   0
   2  -8   0    2.41    5.97   0
  -2   8   0    2.07    6.90   0
   1  -8   0   12.01    7.06   0
  -1   8   0   11.71    8.08   0
   1  -8   0    5.85    8.27   0
   0  -8   0  392.72   11.13   0
   0  -8   0  356.27    6.82   0
   0   8   0  388.69   10.87   0
   1   8   0    6.52   11.65   0
  -1  -8   0    4.34    5.83   0
  -2  -8   0  365.24    7.05   0
  -3  -8   0   -4.50    5.56   0
  -4  -8   0   17.49    6.22   0
  -5  -8   0   11.07    8.08   0
  11  -9   0    3.33    8.24   0
 -11   9   0   -0.68    6.25   0
  11  -9   0   -0.12    8.55   0
  11  -9   0   -5.68    7.54   0
  10  -9   0    1.18    8.44   0
  10  -9   0  -13.66    7.42   0
 -10   9   0    9.76    7.38   0
  10  -9   0    3.85    8.25   0
   9  -9   0  165.92    7.54   0
   9  -9   0  160.39    7.78   0
  -9   9   0  158.82    7.65   0
   9  -9   0  163.85    7.69   0
   8  -9   0   -0.86    7.93   0
   8  -9   0    1.14    5.56   0
   8  -9   0    3.94    6.88   0
  -8   9   0    1.67    6.88   0
   7  -9   0  142.37    7.20   0
   7  -9   0  142.59    7.10   0
   7  -9   0  125.92    7.47   0
  -7   9   0  132.73    6.23   0
  -6   9   0   17.38    5.46   0
   6  -9   0   21.10    6.55   0
   6  -9   0   13.37    6.77   0
   6  -9   0   12.59    5.42   0
   5  -9   0  810.17    8.44   0
  -5   9   0  837.90    9.49   0
   5  -9   0  817.33    9.45   0
   4  -9   0   -5.76    5.43   0
   4  -9   0    1.59    5.49   0
  -4   9   0    5.24    5.71   0
  -3   9   0    2.93    6.80   0
   3  -9   0    5.90    7.07   0
   3  -9   0    3.16    6.66   0
   2  -9   0   19.43    5.65   0
   2  -9   0   31.34    8.08   0
  -2   9   0   24.90    8.13   0
   1  -9   0  623.60   10.93   0
   1  -9   0  596.59    8.56   0
  -1   9   0  625.09   10.69   0
   0  -9   0    0.87    7.11   0
   0  -9   0    3.58    8.99   0
   0   9   0   -1.75    9.38   0
  -1  -9   0   29.87    6.18   0
  -2  -9   0   10.46    7.27   0
  -3  -9   0   62.81    7.97   0
  -4  -9   0    6.26    8.32   0
  10 -10   0   14.42    8.58   0
 -10  10   0   15.66    7.54   0
  10 -10   0    7.87    7.42   0
  10 -10   0   22.60    8.62   0
   9 -10   0   14.16    7.24   0
  -9  10   0   10.28    7.46   0
   9 -10   0   12.08    7.26   0
   9 -10   0    6.31    7.22   0
  -8  10   0   59.07    5.98   0
   8 -10   0   46.36    7.37   0
   8 -10   0   53.13    7.32   0
   8 -10   0   53.33    5.98   0
   7 -10   0    1.03    5.71   0
   7 -10   0    1.70    6.54   0
   7 -10   0   -1.17    6.94   0
  -7  10   0   -4.50    5.37   0
  -6  10   0  255.86    7.76   0
   6 -10   0  246.85    6.53   0
   6 -10   0  241.07    7.57   0
   6 -10   0  249.33    7.70   0
   5 -10   0   16.03    5.46   0
   5 -10   0   20.42    7.07   0
  -5  10   0   16.37    6.91   0
   4 -10   0   79.32    7.23   0
  -4  10   0   82.31    7.33   0
   4 -10   0   87.12    7.03   0
   3 -10   0    7.54    7.03   0
  -3  10   0    0.36    6.71   0
   3 -10   0   10.17    5.61   0
   2 -10   0  501.57    8.47   0
   2 -10   0  522.12    9.31   0
  -2  10   0  512.61    9.77   0
   1 -10   0    5.66    8.18   0
   1 -10   0    9.01    6.02   0
  -1  10   0    8.35    7.92   0
   0 -10   0    3.47    5.86   0
   0 -10   0    0.88   10.44   0
   0  10   0    3.03    8.48   0
  -1 -10   0   11.79    7.60   0
  -2 -10   0   91.32    8.12   0
  -9  11   0   18.58    6.02   0
   9 -11   0   22.73    8.67   0
   9 -11   0   22.85    7.53   0
   9 -11   0   38.30    6.06   0
   8 -11   0    3.03    7.54   0
   8 -11   0    3.97    7.33   0
  -8  11   0   -6.18    7.10   0
   8 -11   0    8.95    5.90   0
   7 -11   0   39.09    7.08   0
  -7  11   0   35.24    6.02   0
   7 -11   0   33.58    7.39   0
   7 -11   0   46.42    7.26   0
   6 -11   0   12.08    6.93   0
  -6  11   0    0.83    5.80   0
   6 -11   0    6.47    5.73   0
   5 -11   0   74.72    7.29   0
  -5  11   0   78.98    7.52   0
   5 -11   0   73.85    7.40   0
  -4  11   0   -3.61    6.98   0
   4 -11   0   18.18    6.84   0
   4 -11   0    2.35    7.00   0
   3 -11   0  315.63    9.56   0
   3 -11   0  302.98    6.91   0
  -3  11   0  305.60    8.42   0
  -2  11   0    4.73    8.24   0
   2 -11   0    5.98    7.11   0
   2 -11   0   -4.57    8.52   0
   1 -11   0    4.31    9.60   0
  -1  11   0    2.96    7.49   0
   1 -11   0    0.52    6.16   0
   0 -11   0   -1.12    7.45   0
   0  11   0    3.03   11.03   0
   0 -11   0    5.06   13.34   0
  -1 -11   0   52.97    7.94   0
  -8  12   0   13.56    6.28   0
   8 -12   0   11.90    7.53   0
   8 -12   0    1.58    6.32   0
   8 -12   0   -1.40    7.31   0
  -7  12   0    4.06    7.43   0
   7 -12   0   -1.58    6.40   0
   7 -12   0    2.11    7.48   0
   7 -12   0    7.76    7.57   0
  -6  12   0   81.63    7.84   0
   6 -12   0   77.03    6.31   0
   6 -12   0   72.98    7.74   0
   5 -12   0    4.99    6.06   0
   5 -12   0    0.05    7.38   0
  -5  12   0   -5.02    7.37   0
   4 -12   0   40.26    7.68   0
  -4  12   0   33.03    8.66   0
   4 -12   0   36.35    7.32   0
  -3  12   0   10.37    7.51   0
   3 -12   0   13.02    7.36   0
   3 -12   0    3.80    7.63   0
  -2  12   0   -0.29    8.10   0
   2 -12   0   41.77    9.36   0
   2 -12   0   31.33    7.90   0
   1 -12   0    3.44   11.34   0
   1 -12   0    1.32    7.96   0
  -1  12   0    4.32   10.16   0
  -4  13  -1    4.95    7.61   0
   4 -13   1   -2.22    7.51   0
   4 -13   1    0.72    7.72   0
   5 -13   1    2.24    7.67   0
  -5  13  -1    8.28    7.53   0
   5 -13   1    6.53    7.59   0
   6 -13   1    5.30    7.52   0
   6 -13   1    0.86    6.20   0
   6 -13   1   -0.69    7.81   0
  -6  13  -1    7.42    7.61   0
   0 -12   1    4.57    8.05   0
   1 -12   1   11.64    6.42   0
  -1  12  -1    1.74    9.11   0
   1 -12   1    7.90   10.04   0
   2 -12   1  148.09    9.60   0
  -2  12  -1    0.24    7.77   0
   2 -12   1  138.68    7.92   0
   3 -12   1   15.53    8.46   0
  -3  12  -1   14.79    8.16   0
   3 -12   1    6.77    5.96   0
   4 -12   1    9.54    8.44   0
   4 -12   1    7.06    5.85   0
  -4  12  -1    2.40    7.30   0
   5 -12   1   -0.81    7.13   0
   5 -12   1    5.53    7.05   0
  -5  12  -1    5.37    7.00   0
   6 -12   1  229.80    7.95   0
  -6  12  -1  225.14    8.13   0
   6 -12   1  228.14    8.08   0
   6 -12   1  206.44    6.76   0
  -7  12  -1   -3.94    7.25   0
   7 -12   1   -1.49    7.53   0
   7 -12   1   -0.03    7.55   0
   7 -12   1   -0.82    5.79   0
   8 -12   1   -1.36    6.07   0
   8 -12   1   -0.74    7.29   0
   8 -12   1  -10.89    7.38   0
  -8  12  -1    0.73    7.30   0
   9 -12   1    6.30    7.59   0
  -9  12  -1    0.60    6.18   0
   9 -12   1    7.75    7.68   0
   9 -12   1   -5.61    7.75   0
  -1 -11   1   37.01    6.30   0
   0 -11   1    6.05   12.20   0
   0  11  -1    2.20   10.48   0
   0 -11   1    3.22    6.14   0
   1 -11   1    2.52    5.85   0
  -1  11  -1    1.37    7.95   0
   1 -11   1    1.60    8.36   0
  -2  11  -1    8.18    7.93   0
   2 -11   1    8.01    5.81   0
   2 -11   1    0.84    8.27   0
  -3  11  -1   70.77    7.13   0
   3 -11   1   58.95    7.21   0
   3 -11   1   61.95    7.32   0
   4 -11   1    6.78    7.11   0
  -4  11  -1   10.92    7.01   0
   4 -11   1    1.93    6.71   0
   5 -11   1  440.04    8.30   0
   5 -11   1  435.97    8.43   0
  -5  11  -1  461.47    8.27   0
   6 -11   1   10.18    7.04   0
  -6  11  -1   -4.23    5.71   0
   6 -11   1    8.23    5.55   0
   6 -11   1    5.15    6.86   0
   7 -11   1   -3.14    5.86   0
   7 -11   1   -0.41    7.05   0
  -7  11  -1   11.44    5.57   0
   7 -11   1    2.15    6.94   0
   8 -11   1   13.68    7.08   0
  -8  11  -1   27.13    7.03   0
   8 -11   1   14.92    7.09   0
   8 -11   1   23.79    7.01   0
   9 -11   1  109.07    8.90   0
   9 -11   1  106.26    7.73   0
  -9  11  -1   99.37    7.76   0
   9 -11   1  100.33    6.32   0
 -10  11  -1   -0.04    6.36   0
  10 -11   1    3.01    7.78   0
  10 -11   1    9.61    7.67   0
  10 -11   1   10.19    7.73   0
  -3 -10   1   11.13    6.27   0
  -2 -10   1  106.75    6.48   0
  -1 -10   1   11.89    7.31   0
   0 -10   1   27.87    5.73   0
   0 -10   1   24.47   11.15   0
   0  10  -1    1.06    8.65   0
   1 -10   1   11.88    6.87   0
  -1  10  -1   15.44    7.89   0
   1 -10   1   11.37    8.31   0
   2 -10   1  124.41    7.40   0
   2 -10   1  130.95    7.18   0
  -2  10  -1  128.06    8.11   0
   3 -10   1  105.43    7.44   0
   3 -10   1  130.22    7.06   0
  -3  10  -1  125.14    8.35   0
   4 -10   1  502.79    7.29   0
  -4  10  -1  514.03    8.68   0
   4 -10   1  509.00    8.60   0
   5 -10   1   11.26    5.58   0
   5 -10   1    4.29    5.52   0
  -5  10  -1    6.65    6.87   0
  -6  10  -1  105.14    5.97   0
   6 -10   1  106.42    7.06   0
   6 -10   1   98.99    7.08   0
   6 -10   1  104.21    7.11   0
   7 -10   1    7.44    6.75   0
   7 -10   1   11.51    6.70   0
   7 -10   1   -4.66    6.74   0
  -7  10  -1    4.74    6.66   0
  -8  10  -1  295.55    6.72   0
   8 -10   1  295.41    8.05   0
   8 -10   1  277.71    7.91   0
   8 -10   1  301.97    8.17   0
   9 -10   1    8.25    7.12   0
   9 -10   1    6.92    8.09   0
   9 -10   1   13.69    8.28   0
  -9  10  -1   17.62    7.08   0
  10 -10   1   15.86    8.63   0
 -10  10  -1   17.47    7.43   0
  10 -10   1   17.20    8.41   0
  10 -10   1    8.77    7.51   0
  -4  -9   1    6.24    7.89   0
  -3  -9   1  229.33    7.11   0
  -2  -9   1   10.00    5.86   0
  -1  -9   1   21.63    5.98   0
   0   9  -1    1.25    9.51   0
   0  -9   1   11.61    5.72   0
   0  -9   1    2.50    9.17   0
  -1   9  -1  995.62   11.93   0
   1  -9   1  972.74   11.87   0
   1  -9   1  980.10    8.40   0
   2  -9   1   53.65    6.97   0
  -2   9  -1   66.58    8.03   0
   2  -9   1   64.89    7.34   0
   3  -9   1   42.14    6.90   0
  -3   9  -1   36.82    7.04   0
   3  -9   1   35.14    6.87   0
  -4   9  -1   78.06    7.27   0
   4  -9   1   78.51    7.41   0
   4  -9   1   77.33    6.74   0
   5  -9   1  356.44    7.70   0
   5  -9   1  344.51    6.68   0
   5  -9   1  346.03    7.00   0
  -5   9  -1  335.99    6.99   0
   6  -9   1   17.20    6.53   0
   6  -9   1   21.56    6.66   0
  -6   9  -1   16.13    6.57   0
   6  -9   1    7.77    6.89   0
   7  -9   1  238.11    7.62   0
   7  -9   1  243.02    7.59   0
   7  -9   1  247.66    7.51   0
  -7   9  -1  240.87    6.44   0
   8  -9   1    4.82    6.94   0
   8  -9   1    1.24    5.69   0
  -8   9  -1   -2.01    6.95   0
   8  -9   1    5.06    6.72   0
   9  -9   1  132.83    7.48   0
   9  -9   1  122.95    7.62   0
   9  -9   1  135.89    7.50   0
  -9   9  -1  123.49    6.30   0
  10  -9   1    9.44    7.24   0
 -10   9  -1   10.15    6.02   0
  10  -9   1   14.88    5.87   0
  10  -9   1   11.41    7.39   0
  11  -9   1    2.21    8.55   0
  11  -9   1    2.97    7.16   0
 -11   9  -1   73.42    7.90   0
  11  -9   1   68.67    6.44   0
  -5  -8   1   10.67    7.68   0
  -4  -8   1  130.75    6.60   0
  -3  -8   1   18.03    7.33   0
  -2  -8   1   52.62    7.05   0
  -1  -8   1    5.21   12.62   0
   1   8  -1    9.51   12.15   0
  -1  -8   1   10.91    5.65   0
   0  -8   1 1451.33   16.34   0
   0  -8   1 1434.50    9.50   0
   0   8  -1 1465.60   15.24   0
  -1   8  -1   13.53    7.98   0
   1  -8   1   11.08    7.16   0
   1  -8   1   16.99    8.25   0
   2  -8   1  102.32    7.55   0
  -2   8  -1   96.14    7.36   0
   2  -8   1   97.48    7.36   0
   3  -8   1  208.27    6.46   0
  -3   8  -1  216.74    8.06   0
   3  -8   1  205.30    8.24   0
  -4   8  -1  411.30    8.67   0
   4  -8   1  405.31    7.43   0
   4  -8   1  412.02    7.97   0
   5  -8   1   94.20    5.85   0
   5  -8   1   99.63    6.17   0
   5  -8   1   80.58    6.90   0
  -5   8  -1   81.98    7.22   0
  -6   8  -1    0.45    5.86   0
   6  -8   1   -1.07    6.89   0
   6  -8   1    0.55    5.83   0
   7  -8   1   42.41    7.07   0
  -7   8  -1   36.13    5.72   0
   7  -8   1   40.88    6.75   0
   8  -8   1  270.66    8.02   0
   8  -8   1  250.05    6.42   0
  -8   8  -1  258.52    6.60   0
   9  -8   1   15.09    8.21   0
   9  -8   1   19.89    6.81   0
  -9   8  -1    9.11    5.50   0
  10  -8   1   30.31    7.17   0
 -10   8  -1   52.01    5.97   0
  10  -8   1   47.28    8.65   0
 -11   8  -1    5.26    5.75   0
  11  -8   1   -0.15    5.79   0
  11  -8   1    3.31    8.44   0
  -6  -7   1    5.21    7.76   0
  -5  -7   1   21.13    7.51   0
  -4  -7   1   -2.17    7.28   0
  -3  -7   1  265.48    7.75   0
  -2  -7   1   11.43    7.10   0
   1   7  -1 1279.40   19.00   0
  -1  -7   1 1224.16   10.37   0
  -1  -7   1 1268.46   19.71   0
   0  -7   1    7.00    7.29   0
   0   7  -1    1.16    8.94   0
   0  -7   1    2.38    8.42   0
  -1   7  -1  180.70    8.22   0
   1  -7   1  186.07    9.38   0
   1  -7   1  189.92    6.62   0
   2  -7   1    5.68    6.06   0
  -2   7  -1   -7.86    7.36   0
   2  -7   1   -7.45    7.75   0
   3  -7   1 2195.27   13.15   0
   3  -7   1 2227.91   12.80   0
  -3   7  -1 2233.71   13.05   0
   4  -7   1   42.90    6.97   0
   4  -7   1   44.30    6.33   0
  -4   7  -1   46.21    6.30   0
   5  -7   1  113.57    7.70   0
  -5   7  -1  126.27    7.60   0
   5  -7   1  116.93    7.35   0
   6  -7   1   26.94    7.03   0
  -6   7  -1   35.78    7.44   0
   6  -7   1   27.30    6.12   0
   7  -7   1  189.23    7.89   0
   7  -7   1  201.41    7.74   0
  -7   7  -1  197.70    6.30   0
  -8   7  -1   23.96    5.65   0
   8  -7   1   16.42    5.55   0
   8  -7   1   21.15    6.99   0
   9  -7   1   48.63    5.74   0
  -9   7  -1   44.19    5.62   0
   9  -7   1   45.39    7.13   0
  10  -7   1   12.09    6.92   0
  10  -7   1   10.46    8.61   0
 -10   7  -1   12.22    5.73   0
  11  -7   1    2.67    9.40   0
  11  -7   1  111.17    7.62   0
 -11   7  -1  104.58    6.26   0
  -7  -6   1    1.65    8.03   0
  -6  -6   1   12.60    7.68   0
  -5  -6   1   12.01    7.55   0
   5   6  -1   12.02    5.69   0
   4   6  -1  613.88    8.57   0
  -4  -6   1  580.41    7.89   0
  -3  -6   1   13.82    7.15   0
   3   6  -1    9.16    5.51   0
  -2  -6   1  316.35    8.19   0
  -1  -6   1    4.36    6.34   0
  -1  -6   1   -1.65   12.28   0
   1   6  -1    1.72   11.28   0
   0  -6   1  446.31    7.64   0
   0   6  -1  451.17   10.52   0
   0  -6   1  436.95   11.85   0
   1  -6   1    0.31    7.60   0
   1  -6   1   -0.32    9.12   0
  -1   6  -1    0.08    8.57   0
   2  -6   1 1925.85   13.55   0
   2  -6   1 1940.40   12.30   0
  -2   6  -1 1978.23   13.38   0
   3  -6   1   31.68    7.71   0
  -3   6  -1   36.76    7.38   0
   4  -6   1   18.34    7.03   0
  -4   6  -1   21.81    6.38   0
   4  -6   1   14.19    6.48   0
  -5   6  -1  250.01    7.11   0
   5  -6   1  250.33    7.91   0
   5  -6   1  248.61    8.36   0
   6  -6   1 1222.28   10.49   0
   6  -6   1 1289.92   11.47   0
  -6   6  -1 1266.26   10.44   0
   7  -6   1   17.37    6.88   0
  -7   6  -1   11.26    6.00   0
   7  -6   1   18.60    7.29   0
  -8   6  -1  348.54    7.93   0
   8  -6   1  344.88    7.88   0
   8  -6   1  378.45    9.46   0
   9  -6   1   -0.51    6.82   0
   9  -6   1    6.51    8.15   0
  -9   6  -1   18.76    6.81   0
 -10   6  -1  492.73    8.23   0
  10  -6   1  489.41    8.50   0
  10  -6   1  508.43   11.12   0
 -11   6  -1   14.77    7.00   0
  11  -6   1   21.17    7.24   0
  11  -6   1   -1.19    9.30   0
  -8  -5   1    6.80    7.99   0
   7   5  -1   20.19    7.30   0
  -7  -5   1   14.83    7.79   0
   6   5  -1   31.08    7.03   0
  -6  -5   1   27.25    7.55   0
   5   5  -1 1163.35   10.24   0
  -5  -5   1 1091.88   10.60   0
  -4  -5   1    4.54    7.59   0
   4   5  -1   -8.15    6.72   0
   3   5  -1    7.35    5.48   0
  -3  -5   1    6.80    7.57   0
   2   5  -1   12.12    5.77   0
  -2  -5   1    3.49    6.22   0
  -1  -5   1  533.91    9.17   0
   1   5  -1  543.86   14.72   0
  -1  -5   1  522.66   15.50   0
   0   5  -1   31.69    9.20   0
   0  -5   1   32.08    9.00   0
   0  -5   1   25.17    6.09   0
   1  -5   1  490.59   10.11   0
  -1   5  -1  508.07    9.94   0
   1  -5   1  505.56    7.98   0
   2  -5   1    2.71    8.42   0
  -2   5  -1    6.51    8.25   0
   3  -5   1 1393.74   12.00   0
  -3   5  -1 1427.80   12.16   0
  -4   5  -1    7.75    6.23   0
   4  -5   1    8.60    7.13   0
   4  -5   1   10.08    6.52   0
   5  -5   1  262.39    8.54   0
  -5   5  -1  291.52    7.37   0
   5  -5   1  284.01    8.47   0
   6  -5   1   16.10    7.49   0
   6  -5   1    7.00    7.57   0
  -6   5  -1   15.61    6.07   0
  -7   5  -1  176.33    7.57   0
   7  -5   1  181.97    8.94   0
   7  -5   1  184.53    6.33   0
  -8   5  -1   -5.19    5.55   0
   8  -5   1    5.26    8.26   0
   8  -5   1   10.28    6.81   0
   9  -5   1  212.12    6.38   0
  -9   5  -1  221.93    6.36   0
   9  -5   1  235.81    9.71   0
 -10   5  -1    5.91    6.77   0
  10  -5   1   10.39    6.98   0
  10  -5   1    5.99    8.75   0
 -11   5  -1   11.03    5.71   0
  11  -5   1    3.02    9.32   0
  11  -5   1   14.37    5.85   0
  -9  -4   1    7.24    8.07   0
  -8  -4   1   55.79    7.92   0
   8   4  -1   55.59    7.45   0
  -7  -4   1   17.48    7.64   0
   7   4  -1   22.66    6.88   0
  -6  -4   1 1382.49   12.12   0
   6   4  -1 1497.02   11.62   0
   5   4  -1   11.73    6.96   0
  -5  -4   1   25.28    7.72   0
  -4  -4   1  112.33    8.06   0
   4   4  -1  128.11    7.63   0
   3   4  -1   -4.71    6.96   0
  -3  -4   1   -8.36    7.33   0
  -2  -4   1 2116.35   13.54   0
   2   4  -1 2209.35   13.41   0
  -1  -4   1   73.86    8.26   0
   1   4  -1   80.48   12.77   0
  -1  -4   1   75.94   14.07   0
   0  -4   1  263.26   10.99   0
   0  -4   1  279.48    9.51   0
   0   4  -1  267.57   11.23   0
   1  -4   1    7.93    9.97   0
   1  -4   1    0.10    7.28   0
  -1   4  -1    7.50    9.28   0
   2  -4   1 1487.81   14.24   0
  -2   4  -1 1478.56   14.15   0
  -3   4  -1    1.62    6.79   0
   3  -4   1    2.12    6.87   0
   3  -4   1   -5.99    8.20   0
   4  -4   1  105.77    8.18   0
  -4   4  -1  109.13    6.75   0
   4  -4   1  113.24    8.15   0
  -5   4  -1  109.54    7.92   0
   5  -4   1  101.83    8.91   0
   5  -4   1  108.19    6.56   0
  -6   4  -1  881.02   11.72   0
   6  -4   1  819.53    8.98   0
  -6   4  -1  854.95   10.11   0
   6  -4   1  842.88   11.05   0
  -7   4  -1    9.24    6.98   0
  -7   4  -1   26.65    7.09   0
   7  -4   1   15.15    8.65   0
   7  -4   1   10.68    5.92   0
  -8   4  -1 1022.77   11.95   0
   8  -4   1 1004.68   12.52   0
  -8   4  -1  996.01    9.76   0
   8  -4   1 1005.82    9.83   0
  -9   4  -1    4.48    8.00   0
   9  -4   1    5.44    8.58   0
   9  -4   1    9.91    5.65   0
  -9   4  -1    1.68    6.83   0
  10  -4   1    7.56    5.66   0
 -10   4  -1   12.21    7.93   0
 -10   4  -1   25.51    6.77   0
  10  -4   1   17.35    9.79   0
 -11   4  -1    2.50    7.29   0
 -11   4  -1    6.14    8.31   0
  11  -4   1   -0.70    6.00   0
  11  -4   1    2.45    8.28   0
  -9  -3   1  113.04    9.77   0
   9   3  -1  136.57    9.16   0
  -8  -3   1    9.20    8.57   0
   8   3  -1   -2.11    6.91   0
   7   3  -1  194.75    7.82   0
  -7  -3   1  184.99    9.34   0
  -6  -3   1   15.29    7.79   0
  -6  -3   1   18.55   16.34   0
   6   3  -1   17.13   16.25   0
   6   3  -1   15.00    6.91   0
  -5  -3   1   66.83    9.42   0
   5   3  -1   75.91    7.35   0
   4   3  -1   28.44    7.40   0
  -4  -3   1   30.44    8.07   0
   3   3  -1 5775.92   20.85   0
  -3  -3   1 5534.14   21.03   0
  -2  -3   1   42.71    8.74   0
   2   3  -1   44.58    8.55   0
  -1  -3   1  142.59   10.39   0
   1   3  -1  146.63   15.03   0
   1   3  -1  157.04   10.19   0
  -1  -3   1  148.23   17.08   0
   0   3  -1  202.98   12.86   0
   0  -3   1  199.42    9.49   0
   0  -3   1  198.24   13.54   0
   1  -3   1 1904.61   18.98   0
  -1   3  -1 1905.05   18.38   0
   2  -3   1  120.06   11.54   0
   2  -3   1  124.01   11.09   0
  -2   3  -1  125.36   11.27   0
   3  -3   1  308.22   10.88   0
  -3   3  -1  320.72   10.82   0
  -3   3  -1  311.96    9.14   0
   3  -3   1  314.42   10.79   0
  -4   3  -1   94.69    8.00   0
  -4   3  -1   97.65    7.07   0
   4  -3   1   90.15    8.69   0
   4  -3   1   98.50    8.06   0
   5  -3   1 2784.77   14.41   0
  -5   3  -1 2890.51   13.84   0
  -5   3  -1 2881.21   17.14   0
   5  -3   1 2858.01   17.25   0
   6  -3   1   19.38    6.17   0
  -6   3  -1   23.83    7.37   0
  -6   3  -1   13.44    7.55   0
   6  -3   1   13.79    9.40   0
  -7   3  -1  460.14    8.55   0
  -7   3  -1  467.52    9.16   0
   7  -3   1  459.37    9.87   0
   7  -3   1  451.56    8.56   0
   8  -3   1   12.11    6.98   0
  -8   3  -1    0.30    6.65   0
  -8   3  -1    0.70    7.92   0
   8  -3   1   -0.61    8.53   0
   9  -3   1  246.40    6.73   0
  -9   3  -1  232.33    9.17   0
  -9   3  -1  245.56    7.79   0
   9  -3   1  245.01    9.65   0
  10  -3   1   43.01    7.19   0
 -10   3  -1   30.33    8.12   0
  10  -3   1   37.49    8.78   0
 -10   3  -1   39.11    7.17   0
  11  -3   1   52.29    8.66   0
 -11   3  -1   39.30    7.43   0
 -11   3  -1   38.34    8.77   0
  11  -3   1    0.95    9.20   0
  10   2  -1    5.33    8.34   0
  10   2  -1    3.47   12.29   0
 -10  -2   1  163.34   10.69   0
 -10  -2   1  187.79   14.41   0
  -9  -2   1   -5.44   10.18   0
   9   2  -1    1.06    8.44   0
  -9  -2   1    6.12    8.67   0
   9   2  -1    2.89    9.51   0
  -8  -2   1    3.52    7.45   0
   8   2  -1    3.51    9.13   0
   8   2  -1    6.19    8.06   0
  -8  -2   1    3.56    9.71   0
   7   2  -1    3.20    7.58   0
  -7  -2   1    3.75    7.19   0
  -7  -2   1    4.07    8.77   0
   7   2  -1    8.18    8.86   0
   6   2  -1  179.46    8.79   0
  -6  -2   1  170.42    9.57   0
   6   2  -1  174.50   10.36   0
  -6  -2   1  188.17   11.29   0
  -5  -2   1    6.20    9.52   0
  -5  -2   1    5.21    8.96   0
   5   2  -1    9.78    7.20   0
   5   2  -1    3.55    9.79   0
  -4  -2   1  261.46   12.03   0
   4   2  -1  262.40    8.69   0
   4   2  -1  264.60   11.98   0
  -4  -2   1  255.38    9.66   0
   3   2  -1   10.73    7.71   0
  -3  -2   1    9.35    9.45   0
   3   2  -1    4.12   12.12   0
  -3  -2   1    1.98   12.42   0
   2   2  -1 2316.80   34.70   0
   2   2  -1 2400.65   18.31   0
  -2  -2   1 2186.45   34.46   0
  -2  -2   1 2265.33   18.27   0
   1   2  -1 2455.75   19.29   0
  -1  -2   1 2438.06   20.29   0
  -1  -2   1 2469.73   35.76   0
  -1  -2   1 2383.47   36.83   0
   0   2  -1  226.52   14.72   0
   0  -2   1  221.46   14.39   0
   1  -2   1    9.66   11.81   0
  -1   2  -1    3.75   11.69   0
   1  -2   1    6.68    9.45   0
  -2   2  -1   52.37    9.41   0
  -2   2  -1   52.71    9.83   0
   2  -2   1   49.04   11.77   0
   2  -2   1   48.79   11.91   0
  -3   2  -1   -2.24    9.88   0
   3  -2   1   -4.68   10.32   0
  -3   2  -1   -1.22   10.59   0
   3  -2   1    1.70    8.47   0
   4  -2   1 3271.55   17.32   0
  -4   2  -1 3341.91   17.31   0
   4  -2   1 3336.24   19.49   0
  -4   2  -1 3322.27   19.11   0
   5  -2   1    6.87    9.43   0
  -5   2  -1    7.53    7.23   0
  -5   2  -1    5.47    8.90   0
   5  -2   1    1.71    6.14   0
  -6   2  -1   31.00    7.64   0
  -6   2  -1   20.44    5.99   0
   6  -2   1   26.46    8.16   0
   6  -2   1   26.63    7.20   0
  -7   2  -1   10.07    6.99   0
  -7   2  -1   -1.13    6.94   0
   7  -2   1    5.06    8.67   0
   7  -2   1   -2.63    7.27   0
  -8   2  -1  671.32    9.03   0
  -8   2  -1  651.90   10.53   0
   8  -2   1  645.60   11.30   0
   8  -2   1  651.40    9.19   0
  -9   2  -1   -5.18    6.44   0
   9  -2   1    0.79    8.38   0
   9  -2   1    6.48    7.92   0
  -9   2  -1   12.87    7.90   0
  10  -2   1   22.60    8.37   0
  10  -2   1   16.81    8.67   0
 -10   2  -1   22.90    8.21   0
 -10   2  -1   14.15    7.12   0
 -11   2  -1    1.05    9.74   0
  11  -2   1    3.90    8.22   0
  11  -2   1   10.33    8.90   0
 -11   2  -1   18.55    8.76   0
  10   1  -1    1.24    7.88   0
 -10  -1   1    4.74    8.63   0
 -10  -1   1    2.44    9.35   0
  10   1  -1    0.75    8.97   0
   9   1  -1    7.74    9.00   0
  -9  -1   1    3.39    8.21   0
  -9  -1   1    5.39    7.98   0
   9   1  -1    0.34    7.93   0
   8   1  -1   13.75    7.69   0
  -8  -1   1    1.35    7.92   0
   8   1  -1    5.05    7.86   0
  -8  -1   1   15.36    9.14   0
  -7  -1   1  652.77   11.37   0
  -7  -1   1  659.15   11.80   0
   7   1  -1  648.42   11.03   0
   7   1  -1  680.64   11.13   0
  -6  -1   1    1.39    8.70   0
  -6  -1   1    0.73    8.41   0
   6   1  -1   -2.70    8.17   0
   6   1  -1    3.43    8.07   0
   5   1  -1   31.67    8.60   0
   5   1  -1   28.20    8.61   0
  -5  -1   1   27.49    9.04   0
  -5  -1   1   25.56    9.58   0
  -4  -1   1  214.02   10.58   0
  -4  -1   1  208.28   10.11   0
   4   1  -1  204.50    9.68   0
   4   1  -1  203.24    8.56   0
   3   1  -1  559.83   12.37   0
  -3  -1   1  541.89   12.90   0
   3   1  -1  552.08   12.69   0
  -3  -1   1  550.70   13.29   0
   2   1  -1  388.74   16.64   0
  -2  -1   1  379.82   16.28   0
   2   1  -1  388.52   14.79   0
  -2  -1   1  368.00   13.69   0
  -1  -1   1 5634.45   37.68   0
  -1  -1   1 5395.23   44.39   0
   1   1  -1 5502.53   44.04   0
   0  -1   1   12.04   13.45   0
   0  -1   1   12.85   11.72   0
   0   1  -1   12.25   14.17   0
   0   1  -1   12.12   13.68   0
  -1   1  -1 5140.76   32.36   0
  -1   1  -1 5087.83   33.73   0
   1  -1   1 5065.13   32.07   0
   1  -1   1 5057.78   34.07   0
  -2   1  -1   63.44   12.34   0
   2  -1   1   63.18   12.71   0
  -2   1  -1   62.83    9.58   0
   2  -1   1   57.56   11.96   0
   3  -1   1 7684.38   31.04   0
  -4   1  -1    1.94    7.91   0
   4  -1   1   -2.29    7.99   0
   4  -1   1    1.16    9.42   0
  -4   1  -1    1.12    7.74   0
  -5   1  -1    4.27    7.79   0
  -5   1  -1    5.30    7.59   0
   5  -1   1   13.73    7.52   0
   5  -1   1    7.85    8.27   0
   6  -1   1   21.66    7.55   0
   6  -1   1   18.79    9.16   0
  -6   1  -1   18.76    7.53   0
  -6   1  -1   21.74    7.33   0
   7  -1   1  476.94    8.79   0
   7  -1   1  455.69   10.59   0
  -7   1  -1  464.92    9.18   0
  -7   1  -1  472.56    8.80   0
   8  -1   1   -0.89    6.89   0
   8  -1   1    3.02    8.00   0
  -8   1  -1    4.63    7.55   0
  -8   1  -1    4.71    7.69   0
   9  -1   1    5.88    7.87   0
  -9   1  -1    3.67    8.13   0
  -9   1  -1    7.56    7.74   0
   9  -1   1    4.43    8.35   0
  10  -1   1    6.82    8.65   0
 -10   1  -1    3.39    8.20   0
 -10   1  -1    7.86    8.25   0
  10  -1   1   -2.95    8.34   0
 -11   1  -1  129.08    9.70   0
  11  -1   1    3.78    8.63   0
 -11   1  -1  103.87   10.29   0
  11  -1   1   -6.75    8.62   0
  11   0  -1   -0.47   10.21   0
 -11   0   1    2.53    8.73   0
  11   0  -1    4.63    8.78   0
 -11   0   1    1.07   10.79   0
  10   0  -1   -3.56    8.41   0
 -10   0   1    3.23    9.34   0
  10   0  -1    5.94    8.31   0
 -10   0   1    0.89    8.31   0
   9   0  -1   13.45    8.89   0
  -9   0   1    7.07    8.19   0
   9   0  -1    9.54    8.20   0
  -9   0   1   11.30    9.02   0
   8   0  -1  888.15   13.20   0
  -8   0   1  838.48   13.31   0
   8   0  -1  877.69   11.35   0
  -8   0   1  834.66   11.00   0
   7   0  -1    0.75    9.37   0
   7   0  -1    5.18    7.08   0
  -7   0   1   14.96    8.13   0
  -7   0   1    3.23    9.54   0
  -6   0   1   51.92    7.91   0
   6   0  -1   54.75    7.41   0
   6   0  -1   52.49    8.40   0
  -6   0   1   61.57    9.60   0
  -5   0   1   90.07    9.56   0
   5   0  -1   98.70    9.97   0
   5   0  -1   89.13    7.98   0
  -5   0   1  102.40   10.31   0
  -4   0   1 1071.06   16.57   0
   4   0  -1 1042.21   12.17   0
   4   0  -1 1070.06   16.62   0
  -4   0   1 1045.29   12.45   0
  -3   0   1  226.37   14.59   0
   3   0  -1  225.12   11.40   0
   3   0  -1  223.09   15.10   0
  -3   0   1  218.86   11.47   0
  -2   0   1  189.72   12.62   0
   2   0  -1  192.26   22.23   0
  -2   0   1  198.31   24.89   0
   2   0  -1  187.68   12.60   0
  -1   0   1    3.65   13.88   0
   1   0  -1    7.27   13.82   0
   0   0  -1 6231.94   42.56   0
   0   0   1 6382.81   45.76   0
   0   0  -1 6358.34   46.29   0
   0   0   1 6273.65   43.76   0
  -1   0  -1    2.80   13.21   0
   1   0   1   10.85   11.46   0
   1   0   1    4.81   13.39   0
  -1   0  -1    3.54   13.54   0
  -3   0  -1    6.42    9.41   0
   3   0   1    6.20    9.94   0
   3   0   1    7.84    7.97   0
  -3   0  -1    5.00    9.77   0
   4   0   1  429.75   10.61   0
  -4   0  -1  427.41   10.02   0
  -4   0  -1  433.08    9.45   0
   4   0   1  439.19    9.92   0
   5   0   1   19.32    8.87   0
  -5   0  -1   14.35    8.05   0
   5   0   1    9.50    8.26   0
  -5   0  -1    9.95    7.57   0
   6   0   1  706.69   11.34   0
   6   0   1  670.89   11.18   0
  -6   0  -1  683.75   10.26   0
  -6   0  -1  684.99   10.25   0
   7   0   1   13.58    7.98   0
  -7   0  -1   15.27    6.84   0
  -7   0  -1   22.33    8.49   0
   7   0   1   18.30    7.33   0
  -8   0  -1   -1.30    6.99   0
   8   0   1    5.76    7.85   0
   8   0   1   -2.55    7.02   0
  -8   0  -1    1.94    7.88   0
  -9   0  -1   -0.83    8.00   0
  -9   0  -1   -0.13    7.03   0
   9   0   1    9.41    8.13   0
   9   0   1    7.28    8.26   0
  10   0   1  170.71    8.62   0
  10   0   1    4.24    8.93   0
 -10   0  -1  189.01    9.59   0
 -10   0  -1  169.32    8.81   0
  11  -1  -1   23.38    8.88   0
  11  -1  -1    6.06   11.52   0
 -11   1   1   33.90    7.71   0
 -11   1   1   20.38   11.66   0
  10  -1  -1   10.38    7.15   0
  10  -1  -1    2.22    8.83   0
 -10   1   1   20.59    7.05   0
 -10   1   1   13.84    9.97   0
  -9   1   1  319.73   11.66   0
   9  -1  -1  316.63   11.74   0
   9  -1  -1  312.90    8.34   0
  -9   1   1  333.89    9.10   0
   8  -1  -1    9.78    6.76   0
   8  -1  -1   13.24    9.72   0
  -8   1   1    6.42    9.54   0
  -8   1   1   13.87    6.89   0
  -7   1   1   79.67    9.77   0
   7  -1  -1   81.71    7.40   0
  -7   1   1   84.00    8.51   0
   7  -1  -1   81.82   10.67   0
   6  -1  -1    0.71    9.31   0
  -6   1   1    5.49    7.53   0
  -6   1   1    1.48    8.93   0
   6  -1  -1    3.80    7.08   0
  -5   1   1 1256.54   17.45   0
   5  -1  -1 1227.35   11.66   0
   5  -1  -1 1233.49   17.50   0
  -5   1   1 1232.26   11.83   0
  -4   1   1  238.18    9.82   0
  -4   1   1  237.83   13.30   0
   4  -1  -1  230.25    9.52   0
   4  -1  -1  241.33   15.33   0
   3  -1  -1   47.70   10.93   0
   3  -1  -1   48.49   15.54   0
  -3   1   1   46.26    9.33   0
   2  -1  -1    4.55    9.42   0
   2  -1  -1    4.94   15.75   0
  -2   1   1    0.32   12.02   0
  -1   1   1 8368.49   36.70   0
   0  -1  -1   13.63   12.63   0
   0  -1  -1   17.97   14.18   0
   0   1   1   15.20   12.41   0
   0   1   1   15.76   10.36   0
   1   1   1   38.27   12.84   0
   1   1   1   33.87   12.69   0
   1   1   1   36.10   12.52   0
  -1  -1  -1   41.44   12.71   0
   2   1   1   93.18   11.47   0
  -2  -1  -1  105.53   12.00   0
   2   1   1   97.15   10.74   0
  -2  -1  -1  103.73   11.73   0
  -3  -1  -1 2669.81   21.48   0
   3   1   1 2580.57   21.47   0
   3   1   1 2601.49   16.69   0
  -3  -1  -1 2591.57   16.00   0
  -4  -1  -1   48.44    8.13   0
   4   1   1   52.23    8.64   0
   4   1   1   55.37    6.52   0
  -4  -1  -1   45.18    8.59   0
  -5  -1  -1  122.15    8.33   0
   5   1   1  114.92    9.64   0
   5   1   1  125.87    7.60   0
  -5  -1  -1  114.46    8.29   0
  -6  -1  -1   30.53    8.37   0
   6   1   1   16.43    8.56   0
  -6  -1  -1   20.65    7.54   0
   6   1   1   23.16    7.34   0
  -7  -1  -1   73.54    7.37   0
   7   1   1   72.25    7.24   0
  -7  -1  -1   76.52    8.35   0
   7   1   1   73.66    9.43   0
  -8  -1  -1    8.81    8.67   0
   8   1   1    7.05    8.07   0
  -8  -1  -1    5.36    8.28   0
   8   1   1    6.57    7.02   0
   9   1   1   80.30    7.65   0
  -9  -1  -1   73.47    9.79   0
   9   1   1    0.88    8.48   0
  -9  -1  -1   70.29    8.84   0
  10   1   1    4.83   10.38   0
  10   1   1    5.08    8.76   0
 -10  -1  -1    3.94   10.84   0
 -10  -1  -1   -0.17    9.04   0
  11  -2  -1    0.87   12.19   0
 -11   2   1    7.80    7.20   0
  11  -2  -1    8.59    7.32   0
  10  -2  -1   40.24    7.24   0
 -10   2   1   44.11   10.82   0
 -10   2   1   38.28    7.19   0
  10  -2  -1    1.26    9.51   0
   9  -2  -1   19.92   10.02   0
  -9   2   1   20.17    9.60   0
  -9   2   1   32.71    6.77   0
   9  -2  -1   21.35    6.91   0
   8  -2  -1  216.50   11.38   0
  -8   2   1  223.20   10.87   0
  -8   2   1  213.50    7.76   0
   8  -2  -1  216.50    7.69   0
   7  -2  -1   11.55   10.75   0
  -7   2   1    1.66    7.48   0
   7  -2  -1   10.98    5.80   0
  -7   2   1    8.61    9.85   0
   6  -2  -1  914.99    9.20   0
   6  -2  -1  941.49   16.24   0
  -6   2   1  947.85   15.31   0
  -6   2   1  921.87   10.37   0
   5  -2  -1  161.66   10.98   0
  -5   2   1  159.30    6.97   0
   5  -2  -1  155.25    8.13   0
   4  -2  -1  505.32   13.79   0
  -4   2   1  505.72   10.35   0
   4  -2  -1  507.20   10.13   0
   3  -2  -1   13.27    7.91   0
  -3   2   1   10.38    8.47   0
   3  -2  -1   10.55   10.08   0
   1  -2  -1   13.01    9.41   0
  -1   2   1   10.01    9.53   0
   1  -2  -1   14.27   11.51   0
  -1   2   1   12.34    9.86   0
   0  -2  -1  570.40   13.48   0
   0  -2  -1  577.62   15.45   0
   0   2   1  574.37   11.70   0
   0   2   1  592.66   15.81   0
   1   2   1  406.65   11.51   0
   1   2   1  412.00   14.77   0
  -1  -2  -1  407.23   11.98   0
   2   2   1 2342.82   15.31   0
   2   2   1 2352.75   25.87   0
  -2  -2  -1 2345.90   15.63   0
   2   2   1 2375.51   25.30   0
  -3  -2  -1   23.57    6.78   0
   3   2   1   29.65   11.32   0
   3   2   1   29.51    6.33   0
   4   2   1   66.80   11.20   0
   4   2   1   71.67    6.16   0
  -4  -2  -1   59.79    7.74   0
  -4  -2  -1   66.11   10.09   0
  -5  -2  -1    8.32    8.14   0
   5   2   1   12.31    7.39   0
   5   2   1    4.77    9.97   0
  -5  -2  -1    4.79   10.34   0
  -6  -2  -1  772.43   14.37   0
   6   2   1  745.56    9.50   0
   6   2   1  731.29   14.33   0
  -6  -2  -1  747.18    9.99   0
   7   2   1    0.60   10.16   0
  -7  -2  -1    3.74   10.23   0
   7   2   1   -1.14    6.83   0
  -7  -2  -1    4.27    7.20   0
  -8  -2  -1   19.10   11.54   0
  -8  -2  -1   20.53    8.45   0
   8   2   1    2.82   10.15   0
   8   2   1   25.78    8.07   0
   9   2   1    3.50   13.51   0
   9   2   1    9.54    8.48   0
  -9  -2  -1    8.57    7.81   0
 -11   3   1    6.74    7.28   0
  11  -3  -1    0.89    7.43   0
  11  -3  -1    0.46   14.12   0
 -10   3   1   47.86    7.13   0
  10  -3  -1   43.44    7.07   0
  10  -3  -1    2.48   10.02   0
  -9   3   1  168.65    6.15   0
   9  -3  -1  170.98   11.17   0
   9  -3  -1  159.62    7.25   0
   8  -3  -1   19.18   10.35   0
   8  -3  -1   15.37    5.58   0
  -8   3   1   12.14    7.03   0
   7  -3  -1  350.71    8.03   0
   7  -3  -1  360.90   13.06   0
  -7   3   1  338.24    7.20   0
   6  -3  -1   13.38    7.72   0
   6  -3  -1    3.56   10.14   0
  -6   3   1    7.63    7.89   0
  -5   3   1 1798.27   11.68   0
   5  -3  -1 1806.43   12.41   0
   5  -3  -1 1826.41   17.76   0
  -4   3   1    4.41    8.11   0
   4  -3  -1   -1.41    8.37   0
   4  -3  -1    7.84    7.82   0
   3  -3  -1 6686.10   22.71   0
  -3   3   1 6884.33   23.42   0
   2  -3  -1   51.67    9.96   0
   2  -3  -1   56.68    8.28   0
  -2   3   1   60.93   10.54   0
  -1   3   1    8.94   10.21   0
   1  -3  -1   -1.56    9.83   0
   1  -3  -1   -0.55   10.16   0
  -1   3   1    3.22    8.01   0
   0   3   1   61.12    8.46   0
   0  -3  -1   61.31    9.66   0
   0   3   1   52.57    9.09   0
   0  -3  -1   57.59    7.68   0
  -1  -3  -1  554.55   13.99   0
   1   3   1  553.41   14.15   0
  -1  -3  -1  551.82    9.11   0
   1   3   1  557.28    9.96   0
  -2  -3  -1   40.32    6.43   0
   2   3   1   36.10    6.19   0
   2   3   1   39.69   13.42   0
   2   3   1   40.89   12.58   0
   3   3   1   -0.61    7.64   0
   3   3   1    5.09   15.56   0
  -3  -3  -1    6.35    6.63   0
   3   3   1    5.28   15.47   0
  -4  -3  -1    6.95    7.63   0
   4   3   1    6.44    7.04   0
   5   3   1  860.43    8.80   0
  -5  -3  -1  851.46   10.31   0
   6   3   1   11.69    5.65   0
  -6  -3  -1   11.72    7.63   0
  -7  -3  -1    3.00    7.32   0
   7   3   1   16.41    7.02   0
   8   3   1    2.07    7.19   0
  -8  -3  -1   10.93    7.43   0
   9   3   1  145.94    9.84   0
  -9  -3  -1  138.89   10.15   0
 -11   4   1    4.39    7.09   0
  11  -4  -1   16.34    7.11   0
  11  -4  -1   -0.06   15.23   0
  10  -4  -1    0.97   10.39   0
  10  -4  -1  246.54    6.65   0
 -10   4   1  240.99    6.75   0
  -9   4   1   36.65    5.57   0
   9  -4  -1   28.50    6.80   0
   9  -4  -1   36.18   10.74   0
   8  -4  -1  168.73    6.23   0
   8  -4  -1  159.11   10.95   0
  -8   4   1  153.76    7.38   0
  -7   4   1   -4.06    7.32   0
   7  -4  -1   13.70    7.01   0
   7  -4  -1    8.63    9.46   0
  -6   4   1 2797.21   14.06   0
   6  -4  -1 2827.77   13.83   0
   6  -4  -1 2830.48   18.81   0
   5  -4  -1   15.51    6.19   0
  -5   4   1   16.26    6.48   0
   5  -4  -1   12.60    7.29   0
   4  -4  -1   79.79    8.94   0
   4  -4  -1   78.18    6.54   0
  -4   4   1   76.14    7.99   0
  -3   4   1    8.33    6.78   0
   3  -4  -1    7.22    7.74   0
   3  -4  -1   16.60    7.87   0
   2  -4  -1 2348.89   15.26   0
   2  -4  -1 2350.88   14.90   0
  -2   4   1 2366.18   15.52   0
   1  -4  -1    7.57    7.60   0
  -1   4   1   11.48    6.27   0
  -1   4   1   11.74    9.03   0
   1  -4  -1   16.98    7.96   0
   0  -4  -1  472.24    8.21   0
   0   4   1  491.07    9.18   0
   0   4   1  475.77   11.27   0
   0  -4  -1  501.71   11.40   0
  -1  -4  -1   30.76    9.59   0
   1   4   1   35.15    6.48   0
   1   4   1   28.96   10.56   0
  -1  -4  -1   33.57    6.58   0
  -2  -4  -1    6.55    6.67   0
   2   4   1    5.75    6.31   0
   2   4   1    5.10   12.67   0
   2   4   1    6.80   13.77   0
  -3  -4  -1   13.63    6.33   0
   3   4   1   -6.22    7.16   0
  -4  -4  -1  602.46    9.25   0
   4   4   1  627.47    8.67   0
   5   4   1   12.67    7.05   0
  -5  -4  -1   19.86    6.01   0
  -6  -4  -1   21.34    7.30   0
   6   4   1   14.66    6.78   0
   7   4   1    3.24    7.17   0
  -7  -4  -1   -2.59    7.64   0
   8   4   1  283.83    8.95   0
  -8  -4  -1  258.14    9.43   0
 -12   5   1    2.62    7.64   0
  12  -5  -1    0.64    7.63   0
  11  -5  -1  132.24    7.56   0
  11  -5  -1    3.37   12.80   0
 -11   5   1  129.36    7.51   0
  11  -5  -1    2.45   12.77   0
  10  -5  -1    2.42   10.05   0
 -10   5   1   20.52    7.12   0
  10  -5  -1   21.75    5.55   0
  -9   5   1  165.01    7.30   0
   9  -5  -1  159.82   10.49   0
   9  -5  -1  159.59    6.02   0
   8  -5  -1   16.63    9.15   0
   8  -5  -1   26.83    6.82   0
  -8   5   1    2.16    5.64   0
   7  -5  -1  418.82   11.15   0
  -7   5   1  415.59    8.55   0
   7  -5  -1  416.46    7.33   0
  -6   5   1   20.37    6.23   0
   6  -5  -1   14.53    7.40   0
   6  -5  -1   28.68    8.09   0
   6  -5  -1   18.26    7.98   0
   5  -5  -1   37.41    8.61   0
   5  -5  -1   31.08    8.65   0
  -5   5   1   35.27    6.54   0
   5  -5  -1   35.57    7.68   0
  -4   5   1    8.37    6.47   0
   4  -5  -1    9.04    7.42   0
   4  -5  -1   -1.21    6.19   0
   3  -5  -1  454.71    8.89   0
  -3   5   1  465.28    9.18   0
   3  -5  -1  468.59    8.93   0
   2  -5  -1    8.10    7.21   0
   2  -5  -1    9.01    7.30   0
  -2   5   1    7.53    7.50   0
  -1   5   1  540.47    9.15   0
   1  -5  -1  521.09   10.97   0
   1  -5  -1  515.98    8.03   0
  -1   5   1  546.15   11.17   0
   0  -5  -1   39.91    8.01   0
   0   5   1   33.38    7.73   0
   0  -5  -1   35.81    8.82   0
   0   5   1   41.54    8.88   0
  -1  -5  -1  629.37    8.31   0
   1   5   1  647.61    9.21   0
   1   5   1  649.09   14.20   0
  -1  -5  -1  644.51   13.31   0
   2   5   1    1.56   16.06   0
   2   5   1    3.14   15.29   0
   2   5   1    6.05    5.84   0
  -2  -5  -1   -7.65    7.56   0
  -3  -5  -1  223.92    6.87   0
   3   5   1  240.34    7.62   0
   4   5   1    5.36    6.70   0
  -4  -5  -1   11.15    7.18   0
  -5  -5  -1   15.18    7.21   0
   5   5   1   23.55    6.76   0
   6   5   1    8.30    5.67   0
  -6  -5  -1    3.69    7.52   0
  -7  -5  -1  262.59    9.17   0
   7   5   1  317.61    7.56   0
  11  -6  -1    1.38   10.98   0
  11  -6  -1    1.07   10.73   0
 -11   6   1    0.26    5.85   0
  11  -6  -1    0.81    7.11   0
  10  -6  -1    2.34    8.53   0
  10  -6  -1   -2.28    8.72   0
 -10   6   1  145.30    7.38   0
  10  -6  -1  143.89    6.26   0
   9  -6  -1    5.60    8.12   0
   9  -6  -1   -0.32    8.82   0
   9  -6  -1  -11.40    5.72   0
  -9   6   1    7.17    5.71   0
  -8   6   1  955.31    9.50   0
   8  -6  -1  958.60   13.28   0
   8  -6  -1  987.77   12.10   0
   8  -6  -1  931.10    8.40   0
  -7   6   1   27.36    7.35   0
   7  -6  -1   18.08    5.86   0
   7  -6  -1   23.87    6.89   0
   7  -6  -1   20.84    8.23   0
   6  -6  -1   28.64    7.95   0
  -6   6   1   32.56    6.36   0
   6  -6  -1   28.56    6.05   0
   6  -6  -1   23.57    7.99   0
  -5   6   1  205.01    8.23   0
   5  -6  -1  203.05    7.99   0
   5  -6  -1  221.74    7.89   0
   4  -6  -1  928.86    9.92   0
   4  -6  -1  911.82   10.10   0
  -4   6   1  956.30   10.37   0
   3  -6  -1   11.05    7.38   0
  -3   6   1    2.14    7.72   0
   3  -6  -1    9.76    7.28   0
   2  -6  -1   28.64    6.27   0
  -2   6   1   15.35    7.60   0
   2  -6  -1   16.72    7.22   0
  -1   6   1   77.40    7.52   0
   1  -6  -1   77.64    7.72   0
  -1   6   1   73.88    9.05   0
   1  -6  -1   82.33    8.06   0
   0   6   1 1691.63   16.13   0
   0  -6  -1 1624.97   11.42   0
   0   6   1 1760.26   10.71   0
   0  -6  -1 1717.93   15.54   0
   1   6   1   26.64    9.94   0
  -1  -6  -1   25.41    7.62   0
  -1  -6  -1   31.63    9.83   0
   1   6   1   27.36    7.25   0
  -2  -6  -1   81.21    6.35   0
   2   6   1   90.93    7.17   0
  -3  -6  -1   -0.43    5.88   0
   3   6   1   10.76    5.52   0
   4   6   1  307.44    6.69   0
  -4  -6  -1  289.93    7.20   0
  -5  -6  -1    0.79    7.51   0
   5   6   1    1.27    5.66   0
  -6  -6  -1   87.43    8.50   0
   6   6   1   99.27    7.53   0
  11  -7  -1  112.40    7.81   0
  11  -7  -1   -1.49   11.11   0
  11  -7  -1    1.21   10.32   0
 -11   7   1  118.83    6.62   0
  10  -7  -1    1.65    8.20   0
  10  -7  -1   -2.54    6.88   0
 -10   7   1    3.60    5.88   0
  10  -7  -1    0.92    8.67   0
   9  -7  -1  142.55    8.73   0
   9  -7  -1  133.85    8.73   0
  -9   7   1  137.50    6.26   0
   9  -7  -1  126.66    6.11   0
  -8   7   1   10.43    5.63   0
   8  -7  -1   -0.78    7.69   0
   8  -7  -1    0.18    6.59   0
   8  -7  -1    6.18    5.53   0
  -7   7   1   62.14    7.20   0
   7  -7  -1   45.90    7.17   0
   7  -7  -1   59.72    6.88   0
   7  -7  -1   44.81    7.02   0
   6  -7  -1   14.84    5.78   0
   6  -7  -1   11.94    6.82   0
  -6   7   1   23.37    7.34   0
   6  -7  -1    4.79    6.86   0
  -5   7   1  362.36    8.32   0
   5  -7  -1  374.09    8.32   0
   5  -7  -1  355.07    6.97   0
   4  -7  -1   19.69    6.97   0
   4  -7  -1    1.79    6.93   0
  -4   7   1    6.77    6.00   0
   3  -7  -1   43.70    7.11   0
  -3   7   1   53.54    7.65   0
   3  -7  -1   44.58    7.42   0
   2  -7  -1   46.75    7.26   0
  -2   7   1   40.78    7.50   0
   2  -7  -1   45.98    7.35   0
   1  -7  -1  906.10    8.81   0
   1  -7  -1  891.49   11.03   0
  -1   7   1  934.73   11.70   0
   0  -7  -1   12.88    8.34   0
   0   7   1   11.81    5.78   0
   0   7   1   10.04    8.21   0
   0  -7  -1    3.48    6.06   0
   1   7   1    9.49    5.58   0
   1   7   1    2.54   10.07   0
  -1  -7  -1   -3.95    5.82   0
  -2  -7  -1   17.55    7.27   0
   2   7   1   13.10    5.67   0
  -3  -7  -1  813.24    9.53   0
   3   7   1  899.74    8.41   0
  -4  -7  -1    0.40    7.51   0
   4   7   1    2.29    5.74   0
  -5  -7  -1   42.84    7.92   0
   5   7   1   44.56    6.07   0
  11  -8  -1    3.88    6.00   0
  11  -8  -1    4.02    8.93   0
 -11   8   1   -1.38    6.00   0
  11  -8  -1    4.71   10.44   0
  10  -8  -1    1.80    7.77   0
 -10   8   1   10.80    5.92   0
  10  -8  -1   23.66    7.09   0
  10  -8  -1    0.79    7.55   0
  -9   8   1   16.81    7.11   0
   9  -8  -1   17.10    7.93   0
   9  -8  -1   13.77    8.07   0
   9  -8  -1   -0.56    5.75   0
   8  -8  -1  232.78    8.68   0
  -8   8   1  228.89    6.57   0
   8  -8  -1  227.77    7.80   0
   8  -8  -1  236.10    7.48   0
   7  -8  -1    6.48    7.02   0
   7  -8  -1    2.46    7.11   0
  -7   8   1   -1.48    5.80   0
   7  -8  -1   -1.34    6.79   0
  -6   8   1  152.39    6.21   0
   6  -8  -1  135.17    6.21   0
   6  -8  -1  147.59    7.38   0
   5  -8  -1   23.29    5.73   0
   5  -8  -1   13.89    6.67   0
  -5   8   1   29.68    5.71   0
  -4   8   1  398.39    8.36   0
   4  -8  -1  386.14    8.16   0
   4  -8  -1  391.14    6.99   0
   3  -8  -1   31.07    7.22   0
  -3   8   1   15.80    7.26   0
   3  -8  -1   10.45    6.94   0
  -2   8   1  151.15    7.76   0
   2  -8  -1  159.57    8.68   0
   2  -8  -1  145.03    6.22   0
   1  -8  -1   91.78    6.12   0
  -1   8   1  103.18    8.43   0
   1  -8  -1  103.27    8.40   0
   0  -8  -1    6.42    8.23   0
   0  -8  -1   11.44    5.74   0
   0   8   1    2.60    8.00   0
   1   8   1   13.12   10.52   0
  -1  -8  -1    3.14    7.18   0
   2   8   1  488.36    7.29   0
  -2  -8  -1  459.40    7.53   0
   3   8   1   -0.00    7.03   0
  -3  -8  -1   11.88    7.60   0
   4   8   1    8.83    5.88   0
  -4  -8  -1    5.17    6.44   0
  11  -9  -1    0.52    9.44   0
  11  -9  -1    0.96    9.13   0
  11  -9  -1    2.81    6.38   0
 -11   9   1    5.62    6.34   0
  10  -9  -1   13.55    7.29   0
 -10   9   1    3.03    7.38   0
  10  -9  -1   -2.80    7.86   0
  10  -9  -1    6.30    8.27   0
   9  -9  -1  115.50    7.68   0
   9  -9  -1  108.67    6.18   0
  -9   9   1  107.19    7.45   0
   9  -9  -1  119.60    7.75   0
   8  -9  -1   25.10    7.02   0
   8  -9  -1   29.81    7.01   0
   8  -9  -1   12.45    6.87   0
  -8   9   1   26.51    7.03   0
   7  -9  -1   47.05    6.94   0
   7  -9  -1   47.39    6.81   0
  -7   9   1   34.61    7.21   0
   7  -9  -1   44.61    5.76   0
   6  -9  -1    6.11    6.84   0
  -6   9   1   15.58    6.84   0
   6  -9  -1    2.90    5.58   0
  -5   9   1  445.29    8.28   0
   5  -9  -1  427.23    8.16   0
   5  -9  -1  431.35    7.20   0
  -4   9   1    1.18    6.96   0
   4  -9  -1    3.13    5.25   0
   4  -9  -1    4.25    6.88   0
  -3   9   1  189.87    7.69   0
   3  -9  -1  173.79    7.62   0
   3  -9  -1  175.95    6.21   0
   2  -9  -1    9.22    6.93   0
  -2   9   1    8.19    8.09   0
   2  -9  -1    7.05    7.00   0
   1  -9  -1  147.28    6.30   0
  -1   9   1  158.78    8.99   0
   1  -9  -1  149.31    8.82   0
   0  -9  -1    6.99   10.20   0
   0   9   1    6.62    9.71   0
   0  -9  -1   19.39    5.86   0
  -1  -9  -1  331.59    7.11   0
   1   9   1    2.58   14.57   0
  -2  -9  -1    1.35    7.66   0
  -3  -9  -1   -3.18    7.72   0
  10 -10  -1   52.88    6.52   0
  10 -10  -1   -2.20    8.75   0
 -10  10   1   44.65    7.93   0
  10 -10  -1    2.15    7.21   0
   9 -10  -1   -4.38    7.45   0
   9 -10  -1    7.24    7.22   0
   9 -10  -1   -1.54    8.64   0
  -9  10   1   12.49    7.28   0
   8 -10  -1   10.12    5.72   0
   8 -10  -1    3.59    7.15   0
  -8  10   1    4.10    5.88   0
   8 -10  -1    7.01    7.10   0
   7 -10  -1   -1.79    6.83   0
   7 -10  -1    2.79    7.01   0
   7 -10  -1    1.52    6.92   0
  -7  10   1   -0.73    5.70   0
   6 -10  -1  232.28    6.56   0
   6 -10  -1  211.46    7.79   0
  -6  10   1  235.93    6.61   0
   5 -10  -1   20.07    7.06   0
   5 -10  -1   15.92    6.90   0
  -5  10   1   23.54    5.86   0
  -4  10   1    6.29    7.04   0
   4 -10  -1   10.81    5.56   0
   4 -10  -1   14.23    6.89   0
   3 -10  -1   -9.03    6.80   0
   3 -10  -1   -2.26    5.55   0
  -3  10   1    6.20    6.83   0
   2 -10  -1  304.15    8.63   0
  -2  10   1  310.64    8.46   0
   2 -10  -1  312.58    6.86   0
   1 -10  -1    7.04    8.55   0
   1 -10  -1    8.72    7.49   0
  -1  10   1    7.72    8.00   0
   0 -10  -1   35.37    6.28   0
   0  10   1   -2.93    9.97   0
   0 -10  -1   45.34   11.74   0
  -1 -10  -1   -4.39    6.24   0
  -2 -10  -1   13.29    6.89   0
   9 -11  -1   19.12    7.71   0
  -9  11   1   23.50    7.50   0
   9 -11  -1   22.35    6.23   0
   9 -11  -1   25.08    8.65   0
   8 -11  -1   10.68    7.48   0
   8 -11  -1    3.72    7.33   0
  -8  11   1    0.93    6.22   0
   8 -11  -1    9.58    7.38   0
  -7  11   1   33.13    7.39   0
   7 -11  -1   39.75    7.43   0
   7 -11  -1   42.44    7.59   0
   7 -11  -1   42.74    7.49   0
   6 -11  -1   17.25    5.99   0
  -6  11   1   16.86    7.24   0
   6 -11  -1   16.11    7.23   0
   5 -11  -1    9.64    7.25   0
  -5  11   1    9.38    7.17   0
   5 -11  -1    5.45    7.00   0
  -4  11   1    7.20    7.13   0
   4 -11  -1    2.60    7.15   0
   4 -11  -1    0.28    6.00   0
  -3  11   1  333.52    8.81   0
   3 -11  -1  353.66    9.93   0
   3 -11  -1  329.64    7.00   0
   2 -11  -1    5.21    7.46   0
   2 -11  -1    8.45    8.82   0
  -2  11   1    3.72    8.27   0
   1 -11  -1   11.03   10.09   0
  -1  11   1    0.43    8.81   0
   1 -11  -1   -0.97    6.23   0
   0 -11  -1   19.42    7.99   0
   0  11   1    1.15   12.90   0
   7 -12  -1   16.47    7.71   0
   7 -12  -1    6.59    7.64   0
  -7  12   1    3.10    7.72   0
   7 -12  -1   17.37    7.86   0
   6 -12  -1   17.22    7.64   0
  -6  12   1    9.89    7.67   0
   6 -12  -1    7.98    6.13   0
   5 -12  -1   -0.49    7.53   0
  -5  12   1   -0.20    7.48   0
   5 -12  -1    9.87    6.41   0
   4 -12  -1   96.06    8.20   0
   4 -12  -1   84.17    6.51   0
  -4  12   1   94.41    8.13   0
   3 -12  -1    2.62    9.00   0
  -3  12   1    2.36    7.41   0
   3 -12  -1    5.31    7.72   0
   2 -13   2   18.72    6.48   0
  -2  13  -2    5.05    8.29   0
   2 -13   2    9.08    9.26   0
   3 -13   2  118.53    7.91   0
   3 -13   2  100.36    9.58   0
  -3  13  -2   78.91    8.92   0
  -4  13  -2   -1.11    7.55   0
   4 -13   2   -3.18    8.78   0
   4 -13   2   15.96    7.48   0
   5 -13   2   24.74    6.00   0
   5 -13   2   37.18    7.72   0
  -5  13  -2   28.79    7.65   0
   5 -13   2   34.10    6.12   0
  -6  13  -2    2.73    7.48   0
   6 -13   2    5.13    6.13   0
   6 -13   2   -2.67    7.59   0
   6 -13   2    9.81    7.60   0
  -7  13  -2    7.42    7.47   0
   7 -13   2    9.97    7.70   0
   7 -13   2   11.57    6.10   0
   7 -13   2    4.68    7.77   0
   0  12  -2    1.04   13.10   0
   0 -12   2    2.22   15.39   0
   0 -12   2   -2.26    6.31   0
   1 -12   2    4.81    9.85   0
  -1  12  -2    2.40    8.58   0
   1 -12   2    8.07    5.96   0
   2 -12   2   86.68    8.92   0
   2 -12   2   82.75    7.52   0
  -2  12  -2   79.14    8.43   0
  -3  12  -2   -0.07    7.13   0
   3 -12   2    4.67    5.75   0
   3 -12   2    6.51    7.13   0
  -4  12  -2   25.75    7.07   0
   4 -12   2   20.94    7.37   0
   4 -12   2   35.99    6.80   0
  -5  12  -2    0.18    7.09   0
   5 -12   2    0.43    7.15   0
   5 -12   2   -0.83    6.72   0
   5 -12   2    6.77    5.72   0
   6 -12   2  122.07    7.38   0
   6 -12   2   87.96    7.39   0
  -6  12  -2  119.41    7.54   0
   6 -12   2  104.03    6.22   0
  -7  12  -2   -9.29    7.19   0
   7 -12   2   19.76    7.10   0
   7 -12   2   -6.50    5.59   0
   7 -12   2    1.44    7.20   0
  -8  12  -2   81.12    7.40   0
   8 -12   2   80.90    6.35   0
   8 -12   2   83.67    7.77   0
   8 -12   2   65.00    7.57   0
   9 -12   2   -3.45    6.27   0
   9 -12   2   -3.84    7.47   0
   9 -12   2    5.80    7.58   0
  -9  12  -2    6.65    6.06   0
  -2 -11   2    9.91    6.33   0
  -1 -11   2    7.76    7.49   0
   0  11  -2    2.77    9.63   0
   0 -11   2   16.20   11.33   0
   0 -11   2   15.77    5.99   0
   1 -11   2  205.84    7.73   0
  -1  11  -2  211.38    9.30   0
   1 -11   2  219.52   10.42   0
   2 -11   2   84.42    8.55   0
   2 -11   2   89.99    7.19   0
  -2  11  -2   93.48    7.16   0
  -3  11  -2   21.96    7.79   0
   3 -11   2   18.19    6.82   0
   3 -11   2   20.51    7.03   0
   4 -11   2    6.99    6.79   0
  -4  11  -2    0.80    6.65   0
   4 -11   2    0.81    6.87   0
  -5  11  -2  552.54    8.85   0
   5 -11   2  569.82    8.64   0
   5 -11   2  566.26    7.86   0
   5 -11   2  551.11    8.72   0
  -6  11  -2   -1.84    7.01   0
   6 -11   2    1.73    5.67   0
   6 -11   2   -2.37    7.04   0
   6 -11   2   12.17    5.40   0
   7 -11   2   63.09    5.84   0
  -7  11  -2   76.15    7.04   0
   7 -11   2   59.98    7.33   0
   7 -11   2   64.67    6.95   0
   8 -11   2    6.13    6.99   0
  -8  11  -2   -0.30    5.66   0
   8 -11   2   15.27    7.01   0
   8 -11   2   11.21    5.77   0
   9 -11   2   61.57    7.60   0
  -9  11  -2   65.96    7.38   0
   9 -11   2   62.12    7.81   0
   9 -11   2   50.13    6.22   0
  10 -11   2    2.37    6.21   0
  10 -11   2    5.02    7.58   0
  10 -11   2   10.56    7.57   0
 -10  11  -2    1.85    6.21   0
  -3 -10   2    5.64    7.68   0
  -2 -10   2   44.26    7.39   0
  -1 -10   2    0.61    7.13   0
   0  10  -2  178.01   10.55   0
   0 -10   2  164.20    7.51   0
   0 -10   2  179.60   11.18   0
  -1  10  -2   11.24    7.84   0
   1 -10   2   -3.57    5.60   0
   1 -10   2   11.88    7.94   0
   2 -10   2    3.40    7.98   0
   2 -10   2   -0.49    6.68   0
  -2  10  -2   -4.22    6.82   0
  -3  10  -2   16.58    7.55   0
   3 -10   2   29.24    6.91   0
   3 -10   2   28.78    7.09   0
   4 -10   2  531.56    7.55   0
   4 -10   2  538.46    8.08   0
  -4  10  -2  555.06    8.47   0
   5 -10   2   88.86    7.04   0
  -5  10  -2   93.09    6.67   0
   5 -10   2   96.91    6.91   0
   5 -10   2   97.05    6.87   0
  -6  10  -2   41.74    5.69   0
   6 -10   2   38.62    6.80   0
   6 -10   2   38.06    5.28   0
   6 -10   2   33.15    5.83   0
  -7  10  -2   14.89    5.37   0
   7 -10   2   32.38    6.68   0
   7 -10   2    9.00    6.48   0
   7 -10   2   -0.81    6.96   0
  -8  10  -2  353.29    6.91   0
   8 -10   2  371.78    8.35   0
   8 -10   2  364.27    7.06   0
   9 -10   2   12.18    7.22   0
  -9  10  -2   14.69    5.69   0
   9 -10   2   17.60    7.10   0
  10 -10   2   35.21    6.06   0
 -10  10  -2   52.63    7.34   0
  10 -10   2   35.46    7.77   0
  -5  -9   2   -0.89    6.60   0
  -4  -9   2    5.13    7.57   0
  -3  -9   2  163.42    7.85   0
  -2  -9   2    3.36    5.79   0
  -1  -9   2   43.15   14.01   0
   1   9  -2   41.91   12.63   0
  -1  -9   2   40.33    7.10   0
   0   9  -2    1.00    9.59   0
   0  -9   2    5.92    5.58   0
   0  -9   2    8.88    9.23   0
   1  -9   2  229.47    6.29   0
  -1   9  -2  235.77    8.66   0
   1  -9   2  233.92    9.12   0
   2  -9   2   11.22    5.75   0
   2  -9   2    9.09    7.24   0
  -2   9  -2   15.29    6.84   0
  -3   9  -2  668.25    9.20   0
   3  -9   2  671.67    8.67   0
   3  -9   2  663.66    9.69   0
  -4   9  -2   55.67    7.12   0
   4  -9   2   52.92    5.59   0
   4  -9   2   56.57    7.06   0
   5  -9   2   71.07    7.35   0
  -5   9  -2   77.29    5.84   0
   5  -9   2   74.17    5.73   0
   5  -9   2   79.11    7.15   0
  -6   9  -2   13.41    5.51   0
   6  -9   2   16.08    5.24   0
   6  -9   2    5.40    6.98   0
   7  -9   2  504.80    8.45   0
  -7   9  -2  517.54    8.37   0
   7  -9   2  495.09    8.38   0
  -8   9  -2    8.60    6.93   0
   8  -9   2    9.20    7.04   0
   8  -9   2   -1.12    7.02   0
   9  -9   2   16.80    8.06   0
  -9   9  -2    4.85    5.73   0
   9  -9   2    5.82    7.19   0
  10  -9   2   17.70    7.37   0
 -10   9  -2   19.02    7.24   0
  10  -9   2    4.61    7.55   0
  11  -9   2   97.31    7.86   0
  11  -9   2   81.23    9.59   0
 -11   9  -2  134.26    6.60   0
  -6  -8   2    9.53    6.86   0
  -5  -8   2   -1.49    7.48   0
  -4  -8   2  189.98    8.09   0
  -3  -8   2   20.95    7.27   0
  -2  -8   2    9.98    5.71   0
   1   8  -2   10.94   11.37   0
  -1  -8   2   11.13   11.52   0
  -1  -8   2   15.88    5.80   0
   0  -8   2 1434.04   15.62   0
   0   8  -2 1457.45   15.03   0
   0  -8   2 1450.34   10.76   0
   1  -8   2    8.13    7.43   0
   1  -8   2    9.61    7.01   0
  -1   8  -2   -0.95    6.63   0
   2  -8   2  542.65    7.50   0
  -2   8  -2  533.83    9.01   0
   2  -8   2  515.65    9.46   0
   3  -8   2    2.28    5.73   0
  -3   8  -2    4.40    6.95   0
   3  -8   2   -2.78    7.62   0
   4  -8   2  614.52    9.03   0
  -4   8  -2  613.26    8.80   0
   4  -8   2  638.25    7.69   0
   5  -8   2   37.14    7.30   0
   5  -8   2   37.47    6.81   0
  -5   8  -2   38.23    5.62   0
   6  -8   2  290.33    7.84   0
   6  -8   2  274.96    6.71   0
  -6   8  -2  287.99    6.64   0
  -7   8  -2   42.11    5.71   0
   7  -8   2   41.37    6.88   0
   7  -8   2   47.74    6.92   0
   8  -8   2   62.20    7.18   0
  -8   8  -2   53.27    6.91   0
   8  -8   2   54.87    6.97   0
   9  -8   2    3.63    6.93   0
   9  -8   2    5.77    6.98   0
  -9   8  -2    7.99    5.43   0
  10  -8   2  166.83    6.45   0
  10  -8   2  167.21    8.27   0
 -10   8  -2  180.30    6.33   0
  11  -8   2    2.52    7.77   0
  11  -8   2   10.59    7.50   0
 -11   8  -2    8.45    7.35   0
  -7  -7   2   15.21    8.41   0
  -6  -7   2   -0.62    7.95   0
  -5  -7   2  121.20    7.82   0
  -4  -7   2   -0.47    5.87   0
  -3  -7   2   10.19    6.99   0
  -2  -7   2   13.28    6.91   0
  -1  -7   2 1944.20   11.06   0
  -1  -7   2 1930.76   21.37   0
   1   7  -2 1996.74   20.98   0
   0   7  -2   14.43    7.74   0
   0  -7   2   16.35    6.07   0
   0  -7   2   17.82    8.64   0
  -1   7  -2  112.03    7.60   0
   1  -7   2  115.88    9.40   0
   1  -7   2  118.84    7.66   0
   2  -7   2   10.04    7.21   0
  -2   7  -2    8.49    6.85   0
   2  -7   2   10.35    7.67   0
  -3   7  -2 1679.29   11.75   0
   3  -7   2 1677.94   12.24   0
  -4   7  -2    8.03    6.17   0
   4  -7   2   18.94    7.81   0
   4  -7   2   13.35    7.52   0
  -5   7  -2  406.65    8.47   0
   5  -7   2  392.49    8.48   0
   5  -7   2  376.80    8.56   0
   6  -7   2   57.74    6.46   0
  -6   7  -2   68.45    6.22   0
   6  -7   2   56.97    7.56   0
   7  -7   2  227.51    7.82   0
   7  -7   2  215.17    6.52   0
  -7   7  -2  239.36    6.43   0
   8  -7   2   12.82    7.92   0
  -8   7  -2    3.13    5.59   0
   8  -7   2   -6.36    6.91   0
   9  -7   2   56.89    5.77   0
   9  -7   2   68.84    8.17   0
  -9   7  -2   58.93    5.58   0
 -10   7  -2   21.60    6.78   0
  10  -7   2   32.70    5.71   0
  10  -7   2   28.56    8.70   0
  11  -7   2    2.75    8.78   0
  11  -7   2   13.99    5.96   0
 -11   7  -2   25.70    5.92   0
  -7  -6   2   12.29    8.15   0
  -6  -6   2  192.06    8.48   0
  -5  -6   2   24.97    7.51   0
  -4  -6   2   18.25    7.27   0
  -3  -6   2    5.56    7.36   0
  -2  -6   2 1641.84   10.70   0
  -1  -6   2    5.24    6.08   0
   1   6  -2    4.14    9.21   0
  -1  -6   2    2.10   11.17   0
   0  -6   2   26.13    8.87   0
   0   6  -2   19.20    7.67   0
   0  -6   2   22.33    7.67   0
  -1   6  -2   12.18    7.35   0
   1  -6   2   10.71    6.02   0
   1  -6   2   10.88    8.02   0
   2  -6   2 3048.40   15.23   0
  -2   6  -2 3154.34   15.12   0
  -3   6  -2   21.67    5.96   0
   3  -6   2   31.42    7.09   0
   3  -6   2   17.99    6.18   0
  -4   6  -2  166.24    6.80   0
   4  -6   2  177.93    7.19   0
   4  -6   2  165.93    7.87   0
   5  -6   2  290.07    7.87   0
   5  -6   2  288.51    7.22   0
  -5   6  -2  292.26    7.09   0
   6  -6   2  669.73    9.09   0
  -6   6  -2  672.96    7.91   0
   6  -6   2  690.89    9.63   0
   7  -6   2   12.88    8.06   0
  -7   6  -2   20.91    5.96   0
   7  -6   2   18.50    5.95   0
   8  -6   2   20.79    5.59   0
  -8   6  -2    8.01    5.48   0
   8  -6   2   16.31    7.86   0
   9  -6   2    3.58    5.52   0
  -9   6  -2    7.25    6.63   0
   9  -6   2    0.60    8.32   0
 -10   6  -2    8.26    6.85   0
  10  -6   2   18.73    6.93   0
  10  -6   2    7.76    8.67   0
  11  -6   2    5.70    8.69   0
  11  -6   2    1.70    6.07   0
 -11   6  -2   -3.80    7.25   0
  -8  -5   2    6.78    8.07   0
  -7  -5   2   -0.46    7.65   0
  -6  -5   2   11.12    8.61   0
  -5  -5   2 1443.22   12.13   0
  -4  -5   2  131.33    7.98   0
  -3  -5   2  436.73    9.01   0
  -2  -5   2   40.79    6.16   0
  -1  -5   2  279.66   11.63   0
   1   5  -2  287.58   11.80   0
  -1  -5   2  286.42    7.02   0
   0  -5   2  157.42    8.01   0
   0  -5   2  155.39   10.60   0
   0   5  -2  155.46    9.03   0
  -1   5  -2 1149.44   12.07   0
   1  -5   2 1110.53   12.30   0
   2  -5   2   37.98    8.61   0
  -2   5  -2   39.69    8.17   0
   3  -5   2    9.90    7.84   0
   3  -5   2   18.55    7.52   0
  -3   5  -2   14.22    6.27   0
  -4   5  -2   20.58    6.01   0
   4  -5   2   13.18    6.34   0
   4  -5   2   15.13    5.97   0
   5  -5   2 2404.03   13.98   0
  -5   5  -2 2422.51   12.53   0
   5  -5   2 2362.39   13.36   0
  -6   5  -2   -0.60    7.34   0
   6  -5   2    1.08    7.38   0
  -6   5  -2   11.59    6.88   0
   6  -5   2    0.67    6.32   0
  -7   5  -2   10.92    6.59   0
  -7   5  -2    8.60    5.64   0
   7  -5   2    6.45    7.18   0
   7  -5   2    0.24    7.02   0
  -8   5  -2    4.18    6.90   0
  -8   5  -2   11.02    6.78   0
   8  -5   2   15.59    7.21   0
   8  -5   2   10.18    6.97   0
  -9   5  -2  560.22    7.47   0
   9  -5   2  580.27   10.66   0
   9  -5   2  566.19    8.66   0
  -9   5  -2  565.41   10.02   0
  10  -5   2   11.00    7.67   0
 -10   5  -2   14.24    7.00   0
 -10   5  -2   10.80    7.84   0
  10  -5   2   12.19    7.04   0
 -11   5  -2   11.25    8.59   0
  11  -5   2   -1.62    8.56   0
 -11   5  -2   26.67    5.86   0
  11  -5   2   24.62    7.47   0
  -9  -4   2    1.16    9.59   0
  -8  -4   2    5.09    8.76   0
  -7  -4   2    2.68    8.78   0
  -6  -4   2  984.18   11.73   0
  -5  -4   2  126.15    7.79   0
  -4  -4   2  801.83   10.73   0
  -3  -4   2  266.40    8.79   0
  -2  -4   2 1806.00   29.35   0
  -2  -4   2 1837.99   28.64   0
  -2  -4   2 1854.00   13.32   0
  -1  -4   2  330.44    9.44   0
  -1  -4   2  329.20   12.37   0
   1   4  -2  347.00   12.06   0
   0   4  -2 2389.30   18.42   0
   0  -4   2 2344.02   18.74   0
  -1   4  -2  284.94   10.68   0
   1  -4   2  284.67   10.93   0
  -2   4  -2   17.07    9.11   0
   2  -4   2   14.53    9.02   0
   2  -4   2   21.94    9.52   0
   3  -4   2  249.08    7.77   0
   3  -4   2  245.26    7.63   0
  -3   4  -2  250.82    7.63   0
  -3   4  -2  242.57    7.77   0
  -4   4  -2  525.50    8.13   0
   4  -4   2  519.98    9.84   0
   4  -4   2  511.69    8.14   0
  -4   4  -2  519.25    9.60   0
   5  -4   2   36.25    6.42   0
  -5   4  -2   39.78    7.45   0
   5  -4   2   40.68    7.57   0
  -5   4  -2   39.07    7.33   0
   6  -4   2    4.30    7.46   0
   6  -4   2   -2.14    6.22   0
  -6   4  -2    2.54    7.27   0
  -6   4  -2   10.78    6.03   0
   7  -4   2    9.97    5.84   0
   7  -4   2   11.89    7.33   0
  -7   4  -2    1.74    6.76   0
  -7   4  -2    6.94    5.64   0
   8  -4   2 1283.34   12.11   0
  -8   4  -2 1246.04   11.52   0
  -8   4  -2 1258.52   10.25   0
   8  -4   2 1213.67   10.32   0
  -9   4  -2   14.86    6.69   0
   9  -4   2   14.62    7.24   0
  -9   4  -2    4.08    6.75   0
   9  -4   2    8.53    7.02   0
 -10   4  -2   13.26    6.91   0
  10  -4   2    8.89    7.59   0
 -10   4  -2   16.53    6.91   0
  10  -4   2   17.81    6.99   0
 -11   4  -2    5.70    7.18   0
 -11   4  -2   10.00    8.60   0
  11  -4   2   10.75    7.39   0
  11  -4   2    3.77    8.34   0
  -9  -3   2    2.23    8.76   0
  -8  -3   2    0.11   11.65   0
  -8  -3   2   -0.42    8.70   0
   8   3  -2   -1.51   10.80   0
   7   3  -2  746.68   16.75   0
  -7  -3   2  711.63   11.62   0
   7   3  -2  781.66   10.92   0
  -7  -3   2  749.94   16.15   0
   6   3  -2   19.42   11.01   0
  -6  -3   2   20.27    7.83   0
  -6  -3   2   18.60   11.02   0
   6   3  -2   24.39    7.98   0
   5   3  -2   43.23    7.25   0
   5   3  -2   46.61   11.16   0
  -5  -3   2   43.06    8.22   0
  -5  -3   2   49.40   11.51   0
   4   3  -2  206.64   12.35   0
  -4  -3   2  211.43   10.33   0
  -4  -3   2  199.64   12.81   0
   4   3  -2  226.88    9.51   0
  -3  -3   2 2552.35   27.19   0
  -3  -3   2 2592.13   16.53   0
  -3  -3   2 2756.41   27.86   0
  -2  -3   2 1019.42   12.26   0
  -2  -3   2 1051.61   18.61   0
  -2  -3   2  995.90   18.89   0
   1   3  -2  927.01   16.60   0
  -1  -3   2  907.21   13.32   0
  -1  -3   2  911.77   16.60   0
   0   3  -2    7.05    9.93   0
   0  -3   2   11.93   10.35   0
   1  -3   2 1267.07   15.50   0
  -1   3  -2 1273.29   14.11   0
   1  -3   2 1259.08   15.01   0
   2  -3   2  485.21   12.03   0
  -2   3  -2  486.11   10.33   0
   2  -3   2  486.39   10.90   0
  -2   3  -2  503.76   10.88   0
   3  -3   2   -0.27    9.15   0
  -3   3  -2    1.37    7.06   0
   3  -3   2    6.16    9.00   0
  -3   3  -2    0.58    8.81   0
  -4   3  -2  113.65    8.61   0
   4  -3   2  109.73    8.58   0
   4  -3   2  118.24    8.28   0
  -4   3  -2  119.99    6.82   0
  -5   3  -2   19.63    7.35   0
  -5   3  -2   19.07    7.39   0
   5  -3   2   17.03    7.70   0
   5  -3   2   21.40    7.54   0
   6  -3   2   48.43    8.15   0
  -6   3  -2   54.88    8.64   0
   6  -3   2   47.28    7.60   0
  -6   3  -2   47.37    7.30   0
  -7   3  -2 1421.91   10.91   0
   7  -3   2 1405.44   12.32   0
   7  -3   2 1338.51   10.98   0
  -7   3  -2 1413.72   12.40   0
   8  -3   2    5.80    6.63   0
  -8   3  -2    0.74    6.56   0
   8  -3   2    8.55    7.55   0
  -8   3  -2    2.43    8.05   0
  -9   3  -2   57.73    8.13   0
   9  -3   2   56.85    8.58   0
  -9   3  -2   51.93    7.09   0
   9  -3   2   55.91    7.09   0
 -10   3  -2   16.90    8.10   0
  10  -3   2    3.85    7.27   0
  10  -3   2    7.34    8.70   0
 -10   3  -2   10.44    6.97   0
  11  -3   2  102.66    8.11   0
  11  -3   2    2.95    8.49   0
 -11   3  -2  103.98    8.05   0
 -11   3  -2   85.42    9.20   0
 -10  -2   2   98.28   10.74   0
  10   2  -2    1.57   10.58   0
 -10  -2   2  112.08   11.70   0
  -9  -2   2    3.00    9.37   0
  -9  -2   2   -0.24    9.92   0
   9   2  -2    3.63    9.40   0
  -8  -2   2  383.83   11.56   0
  -8  -2   2  383.44   11.02   0
   8   2  -2  385.23   11.37   0
   8   2  -2  412.78   10.14   0
   7   2  -2    1.28    9.07   0
  -7  -2   2    9.65    8.40   0
   7   2  -2   -1.37    8.71   0
  -7  -2   2    6.15    9.02   0
   6   2  -2    3.89    8.42   0
   6   2  -2    9.27    7.99   0
  -6  -2   2    0.50    8.96   0
  -6  -2   2   -4.02    9.43   0
  -5  -2   2   28.16    8.55   0
   5   2  -2   34.66    8.13   0
  -5  -2   2   29.21    9.22   0
   5   2  -2   30.49    9.13   0
   4   2  -2 2240.69   17.02   0
   4   2  -2 2188.53   18.96   0
  -4  -2   2 2099.96   18.45   0
  -4  -2   2 2133.98   16.90   0
   3   2  -2  226.91   10.61   0
  -3  -2   2  215.10    9.12   0
  -3  -2   2  222.89   11.41   0
   2   2  -2  586.80   13.97   0
  -2  -2   2  587.32   12.02   0
  -2  -2   2  574.64   15.08   0
  -1  -2   2    3.19   12.12   0
  -1  -2   2    4.48   11.81   0
   1  -2   2  332.28   11.23   0
  -1   2  -2  328.22   11.24   0
  -1   2  -2  323.06   11.01   0
   1  -2   2  336.73   12.69   0
   2  -2   2 3326.93   19.93   0
  -2   2  -2 3399.29   20.90   0
  -2   2  -2 3349.75   20.11   0
   2  -2   2 3252.47   20.87   0
  -3   2  -2  188.34    8.34   0
  -3   2  -2  192.04    8.64   0
   3  -2   2  193.57    9.90   0
   3  -2   2  190.09   10.50   0
  -4   2  -2 3641.19   17.61   0
   4  -2   2 3626.58   18.83   0
  -4   2  -2 3667.00   17.49   0
   4  -2   2 3591.63   16.59   0
   5  -2   2   13.88    7.16   0
  -5   2  -2    2.29    7.37   0
   5  -2   2   -1.59    8.06   0
  -5   2  -2    4.71    5.72   0
  -6   2  -2  146.85    7.88   0
   6  -2   2  126.34    8.57   0
  -6   2  -2  136.36    7.56   0
   6  -2   2  126.01    7.79   0
   7  -2   2   14.79    7.53   0
   7  -2   2   -4.27    7.06   0
  -7   2  -2    7.26    6.79   0
  -7   2  -2   11.27    6.87   0
   8  -2   2  136.54    8.64   0
  -8   2  -2  124.37    7.40   0
  -8   2  -2  121.68    8.05   0
   8  -2   2  116.47    7.27   0
   9  -2   2    2.34    7.52   0
   9  -2   2   -3.45    6.78   0
  -9   2  -2    5.02    6.92   0
  -9   2  -2    2.15    6.49   0
  10  -2   2  176.59    9.06   0
 -10   2  -2  175.61    8.94   0
  10  -2   2  191.73    9.71   0
 -10   2  -2  188.57    9.30   0
 -11   2  -2   11.48    8.77   0
  11  -2   2    3.23    8.77   0
 -11   2  -2    2.10    7.75   0
  11  -2   2   -4.53    8.64   0
 -10  -1   2    9.55   10.49   0
 -10  -1   2   11.16    9.39   0
  10   1  -2    3.14    8.07   0
  -9  -1   2  128.71   10.18   0
  -9  -1   2  142.09    8.89   0
   9   1  -2  147.51    8.74   0
  -8  -1   2    0.24    9.18   0
   8   1  -2    3.18    8.68   0
   8   1  -2    0.68    7.85   0
  -8  -1   2    2.88    7.92   0
   7   1  -2  195.67    9.90   0
   7   1  -2  185.69    9.02   0
  -7  -1   2  201.40    9.17   0
  -7  -1   2  186.17   10.40   0
   6   1  -2    0.69    8.05   0
   6   1  -2    7.66    8.04   0
  -6  -1   2    1.40    9.84   0
  -6  -1   2    5.33    8.54   0
  -5  -1   2  627.35   13.52   0
   5   1  -2  645.62   11.54   0
  -5  -1   2  641.06   11.79   0
   5   1  -2  666.99   12.71   0
  -4  -1   2   29.93   10.76   0
   4   1  -2   36.56    8.53   0
   4   1  -2   30.17    9.46   0
  -4  -1   2   24.04    8.99   0
  -3  -1   2   49.25    9.82   0
  -3  -1   2   46.52   11.31   0
   3   1  -2   49.33   10.07   0
  -2  -1   2  438.71   16.25   0
   2   1  -2  437.02   13.39   0
  -2  -1   2  427.21   13.24   0
  -1  -1   2  381.74   15.67   0
   1   1  -2  390.54   13.79   0
  -1  -1   2  385.57   13.46   0
   1   1  -2  401.57   15.88   0
   0   1  -2  515.55   14.99   0
   0  -1   2  520.16   15.18   0
   0   1  -2  535.85   14.53   0
   0  -1   2  522.30   14.36   0
  -1   1  -2 4898.31   26.53   0
   1  -1   2 4871.92   26.33   0
  -1   1  -2 4892.93   26.93   0
   1  -1   2 4717.38   25.82   0
   2  -1   2  488.63   13.49   0
  -2   1  -2  511.01   13.01   0
  -2   1  -2  486.77   13.03   0
   2  -1   2  501.61   12.89   0
   3  -1   2 5431.28   22.96   0
  -3   1  -2 5602.42   23.35   0
  -3   1  -2 5485.02   22.95   0
   3  -1   2 5447.91   23.36   0
   4  -1   2    0.84    8.52   0
  -4   1  -2   10.01    7.22   0
  -4   1  -2   -0.13    8.01   0
   4  -1   2    4.28    7.57   0
   5  -1   2  897.26   10.96   0
   5  -1   2  866.38   10.56   0
  -5   1  -2  889.55   10.66   0
  -5   1  -2  908.04   10.56   0
  -6   1  -2    7.90    6.97   0
   6  -1   2   12.75    7.30   0
  -6   1  -2   15.58    7.62   0
   6  -1   2    5.78    9.00   0
  -7   1  -2  345.60    8.34   0
   7  -1   2  346.10    8.72   0
  -7   1  -2  338.30    9.38   0
   7  -1   2  325.82    8.51   0
   8  -1   2    4.36    8.28   0
   8  -1   2   -0.44    7.89   0
  -8   1  -2    5.70    6.77   0
  -8   1  -2    6.86    7.03   0
  -9   1  -2   23.42    8.11   0
   9  -1   2   29.83    7.14   0
   9  -1   2   20.99    7.08   0
  -9   1  -2   24.99    7.95   0
  10  -1   2    3.60    8.24   0
 -10   1  -2    8.60    8.43   0
  10  -1   2    8.84    8.71   0
 -10   1  -2    2.23    7.35   0
  11   0  -2    5.86    8.30   0
 -11   0   2    9.81    8.65   0
 -10   0   2    3.35    8.21   0
 -10   0   2    2.12   12.26   0
  10   0  -2    5.89    8.22   0
  -9   0   2   22.34   10.69   0
   9   0  -2   31.13    8.03   0
  -9   0   2   20.48    7.05   0
   8   0  -2  639.16   10.14   0
  -8   0   2  617.28   13.61   0
  -8   0   2  624.47   10.10   0
   8   0  -2  642.72   14.09   0
  -7   0   2   20.70   10.66   0
  -7   0   2   29.07    8.24   0
   7   0  -2   13.33    7.80   0
   7   0  -2   22.13    9.81   0
  -6   0   2  347.19    9.12   0
  -6   0   2  367.76   14.14   0
   6   0  -2  370.38   13.33   0
   6   0  -2  356.04    8.86   0
  -5   0   2    4.77   11.16   0
  -5   0   2   -0.74    7.83   0
   5   0  -2    3.87   11.26   0
   5   0  -2   -4.59    7.34   0
  -4   0   2   48.02    8.52   0
  -4   0   2   47.55   16.89   0
   4   0  -2   46.39    8.01   0
   3   0  -2  271.59   10.98   0
  -3   0   2  269.09   11.17   0
  -2   0   2   41.65   23.36   0
   2   0  -2   39.90   20.32   0
   2   0  -2   40.26   11.67   0
  -2   0   2   43.59   11.86   0
   1   0  -2    3.21   11.89   0
  -1   0   2    4.98   11.99   0
   1   0  -2    5.89   14.23   0
  -1   0   2   10.78   14.40   0
   0   0   2   72.87   12.08   0
   0   0   2   71.09   11.09   0
   0   0  -2   71.35    9.76   0
   0   0  -2   69.24   13.09   0
   1   0   2    4.67   10.46   0
  -1   0  -2    0.60   10.92   0
  -1   0  -2    5.48   12.63   0
   1   0   2    8.93   10.87   0
  -2   0  -2 8687.87   29.41   0
   2   0   2 8569.70   28.69   0
  -3   0  -2   81.57    7.77   0
  -3   0  -2   76.01    9.10   0
   3   0   2   75.02    9.02   0
   3   0   2   88.01    9.43   0
  -4   0  -2   29.33    8.66   0
  -4   0  -2   29.91    7.88   0
   4   0   2   35.97    8.84   0
   4   0   2   40.02    8.11   0
  -5   0  -2    4.06    7.18   0
  -5   0  -2    5.07    7.23   0
   5   0   2   -1.68    8.53   0
   5   0   2    3.45    7.68   0
   6   0   2 1255.12   11.58   0
   6   0   2 1209.09   12.83   0
  -6   0  -2 1217.09   11.35   0
  -6   0  -2 1248.90   12.58   0
  -7   0  -2   43.13    6.88   0
   7   0   2   42.59    7.14   0
  -7   0  -2   35.49    7.24   0
   7   0   2   43.95    7.94   0
  -8   0  -2    5.67    6.91   0
   8   0   2   14.16    6.99   0
   8   0   2    9.21    8.07   0
  -8   0  -2    5.53    7.72   0
  -9   0  -2    7.41    7.41   0
  -9   0  -2    4.91    8.14   0
   9   0   2    8.49    7.29   0
   9   0   2    2.01    8.93   0
 -10   0  -2   97.17   10.36   0
  10   0   2    4.83    8.19   0
 -10   0  -2   73.38    8.19   0
  10   0   2   78.09    8.29   0
  11  -1  -2   11.47    8.94   0
 -11   1   2    6.16    7.51   0
  10  -1  -2   -1.45    7.32   0
 -10   1   2    4.60    7.24   0
  -9   1   2  445.68    8.57   0
   9  -1  -2  450.68    8.59   0
   8  -1  -2    1.38   12.60   0
   8  -1  -2   10.49    6.74   0
  -8   1   2   -4.35    6.88   0
  -8   1   2    2.99   12.51   0
  -7   1   2   31.72   13.17   0
  -7   1   2   29.77    7.45   0
   7  -1  -2   29.54   13.26   0
   7  -1  -2   29.93    7.32   0
  -6   1   2   15.20    7.34   0
   6  -1  -2    1.53    7.00   0
   6  -1  -2    2.26   14.95   0
   5  -1  -2 2154.05   13.55   0
  -5   1   2 2157.31   13.83   0
   4  -1  -2   29.77    8.19   0
  -4   1   2   25.68    7.26   0
   3  -1  -2    5.50   16.92   0
   3  -1  -2    7.41    9.72   0
  -3   1   2    3.34    8.28   0
   2  -1  -2   22.95    8.94   0
   2  -1  -2   27.30   13.33   0
  -2   1   2   26.98   12.63   0
  -2   1   2   18.14   11.20   0
   1  -1  -2 2808.19   23.26   0
   1  -1  -2 2847.31   20.77   0
  -1   1   2 2771.88   19.56   0
  -1   1   2 2813.75   23.09   0
   0   1   2   13.60   11.61   0
   0   1   2    3.57   10.18   0
   0  -1  -2   13.73   11.29   0
   0  -1  -2   19.71   10.05   0
   1   1   2 4920.87   23.16   0
   1   1   2 4754.43   26.39   0
   1   1   2 5020.74   26.75   0
  -1  -1  -2 4898.06   22.15   0
  -2  -1  -2   35.29    7.80   0
   2   1   2   28.22    9.19   0
   2   1   2   33.55    8.44   0
  -3  -1  -2  110.76    7.19   0
  -3  -1  -2  115.88    8.92   0
   3   1   2  111.19    9.62   0
   3   1   2  107.07    7.10   0
  -4  -1  -2    7.89    9.00   0
  -4  -1  -2    3.04    7.74   0
   4   1   2    4.49    9.29   0
   4   1   2    6.03    7.75   0
   5   1   2 1006.87   13.60   0
  -5  -1  -2 1016.64   11.23   0
   5   1   2 1013.13    9.97   0
  -5  -1  -2 1047.53   13.02   0
  -6  -1  -2   12.08    7.73   0
  -6  -1  -2   14.30    8.77   0
   6   1   2   27.74    7.32   0
   6   1   2   14.65    8.00   0
  -7  -1  -2   -0.27    7.06   0
   7   1   2   -3.61    6.90   0
   7   1   2    2.83    9.01   0
  -7  -1  -2    3.07    7.94   0
  -8  -1  -2   31.62    8.52   0
   8   1   2   22.50    8.90   0
   8   1   2   36.46    7.22   0
  -8  -1  -2   38.53    9.15   0
   9   1   2   -1.15    8.93   0
   9   1   2  162.00    8.29   0
  -9  -1  -2  168.26   11.58   0
  -9  -1  -2  169.35    8.51   0
 -11   2   2   12.95    7.36   0
  11  -2  -2   33.58    7.47   0
 -10   2   2  160.85    7.64   0
  10  -2  -2  154.99    7.70   0
  -9   2   2    9.04    6.75   0
   9  -2  -2    9.80    6.75   0
  -8   2   2   30.81    7.11   0
   8  -2  -2   39.24    6.85   0
   7  -2  -2   28.16    7.11   0
  -7   2   2   30.03    7.37   0
   7  -2  -2   29.02   17.25   0
   6  -2  -2  999.33   25.34   0
   6  -2  -2  991.97   10.23   0
  -6   2   2 1001.26    9.53   0
   5  -2  -2   39.42   12.56   0
   5  -2  -2   34.17    7.37   0
  -5   2   2   45.37    6.41   0
   5  -2  -2   40.03   13.18   0
   4  -2  -2  727.56   16.86   0
   4  -2  -2  722.07    9.08   0
   4  -2  -2  745.13   16.06   0
  -4   2   2  736.34   10.46   0
  -3   2   2   63.15    9.24   0
   3  -2  -2   65.65    7.38   0
   3  -2  -2   63.47    9.66   0
   2  -2  -2 4869.74   25.12   0
  -2   2   2 4723.81   20.85   0
  -2   2   2 4994.29   25.55   0
   2  -2  -2 4914.21   22.05   0
   1  -2  -2   19.47   10.61   0
  -1   2   2   10.21   10.92   0
  -1   2   2   13.75    8.93   0
   1  -2  -2   21.30   11.09   0
   0   2   2  934.23   13.62   0
   0  -2  -2  930.56   13.41   0
   0   2   2  924.25   13.09   0
   0  -2  -2  913.54   11.80   0
   1   2   2   -0.72    7.04   0
   1   2   2    0.23    8.54   0
   1   2   2    4.98    8.30   0
  -1  -2  -2    1.63    7.11   0
   2   2   2  949.22   14.08   0
   2   2   2  936.96   14.59   0
   2   2   2  926.31    9.91   0
  -2  -2  -2  916.17   10.04   0
  -3  -2  -2   34.88    7.08   0
   3   2   2   32.10    8.80   0
   3   2   2   38.10    8.05   0
   3   2   2   31.35    8.91   0
  -4  -2  -2  328.46    9.11   0
   4   2   2  323.97   11.08   0
   4   2   2  323.17    8.46   0
   4   2   2  322.41   11.69   0
   5   2   2    9.86    7.18   0
   5   2   2    4.02    9.27   0
  -5  -2  -2   12.08    7.70   0
   6   2   2  146.97    7.29   0
  -6  -2  -2  143.38    7.53   0
   6   2   2  135.38   10.66   0
   7   2   2   23.23   10.89   0
   7   2   2   34.30    5.96   0
  -7  -2  -2   37.77    5.95   0
   8   2   2    3.41   11.41   0
  -8  -2  -2  224.97    8.45   0
   8   2   2    2.97   10.61   0
   8   2   2  229.72    8.12   0
   9   2   2   13.06    7.72   0
  -9  -2  -2    7.32    9.21   0
  11  -3  -2   90.70    7.74   0
 -11   3   2  100.43    7.57   0
  10  -3  -2    9.61    6.80   0
 -10   3   2    9.52    6.96   0
   9  -3  -2    9.51    5.57   0
  -9   3   2    9.41    7.06   0
   8  -3  -2    7.10    6.76   0
  -8   3   2   15.78    6.88   0
   8  -3  -2    6.57   15.52   0
   8  -3  -2    7.09   16.54   0
  -7   3   2  664.36    9.21   0
   7  -3  -2  697.77   17.20   0
   7  -3  -2  674.42   18.80   0
   7  -3  -2  670.74    7.90   0
   6  -3  -2    2.65   10.60   0
   6  -3  -2    4.36    7.56   0
   6  -3  -2   -0.67   10.37   0
  -6   3   2    2.25    7.91   0
   5  -3  -2   12.91    6.03   0
   5  -3  -2   14.93    8.76   0
  -5   3   2   12.13    7.94   0
   5  -3  -2   12.65    9.02   0
  -4   3   2    1.27    6.46   0
   4  -3  -2    6.36    7.49   0
   4  -3  -2   -0.39    8.28   0
  -3   3   2 9999.99   26.15   0
   2  -3  -2   11.50    8.83   0
  -2   3   2    9.45    7.04   0
  -2   3   2    2.53    7.22   0
   2  -3  -2    5.62    8.54   0
   1  -3  -2  301.12    9.66   0
  -1   3   2  311.56    9.86   0
  -1   3   2  312.77    9.65   0
   1  -3  -2  302.02    9.70   0
   0   3   2  105.87    7.00   0
   0  -3  -2  101.90    8.17   0
   0  -3  -2  100.63    7.19   0
   0   3   2  104.71    9.39   0
   1   3   2  941.90   13.63   0
   1   3   2  939.52    9.68   0
  -1  -3  -2  937.84    9.74   0
   2   3   2   77.79    9.68   0
   2   3   2   79.71    9.11   0
  -2  -3  -2   69.17    8.51   0
   2   3   2   68.78    6.65   0
   3   3   2   14.59    6.28   0
   3   3   2    5.96   10.68   0
  -3  -3  -2   10.54    6.81   0
   3   3   2    6.49   10.90   0
   4   3   2    0.89   10.99   0
   4   3   2    4.28   12.03   0
   4   3   2    4.61    7.07   0
  -4  -3  -2   -0.15    6.14   0
   5   3   2  242.12   16.21   0
  -5  -3  -2  243.90    7.03   0
   5   3   2  234.23   15.85   0
   5   3   2  250.31    7.61   0
  -6  -3  -2    9.56    7.36   0
   6   3   2    9.56    6.89   0
   7   3   2   75.12    7.24   0
  -7  -3  -2   74.15    7.54   0
  -8  -3  -2    5.01    7.62   0
   8   3   2   21.87    7.40   0
  11  -4  -2   -3.70    7.28   0
 -11   4   2    8.39    7.25   0
 -10   4   2  226.69    7.65   0
  10  -4  -2  219.50    6.51   0
   9  -4  -2    4.49   15.68   0
   9  -4  -2   14.24    5.32   0
  -9   4   2    2.37    6.92   0
   9  -4  -2    3.39   16.05   0
   8  -4  -2   23.92    6.78   0
  -8   4   2    7.38    7.01   0
   8  -4  -2    7.51   11.81   0
   8  -4  -2    5.94   10.92   0
  -7   4   2  136.15    6.51   0
   7  -4  -2  136.43   10.75   0
   7  -4  -2  132.79   10.56   0
   7  -4  -2  119.97    7.46   0
   6  -4  -2  282.90    9.63   0
  -6   4   2  267.93    8.64   0
   6  -4  -2  292.48   10.45   0
   6  -4  -2  280.65    8.31   0
  -5   4   2    1.34    8.01   0
   5  -4  -2    3.44    8.15   0
   5  -4  -2   -0.88    6.23   0
  -4   4   2 1396.79   11.59   0
   4  -4  -2 1429.76   13.24   0
   4  -4  -2 1385.40   10.28   0
   3  -4  -2   10.51    7.58   0
  -3   4   2   13.27    7.50   0
   3  -4  -2    8.05    7.30   0
  -2   4   2   29.36    7.61   0
  -2   4   2   29.50    7.91   0
   2  -4  -2   34.96    7.81   0
   2  -4  -2   27.07    7.76   0
   1  -4  -2   21.90    7.69   0
  -1   4   2   25.92    6.15   0
  -1   4   2   25.79    7.81   0
   1  -4  -2   26.91    7.75   0
   0   4   2 2243.81   12.56   0
   0  -4  -2 2236.30   16.96   0
   0   4   2 2204.77   16.18   0
   0  -4  -2 2187.81   13.56   0
  -1  -4  -2    4.10    9.02   0
   1   4   2    5.34    7.79   0
   1   4   2    4.80    8.34   0
  -1  -4  -2   12.58    8.04   0
   2   4   2   16.79    9.61   0
   2   4   2   13.33    6.14   0
  -2  -4  -2   14.30    6.48   0
   2   4   2   16.24   10.42   0
   3   4   2    9.72    5.74   0
   3   4   2    8.31   12.63   0
  -3  -4  -2   -2.63    6.39   0
   3   4   2    7.41   12.04   0
  -4  -4  -2  490.87    7.82   0
   4   4   2  542.91    8.72   0
  -5  -4  -2   12.32    7.40   0
   5   4   2    5.14    5.60   0
  -6  -4  -2   -2.22    7.33   0
   6   4   2    9.83    6.85   0
  -7  -4  -2   17.13    7.74   0
   7   4   2   -1.47    5.77   0
 -11   5   2  159.46    7.94   0
  11  -5  -2  145.47    7.93   0
  10  -5  -2   11.78    6.95   0
 -10   5   2   14.67    5.66   0
  -9   5   2  117.70    6.18   0
   9  -5  -2  119.22    7.19   0
   9  -5  -2  112.53   12.41   0
   9  -5  -2  117.13   11.15   0
   8  -5  -2    7.91   10.17   0
   8  -5  -2    6.64    9.88   0
  -8   5   2   13.28    5.82   0
   8  -5  -2    2.48    6.82   0
   7  -5  -2  878.39   13.12   0
  -7   5   2  876.32    9.74   0
   7  -5  -2  881.21   13.15   0
   7  -5  -2  865.33    8.35   0
  -6   5   2   -1.21    7.14   0
   6  -5  -2    7.84    5.76   0
   6  -5  -2   10.58    8.01   0
   6  -5  -2   -1.23    8.16   0
   5  -5  -2  561.68    9.75   0
  -5   5   2  586.82    9.46   0
   5  -5  -2  566.15    7.96   0
  -4   5   2   48.91    6.69   0
   4  -5  -2   40.84    7.68   0
   4  -5  -2   44.16    7.80   0
  -3   5   2   89.05    6.57   0
   3  -5  -2   90.54    7.38   0
   3  -5  -2   84.84    6.20   0
   2  -5  -2  209.58    8.04   0
   2  -5  -2  215.28    7.15   0
  -2   5   2  226.43    6.82   0
  -2   5   2  215.95    8.34   0
  -1   5   2  665.93    8.39   0
   1  -5  -2  640.54   11.42   0
   1  -5  -2  627.77    9.65   0
  -1   5   2  639.13   10.48   0
   0   5   2   17.79    7.41   0
   0  -5  -2   20.03    8.64   0
   0   5   2   13.72    8.58   0
   0  -5  -2   26.38    6.38   0
   1   5   2  216.93    7.81   0
  -1  -5  -2  205.08    8.07   0
   1   5   2  203.84   10.65   0
  -1  -5  -2  201.73    9.44   0
   2   5   2    5.06   10.57   0
   2   5   2    1.30    9.99   0
   2   5   2  -10.79    7.31   0
  -2  -5  -2    4.85    7.86   0
  -3  -5  -2  625.24    8.15   0
   3   5   2  672.88    8.87   0
  -4  -5  -2    6.94    7.12   0
   4   5   2    4.58    5.48   0
  -5  -5  -2   26.25    7.42   0
   5   5   2   29.67    5.79   0
   6   5   2   -2.94    7.06   0
  -6  -5  -2    0.76    7.58   0
  -7  -5  -2  177.55    8.87   0
   7   5   2  186.43    8.48   0
 -11   6   2   12.49    7.58   0
  11  -6  -2    1.70    5.99   0
 -10   6   2   -1.68    7.03   0
  10  -6  -2   -1.13   10.01   0
  10  -6  -2    1.81   10.57   0
  10  -6  -2    5.41    5.63   0
   9  -6  -2    2.19    9.15   0
   9  -6  -2    4.39    9.78   0
  -9   6   2   10.21    5.49   0
   9  -6  -2    6.34    6.80   0
   8  -6  -2  800.36   12.71   0
  -8   6   2  798.36    9.34   0
   8  -6  -2  803.92   12.77   0
   8  -6  -2  768.71    8.09   0
  -7   6   2   15.61    7.32   0
   7  -6  -2   12.63    6.87   0
   7  -6  -2    7.54    6.73   0
   7  -6  -2    2.88    8.02   0
   6  -6  -2   44.45    8.27   0
  -6   6   2   47.29    6.44   0
   6  -6  -2   50.78    6.10   0
   5  -6  -2   41.72    7.38   0
  -5   6   2   42.89    7.52   0
   5  -6  -2   50.02    7.19   0
   4  -6  -2  349.98    8.46   0
   4  -6  -2  337.54    8.10   0
  -4   6   2  351.56    7.25   0
   3  -6  -2   64.34    7.45   0
  -3   6   2   58.65    7.71   0
   3  -6  -2   62.21    7.44   0
   2  -6  -2   76.23    7.79   0
   2  -6  -2   84.70    7.73   0
  -2   6   2   78.13    6.23   0
  -2   6   2   84.23    7.98   0
   1  -6  -2  108.72    7.89   0
  -1   6   2  103.40    8.11   0
  -1   6   2  104.57    7.54   0
   1  -6  -2  103.87    7.82   0
   0  -6  -2  245.95    9.75   0
   0   6   2  248.07    6.77   0
   0   6   2  235.22    9.70   0
   0  -6  -2  227.39    8.33   0
   1   6   2    8.66    8.97   0
   1   6   2    2.75    5.81   0
  -1  -6  -2   -7.06    6.04   0
   2   6   2  476.18   15.10   0
   2   6   2  482.81    7.37   0
   2   6   2  476.66   16.11   0
  -2  -6  -2  455.57    7.42   0
  -3  -6  -2    0.83    7.34   0
   3   6   2    6.32    5.63   0
  -4  -6  -2   19.20    7.07   0
   4   6   2   13.61    6.79   0
  -5  -6  -2    4.30    6.25   0
   5   6   2    5.79    7.26   0
  -6  -6  -2  141.60    9.21   0
   6   6   2  190.98    8.76   0
 -11   7   2   11.78    6.02   0
  11  -7  -2   -0.50   12.20   0
  11  -7  -2    1.44   13.61   0
  11  -7  -2   11.35    5.99   0
  10  -7  -2   -0.55    7.04   0
 -10   7   2   11.45    7.19   0
  10  -7  -2   -0.63    9.16   0
  10  -7  -2    2.20    9.53   0
   9  -7  -2  337.69   10.17   0
   9  -7  -2  341.62   10.90   0
  -9   7   2  354.71    8.04   0
   9  -7  -2  336.40    7.81   0
   8  -7  -2   16.41    7.80   0
   8  -7  -2   14.27    7.98   0
   8  -7  -2   11.94    5.64   0
  -8   7   2   20.17    6.95   0
  -7   7   2   33.92    7.12   0
   7  -7  -2   17.55    7.34   0
   7  -7  -2   15.41    5.56   0
   7  -7  -2   26.27    7.74   0
  -6   7   2    4.84    5.81   0
   6  -7  -2    6.14    6.91   0
   6  -7  -2    8.33    5.70   0
  -5   7   2  435.83    7.49   0
   5  -7  -2  403.05    8.20   0
   5  -7  -2  413.57    8.60   0
   4  -7  -2   -1.50    6.97   0
  -4   7   2   10.51    7.17   0
   4  -7  -2    5.60    6.75   0
   3  -7  -2   11.69    6.85   0
  -3   7   2   14.65    7.35   0
   3  -7  -2   10.95    7.14   0
   2  -7  -2  109.52    7.38   0
   2  -7  -2  104.33    6.49   0
  -2   7   2  107.57    7.54   0
  -1   7   2  218.28    6.47   0
  -1   7   2  202.33    9.26   0
   1  -7  -2  220.65    7.95   0
   1  -7  -2  202.78    9.27   0
   0   7   2    5.56    6.81   0
   0   7   2    3.55    8.05   0
   0  -7  -2    6.53    7.03   0
   0  -7  -2    7.06    8.15   0
  -1  -7  -2   15.58    7.21   0
   1   7   2   22.11    5.67   0
   1   7   2   18.80    9.90   0
   2   7   2   11.69    6.99   0
  -2  -7  -2   18.70    7.33   0
   3   7   2   99.33    7.05   0
  -3  -7  -2   90.93    6.49   0
  -4  -7  -2    5.44    7.72   0
   4   7   2    1.71    5.88   0
   5   7   2  172.22    7.04   0
  -5  -7  -2  159.08    7.54   0
  11  -8  -2   -0.25   10.77   0
 -11   8   2    8.31    6.29   0
  11  -8  -2   10.59    7.48   0
  11  -8  -2    5.15   11.25   0
  10  -8  -2    1.49    8.68   0
  10  -8  -2   38.34    7.41   0
  10  -8  -2    1.34    8.76   0
 -10   8   2   40.38    6.20   0
  -9   8   2    8.40    7.33   0
   9  -8  -2    4.73    7.23   0
   9  -8  -2    8.56    8.13   0
   9  -8  -2    4.13    8.06   0
   8  -8  -2   12.67    6.66   0
   8  -8  -2    3.89    6.78   0
  -8   8   2   17.97    7.00   0
   8  -8  -2   10.31    6.78   0
   7  -8  -2   26.82    7.98   0
  -7   8   2   27.38    7.01   0
   7  -8  -2   20.78    7.79   0
   7  -8  -2   32.27    5.84   0
  -6   8   2  536.86    8.42   0
   6  -8  -2  545.39    8.91   0
   6  -8  -2  541.02    7.45   0
   5  -8  -2   -4.75    6.61   0
  -5   8   2    6.02    5.75   0
   5  -8  -2   -1.93    6.74   0
   4  -8  -2   20.36    6.96   0
   4  -8  -2   18.91    6.95   0
  -4   8   2   22.53    7.21   0
   3  -8  -2   42.70    6.81   0
   3  -8  -2   30.64    7.07   0
  -3   8   2   32.67    5.85   0
   2  -8  -2  779.17   10.79   0
  -2   8   2  763.80    9.80   0
   2  -8  -2  719.01    8.85   0
   1  -8  -2   10.37    8.01   0
  -1   8   2   16.57    8.05   0
   1  -8  -2    4.29    5.81   0
   0   8   2   13.71    6.89   0
   0   8   2    6.73    9.04   0
   0  -8  -2    5.50    8.23   0
   0  -8  -2   20.62    7.09   0
   1   8   2    2.99   10.12   0
   1   8   2   -0.24    9.25   0
   1   8   2    1.48    5.77   0
  -1  -8  -2   10.19    7.13   0
   2   8   2  256.78    7.87   0
  -2  -8  -2  210.93    8.28   0
   3   8   2   -1.03    7.17   0
  -3  -8  -2   -6.53    7.63   0
   4   8   2   56.28    6.99   0
  -4  -8  -2   59.93    7.32   0
 -10   9   2   15.05    6.20   0
  10  -9  -2    4.99    8.09   0
  10  -9  -2    5.81    7.45   0
  10  -9  -2   -0.67    8.22   0
  -9   9   2    6.70    7.35   0
   9  -9  -2    5.62    8.36   0
   9  -9  -2   10.87    8.53   0
   9  -9  -2   -2.03    5.91   0
  -8   9   2    2.71    7.11   0
   8  -9  -2    3.43    7.00   0
   8  -9  -2    0.70    7.17   0
   8  -9  -2  -14.76    7.00   0
  -7   9   2   92.30    7.09   0
   7  -9  -2   80.56    7.34   0
   7  -9  -2   87.76    6.02   0
   6  -9  -2    7.71    6.89   0
  -6   9   2   16.68    7.21   0
   6  -9  -2   13.45    5.66   0
  -5   9   2   91.18    7.32   0
   5  -9  -2   99.60    7.08   0
   5  -9  -2   88.45    7.00   0
   4  -9  -2    4.67    6.70   0
  -4   9   2    7.81    6.95   0
   4  -9  -2    9.22    5.65   0
   3  -9  -2  247.92    7.96   0
   3  -9  -2  244.53    7.77   0
  -3   9   2  254.59    7.98   0
   2  -9  -2   -5.77    7.13   0
   2  -9  -2    3.91    8.26   0
  -2   9   2    9.12    7.08   0
   1  -9  -2   -7.05    8.16   0
  -1   9   2    2.80    8.01   0
   1  -9  -2   -4.05    5.92   0
   0  -9  -2    7.55    9.21   0
   0   9   2    1.06    8.23   0
   0  -9  -2   11.32    7.27   0
  -1  -9  -2  345.11    7.45   0
   1   9   2    3.16   12.44   0
   1   9   2    2.60   12.06   0
  -2  -9  -2   -2.42    6.41   0
   9 -10  -2    6.86    8.67   0
   9 -10  -2    5.72    8.76   0
  -9  10   2    1.57    7.51   0
   9 -10  -2    6.72    6.01   0
   8 -10  -2    5.27    7.29   0
  -8  10   2    8.68    7.30   0
   8 -10  -2    9.98    7.16   0
   8 -10  -2    0.07    8.70   0
  -7  10   2    3.07    7.15   0
   7 -10  -2    1.36    7.04   0
   7 -10  -2    9.27    7.24   0
   6 -10  -2  103.68    7.35   0
  -6  10   2   90.59    7.58   0
   6 -10  -2   96.69    7.54   0
   5 -10  -2    2.95    6.87   0
   5 -10  -2   11.43    7.09   0
  -5  10   2    0.25    7.10   0
   4 -10  -2   93.90    7.32   0
  -4  10   2   81.01    7.61   0
   4 -10  -2   98.56    7.51   0
   3 -10  -2   17.58    8.20   0
  -3  10   2   12.71    8.32   0
   3 -10  -2   18.25    5.87   0
  -2  10   2   32.47    7.42   0
   2 -10  -2   33.61    7.30   0
   2 -10  -2   28.60    8.60   0
   1 -10  -2   11.98    9.50   0
  -1  10   2    1.84    8.45   0
   1 -10  -2   15.17    7.69   0
   0  10   2   -0.24    9.65   0
   0 -10  -2  155.67    6.90   0
  -1 -10  -2    6.39    8.02   0
   8 -11  -2    1.92    7.55   0
  -8  11   2   12.39    6.15   0
   8 -11  -2    1.56    7.71   0
   8 -11  -2   -2.52    6.28   0
   7 -11  -2   72.43    7.69   0
  -7  11   2   88.83    7.96   0
   7 -11  -2   93.11    8.07   0
   6 -11  -2    6.24    7.30   0
   6 -11  -2   -1.32    7.34   0
  -6  11   2    5.68    7.35   0
  -5  11   2    2.99    7.50   0
   5 -11  -2    1.53    6.09   0
   5 -11  -2    0.42    6.05   0
   4 -11  -2   14.60    7.41   0
  -4  11   2    6.19    7.44   0
   4 -11  -2    8.83    6.07   0
   3 -11  -2   89.11    7.98   0
  -3  11   2   93.44    7.91   0
   3 -11  -2   75.94    7.91   0
   2 -11  -2   -0.43    9.01   0
   2 -11  -2   13.72    6.17   0
  -2  11   2   -0.11    8.04   0
  -1  11   2    1.68    9.55   0
   1 -11  -2   90.93   10.94   0
   1 -11  -2   88.40    7.08   0
   1 -13   3   84.64    6.86   0
  -1  13  -3    2.78    9.22   0
   1 -13   3   77.48   11.89   0
  -2  13  -3    5.74    8.05   0
   2 -13   3   11.14    9.03   0
   2 -13   3    2.97    6.28   0
  -3  13  -3   24.36    7.40   0
   3 -13   3   26.18    6.14   0
   3 -13   3   29.36    7.63   0
   4 -13   3    5.96    7.21   0
   4 -13   3   10.09    5.83   0
   4 -13   3   12.17    7.49   0
  -4  13  -3    4.57    7.36   0
  -5  13  -3  137.78    7.82   0
   5 -13   3  140.81    7.66   0
   5 -13   3  124.26    7.68   0
   5 -13   3  137.71    8.10   0
   6 -13   3    4.59    5.92   0
  -6  13  -3   -2.96    7.19   0
   6 -13   3    5.27    7.10   0
   6 -13   3    5.63    7.54   0
   7 -13   3    4.21    7.15   0
  -7  13  -3   -1.67    7.54   0
   7 -13   3    5.64    7.41   0
   7 -13   3   17.56    7.56   0
   8 -13   3    3.96    7.50   0
   8 -13   3   12.00    7.46   0
  -8  13  -3    5.33    6.22   0
   8 -13   3   10.59    7.83   0
  -1 -12   3   11.45    6.45   0
   0 -12   3  109.75    7.74   0
   0 -12   3  119.23   13.74   0
   0  12  -3    3.22   11.20   0
   1 -12   3    0.97    5.94   0
  -1  12  -3    1.60    8.33   0
   1 -12   3    1.20    9.42   0
   2 -12   3    9.92    8.48   0
   2 -12   3   20.04    5.74   0
  -2  12  -3   11.30    8.13   0
   3 -12   3    8.57    6.96   0
  -3  12  -3    7.21    6.91   0
   3 -12   3    0.60    7.22   0
   4 -12   3  111.73    6.06   0
  -4  12  -3  116.46    7.28   0
   4 -12   3  129.50    6.03   0
   4 -12   3  118.11    7.64   0
  -5  12  -3    1.31    6.77   0
   5 -12   3   -7.52    5.52   0
   5 -12   3    4.00    6.89   0
   5 -12   3    3.85    5.55   0
   6 -12   3    5.40    5.43   0
   6 -12   3    0.58    5.83   0
   6 -12   3    8.16    7.03   0
  -6  12  -3    9.22    6.97   0
   7 -12   3   -0.79    7.09   0
   7 -12   3   -7.30    7.11   0
  -7  12  -3    0.42    7.21   0
   7 -12   3    5.34    7.26   0
   8 -12   3  200.97    8.03   0
   8 -12   3  209.75    7.95   0
  -8  12  -3  212.13    8.05   0
   8 -12   3  194.65    6.92   0
   9 -12   3    9.85    7.24   0
   9 -12   3    4.36    7.44   0
  -9  12  -3   12.91    6.12   0
   9 -12   3    2.08    6.29   0
  -2 -11   3    0.42    6.20   0
  -1 -11   3   26.36    7.19   0
   0 -11   3    9.37    5.79   0
   0  11  -3    3.82    8.74   0
   0 -11   3   15.55   10.29   0
   1 -11   3  377.10   10.11   0
  -1  11  -3  375.88    9.62   0
   1 -11   3  385.34    7.92   0
   2 -11   3    6.26    8.07   0
   2 -11   3    1.51    5.41   0
  -2  11  -3    4.65    7.64   0
  -3  11  -3    8.83    6.69   0
   3 -11   3   -6.01    5.45   0
   3 -11   3    7.97    6.90   0
  -4  11  -3  113.40    7.19   0
   4 -11   3  106.63    7.01   0
   4 -11   3  101.57    7.53   0
   4 -11   3  109.39    6.94   0
   5 -11   3  270.36    6.55   0
  -5  11  -3  275.85    7.36   0
   5 -11   3  268.84    6.64   0
   5 -11   3  271.85    6.50   0
  -6  11  -3    7.84    6.63   0
   6 -11   3   21.30    6.66   0
   6 -11   3   11.74    7.18   0
   6 -11   3   13.71    6.71   0
   7 -11   3  173.42    6.37   0
   7 -11   3  149.52    6.47   0
  -7  11  -3  170.53    6.41   0
   7 -11   3  181.88    7.48   0
   8 -11   3   17.30    5.78   0
  -8  11  -3   19.47    6.88   0
   8 -11   3   22.66    7.01   0
   9 -11   3   38.35    6.24   0
  -9  11  -3   49.11    6.12   0
   9 -11   3   45.01    7.67   0
  10 -11   3    9.08    7.70   0
  10 -11   3    1.70    7.62   0
 -10  11  -3    5.07    6.14   0
  -4 -10   3  246.26    8.92   0
  -3 -10   3    8.65    7.50   0
  -2 -10   3    4.30    7.17   0
  -1 -10   3   32.49   14.93   0
  -1 -10   3   23.27    6.93   0
   0 -10   3  332.49    6.53   0
   0  10  -3  331.78   10.45   0
   0 -10   3  329.43   11.09   0
   1 -10   3   14.66    5.69   0
  -1  10  -3    6.78    7.51   0
   1 -10   3   -3.46    7.96   0
  -2  10  -3    4.70    6.66   0
   2 -10   3   -4.21    6.84   0
   2 -10   3    0.18    7.14   0
   3 -10   3  113.73    7.60   0
  -3  10  -3  108.69    6.99   0
   3 -10   3  100.49    5.68   0
   4 -10   3  157.61    6.99   0
   4 -10   3  167.44    5.94   0
  -4  10  -3  148.51    5.98   0
   4 -10   3  153.24    6.39   0
   5 -10   3   48.41    5.38   0
  -5  10  -3   50.71    6.76   0
   5 -10   3   55.38    7.26   0
  -6  10  -3  153.84    7.13   0
   6 -10   3  134.33    7.16   0
   6 -10   3  144.48    6.01   0
  -7  10  -3   -3.04    5.51   0
   7 -10   3    3.96    5.73   0
   7 -10   3   -0.66    7.03   0
  -8  10  -3   36.44    6.99   0
   8 -10   3   34.55    5.87   0
   8 -10   3   47.03    6.86   0
   9 -10   3   17.74    7.21   0
  -9  10  -3    5.23    6.95   0
   9 -10   3   -0.97    7.05   0
 -10  10  -3  134.74    6.48   0
  10 -10   3  142.37    8.23   0
  10 -10   3  123.90    7.74   0
  -5  -9   3   92.46    8.51   0
  -4  -9   3   -1.03    6.06   0
  -3  -9   3   11.44    7.17   0
  -2  -9   3    7.24    6.87   0
  -1  -9   3  471.22    8.16   0
  -1  -9   3  462.57   14.35   0
   1   9  -3  472.75   14.21   0
   0  -9   3   11.97    5.74   0
   0  -9   3   11.64    9.13   0
   0   9  -3    9.77    7.54   0
   1  -9   3   15.48    6.83   0
   1  -9   3    6.60    7.21   0
  -1   9  -3    1.39    7.65   0
  -2   9  -3    0.03    7.63   0
   2  -9   3    4.00    7.18   0
   2  -9   3   11.07    6.89   0
   3  -9   3 1713.29   10.27   0
  -3   9  -3 1709.58   11.79   0
   3  -9   3 1694.49   11.99   0
   3  -9   3 1729.31   11.08   0
   4  -9   3   15.72    6.93   0
  -4   9  -3   17.35    6.77   0
   4  -9   3   16.13    7.00   0
  -5   9  -3    5.23    6.61   0
   5  -9   3    3.14    5.80   0
   5  -9   3   -3.27    5.41   0
   6  -9   3    8.17    6.67   0
   6  -9   3    3.18    5.64   0
  -6   9  -3    2.96    6.70   0
  -7   9  -3  277.45    6.52   0
   7  -9   3  288.38    7.77   0
   7  -9   3  271.10    7.79   0
   8  -9   3   -2.91    5.67   0
   8  -9   3   10.11    6.72   0
  -8   9  -3    0.80    6.73   0
  -9   9  -3   44.65    5.77   0
   9  -9   3   46.18    7.51   0
   9  -9   3   36.68    7.08   0
  10  -9   3    1.04    8.60   0
  10  -9   3    6.68    6.07   0
 -10   9  -3   -3.43    7.12   0
  11  -9   3   48.36    7.71   0
 -11   9  -3   63.93    7.70   0
  11  -9   3   47.09    9.43   0
  -6  -8   3   10.54    8.04   0
  -5  -8   3    1.29    7.44   0
  -4  -8   3   83.59    7.39   0
  -3  -8   3    3.58    5.68   0
  -2  -8   3   40.35    7.08   0
   1   8  -3   31.57    9.50   0
  -1  -8   3   31.31   10.23   0
  -1  -8   3   21.77    6.00   0
   0  -8   3  118.57    9.33   0
   0   8  -3  116.10    9.37   0
   0  -8   3  125.39    7.36   0
  -1   8  -3   20.61    6.88   0
   1  -8   3   20.10    7.65   0
   1  -8   3    2.84    7.04   0
   2  -8   3 2038.54   11.84   0
  -2   8  -3 2005.92   12.98   0
   2  -8   3 1993.56   13.40   0
   3  -8   3    1.04    6.88   0
  -3   8  -3    5.33    7.04   0
   3  -8   3    7.00    7.60   0
   4  -8   3   84.92    7.43   0
  -4   8  -3   80.66    5.80   0
   4  -8   3   88.76    5.92   0
   5  -8   3   13.95    5.80   0
  -5   8  -3   16.19    5.82   0
   5  -8   3   19.26    6.09   0
  -6   8  -3 1177.69    9.96   0
   6  -8   3 1152.86   10.13   0
   6  -8   3 1184.93   10.07   0
  -7   8  -3   21.88    5.60   0
   7  -8   3   19.85    5.53   0
   7  -8   3   21.21    6.96   0
   8  -8   3    2.00    6.98   0
  -8   8  -3   -1.82    5.48   0
   8  -8   3    7.20    5.68   0
   9  -8   3   21.90    7.00   0
  -9   8  -3   10.60    6.85   0
   9  -8   3    9.13    7.09   0
  10  -8   3  370.10   10.19   0
 -10   8  -3  375.35    8.21   0
  10  -8   3  333.06    8.34   0
  11  -8   3   14.06    9.40   0
  11  -8   3   -0.88    7.51   0
 -11   8  -3    9.15    5.95   0
  -7  -7   3   10.27    8.00   0
  -6  -7   3   11.79    7.47   0
  -5  -7   3  276.04    8.29   0
  -4  -7   3    4.58    5.74   0
  -3  -7   3    3.89    7.02   0
  -2  -7   3    3.55   16.58   0
  -2  -7   3    4.17   17.15   0
  -2  -7   3   12.55    5.64   0
   1   7  -3  615.14   12.61   0
  -1  -7   3  603.10    8.59   0
  -1  -7   3  580.01   13.13   0
   0  -7   3   96.07    8.10   0
   0  -7   3   85.88    7.70   0
   0   7  -3   80.22    8.12   0
   1  -7   3  902.25    9.71   0
   1  -7   3  879.64   11.35   0
  -1   7  -3  922.82   11.67   0
  -2   7  -3   11.95    7.03   0
   2  -7   3    5.38    5.81   0
   3  -7   3  389.75    7.24   0
  -3   7  -3  400.52    8.43   0
   3  -7   3  381.70    8.85   0
  -4   7  -3   39.85    6.16   0
   4  -7   3   34.07    7.57   0
   4  -7   3   31.36    6.49   0
   5  -7   3  914.04    8.85   0
  -5   7  -3  943.86    8.66   0
   5  -7   3  950.98    8.87   0
  -6   7  -3   60.09    6.00   0
   6  -7   3   57.62    7.25   0
   6  -7   3   55.22    6.16   0
   7  -7   3   64.53    7.27   0
  -7   7  -3   67.00    5.85   0
   7  -7   3   57.36    5.94   0
   8  -7   3   36.29    5.87   0
  -8   7  -3   19.59    5.53   0
   8  -7   3   29.85    8.06   0
   9  -7   3  126.48    7.70   0
  -9   7  -3  129.79    5.92   0
   9  -7   3  126.79    5.82   0
  10  -7   3   13.61    7.12   0
 -10   7  -3   19.36    5.60   0
  10  -7   3   21.32    7.76   0
  11  -7   3    4.22    7.99   0
 -11   7  -3   -2.66    7.18   0
  11  -7   3    1.89    5.97   0
  -8  -6   3   10.63    8.43   0
  -7  -6   3    9.24    7.85   0
  -6  -6   3  372.24    9.04   0
  -5  -6   3   37.33    7.33   0
  -4  -6   3   17.66    7.27   0
  -3  -6   3   18.56    6.07   0
  -2  -6   3 2177.68   25.39   0
  -2  -6   3 2242.67   12.86   0
  -2  -6   3 2222.22   25.19   0
   1   6  -3   54.66    8.81   0
  -1  -6   3   55.21    9.66   0
  -1  -6   3   47.13    7.51   0
   0   6  -3    4.12    7.04   0
   0  -6   3    7.74    7.05   0
   0  -6   3   19.67    9.01   0
  -1   6  -3    1.54    7.01   0
   1  -6   3    3.17    7.54   0
  -2   6  -3  817.53    8.87   0
   2  -6   3  829.71    9.79   0
   2  -6   3  810.10   10.11   0
   3  -6   3   17.66    5.73   0
   3  -6   3   23.73    7.46   0
  -3   6  -3   15.09    5.92   0
   4  -6   3 1357.33   11.34   0
   4  -6   3 1363.72   10.09   0
  -4   6  -3 1360.34    9.98   0
  -5   6  -3   14.86    7.35   0
   5  -6   3    6.07    7.15   0
   5  -6   3    9.09    6.28   0
  -6   6  -3  317.76    8.05   0
   6  -6   3  305.73    8.11   0
   6  -6   3  301.53    8.29   0
  -6   6  -3  310.02    7.88   0
  -7   6  -3   67.29    7.22   0
  -7   6  -3   60.80    7.18   0
   7  -6   3   60.23    7.38   0
   7  -6   3   69.52    7.44   0
   8  -6   3  327.86    8.23   0
   8  -6   3  336.08    7.68   0
  -8   6  -3  313.47    7.82   0
  -8   6  -3  321.73    6.48   0
  -9   6  -3    5.81    5.41   0
   9  -6   3   11.53    5.70   0
   9  -6   3    3.77    7.12   0
  -9   6  -3    8.56    6.85   0
  10  -6   3   34.73    8.75   0
  10  -6   3   29.95    5.62   0
 -10   6  -3   36.12    6.82   0
 -10   6  -3   30.02    6.99   0
  11  -6   3    6.26    8.11   0
 -11   6  -3   -0.59    6.09   0
  11  -6   3   -0.08    6.06   0
 -11   6  -3    2.43    8.51   0
  -8  -5   3    0.20    7.82   0
  -7  -5   3   98.47    9.17   0
  -6  -5   3   18.02    7.51   0
  -5  -5   3  120.85    8.02   0
  -4  -5   3    7.85    8.73   0
  -3  -5   3 3672.40   38.67   0
  -3  -5   3 3803.20   38.28   0
  -3  -5   3 3829.57   16.59   0
  -2  -5   3    5.11   10.48   0
  -2  -5   3    4.12    9.83   0
  -2  -5   3   11.14    7.16   0
   1   5  -3   70.81    9.41   0
  -1  -5   3   68.04    6.19   0
  -1  -5   3   70.02    8.56   0
   0   5  -3   28.27    8.18   0
   0  -5   3   23.89    7.35   0
  -1   5  -3 3681.01   18.12   0
   1  -5   3 3642.39   15.86   0
   1  -5   3 3576.57   17.86   0
   2  -5   3    0.87    6.48   0
   2  -5   3   -0.77    7.55   0
  -2   5  -3    2.77    6.18   0
   3  -5   3   -0.50    6.05   0
  -3   5  -3    8.17    5.92   0
   3  -5   3    4.37    7.53   0
   4  -5   3    5.01    7.62   0
  -4   5  -3    6.57    6.23   0
   4  -5   3    7.56    7.14   0
  -4   5  -3    3.22    6.95   0
  -5   5  -3 1109.23   10.35   0
   5  -5   3 1121.60   10.62   0
   5  -5   3 1115.64   10.81   0
  -5   5  -3 1150.30   10.41   0
  -6   5  -3    9.36    7.00   0
   6  -5   3   -5.25    7.53   0
  -6   5  -3   10.76    5.90   0
   6  -5   3    5.84    7.34   0
  -7   5  -3  115.98    6.19   0
   7  -5   3  112.52    5.85   0
   7  -5   3  112.55    7.69   0
  -7   5  -3  113.52    7.21   0
  -8   5  -3   10.42    6.51   0
   8  -5   3   -3.23    5.37   0
   8  -5   3    8.11    8.01   0
  -8   5  -3   10.36    6.70   0
  -9   5  -3   65.52    7.12   0
   9  -5   3   65.14    6.89   0
  -9   5  -3   64.71    6.75   0
   9  -5   3   57.38    7.44   0
  10  -5   3   11.59    7.65   0
 -10   5  -3   12.66    7.00   0
 -10   5  -3   13.41    6.78   0
  10  -5   3    9.83    5.76   0
  11  -5   3  113.11    9.89   0
 -11   5  -3  111.71    9.11   0
  11  -5   3  102.49    7.97   0
 -11   5  -3  111.97    7.75   0
  -9  -4   3    6.55    9.12   0
  -8  -4   3    4.18    8.88   0
  -7  -4   3   10.46    8.78   0
  -6  -4   3  159.98    8.20   0
  -6  -4   3  158.54   14.52   0
  -6  -4   3  166.23   14.60   0
  -5  -4   3    7.96   12.10   0
  -5  -4   3    3.95   11.51   0
  -5  -4   3    2.26    8.79   0
  -4  -4   3 1429.53   20.38   0
  -4  -4   3 1348.65   12.41   0
  -4  -4   3 1305.45   19.72   0
  -3  -4   3   19.97    9.68   0
  -3  -4   3   17.99   10.23   0
  -3  -4   3   24.72    7.31   0
  -2  -4   3  420.42    8.08   0
  -2  -4   3  415.88   12.36   0
  -2  -4   3  432.43   11.97   0
  -1  -4   3   20.65    8.26   0
   1   4  -3   20.30    7.16   0
   0  -4   3 5104.19   22.91   0
   0   4  -3 5203.53   22.86   0
   0  -4   3 5075.86   20.17   0
   1  -4   3   13.04    8.74   0
  -1   4  -3   11.47    8.77   0
   1  -4   3    6.82    7.42   0
   2  -4   3  190.50    7.66   0
  -2   4  -3  193.59    7.49   0
   2  -4   3  193.46    7.59   0
  -2   4  -3  184.94    8.97   0
   3  -4   3  144.54    8.59   0
   3  -4   3  140.08    6.87   0
  -3   4  -3  151.33    8.37   0
  -3   4  -3  141.26    8.09   0
   4  -4   3  985.99   10.81   0
  -4   4  -3 1007.82   10.20   0
   4  -4   3  985.46   10.31   0
  -4   4  -3  968.72   10.57   0
  -5   4  -3   68.87    7.29   0
   5  -4   3   82.85    7.94   0
   5  -4   3   87.59    7.75   0
  -5   4  -3   67.99    7.79   0
   6  -4   3   23.95    7.36   0
  -6   4  -3   35.66    7.22   0
   6  -4   3   33.53    7.63   0
  -6   4  -3   29.55    5.85   0
   7  -4   3   22.48    7.61   0
  -7   4  -3   23.80    6.82   0
   7  -4   3   16.23    6.79   0
  -7   4  -3   27.62    7.05   0
  -8   4  -3  499.05    8.01   0
   8  -4   3  496.54    9.20   0
  -8   4  -3  483.53    8.71   0
   8  -4   3  491.97    8.25   0
   9  -4   3   17.08    7.64   0
  -9   4  -3   13.81    7.09   0
  -9   4  -3   10.53    6.79   0
   9  -4   3   13.30    7.01   0
  10  -4   3  101.62    8.25   0
 -10   4  -3  118.64    7.54   0
 -10   4  -3  104.00    8.63   0
  10  -4   3  109.10    7.64   0
 -11   4  -3    9.59    7.47   0
  11  -4   3    3.83    7.62   0
  11  -4   3    8.15    9.12   0
 -11   4  -3   10.21    8.78   0
   9   3  -3   -0.66   10.51   0
  -9  -3   3    3.69   10.96   0
  -9  -3   3    4.72    9.69   0
  -8  -3   3    5.31    9.77   0
  -8  -3   3    2.16    8.50   0
   8   3  -3   -0.67    9.29   0
   7   3  -3  767.47   13.89   0
  -7  -3   3  785.46   13.98   0
  -7  -3   3  750.10   12.45   0
  -6  -3   3    8.58    9.77   0
  -6  -3   3    4.45    9.16   0
   6   3  -3    5.51    8.94   0
  -5  -3   3  113.97   10.39   0
   5   3  -3  115.00   10.06   0
  -5  -3   3  105.41    9.61   0
   4   3  -3   13.45    8.08   0
  -4  -3   3    4.56    9.30   0
  -4  -3   3   12.81    9.26   0
  -3  -3   3  593.04   12.13   0
  -3  -3   3  607.29   10.44   0
  -2  -3   3   14.48    8.66   0
  -2  -3   3   14.17    7.60   0
  -2  -3   3   15.90    8.51   0
  -1  -3   3 2643.12   18.41   0
  -1  -3   3 2587.95   17.68   0
   0   3  -3   11.43   10.09   0
   0  -3   3   10.25    8.36   0
   0  -3   3   13.04    9.91   0
  -1   3  -3  141.88    8.54   0
   1  -3   3  130.13   10.50   0
   1  -3   3  128.73   10.44   0
  -1   3  -3  141.57    8.64   0
  -2   3  -3  926.07   11.12   0
   2  -3   3  925.45   12.15   0
   2  -3   3  926.78   12.60   0
  -2   3  -3  955.72   10.93   0
   3  -3   3 1889.81   13.22   0
   3  -3   3 1893.08   13.40   0
  -3   3  -3 1964.88   14.07   0
  -3   3  -3 2022.94   13.75   0
  -4   3  -3   64.50    6.12   0
  -4   3  -3   67.51    7.73   0
   4  -3   3   61.43    6.55   0
   4  -3   3   64.17    7.49   0
   5  -3   3  354.34    7.49   0
  -5   3  -3  351.19    8.29   0
  -5   3  -3  345.09    7.31   0
   5  -3   3  344.94    8.83   0
   6  -3   3    4.18    6.25   0
  -6   3  -3    9.32    6.98   0
  -6   3  -3    5.12    7.06   0
   6  -3   3    0.29    5.86   0
   7  -3   3  800.24   10.36   0
  -7   3  -3  801.30    9.89   0
   7  -3   3  788.55    8.68   0
  -7   3  -3  822.93    9.64   0
   8  -3   3   12.88    6.74   0
   8  -3   3   22.82    7.56   0
  -8   3  -3   13.03    6.68   0
  -8   3  -3   16.98    6.82   0
   9  -3   3   64.02    7.60   0
  -9   3  -3   64.91    8.03   0
   9  -3   3   64.72    7.16   0
  -9   3  -3   64.70    7.17   0
 -10   3  -3    4.01    6.92   0
 -10   3  -3    5.33    7.07   0
  10  -3   3   -5.35    8.34   0
  10  -3   3    4.67    7.71   0
  11  -3   3   98.21    8.34   0
 -11   3  -3  107.09    7.96   0
 -11   3  -3   90.92    8.17   0
  11  -3   3   82.58    9.74   0
  10   2  -3    1.02   10.20   0
 -10  -2   3    9.71   12.68   0
 -10  -2   3   10.82   10.61   0
   9   2  -3    3.65    7.77   0
  -9  -2   3   -1.33    8.25   0
  -9  -2   3    7.03   10.14   0
   8   2  -3 1109.55   13.56   0
  -8  -2   3 1064.95   15.71   0
  -8  -2   3 1059.60   13.17   0
   7   2  -3   -3.37    8.95   0
  -7  -2   3    3.43    9.41   0
  -7  -2   3    5.22    8.08   0
   6   2  -3    4.84    8.43   0
  -6  -2   3   10.53    8.63   0
  -6  -2   3   11.49   10.31   0
  -5  -2   3    8.38   10.01   0
   5   2  -3    3.34    8.38   0
  -5  -2   3    6.82    8.73   0
   4   2  -3 1881.80   16.29   0
  -4  -2   3 1779.61   15.24   0
  -4  -2   3 1807.95   17.95   0
  -3  -2   3  305.20   10.21   0
  -3  -2   3  319.96   10.45   0
   3   2  -3  319.38   10.34   0
  -2  -2   3  839.31   13.62   0
   2   2  -3  841.09   12.68   0
  -2  -2   3  847.38   13.92   0
  -1  -2   3   16.95   10.39   0
   1   2  -3   29.61   10.55   0
  -1  -2   3   16.35   10.16   0
  -1  -2   3   24.02   10.01   0
   0   2  -3 1996.28   16.05   0
   0   2  -3 1980.27   17.87   0
   0  -2   3 1983.79   17.20   0
   0  -2   3 1909.28   17.88   0
  -1   2  -3 3677.18   20.18   0
   1  -2   3 3625.79   19.19   0
   1  -2   3 3608.89   19.94   0
  -1   2  -3 3650.80   20.78   0
   2  -2   3 1384.93   13.89   0
  -2   2  -3 1384.28   13.76   0
   2  -2   3 1341.17   14.30   0
  -2   2  -3 1388.26   14.17   0
  -3   2  -3   75.32    8.32   0
  -3   2  -3   75.80    7.22   0
   3  -2   3   77.61    6.90   0
   3  -2   3   80.75    8.84   0
  -4   2  -3   88.13    7.89   0
   4  -2   3   88.62    6.97   0
  -4   2  -3   94.51    7.49   0
   4  -2   3   86.18    6.28   0
  -5   2  -3    0.68    7.03   0
   5  -2   3    7.41    7.58   0
  -5   2  -3    7.85    6.84   0
   5  -2   3    7.01    5.66   0
  -6   2  -3 1775.54   12.32   0
   6  -2   3 1693.66   12.36   0
  -6   2  -3 1719.28   12.42   0
   6  -2   3 1753.97   13.12   0
  -7   2  -3    5.02    7.01   0
  -7   2  -3    1.31    6.78   0
   7  -2   3    1.88    6.99   0
   7  -2   3    6.43    7.61   0
  -8   2  -3    9.42    6.93   0
  -8   2  -3    1.39    6.61   0
   8  -2   3   18.82    6.82   0
   8  -2   3    5.97    7.30   0
   9  -2   3   10.80    8.12   0
  -9   2  -3    3.42    6.99   0
   9  -2   3    1.82    7.40   0
  -9   2  -3   -1.74    7.93   0
 -10   2  -3  240.27    9.27   0
  10  -2   3  204.09    8.46   0
 -10   2  -3  205.44    8.74   0
  10  -2   3  209.19    9.16   0
  10   1  -3    4.81    7.99   0
 -10  -1   3    0.55    8.47   0
  -9  -1   3  407.08   17.25   0
   9   1  -3  422.31    9.11   0
  -9  -1   3  434.45   10.05   0
   8   1  -3    5.00    7.96   0
  -8  -1   3    4.29    8.16   0
  -8  -1   3    4.13   11.54   0
   7   1  -3   74.14    7.43   0
  -7  -1   3   78.40   11.75   0
  -7  -1   3   63.28    8.74   0
   6   1  -3   -0.89    7.32   0
  -6  -1   3    8.50    7.57   0
  -6  -1   3    5.86   12.34   0
   5   1  -3 1447.80   12.87   0
  -5  -1   3 1406.66   13.02   0
  -5  -1   3 1406.76   22.57   0
  -4  -1   3  217.50   16.08   0
   4   1  -3  226.63    8.57   0
  -4  -1   3  213.49   14.84   0
  -4  -1   3  217.04    9.56   0
  -3  -1   3   84.13   13.33   0
   3   1  -3   82.32    8.89   0
  -3  -1   3   93.08    8.72   0
  -3  -1   3   82.13   13.33   0
  -2  -1   3  240.25   11.30   0
   2   1  -3  247.64   13.30   0
   2   1  -3  246.15   11.53   0
  -2  -1   3  244.40   13.92   0
   1   1  -3 2581.89   18.93   0
   1   1  -3 2610.95   21.87   0
  -1  -1   3 2503.57   17.92   0
  -1  -1   3 2540.28   21.83   0
   0  -1   3  734.94   12.05   0
   0  -1   3  765.42   13.71   0
   0   1  -3  774.02   13.00   0
   0  -1   3  749.44   15.09   0
   1  -1   3  341.60   10.18   0
  -1   1  -3  327.63   12.29   0
  -1   1  -3  337.08   11.61   0
   1  -1   3  320.50   12.66   0
  -2   1  -3  584.43   10.08   0
   2  -1   3  567.63   11.93   0
   2  -1   3  587.39   11.26   0
  -2   1  -3  586.00   11.67   0
  -3   1  -3 2004.17   14.24   0
  -3   1  -3 1948.16   13.16   0
   3  -1   3 1882.37   13.23   0
   3  -1   3 1913.58   14.05   0
  -4   1  -3   17.98    7.01   0
   4  -1   3   11.38    7.35   0
  -4   1  -3   10.92    6.25   0
   4  -1   3   18.67    7.94   0
   5  -1   3 1474.66   12.19   0
   5  -1   3 1472.41   12.39   0
  -5   1  -3 1534.17   12.47   0
  -5   1  -3 1508.29   12.01   0
   6  -1   3    8.63    8.13   0
   6  -1   3   15.35    6.94   0
  -6   1  -3   22.27    7.55   0
  -6   1  -3   13.13    7.71   0
   7  -1   3   95.78    8.26   0
  -7   1  -3   95.93    8.14   0
   7  -1   3  109.37    7.55   0
  -7   1  -3   89.63    7.29   0
  -8   1  -3   -2.52    7.09   0
  -8   1  -3   11.58    7.72   0
   8  -1   3   -3.10    7.06   0
   8  -1   3    8.48    6.91   0
  -9   1  -3  178.01    8.09   0
   9  -1   3  175.19    9.32   0
   9  -1   3  179.20    8.99   0
  -9   1  -3  203.12    9.00   0
  10  -1   3    4.78    7.89   0
 -10   1  -3    0.76    7.68   0
  10  -1   3    1.91    8.08   0
 -10   1  -3    1.93    7.31   0
  11   0  -3    2.70    7.30   0
 -11   0   3   11.83    8.78   0
  10   0  -3   89.38    8.67   0
 -10   0   3   95.22    8.65   0
  -9   0   3    5.32    7.21   0
   9   0  -3    3.81    7.06   0
   8   0  -3   34.82    7.45   0
  -8   0   3   35.17    7.36   0
  -7   0   3   56.14    8.31   0
   7   0  -3   52.64    6.99   0
   6   0  -3 1784.02   12.80   0
  -6   0   3 1748.93   12.97   0
   5   0  -3   89.90    7.72   0
  -5   0   3   88.52    7.81   0
  -4   0   3    8.11    8.25   0
   4   0  -3   11.81    6.40   0
   3   0  -3   13.17    8.58   0
  -3   0   3   24.38    8.85   0
  -2   0   3 2027.82   16.83   0
   2   0  -3 2020.56   16.59   0
  -2   0   3 2010.36   24.08   0
   2   0  -3 2016.25   22.61   0
  -1   0   3  110.67    9.19   0
  -1   0   3  102.24   12.23   0
   1   0  -3  107.47   10.91   0
   1   0  -3  112.62   13.95   0
   0   0   3 1710.23   18.25   0
   0   0  -3 1712.25   17.90   0
   0   0   3 1647.39   16.41   0
   1   0   3  158.79   10.39   0
  -1   0  -3  165.00   11.28   0
   1   0   3  152.02   10.44   0
   1   0   3  154.44    9.56   0
   2   0   3 5547.52   20.89   0
  -2   0  -3 5763.96   23.49   0
   2   0   3 5760.41   23.18   0
  -2   0  -3 5680.53   21.64   0
   3   0   3    1.21    6.69   0
   3   0   3    3.45    6.90   0
  -3   0  -3   -1.20    8.03   0
  -3   0  -3    9.45    8.13   0
  -4   0  -3  293.11    9.78   0
   4   0   3  271.93    9.65   0
  -4   0  -3  270.19    9.06   0
   4   0   3  268.24    9.04   0
  -5   0  -3   -0.06    8.00   0
   5   0   3    3.10    7.16   0
  -5   0  -3   -0.93    7.51   0
   5   0   3    7.06    6.32   0
   6   0   3  373.46    8.90   0
  -6   0  -3  371.09    8.64   0
  -6   0  -3  383.50    8.83   0
   6   0   3  376.81    7.73   0
  -7   0  -3   22.01    7.91   0
   7   0   3   20.08    7.72   0
  -7   0  -3   20.10    7.45   0
   7   0   3   25.73    6.00   0
  -8   0  -3   45.58    7.22   0
  -8   0  -3   41.86    8.27   0
   8   0   3   39.73    8.25   0
   8   0   3   47.45    7.48   0
  -9   0  -3    5.17    9.25   0
   9   0   3    1.38    7.70   0
   9   0   3   -0.03    7.57   0
  -9   0  -3    0.51    7.43   0
  11  -1  -3    7.11    7.57   0
 -11   1   3    5.57    7.47   0
  10  -1  -3   33.29    7.43   0
 -10   1   3   36.29    7.29   0
   9  -1  -3  187.77    7.43   0
  -9   1   3  171.11    7.59   0
  -8   1   3    2.52    7.00   0
   8  -1  -3    6.76    6.60   0
  -7   1   3  232.66    8.21   0
   7  -1  -3  239.36    8.03   0
  -6   1   3  134.82    7.84   0
   6  -1  -3  132.34    7.71   0
  -5   1   3  398.03    8.97   0
   5  -1  -3  402.25    8.79   0
   4  -1  -3  144.56    6.94   0
  -4   1   3  161.68    8.42   0
   3  -1  -3 1857.67   13.71   0
   3  -1  -3 1850.33   22.79   0
  -3   1   3 1854.09   21.74   0
  -3   1   3 1779.16   12.85   0
   2  -1  -3  109.75    9.73   0
   2  -1  -3  103.76   11.42   0
  -2   1   3  115.03   11.44   0
  -2   1   3  111.65   10.01   0
  -1   1   3   10.11    8.43   0
   1  -1  -3   13.77   10.11   0
   1  -1  -3   16.53   11.26   0
  -1   1   3   13.90    9.07   0
   0   1   3   23.64    9.78   0
   0  -1  -3   22.09   10.51   0
   0  -1  -3   23.97    9.64   0
   0   1   3   21.22    8.56   0
  -1  -1  -3 4649.79   20.00   0
   1   1   3 4539.70   21.67   0
   1   1   3 4698.86   21.82   0
   1   1   3 4646.07   20.11   0
  -2  -1  -3    1.86    8.35   0
   2   1   3    8.15    8.10   0
   2   1   3    0.38    8.00   0
   2   1   3   -2.63    6.82   0
   3   1   3  643.04   11.21   0
   3   1   3  642.70   10.04   0
  -3  -1  -3  632.84   10.15   0
  -4  -1  -3    3.90    8.05   0
  -4  -1  -3   -2.99    6.59   0
   4   1   3   -2.05    7.79   0
   4   1   3   -5.41    6.70   0
   5   1   3  837.34   11.93   0
  -5  -1  -3  866.00   12.15   0
  -5  -1  -3  836.67   10.00   0
   5   1   3  852.78   10.11   0
   6   1   3   24.02    8.85   0
  -6  -1  -3   21.84    7.18   0
  -6  -1  -3   24.13    7.99   0
   6   1   3   24.50    7.16   0
  -7  -1  -3   22.82    7.13   0
   7   1   3   38.60    5.71   0
   7   1   3   35.13    9.24   0
  -7  -1  -3   33.40    9.25   0
  -8  -1  -3    0.74    9.15   0
  -8  -1  -3    2.16    7.41   0
   8   1   3    8.49    7.46   0
   8   1   3   -0.91    8.27   0
   9   1   3    0.90   10.14   0
  -9  -1  -3   67.58    8.16   0
   9   1   3   63.29    8.17   0
 -11   2   3    0.88    7.43   0
  11  -2  -3    8.25    7.37   0
  10  -2  -3  288.19    8.09   0
 -10   2   3  293.73    8.17   0
  -9   2   3    2.38    6.94   0
   9  -2  -3    6.74    6.74   0
  -8   2   3   14.62    5.75   0
   8  -2  -3   14.95    6.84   0
  -7   2   3   70.95    7.24   0
   7  -2  -3   68.77    7.12   0
  -6   2   3  719.91    9.81   0
   6  -2  -3  734.31    9.59   0
   5  -2  -3   41.93   14.93   0
   5  -2  -3   44.10    7.77   0
   5  -2  -3   44.17   16.11   0
  -5   2   3   40.28    6.49   0
   4  -2  -3   72.92    6.30   0
  -4   2   3   76.26    7.91   0
   4  -2  -3   72.40   10.77   0
   3  -2  -3   10.60    6.60   0
  -3   2   3    2.76    8.91   0
  -3   2   3    2.43    8.18   0
   3  -2  -3    8.47    8.11   0
  -2   2   3 4447.81   21.59   0
   2  -2  -3 4402.50   18.99   0
  -2   2   3 4363.64   18.48   0
   2  -2  -3 4419.92   21.82   0
   1  -2  -3    9.23    8.53   0
  -1   2   3    9.71    7.35   0
  -1   2   3    2.89    8.70   0
   1  -2  -3    6.66    9.20   0
   0   2   3 3269.00   18.37   0
   0  -2  -3 3264.95   16.99   0
   0  -2  -3 3321.33   18.12   0
   0   2   3 3389.63   17.10   0
   1   2   3   16.66    7.04   0
  -1  -2  -3   24.04    6.72   0
   1   2   3   21.43    7.41   0
   1   2   3   13.53    8.05   0
  -2  -2  -3   45.95    8.45   0
   2   2   3   32.56    8.65   0
   2   2   3   42.63    8.45   0
   2   2   3   41.42    8.12   0
   3   2   3    1.70    7.80   0
   3   2   3    3.85    9.03   0
  -3  -2  -3    2.51    6.75   0
   3   2   3   -2.64    7.93   0
   4   2   3 1352.56   15.50   0
  -4  -2  -3 1375.66   10.45   0
   4   2   3 1339.39   14.45   0
   4   2   3 1342.80   10.15   0
   5   2   3   30.79    8.92   0
   5   2   3   26.50    5.89   0
  -5  -2  -3   34.29    7.39   0
   5   2   3   29.59    9.69   0
   6   2   3   13.65    9.63   0
   6   2   3   29.56    7.12   0
  -6  -2  -3   13.57    7.23   0
   6   2   3   14.25    9.79   0
   7   2   3    6.81    7.02   0
   7   2   3    6.10    9.02   0
  -7  -2  -3    3.57    7.12   0
   7   2   3    0.79    8.74   0
   8   2   3    1.62   11.19   0
   8   2   3  266.81    8.67   0
  -8  -2  -3  249.69    8.80   0
   8   2   3   -3.28   11.01   0
 -11   3   3  135.89    8.16   0
  11  -3  -3  115.78    8.01   0
 -10   3   3   15.59    7.23   0
  10  -3  -3   14.59    6.94   0
  -9   3   3   20.00    5.76   0
   9  -3  -3   25.28    6.83   0
   8  -3  -3   16.49    6.79   0
  -8   3   3    9.39    5.66   0
   7  -3  -3  136.85    6.33   0
  -7   3   3  139.65    6.53   0
   6  -3  -3   70.78   12.36   0
  -6   3   3   70.45    7.90   0
   6  -3  -3   71.58    6.24   0
   6  -3  -3   70.78   12.93   0
  -5   3   3   22.09    8.25   0
   5  -3  -3   24.20    7.67   0
   5  -3  -3   21.23    9.45   0
  -4   3   3    4.08    6.48   0
   4  -3  -3   -4.03    9.00   0
   4  -3  -3   -2.44    6.19   0
   3  -3  -3 1051.66    9.78   0
  -3   3   3 1036.48   10.78   0
  -3   3   3 1077.16   11.97   0
   3  -3  -3 1051.94   12.32   0
   2  -3  -3    4.35    7.74   0
  -2   3   3    4.18    6.36   0
  -2   3   3   11.03    6.39   0
   2  -3  -3    4.43    8.27   0
   1  -3  -3 2608.78   15.64   0
  -1   3   3 2687.60   14.24   0
  -1   3   3 2636.10   15.83   0
   1  -3  -3 2574.85   15.00   0
   0  -3  -3   15.12    7.41   0
   0  -3  -3    6.89    6.63   0
   0   3   3   -0.46    7.71   0
   0   3   3   12.55    7.92   0
   1   3   3  370.89    9.67   0
  -1  -3  -3  374.27    7.88   0
   1   3   3  371.50    7.81   0
  -2  -3  -3    5.54    8.11   0
   2   3   3    5.13    7.72   0
   2   3   3    7.34    6.44   0
   2   3   3    9.10    8.23   0
  -3  -3  -3  187.88    8.22   0
   3   3   3  165.48    7.85   0
   3   3   3  175.49    9.76   0
   3   3   3  177.95   10.35   0
   4   3   3    4.89    9.69   0
   4   3   3    3.06    9.41   0
  -4  -3  -3    6.53    6.38   0
   4   3   3    3.35    7.30   0
   5   3   3   11.35   10.77   0
  -5  -3  -3    9.73    5.89   0
   5   3   3    9.89    6.96   0
   5   3   3   10.12   10.86   0
  -6  -3  -3   17.02    7.37   0
   6   3   3    1.04   11.45   0
   6   3   3    2.32   12.40   0
   6   3   3   29.15    6.86   0
   7   3   3  189.04    6.48   0
  -7  -3  -3  178.93    6.78   0
   8   3   3    1.98    6.34   0
  -8  -3  -3    6.04    7.98   0
 -11   4   3    8.54    7.29   0
  11  -4  -3    4.60    5.98   0
 -10   4   3   30.48    5.78   0
  10  -4  -3   28.37    5.54   0
   9  -4  -3   27.61    6.74   0
  -9   4   3   18.06    7.11   0
   8  -4  -3  604.89    8.59   0
  -8   4   3  622.78    8.80   0
  -7   4   3   42.51    7.84   0
   7  -4  -3   48.59   10.61   0
   7  -4  -3   53.49   10.97   0
   7  -4  -3   63.59    7.20   0
   6  -4  -3    6.77    8.95   0
   6  -4  -3    4.18    9.58   0
  -6   4   3    3.78    6.04   0
   6  -4  -3    0.87    5.78   0
   5  -4  -3    2.22    7.34   0
  -5   4   3   12.84    7.67   0
   5  -4  -3   11.47    8.50   0
   4  -4  -3 2564.41   16.88   0
  -4   4   3 2539.77   12.99   0
   4  -4  -3 2591.75   12.84   0
   3  -4  -3   13.18    7.31   0
  -3   4   3   -0.95    7.04   0
   3  -4  -3    2.67    7.42   0
  -3   4   3    3.77    6.30   0
   2  -4  -3   19.77    7.19   0
  -2   4   3   28.26    7.58   0
  -2   4   3   28.60    6.28   0
   2  -4  -3   15.62    7.66   0
   1  -4  -3   86.18    7.70   0
  -1   4   3   90.59    6.56   0
   1  -4  -3   80.83    6.84   0
  -1   4   3   83.38    9.51   0
   0  -4  -3 1113.18   11.96   0
   0   4   3 1148.91   10.01   0
   0   4   3 1127.70   12.20   0
   0  -4  -3 1120.15   11.04   0
  -1  -4  -3   10.12    7.62   0
   1   4   3    7.02    7.40   0
   1   4   3    7.61    8.31   0
  -2  -4  -3  122.49    8.23   0
   2   4   3  130.39    7.87   0
   2   4   3  129.86    8.78   0
   2   4   3  124.37    9.31   0
  -3  -4  -3   15.29    7.64   0
   3   4   3    1.07    9.36   0
   3   4   3    1.60    7.32   0
   3   4   3   -0.19   10.00   0
  -4  -4  -3   82.73    6.25   0
   4   4   3   77.32   12.65   0
   4   4   3   84.99    7.09   0
   4   4   3   76.78   13.17   0
  -5  -4  -3    1.82    6.09   0
   5   4   3    8.14    5.64   0
  -6  -4  -3   72.58    7.71   0
   6   4   3   83.72    6.23   0
  -7  -4  -3    7.56    6.42   0
   7   4   3    1.65    7.48   0
  11  -5  -3   50.57    6.36   0
 -11   5   3   49.62    7.55   0
  10  -5  -3    7.04    6.84   0
 -10   5   3    4.87    6.90   0
   9  -5  -3    1.68   14.79   0
   9  -5  -3    2.76   16.44   0
  -9   5   3  164.56    6.26   0
   9  -5  -3  172.18    6.10   0
  -8   5   3    6.78    5.88   0
   8  -5  -3    4.19    9.64   0
   8  -5  -3    4.16   10.45   0
   8  -5  -3    8.13    6.88   0
  -7   5   3  133.48    6.38   0
   7  -5  -3  137.83    9.74   0
   7  -5  -3  133.06    7.26   0
   7  -5  -3  137.81    9.51   0
  -6   5   3    8.28    7.60   0
   6  -5  -3    5.94    5.85   0
   6  -5  -3    0.92    8.34   0
   5  -5  -3 1540.15   13.02   0
  -5   5   3 1572.67   10.34   0
   5  -5  -3 1564.38   10.14   0
   4  -5  -3   -2.03    7.62   0
  -4   5   3    7.19    7.95   0
   4  -5  -3   -6.62    5.93   0
   3  -5  -3   31.48    7.23   0
  -3   5   3   42.41    5.97   0
   3  -5  -3   45.45    7.36   0
  -3   5   3   47.91    7.85   0
   2  -5  -3   95.34    7.50   0
  -2   5   3   89.06    6.37   0
  -2   5   3   88.87    7.82   0
   2  -5  -3   96.28    7.93   0
   1  -5  -3 1100.68   11.31   0
  -1   5   3 1123.12    9.47   0
  -1   5   3 1089.27   11.38   0
   1  -5  -3 1043.69    9.50   0
   0  -5  -3   37.37    7.36   0
   0   5   3   47.60    7.28   0
   0   5   3   35.42    8.65   0
   0  -5  -3   22.72    7.75   0
   1   5   3   29.27    7.32   0
   1   5   3   11.98    9.48   0
  -1  -5  -3    4.31    7.64   0
  -2  -5  -3   -0.12    7.43   0
   2   5   3    9.23    8.51   0
   2   5   3    8.91    5.69   0
   2   5   3    6.78    9.71   0
  -3  -5  -3  590.15    8.93   0
   3   5   3  604.41   15.90   0
   3   5   3  631.59    7.74   0
   3   5   3  597.90   15.90   0
  -4  -5  -3   -7.68    7.25   0
   4   5   3   -2.75    5.58   0
  -5  -5  -3   12.93    5.90   0
   5   5   3    2.26    5.85   0
  -6  -5  -3    5.90    7.78   0
   6   5   3    0.87    6.21   0
 -11   6   3    5.26    6.14   0
  11  -6  -3   27.69    7.29   0
 -10   6   3   14.64    5.81   0
  10  -6  -3   13.24    5.70   0
   9  -6  -3    4.38   10.19   0
  -9   6   3    7.26    7.10   0
   9  -6  -3   -0.10    9.02   0
   9  -6  -3    5.55    5.70   0
  -8   6   3  410.90    7.13   0
   8  -6  -3  402.92   11.09   0
   8  -6  -3  403.95   11.19   0
   8  -6  -3  400.24    6.95   0
   7  -6  -3    3.76    7.46   0
   7  -6  -3   -8.51    7.73   0
  -7   6   3    8.51    6.89   0
   7  -6  -3    1.34    5.23   0
   6  -6  -3  189.84    7.95   0
  -6   6   3  203.84    7.82   0
   6  -6  -3  211.60    7.37   0
   5  -6  -3    7.23    7.20   0
  -5   6   3    6.62    7.49   0
   5  -6  -3    2.05    7.33   0
   4  -6  -3   60.58    7.03   0
  -4   6   3   72.04    6.30   0
   4  -6  -3   81.70    7.72   0
   3  -6  -3   -6.62    5.85   0
  -3   6   3   -8.03    6.76   0
   3  -6  -3    4.34    5.98   0
  -3   6   3    0.64    6.25   0
   2  -6  -3  170.93    7.53   0
  -2   6   3  179.06    7.71   0
   2  -6  -3  171.25    6.54   0
  -2   6   3  172.61    7.83   0
  -1   6   3  140.77    7.84   0
   1  -6  -3  140.57    7.49   0
  -1   6   3  148.55    7.75   0
   1  -6  -3  141.91    6.66   0
   0  -6  -3   13.19    8.03   0
   0   6   3   -1.69    5.79   0
   0   6   3    2.75    8.29   0
   0  -6  -3   16.47    7.39   0
  -1  -6  -3   23.19    7.27   0
   1   6   3   29.33    6.95   0
   1   6   3   26.64    9.34   0
   1   6   3   36.14    8.78   0
   2   6   3  406.72   12.64   0
   2   6   3  417.90   12.80   0
  -2  -6  -3  392.45    7.39   0
   2   6   3  427.90    7.16   0
  -3  -6  -3   17.95    5.96   0
   3   6   3   18.68    5.76   0
  -4  -6  -3   11.07    6.16   0
   4   6   3   -4.53    6.87   0
  -5  -6  -3   -0.83    7.97   0
   5   6   3    8.00    6.09   0
 -11   7   3    8.42    6.28   0
  11  -7  -3   -4.71    7.40   0
 -10   7   3   -2.92    7.39   0
  10  -7  -3    3.45   10.50   0
  10  -7  -3    0.85   11.22   0
  10  -7  -3    0.29    7.21   0
  -9   7   3  274.03    8.04   0
   9  -7  -3  257.14    6.69   0
   9  -7  -3   58.30    8.17   0
   9  -7  -3   27.92    7.88   0
  -8   7   3   -1.30    7.16   0
   8  -7  -3    8.79    8.03   0
   8  -7  -3    5.30    7.77   0
   8  -7  -3   -2.70    5.69   0
  -7   7   3  216.72    7.75   0
   7  -7  -3  213.10    9.16   0
   7  -7  -3  208.49    7.54   0
  -6   7   3   50.34    5.87   0
   6  -7  -3   58.68    7.03   0
   6  -7  -3   56.73    6.86   0
  -5   7   3   79.08    7.30   0
   5  -7  -3   68.71    7.23   0
   5  -7  -3   70.17    5.70   0
   4  -7  -3   19.75    6.80   0
  -4   7   3   18.28    5.96   0
   4  -7  -3    6.50    7.12   0
   3  -7  -3  290.76    7.86   0
  -3   7   3  283.00    8.12   0
   3  -7  -3  272.89    7.76   0
   2  -7  -3    5.12    6.87   0
   2  -7  -3    2.37    7.13   0
  -2   7   3    4.14    5.59   0
  -2   7   3    6.46    7.13   0
   1  -7  -3   33.03    8.24   0
  -1   7   3   44.78    7.15   0
  -1   7   3   39.94    5.77   0
   1  -7  -3   39.45    7.25   0
   0   7   3   14.89    5.78   0
   0  -7  -3   15.29    6.22   0
   0   7   3   15.77    8.05   0
   0  -7  -3   12.33    8.16   0
   1   7   3  224.20   10.87   0
  -1  -7  -3  208.03    7.96   0
   1   7   3  234.97    6.51   0
   1   7   3  221.49   10.40   0
   2   7   3    0.70   10.25   0
   2   7   3    1.02   11.06   0
   2   7   3    7.16    7.21   0
  -2  -7  -3   10.24    7.49   0
  -3  -7  -3   11.47    6.23   0
   3   7   3    5.17    7.27   0
  -4  -7  -3    5.20    7.87   0
   4   7   3   -4.08    7.18   0
  10  -8  -3   -0.03    9.62   0
 -10   8   3   74.45    7.67   0
  10  -8  -3    1.91    9.03   0
  10  -8  -3   85.12    6.49   0
   9  -8  -3    2.87    5.73   0
   9  -8  -3    0.33    8.16   0
  -9   8   3    9.48    7.11   0
   9  -8  -3   -9.46    8.32   0
   8  -8  -3    1.34    7.78   0
  -8   8   3    5.44    5.93   0
   8  -8  -3   10.93    7.02   0
   8  -8  -3    9.70    5.82   0
  -7   8   3   29.54    6.99   0
   7  -8  -3   13.61    8.21   0
   7  -8  -3   19.91    5.46   0
  -6   8   3  242.79    7.85   0
   6  -8  -3  224.14    7.76   0
   6  -8  -3  228.38    7.57   0
   5  -8  -3   19.86    6.86   0
  -5   8   3   15.72    6.81   0
   5  -8  -3   13.42    5.74   0
   4  -8  -3   56.77    5.71   0
  -4   8   3   43.76    5.99   0
   4  -8  -3   55.28    7.04   0
  -3   8   3   50.49    7.23   0
   3  -8  -3   39.24    7.10   0
   3  -8  -3   40.15    5.98   0
   2  -8  -3  251.89    8.01   0
  -2   8   3  246.56    9.08   0
   2  -8  -3  250.69    6.69   0
  -1   8   3   10.01    7.02   0
  -1   8   3   -2.51    7.24   0
   1  -8  -3    0.63    7.10   0
   1  -8  -3    3.11    5.89   0
   0   8   3   65.06    8.52   0
   0  -8  -3   58.97    8.58   0
   0   8   3   66.48    5.93   0
   0  -8  -3   63.58    6.07   0
   1   8   3   -2.31    5.94   0
   1   8   3    1.31    9.74   0
   1   8   3    0.36    9.62   0
  -1  -8  -3    3.44    7.52   0
  -2  -8  -3   25.35    6.57   0
   2   8   3   38.55    7.63   0
  -3  -8  -3    5.31    6.69   0
   3   8   3   11.29    6.35   0
 -10   9   3  -10.24    6.42   0
  10  -9  -3    2.07    8.39   0
  10  -9  -3    2.22    9.51   0
  10  -9  -3   -4.81    7.81   0
   9  -9  -3    1.12    7.27   0
  -9   9   3    8.90    7.50   0
   9  -9  -3    3.61    8.21   0
   9  -9  -3   -0.23    7.41   0
   8  -9  -3   19.87    8.22   0
  -8   9   3    0.29    5.82   0
   8  -9  -3   17.51    7.33   0
   8  -9  -3    8.82    5.78   0
   7  -9  -3   83.94    7.92   0
  -7   9   3   88.79    7.64   0
   7  -9  -3   94.63    6.24   0
   6  -9  -3    2.95    5.60   0
   6  -9  -3    4.62    7.12   0
  -6   9   3    6.20    5.95   0
   5  -9  -3   22.90    5.79   0
  -5   9   3   12.30    7.22   0
   5  -9  -3   12.81    7.13   0
  -4   9   3    2.75    7.44   0
   4  -9  -3    0.63    5.65   0
   4  -9  -3    3.50    7.14   0
  -3   9   3  290.69    8.40   0
   3  -9  -3  290.66    8.06   0
   3  -9  -3  298.97    8.41   0
   2  -9  -3    6.26    8.29   0
   2  -9  -3  -10.16    7.25   0
  -2   9   3   -8.57    8.02   0
   1  -9  -3   -1.94    8.56   0
  -1   9   3    6.24    8.28   0
   1  -9  -3    8.43    5.99   0
   0   9   3   -1.10    8.55   0
   0  -9  -3   -7.93    7.89   0
  -1  -9  -3   79.78    8.00   0
   1   9   3   69.90    6.39   0
   1   9   3   -2.43   11.34   0
   1   9   3   -1.51   11.91   0
  -9  10   3   17.34    7.82   0
   9 -10  -3   13.03    8.94   0
   9 -10  -3    4.51    7.64   0
   9 -10  -3   10.55    6.28   0
  -8  10   3   59.91    7.97   0
   8 -10  -3   65.46    8.11   0
   8 -10  -3   56.62    7.82   0
   8 -10  -3   62.30    6.35   0
   7 -10  -3   13.79    7.17   0
   7 -10  -3   12.64    7.55   0
  -7  10   3    4.25    7.38   0
   6 -10  -3    5.69    7.03   0
  -6  10   3    3.33    7.35   0
   6 -10  -3    7.88    7.54   0
   5 -10  -3    0.10    5.84   0
  -5  10   3   12.29    7.40   0
   5 -10  -3    8.35    7.44   0
   4 -10  -3   94.85    7.78   0
  -4  10   3  112.23    7.85   0
   4 -10  -3  100.67    7.71   0
   3 -10  -3   17.10    7.53   0
   3 -10  -3    9.67    7.53   0
  -3  10   3   12.84    7.50   0
   2 -10  -3   19.37    8.94   0
  -2  10   3   12.75    7.66   0
   2 -10  -3   30.65    6.26   0
   1 -10  -3    4.21    8.89   0
  -1  10   3   -3.83    8.20   0
   1 -10  -3    2.56    6.55   0
   0  10   3    1.32   10.28   0
   0  10   3    2.76   10.21   0
   0 -10  -3   86.68    6.98   0
  -7  11   3   37.06    8.09   0
   7 -11  -3   44.51    8.25   0
   7 -11  -3   47.74    7.94   0
   6 -11  -3    4.60    7.93   0
   6 -11  -3   11.19    7.95   0
  -6  11   3    1.92    6.26   0
   5 -11  -3   24.07    7.83   0
  -5  11   3   38.42    7.92   0
   5 -11  -3   29.67    8.01   0
   4 -11  -3    1.91    7.80   0
  -4  11   3    6.63    8.98   0
   4 -11  -3    2.29    7.79   0
   3 -11  -3    8.35    8.10   0
  -3  11   3    2.51    9.20   0
   3 -11  -3   -2.88    8.10   0
   1 -13   4  180.11    8.15   0
   1 -13   4  181.76   10.55   0
  -1  13  -4    6.25    9.09   0
  -2  13  -4    3.54    7.70   0
   2 -13   4   17.91    7.34   0
   2 -13   4    2.84    8.95   0
   2 -13   4    5.83    5.85   0
   3 -13   4    9.52    7.17   0
  -3  13  -4    5.54    7.27   0
   3 -13   4    7.31    5.82   0
   3 -13   4    4.25    7.56   0
  -4  13  -4   23.79    8.37   0
   4 -13   4    9.40    7.28   0
   4 -13   4   33.85    7.57   0
   4 -13   4    9.81    7.24   0
  -5  13  -4  127.45    7.72   0
   5 -13   4  119.42    7.66   0
   5 -13   4  123.55    7.58   0
   5 -13   4  116.13    7.99   0
   6 -13   4  -10.06    5.99   0
   6 -13   4   -1.15    5.96   0
  -6  13  -4    7.85    7.22   0
   6 -13   4    0.63    7.40   0
   7 -13   4   11.59    6.30   0
  -7  13  -4    7.63    7.22   0
   7 -13   4    2.52    6.02   0
   7 -13   4    6.78    7.41   0
  -8  13  -4    7.55    5.96   0
   8 -13   4    8.65    7.70   0
   8 -13   4   10.11    7.51   0
   8 -13   4    7.85    6.26   0
  -1 -12   4    5.64    7.56   0
   0 -12   4  392.35    7.11   0
   0  12  -4    1.38    9.42   0
   0 -12   4  408.52   13.42   0
  -1  12  -4   -0.41    7.43   0
   1 -12   4   -4.31    7.10   0
   1 -12   4    8.08    8.40   0
   2 -12   4   24.41    5.73   0
  -2  12  -4   23.11    7.87   0
   2 -12   4   17.10    8.24   0
   3 -12   4    2.62    6.89   0
   3 -12   4   -4.59    6.76   0
  -3  12  -4    5.04    6.78   0
   3 -12   4   -7.07    7.29   0
   4 -12   4  352.43    8.02   0
  -4  12  -4  346.07    8.14   0
   4 -12   4  353.43    6.88   0
   4 -12   4  348.73    8.39   0
   5 -12   4    9.13    6.70   0
   5 -12   4   -2.50    6.83   0
  -5  12  -4    8.68    6.77   0
   5 -12   4   -3.21    7.04   0
   6 -12   4    7.84    5.72   0
  -6  12  -4    5.57    5.53   0
   6 -12   4   25.69    6.85   0
   6 -12   4    4.21    5.75   0
   7 -12   4    6.23    7.19   0
  -7  12  -4    1.40    5.68   0
   7 -12   4    6.30    7.23   0
   8 -12   4  155.78    6.87   0
   8 -12   4  155.00    7.80   0
  -8  12  -4  168.83    7.86   0
  -9  12  -4    7.80    6.05   0
   9 -12   4   -0.14    6.15   0
   9 -12   4   -2.87    6.25   0
  -3 -11   4  110.79    6.89   0
  -2 -11   4    4.47    7.37   0
  -1 -11   4  197.13   17.42   0
  -1 -11   4  238.80   17.23   0
  -1 -11   4  244.43    6.61   0
   0 -11   4   30.91    5.71   0
   0 -11   4   28.87    9.55   0
   0  11  -4   -0.37    8.42   0
  -1  11  -4   70.38    7.82   0
   1 -11   4   68.80    5.80   0
   1 -11   4   67.88    8.42   0
   2 -11   4   22.48    6.88   0
  -2  11  -4   19.99    7.87   0
   2 -11   4   31.16    8.15   0
  -3  11  -4  194.02    7.34   0
   3 -11   4  184.98    7.27   0
   3 -11   4  187.84    6.05   0
   3 -11   4  190.25    7.71   0
  -4  11  -4    8.28    6.56   0
   4 -11   4   10.69    6.77   0
   4 -11   4   10.22    6.79   0
   4 -11   4    5.67    6.82   0
  -5  11  -4   13.47    5.31   0
   5 -11   4   13.96    6.81   0
   5 -11   4    4.10    5.35   0
   6 -11   4   19.76    6.67   0
  -6  11  -4   25.73    6.71   0
   6 -11   4   25.97    7.08   0
  -7  11  -4  461.58    7.19   0
   7 -11   4  424.75    8.25   0
   7 -11   4  452.65    8.40   0
   8 -11   4    8.86    5.96   0
  -8  11  -4   15.29    5.63   0
   8 -11   4   28.33    6.98   0
   9 -11   4   11.09    7.69   0
  -9  11  -4    5.65    7.28   0
   9 -11   4    3.67    7.41   0
  10 -11   4   -2.03    7.77   0
 -10  11  -4   20.63    7.63   0
  10 -11   4   10.59    7.67   0
  -4 -10   4  255.33    7.67   0
  -3 -10   4    7.17    6.00   0
  -2 -10   4   75.49    6.08   0
  -1 -10   4    3.92   10.89   0
  -1 -10   4    1.29    5.49   0
   0 -10   4  292.52    7.75   0
   0 -10   4  282.19   10.66   0
   0  10  -4  286.45    9.20   0
  -1  10  -4   29.96    6.57   0
   1 -10   4   37.78    6.90   0
   1 -10   4   22.79    8.02   0
   2 -10   4  103.59    7.41   0
  -2  10  -4  107.68    7.03   0
   2 -10   4   94.56    6.91   0
   2 -10   4  103.89    5.71   0
  -3  10  -4    3.71    6.40   0
   3 -10   4    0.07    5.39   0
   3 -10   4    0.29    6.69   0
   3 -10   4   -3.99    5.39   0
   4 -10   4   23.66    6.86   0
  -4  10  -4   23.11    6.30   0
   4 -10   4   19.23    5.43   0
  -5  10  -4   39.51    5.44   0
   5 -10   4   50.73    6.66   0
   5 -10   4   45.83    6.83   0
   6 -10   4  305.46    7.77   0
  -6  10  -4  310.77    6.55   0
   6 -10   4  301.44    7.83   0
  -7  10  -4    2.74    6.82   0
   7 -10   4    6.94    5.81   0
   7 -10   4   -0.42    5.51   0
   8 -10   4   -1.08    5.65   0
  -8  10  -4    8.61    5.55   0
   8 -10   4    6.74    5.77   0
   9 -10   4    2.59    7.08   0
   9 -10   4    3.24    5.80   0
  -9  10  -4    6.85    7.03   0
 -10  10  -4   76.79    6.29   0
  10 -10   4   68.03    7.67   0
  10 -10   4   92.96    7.99   0
  -5  -9   4  337.79    9.20   0
  -4  -9   4   11.93    7.32   0
  -3  -9   4   12.02    5.95   0
  -2  -9   4   16.95    6.81   0
   1   9  -4  503.47   12.35   0
  -1  -9   4  495.56    7.00   0
  -1  -9   4  486.90   13.00   0
   0  -9   4   11.92    5.66   0
   0  -9   4   11.99    8.34   0
   0   9  -4   10.89    7.58   0
   1  -9   4    4.22    5.56   0
  -1   9  -4    7.27    6.71   0
   1  -9   4    9.62    8.54   0
   2  -9   4    7.02    7.26   0
  -2   9  -4   15.20    6.70   0
   2  -9   4   11.52    6.79   0
  -3   9  -4  899.22    9.61   0
   3  -9   4  894.84   10.01   0
   3  -9   4  901.33    9.23   0
   4  -9   4   14.18    5.63   0
  -4   9  -4   26.46    6.64   0
   4  -9   4   19.26    5.75   0
   5  -9   4  336.05    6.70   0
  -5   9  -4  352.87    7.66   0
   5  -9   4  337.22    6.86   0
  -6   9  -4   -0.17    6.81   0
   6  -9   4    3.73    5.73   0
   6  -9   4    2.44    6.65   0
  -7   9  -4   87.20    7.18   0
   7  -9   4   70.78    6.09   0
   7  -9   4   75.99    7.05   0
   8  -9   4    4.01    6.96   0
  -8   9  -4    7.66    5.43   0
   8  -9   4   -2.52    5.72   0
  -9   9  -4  274.72    6.68   0
   9  -9   4  248.26    6.59   0
   9  -9   4  269.49    8.26   0
 -10   9  -4   21.59    7.07   0
  10  -9   4    9.08    7.16   0
  10  -9   4   13.27    7.44   0
 -11   9  -4    5.89    7.41   0
  11  -9   4   11.04    8.21   0
  11  -9   4    5.61    6.05   0
  -6  -8   4  331.14   10.68   0
  -5  -8   4    9.12    7.55   0
  -4  -8   4   -2.38    7.17   0
  -3  -8   4   15.13    6.93   0
  -2  -8   4  660.96   17.11   0
  -2  -8   4  671.15    8.80   0
  -2  -8   4  677.44   16.51   0
  -1  -8   4   22.49    7.04   0
   1   8  -4   17.25    8.57   0
  -1  -8   4   17.53    9.55   0
   0   8  -4  114.66    7.31   0
   0  -8   4  110.91    9.09   0
   0  -8   4  116.88    7.23   0
  -1   8  -4   47.26    7.90   0
   1  -8   4   42.71    7.61   0
   2  -8   4 1889.74   10.69   0
  -2   8  -4 1905.73   12.52   0
   2  -8   4 1885.51   12.91   0
  -3   8  -4   19.44    6.85   0
   3  -8   4   18.31    7.21   0
   3  -8   4   14.10    6.98   0
  -4   8  -4  136.60    7.15   0
   4  -8   4  133.60    6.17   0
   4  -8   4  133.72    6.30   0
  -5   8  -4   64.62    7.13   0
   5  -8   4   50.33    6.16   0
   5  -8   4   45.19    5.82   0
   6  -8   4  356.68    6.99   0
   6  -8   4  369.09    6.89   0
  -6   8  -4  401.39    6.87   0
   7  -8   4   10.45    5.62   0
  -7   8  -4   19.52    6.56   0
   7  -8   4    6.01    6.69   0
   8  -8   4  140.59    7.40   0
   8  -8   4  132.36    6.08   0
  -8   8  -4  134.26    6.10   0
   9  -8   4   23.54    5.60   0
  -9   8  -4   20.52    6.88   0
   9  -8   4   21.19    7.22   0
  10  -8   4   48.63    7.79   0
 -10   8  -4   46.87    6.00   0
  10  -8   4   44.27    7.15   0
  11  -8   4   12.00    8.19   0
  11  -8   4    3.19    6.17   0
 -11   8  -4    3.03    6.10   0
  -7  -7   4   38.58    8.41   0
  -6  -7   4   22.94    7.63   0
  -5  -7   4  132.70    7.55   0
  -4  -7   4   16.49    6.98   0
  -3  -7   4   94.40    7.33   0
  -2  -7   4    8.94    9.76   0
  -2  -7   4   14.26   10.23   0
  -2  -7   4   10.79    6.75   0
   1   7  -4   50.40    8.07   0
  -1  -7   4   49.05    7.13   0
  -1  -7   4   51.19    9.61   0
   0   7  -4   49.21    7.34   0
   0  -7   4   45.37    9.05   0
   1  -7   4 1340.25    9.93   0
  -1   7  -4 1414.31   11.34   0
   1  -7   4 1359.76   11.69   0
  -2   7  -4  131.39    7.22   0
   2  -7   4  130.31    7.70   0
   2  -7   4  121.46    7.49   0
   3  -7   4   26.57    7.34   0
  -3   7  -4   30.52    5.74   0
   3  -7   4   42.64    7.58   0
   4  -7   4   13.03    7.53   0
  -4   7  -4   16.56    5.85   0
   4  -7   4   16.13    6.13   0
  -5   7  -4 1824.29   11.35   0
   5  -7   4 1752.19   10.46   0
   5  -7   4 1787.41   10.63   0
   6  -7   4   43.89    6.13   0
  -6   7  -4   40.39    7.24   0
   6  -7   4   42.18    5.51   0
   7  -7   4   13.49    7.08   0
  -7   7  -4   13.59    6.68   0
  -7   7  -4   18.93    6.69   0
   7  -7   4   15.90    6.99   0
  -8   7  -4    4.94    6.71   0
  -8   7  -4    8.57    6.66   0
   8  -7   4    6.05    5.59   0
   8  -7   4   -1.02    6.92   0
  -9   7  -4  227.08    6.37   0
   9  -7   4  234.37    8.22   0
   9  -7   4  216.41    7.56   0
  -9   7  -4  225.16    7.67   0
  10  -7   4   34.15    7.00   0
 -10   7  -4   38.89    5.65   0
  10  -7   4   42.22    7.87   0
 -10   7  -4   33.60    7.21   0
  11  -7   4    9.92    8.08   0
 -11   7  -4   -6.05    7.21   0
  11  -7   4    9.98    7.38   0
  -8  -6   4    5.59    9.66   0
  -7  -6   4   18.67    7.65   0
  -6  -6   4  220.41    8.59   0
  -5  -6   4   40.42    7.46   0
  -4  -6   4  122.18    7.74   0
  -3  -6   4   21.97   11.69   0
  -3  -6   4   17.64   11.52   0
  -3  -6   4   21.26    6.02   0
  -2  -6   4  326.13    8.19   0
  -2  -6   4  313.86   10.94   0
  -2  -6   4  303.15   10.86   0
   1   6  -4    3.09    7.89   0
  -1  -6   4    5.50    8.34   0
  -1  -6   4    0.01    7.33   0
   0  -6   4 2519.69   13.54   0
   0   6  -4 2633.90   16.34   0
   0  -6   4 2542.13   15.61   0
  -1   6  -4  271.47    7.80   0
   1  -6   4  264.20    8.13   0
   1  -6   4  251.99    7.17   0
  -2   6  -4   -1.29    7.06   0
   2  -6   4    3.49    7.37   0
   2  -6   4    2.96    5.96   0
   3  -6   4  104.38    6.33   0
   3  -6   4  104.36    7.57   0
  -3   6  -4   99.19    7.36   0
  -4   6  -4 1610.48   10.49   0
   4  -6   4 1562.14   10.61   0
   4  -6   4 1563.74   10.75   0
  -4   6  -4 1615.50   10.72   0
  -5   6  -4   21.89    6.84   0
  -5   6  -4    6.84    6.97   0
   5  -6   4   10.91    5.96   0
   5  -6   4    5.57    6.06   0
   6  -6   4  148.91    6.55   0
   6  -6   4  155.37    6.52   0
  -6   6  -4  153.60    6.42   0
  -6   6  -4  151.54    7.61   0
  -7   6  -4   21.95    7.03   0
  -7   6  -4   25.67    7.01   0
   7  -6   4   25.03    5.77   0
   7  -6   4   31.75    7.05   0
  -8   6  -4  668.54    9.19   0
   8  -6   4  660.39    7.64   0
  -8   6  -4  693.98    7.63   0
   8  -6   4  697.09    9.50   0
  -9   6  -4    7.31    6.84   0
  -9   6  -4   -3.00    6.75   0
   9  -6   4    8.03    7.36   0
   9  -6   4    5.10    6.92   0
 -10   6  -4   18.46    6.87   0
  10  -6   4   15.31    9.01   0
  10  -6   4   11.79    7.02   0
 -10   6  -4    3.63    8.20   0
  11  -6   4    9.37    8.31   0
 -11   6  -4   11.18    7.34   0
 -11   6  -4    2.98    7.51   0
  11  -6   4   12.90    7.56   0
  -8  -5   4    9.24    9.04   0
  -7  -5   4  252.73    9.84   0
  -6  -5   4    5.98    7.53   0
  -5  -5   4   12.32   12.77   0
  -5  -5   4   11.46   12.33   0
  -5  -5   4   13.26    8.45   0
  -4  -5   4   98.72   11.22   0
  -4  -5   4   89.83    7.49   0
  -4  -5   4   91.21   11.43   0
  -3  -5   4 2542.99   15.26   0
  -3  -5   4 2518.85   20.11   0
  -3  -5   4 2434.49   20.23   0
  -2  -5   4   -5.62    6.90   0
  -2  -5   4    4.63    9.19   0
  -2  -5   4    7.76    7.82   0
  -1  -5   4  581.56   10.16   0
   1   5  -4  597.64   10.98   0
   0  -5   4   87.01    7.75   0
   0  -5   4   76.58    6.46   0
   0   5  -4   84.40    8.54   0
   1  -5   4 2201.43   13.99   0
  -1   5  -4 2268.78   14.14   0
   1  -5   4 2194.16   13.51   0
   2  -5   4  197.00    8.02   0
  -2   5  -4  198.96    7.87   0
  -2   5  -4  215.19    7.92   0
   2  -5   4  199.61    8.20   0
   3  -5   4 1270.07   11.00   0
  -3   5  -4 1307.99   10.08   0
  -3   5  -4 1276.12   10.04   0
   3  -5   4 1254.41   10.18   0
  -4   5  -4   54.70    7.40   0
  -4   5  -4   49.67    7.52   0
   4  -5   4   51.58    7.57   0
   4  -5   4   48.21    7.77   0
   5  -5   4   91.00    7.88   0
  -5   5  -4   77.62    7.56   0
   5  -5   4   83.88    7.87   0
  -5   5  -4   86.04    7.53   0
  -6   5  -4   -6.69    6.92   0
   6  -5   4  -11.44    6.96   0
   6  -5   4    7.01    7.42   0
  -6   5  -4    3.45    5.55   0
  -7   5  -4  680.66    9.06   0
   7  -5   4  677.58    9.34   0
   7  -5   4  691.10    9.15   0
  -7   5  -4  707.10    9.11   0
   8  -5   4   -0.48    7.10   0
   8  -5   4    0.96    5.55   0
  -8   5  -4    6.26    5.46   0
  -8   5  -4   12.35    6.68   0
   9  -5   4   -4.01    7.62   0
  -9   5  -4   10.16    6.72   0
  -9   5  -4    4.08    6.97   0
   9  -5   4    3.64    6.91   0
  10  -5   4    6.08    7.78   0
 -10   5  -4    7.84    6.88   0
 -10   5  -4    8.16    8.24   0
  10  -5   4   -5.31    7.06   0
 -11   5  -4  113.53    7.83   0
  11  -5   4   85.09    7.95   0
  11  -5   4   84.00    8.86   0
 -11   5  -4   74.24    8.10   0
  -9  -4   4    6.49   10.22   0
  -8  -4   4  120.53   12.93   0
  -8  -4   4  111.32   10.67   0
  -8  -4   4  117.10   12.64   0
  -7  -4   4   15.56    9.98   0
  -7  -4   4   17.68   10.84   0
  -7  -4   4   13.98    9.84   0
  -6  -4   4   20.69    9.99   0
  -6  -4   4   16.26   10.42   0
  -6  -4   4   20.20    8.55   0
  -5  -4   4   17.83    9.14   0
  -5  -4   4   15.13    9.52   0
  -5  -4   4   15.79    8.66   0
  -4  -4   4 2320.87   17.93   0
  -4  -4   4 2218.43   15.87   0
  -4  -4   4 2154.09   17.54   0
  -3  -4   4   12.38    8.64   0
  -3  -4   4    3.63    7.69   0
  -3  -4   4    2.73    8.17   0
  -2  -4   4   30.22    8.84   0
  -2  -4   4   25.04    8.54   0
  -2  -4   4   32.13    7.23   0
  -1  -4   4   -0.97    6.95   0
  -1  -4   4   -2.96    7.71   0
   0   4  -4 2898.82   16.76   0
   0  -4   4 2789.95   15.95   0
   0  -4   4 2873.72   15.97   0
  -1   4  -4   69.97    8.08   0
   1  -4   4   72.06    8.24   0
  -1   4  -4   63.62    6.73   0
   1  -4   4   69.25    6.71   0
   2  -4   4  163.04    8.38   0
  -2   4  -4  170.47    6.92   0
  -2   4  -4  162.74    8.23   0
   2  -4   4  161.93    8.38   0
   3  -4   4  163.78    6.74   0
  -3   4  -4  179.11    6.60   0
  -3   4  -4  180.92    7.94   0
   3  -4   4  176.07    6.55   0
   4  -4   4  986.60   10.20   0
  -4   4  -4  995.00   10.05   0
   4  -4   4  957.69    9.56   0
  -4   4  -4  968.33    9.42   0
   5  -4   4   22.34    7.60   0
   5  -4   4   31.58    7.62   0
  -5   4  -4   25.63    7.42   0
  -5   4  -4   19.60    7.30   0
   6  -4   4   16.47    7.08   0
   6  -4   4   14.83    7.55   0
  -6   4  -4   24.81    5.53   0
  -6   4  -4   15.91    7.24   0
   7  -4   4    4.76    5.76   0
   7  -4   4   -0.70    7.44   0
  -7   4  -4    4.96    6.84   0
  -7   4  -4    0.59    6.69   0
   8  -4   4   -1.19    7.08   0
  -8   4  -4   11.67    6.58   0
   8  -4   4    9.04    6.87   0
  -8   4  -4   17.29    6.55   0
  -9   4  -4    2.14    8.15   0
   9  -4   4    9.27    7.57   0
   9  -4   4   11.21    6.90   0
  -9   4  -4   15.45    6.80   0
 -10   4  -4  295.77    8.48   0
  10  -4   4  295.03    9.22   0
 -10   4  -4  302.69    8.77   0
  10  -4   4  293.12    8.60   0
 -11   4  -4    2.49    7.66   0
 -11   4  -4    4.54    7.57   0
  11  -4   4    5.41    7.85   0
  11  -4   4    9.89    8.29   0
 -10  -3   4    6.91   10.89   0
 -10  -3   4    0.22   15.02   0
 -10  -3   4    3.96   14.49   0
   9   3  -4    2.21    8.94   0
  -9  -3   4   80.37    9.91   0
  -9  -3   4   69.86   12.14   0
   8   3  -4   22.01    9.28   0
  -8  -3   4   16.84   10.60   0
  -8  -3   4   17.95    9.27   0
  -7  -3   4  131.47   10.51   0
  -7  -3   4  134.87   10.02   0
   7   3  -4  140.14    8.96   0
   6   3  -4    9.93    8.11   0
  -6  -3   4    3.51    8.45   0
  -6  -3   4    3.24    8.72   0
   5   3  -4 1441.24   14.41   0
  -5  -3   4 1402.48   14.15   0
  -5  -3   4 1419.26   15.00   0
  -4  -3   4   22.68    8.53   0
  -4  -3   4   28.92    8.74   0
   4   3  -4   25.96    8.83   0
  -3  -3   4  124.44    9.16   0
  -3  -3   4  122.33    9.22   0
  -3  -3   4  113.05    8.16   0
  -2  -3   4    4.24    7.14   0
  -2  -3   4   -1.50    7.06   0
  -2  -3   4    1.65    7.19   0
  -1  -3   4 4814.54   21.69   0
  -1  -3   4 4662.58   21.27   0
  -1  -3   4 4975.62   21.47   0
   0   3  -4  108.94    9.10   0
   0  -3   4  110.34    9.47   0
   0  -3   4  105.21    7.61   0
   0   3  -4  105.63    7.81   0
   1  -3   4 1118.48   12.18   0
   1  -3   4 1101.95   11.39   0
  -1   3  -4 1137.60   12.44   0
  -1   3  -4 1145.84   11.11   0
   2  -3   4   22.30    8.35   0
   2  -3   4   14.21    7.85   0
  -2   3  -4   36.39    7.87   0
  -2   3  -4   27.04    6.59   0
  -3   3  -4  509.23    9.28   0
  -3   3  -4  511.46    9.10   0
   3  -3   4  507.51    8.00   0
   3  -3   4  504.51    8.32   0
  -4   3  -4  126.67    6.31   0
   4  -3   4  116.07    7.61   0
   4  -3   4  115.97    6.82   0
  -4   3  -4  121.32    6.52   0
   5  -3   4    8.59    7.73   0
  -5   3  -4   15.06    7.16   0
  -5   3  -4   11.71    6.06   0
   5  -3   4   16.16    7.22   0
   6  -3   4   11.10    7.66   0
  -6   3  -4   13.61    6.90   0
  -6   3  -4   -1.49    7.00   0
   6  -3   4    3.80    6.92   0
  -7   3  -4   73.54    7.01   0
   7  -3   4   81.31    7.63   0
  -7   3  -4   94.93    6.86   0
   7  -3   4   83.92    7.04   0
   8  -3   4  -10.19    7.40   0
  -8   3  -4    4.58    6.67   0
  -8   3  -4    4.97    6.80   0
   8  -3   4    2.52    6.80   0
  -9   3  -4  140.66    7.55   0
   9  -3   4  154.58    8.41   0
  -9   3  -4  153.92    7.66   0
   9  -3   4  144.07    7.63   0
 -10   3  -4   -3.76    7.28   0
  10  -3   4    1.66    7.54   0
 -10   3  -4   -3.21    8.62   0
  10  -3   4   -1.22    7.99   0
  10   2  -4    6.96    8.51   0
 -10  -2   4    4.51    8.79   0
   9   2  -4    4.99    8.38   0
  -9  -2   4    8.87    8.22   0
  -8  -2   4  633.16   18.00   0
   8   2  -4  670.50   11.26   0
  -8  -2   4  625.74   11.06   0
   7   2  -4   23.43    8.24   0
  -7  -2   4   25.92   11.76   0
  -7  -2   4   28.41    8.48   0
   6   2  -4  656.11   11.02   0
  -6  -2   4  614.37   16.26   0
  -6  -2   4  606.85   10.67   0
  -5  -2   4    2.71    8.85   0
   5   2  -4    6.61    9.09   0
  -5  -2   4    1.03   10.04   0
  -5  -2   4    3.89   11.05   0
  -4  -2   4   46.00    9.97   0
   4   2  -4   37.95    7.76   0
  -4  -2   4   40.48   10.29   0
  -4  -2   4   38.38    7.66   0
  -3  -2   4   22.61    7.62   0
  -3  -2   4   24.37    9.41   0
   3   2  -4   25.32    8.61   0
  -2  -2   4 3533.66   18.67   0
  -2  -2   4 3587.81   22.07   0
   2   2  -4 3569.31   18.76   0
  -1  -2   4    8.00    8.83   0
   1   2  -4   11.39    9.21   0
  -1  -2   4    6.04    7.54   0
  -1  -2   4   10.63    9.18   0
   0  -2   4   93.01    7.96   0
   0   2  -4   88.08   10.12   0
   0  -2   4   90.44   10.52   0
   1  -2   4    6.92    8.78   0
  -1   2  -4   -6.25    9.17   0
  -1   2  -4    4.80    6.97   0
   1  -2   4   -0.88    9.63   0
  -2   2  -4 5114.54   19.28   0
   2  -2   4 5192.06   19.11   0
  -2   2  -4 5312.96   19.47   0
   2  -2   4 4965.76   19.31   0
  -3   2  -4  351.78    9.00   0
   3  -2   4  356.87    7.45   0
   3  -2   4  353.13    9.27   0
  -3   2  -4  373.39    7.51   0
  -4   2  -4  191.03    7.14   0
   4  -2   4  182.23    7.18   0
  -4   2  -4  182.67    7.56   0
   4  -2   4  189.97    7.67   0
  -5   2  -4   18.07    7.41   0
   5  -2   4   13.20    7.18   0
   5  -2   4   15.24    7.96   0
  -5   2  -4   24.15    6.85   0
  -6   2  -4 1373.20   11.13   0
   6  -2   4 1378.86   10.70   0
  -6   2  -4 1383.04   11.15   0
   6  -2   4 1332.09   11.18   0
   7  -2   4   13.95    7.30   0
  -7   2  -4   11.93    6.91   0
  -7   2  -4    8.86    6.25   0
   7  -2   4    8.95    6.91   0
  -8   2  -4   45.07    7.28   0
   8  -2   4   51.66    6.95   0
  -8   2  -4   57.29    8.03   0
   8  -2   4   49.71    7.56   0
  -9   2  -4   -0.04    8.05   0
   9  -2   4    1.80    7.17   0
  -9   2  -4   -0.41    8.07   0
   9  -2   4  -10.06    7.25   0
  10  -2   4   60.24    8.38   0
 -10   2  -4   66.41    8.04   0
 -10   2  -4   65.99    9.04   0
  10  -2   4   63.65    8.02   0
  10   1  -4    1.39    8.56   0
 -10  -1   4   -3.32    7.34   0
   9   1  -4  440.75    9.14   0
  -9  -1   4  442.88    9.26   0
   8   1  -4    0.15    8.08   0
  -8  -1   4    9.65    7.29   0
   7   1  -4   91.25    7.33   0
  -7  -1   4   88.01    7.70   0
   6   1  -4    2.51    7.17   0
  -6  -1   4    0.07    7.54   0
   5   1  -4 1565.06   12.73   0
  -5  -1   4 1507.85   12.28   0
   4   1  -4   18.98    7.28   0
  -4  -1   4   13.95   15.80   0
  -4  -1   4   15.53   16.04   0
  -4  -1   4   16.84    7.40   0
  -3  -1   4  266.61    9.16   0
   3   1  -4  273.18    9.30   0
  -3  -1   4  271.09   13.41   0
  -2  -1   4    6.69    8.63   0
  -2  -1   4   -0.68    9.05   0
   2   1  -4    7.33    6.92   0
   2   1  -4    4.33    8.71   0
   1   1  -4    0.08    9.59   0
   1   1  -4   11.92    9.16   0
  -1  -1   4    9.01    7.67   0
  -1  -1   4    9.62   10.01   0
   0  -1   4  155.99    8.05   0
   0  -1   4  136.42   11.12   0
   0  -1   4  145.65    9.71   0
   0   1  -4  144.73   10.53   0
  -1   1  -4  893.11   10.55   0
   1  -1   4  910.60   10.47   0
   1  -1   4  863.26   12.41   0
  -1   1  -4  883.25   11.99   0
   2  -1   4  164.16    9.00   0
   2  -1   4  185.97    8.42   0
  -2   1  -4  176.85    8.45   0
  -2   1  -4  178.00    7.50   0
   3  -1   4   27.01    6.63   0
  -3   1  -4   39.93    7.06   0
   3  -1   4   33.82    5.95   0
  -3   1  -4   22.75    6.32   0
   4  -1   4    3.41    6.86   0
   4  -1   4    8.84    7.17   0
  -4   1  -4   10.69    7.04   0
  -4   1  -4    8.58    7.88   0
   5  -1   4 1553.24   11.97   0
  -5   1  -4 1574.31   12.27   0
   5  -1   4 1531.22   12.04   0
  -5   1  -4 1553.14   11.46   0
   6  -1   4    1.68    7.12   0
  -6   1  -4    4.19    7.60   0
   6  -1   4    2.16    6.77   0
  -6   1  -4    9.04    6.98   0
  -7   1  -4   18.07    6.82   0
   7  -1   4   25.93    8.16   0
   7  -1   4    9.65    7.28   0
  -7   1  -4   15.39    6.88   0
  -8   1  -4   18.36    7.16   0
   8  -1   4    4.84    8.13   0
  -8   1  -4   15.68    8.05   0
   8  -1   4   17.21    7.41   0
  -9   1  -4  131.47    8.37   0
  -9   1  -4  136.03    8.07   0
   9  -1   4  138.28    9.31   0
   9  -1   4  141.64    8.45   0
 -10   1  -4    4.38    9.00   0
 -10   1  -4   -5.95    7.99   0
  10  -1   4   -1.80    8.11   0
  10  -1   4    2.30    8.58   0
  11   0  -4   10.76    8.98   0
 -11   0   4    0.28    7.66   0
  10   0  -4  333.26    9.58   0
 -10   0   4  345.18    8.72   0
   9   0  -4    5.77    6.92   0
  -9   0   4    4.51    7.03   0
   8   0  -4    7.79    6.92   0
  -8   0   4   12.86    6.85   0
   7   0  -4   82.79    7.29   0
  -7   0   4   72.76    7.71   0
   6   0  -4 1267.37   11.05   0
  -6   0   4 1259.90   11.21   0
   5   0  -4    3.75    7.05   0
  -5   0   4   -2.81    7.49   0
   4   0  -4  414.57    7.74   0
  -4   0   4  393.02    8.96   0
   3   0  -4    5.23    7.95   0
   3   0  -4    4.38   10.92   0
  -3   0   4    6.31    6.71   0
  -3   0   4    6.43   10.86   0
  -2   0   4 1070.17   10.75   0
  -2   0   4 1075.15   15.25   0
   2   0  -4 1098.57   11.87   0
   2   0  -4 1115.81   13.99   0
   1   0  -4   34.78    7.17   0
  -1   0   4   42.99    9.07   0
  -1   0   4   43.46   10.24   0
   1   0  -4   39.19    9.72   0
   0   0   4   65.72    9.88   0
   0   0   4   72.68    7.28   0
   0   0  -4   73.48    7.92   0
   1   0   4    6.20    7.20   0
   1   0   4    8.74    6.62   0
   1   0   4   10.44    7.89   0
  -1   0  -4    5.03    7.05   0
   2   0   4  771.66    9.55   0
   2   0   4  788.67   10.36   0
  -2   0  -4  794.34   10.64   0
   3   0   4   -2.28    6.57   0
  -3   0  -4    8.22    7.48   0
  -3   0  -4   -4.05    6.53   0
   3   0   4    4.28    7.33   0
   4   0   4 1594.32   13.40   0
  -4   0  -4 1616.02   12.22   0
  -4   0  -4 1690.44   13.09   0
   4   0   4 1630.73   11.48   0
   5   0   4    5.72    7.81   0
  -5   0  -4    4.68    6.81   0
  -5   0  -4   16.76    7.22   0
   5   0   4    5.55    7.62   0
  -6   0  -4   80.19    7.30   0
   6   0   4   92.16    7.10   0
   6   0   4   96.64    7.69   0
  -6   0  -4   85.73    8.09   0
  -7   0  -4    7.50    7.78   0
   7   0   4    5.69    7.96   0
  -7   0  -4    9.22    5.79   0
   7   0   4    1.56    7.17   0
   8   0   4  252.06    8.39   0
   8   0   4  239.33    9.31   0
  -8   0  -4  238.45    8.02   0
  -8   0  -4  250.32    9.43   0
  -9   0  -4    3.62    7.72   0
  -9   0  -4    8.82    8.62   0
   9   0   4    8.65    7.68   0
   9   0   4    3.14    8.21   0
  11  -1  -4   99.11    8.18   0
 -11   1   4  101.18    8.27   0
  10  -1  -4    8.67    7.27   0
 -10   1   4    6.01    7.27   0
   9  -1  -4   18.58    7.01   0
  -9   1   4   22.69    7.11   0
   8  -1  -4   -2.15    6.79   0
  -8   1   4    4.34    5.55   0
   7  -1  -4 1085.88   10.19   0
  -7   1   4 1044.80   10.55   0
   6  -1  -4   75.32    7.35   0
  -6   1   4   76.00    7.55   0
  -5   1   4    0.28    7.78   0
   5  -1  -4   -1.37    7.48   0
  -4   1   4  112.38   12.94   0
   4  -1  -4  112.69    6.53   0
   4  -1  -4  112.19   13.28   0
  -4   1   4  113.80    6.78   0
   3  -1  -4 3119.34   14.82   0
   3  -1  -4 3111.36   22.23   0
  -3   1   4 3107.95   22.42   0
  -3   1   4 3033.67   14.67   0
  -2   1   4    8.77    6.65   0
   2  -1  -4    3.90    8.23   0
   2  -1  -4    6.64    7.84   0
  -2   1   4    7.31    8.40   0
   1  -1  -4   78.82    9.48   0
  -1   1   4   66.34    8.48   0
   1  -1  -4   71.39    8.40   0
  -1   1   4   84.19    9.49   0
   0   1   4   14.36    8.21   0
   0  -1  -4   12.35    7.88   0
   0   1   4    9.23    7.09   0
   0  -1  -4    8.47    7.07   0
  -1  -1  -4 1099.09   10.38   0
   1   1   4 1068.34   11.57   0
   1   1   4 1134.96   11.43   0
   1   1   4 1097.58   10.50   0
   2   1   4    4.00    8.38   0
   2   1   4    2.04    7.45   0
  -2  -1  -4   -1.25    6.73   0
   2   1   4   12.54    8.36   0
  -3  -1  -4  799.40   10.34   0
   3   1   4  807.39   10.41   0
   3   1   4  805.87   10.41   0
   3   1   4  778.80   11.43   0
   4   1   4    5.24    8.04   0
   4   1   4    9.81    7.82   0
  -4  -1  -4    4.35    7.65   0
   4   1   4    1.48    7.77   0
  -5  -1  -4  272.65    8.34   0
   5   1   4  260.04    9.08   0
   5   1   4  259.21    6.90   0
   6   1   4    1.94    7.93   0
  -6  -1  -4    3.48    5.75   0
   6   1   4   -2.30    5.63   0
  -7  -1  -4  270.92    8.28   0
   7   1   4  287.67    8.19   0
   7   1   4  275.81   10.57   0
   8   1   4   -1.50    8.60   0
   8   1   4    8.52    7.44   0
   8   1   4    3.44    8.58   0
  -8  -1  -4    6.68    7.48   0
  11  -2  -4    9.02    7.55   0
 -11   2   4   -4.29    7.58   0
  10  -2  -4   62.25    7.32   0
 -10   2   4   58.36    7.20   0
   9  -2  -4    2.77    5.50   0
  -9   2   4   -2.98    6.82   0
   8  -2  -4  132.83    6.10   0
  -8   2   4  129.84    6.30   0
   7  -2  -4  106.07    7.56   0
  -7   2   4   91.75    6.36   0
   6  -2  -4  146.54    7.53   0
  -6   2   4  144.92    6.65   0
   5  -2  -4  157.80   13.43   0
   5  -2  -4  160.05    6.72   0
  -5   2   4  167.54    6.95   0
   4  -2  -4  540.08    8.17   0
   4  -2  -4  550.47   13.00   0
  -4   2   4  557.81   12.24   0
  -4   2   4  542.25    9.46   0
   3  -2  -4   57.19    7.59   0
   3  -2  -4   68.08    9.67   0
  -3   2   4   61.60    9.35   0
  -3   2   4   66.26    6.50   0
   2  -2  -4   24.92    8.27   0
   2  -2  -4   27.44    6.29   0
  -2   2   4   25.69    8.18   0
  -2   2   4   33.36    7.72   0
  -1   2   4   57.70    6.54   0
   1  -2  -4   62.20    6.95   0
   1  -2  -4   58.58    7.89   0
  -1   2   4   55.71    8.32   0
   0   2   4 4379.02   18.98   0
   0  -2  -4 4490.99   17.49   0
   0  -2  -4 4446.58   18.79   0
   0   2   4 4551.73   17.34   0
   1   2   4   23.84    7.32   0
  -1  -2  -4   23.66    6.92   0
   1   2   4   26.22    8.05   0
   1   2   4   18.76    6.72   0
   2   2   4   26.20    7.17   0
   2   2   4   29.83    7.12   0
  -2  -2  -4   16.41    6.62   0
   2   2   4    9.00    8.12   0
   3   2   4   10.86    8.16   0
   3   2   4   -1.78    7.86   0
   3   2   4    1.75    7.56   0
  -3  -2  -4    2.59    6.46   0
   4   2   4  358.90   10.11   0
  -4  -2  -4  366.54    8.61   0
   4   2   4  361.60   10.58   0
   4   2   4  362.55    7.38   0
   5   2   4   15.70    8.98   0
  -5  -2  -4    9.69    5.83   0
   5   2   4   13.19    8.62   0
   5   2   4   11.05    5.75   0
  -6  -2  -4   14.16    7.30   0
   6   2   4   20.21    9.09   0
   6   2   4   17.68    7.10   0
   6   2   4   17.29    9.17   0
   7   2   4    1.05    9.53   0
  -7  -2  -4    9.71    7.37   0
   7   2   4   12.44    7.48   0
   7   2   4    1.46   10.06   0
   8   2   4    2.62   12.03   0
   8   2   4   57.34    8.01   0
  -8  -2  -4   58.67    8.14   0
   8   2   4    1.36   11.62   0
  11  -3  -4  128.26    7.88   0
 -11   3   4  129.52    8.10   0
  10  -3  -4    3.45    7.03   0
 -10   3   4    8.38    5.61   0
   9  -3  -4   69.19    5.66   0
  -9   3   4   63.40    7.27   0
  -8   3   4   61.63    7.09   0
   8  -3  -4   44.13    6.93   0
   7  -3  -4  102.51    7.31   0
  -7   3   4  114.13    7.68   0
   6  -3  -4  191.66    6.32   0
   6  -3  -4  188.91   13.65   0
  -6   3   4  187.07    7.97   0
   6  -3  -4  197.06   12.66   0
   5  -3  -4  190.71   10.67   0
  -5   3   4  179.96    6.81   0
   5  -3  -4  193.28    6.64   0
   4  -3  -4   35.60    9.61   0
   4  -3  -4   40.87    6.38   0
  -4   3   4   41.08    8.95   0
  -4   3   4   38.36    6.55   0
   3  -3  -4   48.41    9.54   0
   3  -3  -4   32.27    7.84   0
  -3   3   4   30.80    9.12   0
  -3   3   4   34.73    7.92   0
   2  -3  -4   20.29    6.34   0
  -2   3   4   30.44    7.74   0
  -2   3   4   15.91    6.19   0
   2  -3  -4   22.11    6.22   0
   1  -3  -4 2534.18   13.69   0
   1  -3  -4 2553.14   14.37   0
  -1   3   4 2555.05   14.51   0
  -1   3   4 2535.09   14.54   0
   0  -3  -4    7.09    8.31   0
   0  -3  -4    6.56    7.18   0
   0   3   4   11.22    6.51   0
   0   3   4    6.30    7.58   0
   1   3   4  125.76    8.09   0
   1   3   4  119.29    7.63   0
  -1  -3  -4  126.51    8.21   0
   1   3   4  126.18    6.64   0
   2   3   4    5.16    7.47   0
   2   3   4    6.00    8.10   0
  -2  -3  -4   -8.28    7.81   0
   2   3   4    1.56    7.68   0
   3   3   4  606.47   12.23   0
  -3  -3  -4  610.33    8.28   0
   3   3   4  635.80   11.87   0
   3   3   4  608.40    9.30   0
   4   3   4    5.10    9.08   0
   4   3   4    5.14    6.97   0
  -4  -3  -4   12.01    7.35   0
   4   3   4    5.34    8.74   0
   5   3   4   22.75   10.22   0
  -5  -3  -4   21.47    7.29   0
   5   3   4   22.41    9.73   0
   5   3   4   12.73    7.45   0
   6   3   4   -0.34   10.58   0
   6   3   4    2.13    7.16   0
   6   3   4    1.02   10.35   0
  -6  -3  -4   -2.79    6.20   0
   7   3   4  132.94    6.92   0
  -7  -3  -4  143.86    8.22   0
  11  -4  -4   14.61    7.31   0
 -11   4   4    9.02    6.23   0
  10  -4  -4   45.40    5.83   0
 -10   4   4   41.20    7.36   0
  -9   4   4    9.60    7.10   0
   9  -4  -4   18.20    5.63   0
  -8   4   4  334.87    6.92   0
   8  -4  -4  332.79    8.00   0
   7  -4  -4   12.03   11.68   0
   7  -4  -4   13.83   10.10   0
  -7   4   4   23.40    7.07   0
   7  -4  -4   21.57    6.91   0
   6  -4  -4   52.42    7.32   0
  -6   4   4   37.38    6.31   0
   6  -4  -4   39.27    9.82   0
   5  -4  -4   11.24    6.82   0
  -5   4   4   12.13    7.52   0
   5  -4  -4   12.09    8.76   0
   4  -4  -4 1074.37    9.31   0
  -4   4   4 1082.78   12.26   0
  -4   4   4 1067.75   10.47   0
   4  -4  -4 1063.28   12.49   0
   3  -4  -4    2.31    7.44   0
  -3   4   4    4.70    7.15   0
  -3   4   4    9.45    7.81   0
   3  -4  -4    6.84    6.13   0
   2  -4  -4 1095.50   10.34   0
   2  -4  -4 1054.74   10.93   0
  -2   4   4 1062.90   10.72   0
  -2   4   4 1074.52   10.99   0
   1  -4  -4   41.46    8.34   0
   1  -4  -4   39.32    7.35   0
  -1   4   4   34.60    6.62   0
  -1   4   4   44.69    7.69   0
   0  -4  -4  222.64    7.19   0
   0   4   4  241.16    8.53   0
   0  -4  -4  232.51    9.40   0
   0   4   4  226.35    8.21   0
  -1  -4  -4   13.90    6.44   0
   1   4   4    7.10    7.63   0
   1   4   4    9.71    7.55   0
   1   4   4   16.30    8.41   0
  -2  -4  -4  618.18    9.49   0
   2   4   4  634.45   10.92   0
   2   4   4  653.85    8.13   0
   2   4   4  617.43   11.41   0
  -3  -4  -4   -6.04    5.99   0
   3   4   4    9.57    7.22   0
   3   4   4    2.90    8.67   0
   3   4   4    3.93    9.40   0
   4   4   4    6.27    9.93   0
   4   4   4   -6.22    6.88   0
  -4  -4  -4    1.66    7.36   0
   4   4   4    3.56   10.84   0
  -5  -4  -4   21.59    7.24   0
   5   4   4    9.06    5.89   0
   5   4   4    1.29   11.68   0
   5   4   4    0.88   12.44   0
  -6  -4  -4  114.33    8.44   0
   6   4   4  126.93    8.11   0
  11  -5  -4    1.47    7.93   0
 -11   5   4    7.89    7.63   0
 -10   5   4    9.97    5.90   0
  10  -5  -4    5.57    5.78   0
  -9   5   4  215.05    6.45   0
   9  -5  -4  204.15    7.50   0
   8  -5  -4   49.35   11.19   0
  -8   5   4   38.23    6.05   0
   8  -5  -4   50.08   10.64   0
   8  -5  -4   59.63    5.83   0
   7  -5  -4    2.96    8.00   0
  -7   5   4   -6.41    5.58   0
   7  -5  -4    3.32    9.70   0
   7  -5  -4   10.44    6.74   0
   6  -5  -4    5.56    5.73   0
  -6   5   4    5.15    6.05   0
   6  -5  -4    5.50    8.48   0
   5  -5  -4  858.93    8.48   0
   5  -5  -4  854.74   11.48   0
  -5   5   4  869.65    9.76   0
   4  -5  -4   19.99    6.89   0
  -4   5   4    4.63    5.93   0
   4  -5  -4   11.75    7.50   0
  -4   5   4    5.15    7.10   0
   3  -5  -4  132.52    7.59   0
  -3   5   4  122.25    7.65   0
  -3   5   4  133.86    6.52   0
   3  -5  -4  125.54    8.09   0
   2  -5  -4   18.42    7.26   0
  -2   5   4   13.56    7.56   0
  -2   5   4    6.67    7.10   0
   2  -5  -4   20.22    7.65   0
   1  -5  -4  202.51    7.97   0
  -1   5   4  184.67    6.79   0
  -1   5   4  199.11    9.20   0
   1  -5  -4  180.66    7.02   0
   0  -5  -4   13.29    7.82   0
   0   5   4   19.12    7.45   0
   0  -5  -4   23.95    8.17   0
   0   5   4   30.27    6.05   0
  -1  -5  -4  259.56    6.84   0
   1   5   4  262.01    6.65   0
   1   5   4  273.30    8.89   0
   1   5   4  266.93    9.47   0
  -2  -5  -4    6.75    6.15   0
   2   5   4    3.16    8.52   0
   2   5   4   19.24    7.28   0
   2   5   4    2.10    9.37   0
   3   5   4   62.97   10.28   0
  -3  -5  -4   64.78    7.65   0
   3   5   4   60.42    9.70   0
   3   5   4   62.58    6.08   0
  -4  -5  -4    9.47    7.28   0
   4   5   4    3.62    7.26   0
   4   5   4    1.42   12.62   0
   4   5   4    0.27   12.29   0
   5   5   4  159.20    6.64   0
  -5  -5  -4  145.41    8.46   0
   6   5   4    3.51    7.71   0
  -6  -5  -4    4.61    8.18   0
 -11   6   4   -5.68    7.40   0
  11  -6  -4    4.99    6.33   0
 -10   6   4   56.24    7.24   0
  10  -6  -4   40.57    6.22   0
   9  -6  -4    2.60    9.99   0
   9  -6  -4   -0.04   10.32   0
  -9   6   4   12.03    7.24   0
   9  -6  -4    8.32    7.08   0
   8  -6  -4   33.73    8.94   0
  -8   6   4   42.87    6.07   0
   8  -6  -4   34.83    9.43   0
   8  -6  -4   34.13    7.02   0
   7  -6  -4   12.66    6.85   0
  -7   6   4   -3.50    5.76   0
   7  -6  -4   -1.56    9.15   0
   6  -6  -4 1032.43    8.66   0
  -6   6   4 1053.06    9.98   0
   6  -6  -4 1021.29   11.33   0
   5  -6  -4   -5.13    6.79   0
  -5   6   4   -2.99    5.84   0
   5  -6  -4    7.76    7.28   0
   4  -6  -4    8.57    6.71   0
   4  -6  -4    5.40    7.37   0
  -4   6   4   10.85    7.00   0
   3  -6  -4   59.53    7.12   0
  -3   6   4   68.29    6.35   0
  -3   6   4   54.13    7.02   0
   3  -6  -4   53.27    7.58   0
   2  -6  -4  455.35    8.61   0
  -2   6   4  450.47    8.21   0
  -2   6   4  444.84    8.94   0
   2  -6  -4  403.09    8.55   0
   1  -6  -4   35.77    6.83   0
  -1   6   4   37.28    5.69   0
  -1   6   4   42.02    7.17   0
   1  -6  -4   20.62    7.30   0
   0  -6  -4   28.32    6.09   0
   0   6   4   16.55    5.76   0
   0   6   4   21.85    7.98   0
   0  -6  -4   19.20    6.68   0
  -1  -6  -4    9.68    7.43   0
   1   6   4    8.34    8.52   0
   1   6   4    8.98    5.75   0
   1   6   4    6.25    8.10   0
  -2  -6  -4  188.29    7.81   0
   2   6   4  172.72    9.68   0
   2   6   4  231.01    7.68   0
   2   6   4  185.24   11.16   0
  -3  -6  -4    7.58    6.19   0
   3   6   4    1.80   10.66   0
   3   6   4   21.02    7.21   0
   3   6   4    2.04   10.89   0
   4   6   4   15.96    7.39   0
  -4  -6  -4   19.31    6.25   0
 -11   7   4   25.34    8.06   0
  11  -7  -4   17.57    6.50   0
  10  -7  -4    2.27   11.36   0
  10  -7  -4    1.54   12.46   0
 -10   7   4    6.90    7.61   0
  10  -7  -4    8.37    7.47   0
   9  -7  -4    5.12    8.34   0
  -9   7   4   29.54    5.96   0
   9  -7  -4    2.71    8.66   0
   9  -7  -4   27.56    5.85   0
   8  -7  -4    6.29    6.93   0
  -8   7   4    8.36    5.81   0
   8  -7  -4    5.48    8.26   0
   8  -7  -4    0.39    7.73   0
   7  -7  -4  250.76    7.76   0
  -7   7   4  246.88    6.76   0
   7  -7  -4  231.95    8.29   0
   6  -7  -4    6.15    5.45   0
  -6   7   4    6.98    7.11   0
   6  -7  -4   -1.68    8.27   0
   5  -7  -4  147.69    6.05   0
  -5   7   4  159.09    7.47   0
   5  -7  -4  151.78    7.74   0
   4  -7  -4   43.98    7.03   0
   4  -7  -4   36.55    7.21   0
  -4   7   4   46.57    7.26   0
   3  -7  -4  239.24    7.68   0
  -3   7   4  224.22    6.46   0
  -3   7   4  225.58    6.68   0
   3  -7  -4  218.51    7.68   0
   2  -7  -4    8.80    6.99   0
  -2   7   4    4.69    7.35   0
  -2   7   4    4.06    6.75   0
   2  -7  -4    5.10    5.74   0
  -1   7   4   31.50    6.02   0
  -1   7   4   16.80    7.23   0
   1  -7  -4   19.89    7.08   0
   1  -7  -4   21.63    7.39   0
   0  -7  -4   26.81    7.37   0
   0   7   4   30.30    7.04   0
   0  -7  -4   27.10    8.26   0
   0   7   4   19.06    8.50   0
  -1  -7  -4  201.90    8.13   0
   1   7   4  124.44    8.65   0
   1   7   4  215.43    7.90   0
   1   7   4  186.18    9.37   0
  -2  -7  -4    2.21    6.33   0
   2   7   4    0.40    9.78   0
   2   7   4    0.86   10.01   0
   2   7   4    4.03    5.96   0
  -3  -7  -4   16.01    7.85   0
   3   7   4   12.83    7.50   0
  10  -8  -4  129.32    6.83   0
  10  -8  -4    1.89   10.28   0
 -10   8   4   99.28    8.39   0
  10  -8  -4    5.31    9.58   0
   9  -8  -4   -2.69    6.10   0
  -9   8   4   -1.78    7.51   0
   9  -8  -4    4.06    7.76   0
   9  -8  -4   -2.50    8.19   0
   8  -8  -4   23.48    7.17   0
  -8   8   4   14.02    6.01   0
   8  -8  -4   13.36    8.27   0
   8  -8  -4   15.61    7.51   0
   7  -8  -4    4.35    5.68   0
  -7   8   4   13.43    7.08   0
   7  -8  -4   10.25    7.23   0
   6  -8  -4   39.77    5.66   0
  -6   8   4   45.51    7.23   0
   6  -8  -4   57.68    7.62   0
   5  -8  -4    5.36    5.57   0
  -5   8   4    3.18    5.83   0
   5  -8  -4    9.73    7.04   0
   4  -8  -4  191.56    6.44   0
  -4   8   4  177.33    7.83   0
   4  -8  -4  193.75    7.90   0
   3  -8  -4   24.84    7.04   0
  -3   8   4   22.77    7.29   0
   3  -8  -4   20.53    7.34   0
   2  -8  -4    9.47    7.20   0
  -2   8   4   10.76    5.69   0
  -2   8   4   14.57    7.14   0
   2  -8  -4   18.22    7.22   0
  -1   8   4   10.68    5.77   0
   1  -8  -4   18.06    7.19   0
  -1   8   4   19.76    7.06   0
   1  -8  -4   28.84    6.05   0
   0   8   4  175.56    7.71   0
   0  -8  -4  162.33    6.74   0
   0   8   4  121.79    9.82   0
  -1  -8  -4    8.18    6.32   0
   1   8   4    3.22    8.69   0
   1   8   4    9.94    7.65   0
   1   8   4   -0.36    9.68   0
  -2  -8  -4   12.34    8.28   0
   2   8   4    2.28   15.29   0
   2   8   4   19.94    7.93   0
   2   8   4   -0.84   15.90   0
   9  -9  -4    9.29    7.79   0
   9  -9  -4    0.26    7.14   0
  -9   9   4    1.81    7.79   0
   9  -9  -4    2.37    8.62   0
   8  -9  -4   26.17    7.27   0
  -8   9   4   12.18    7.56   0
   8  -9  -4    7.82    8.77   0
   7  -9  -4   23.53    5.87   0
  -7   9   4   35.56    7.52   0
   7  -9  -4   27.54    7.82   0
   6  -9  -4    1.95    7.26   0
  -6   9   4    0.80    6.04   0
   6  -9  -4   16.84    7.60   0
   5  -9  -4   17.90    7.08   0
  -5   9   4   18.36    5.98   0
   5  -9  -4    7.00    7.47   0
   4  -9  -4   -1.28    7.14   0
  -4   9   4    0.47    7.40   0
   4  -9  -4   -7.19    7.06   0
   3  -9  -4   99.55    7.78   0
  -3   9   4  107.77    7.84   0
   3  -9  -4   85.26    7.65   0
   2  -9  -4   13.55    8.46   0
  -2   9   4    3.35    7.35   0
   2  -9  -4   -6.06    7.34   0
   1  -9  -4   75.52    7.87   0
   1  -9  -4   77.10    9.28   0
  -1   9   4   36.02    8.62   0
   0  -9  -4    0.31    6.57   0
   0   9   4    8.14    6.35   0
   0   9   4    3.49    8.19   0
   0   9   4    3.50    9.10   0
   8 -10  -4   11.76    7.62   0
  -8  10   4   11.55    6.43   0
   8 -10  -4    9.97    8.22   0
   7 -10  -4    8.56    7.60   0
  -7  10   4   -1.43    7.79   0
   7 -10  -4    9.43    7.94   0
   6 -10  -4   20.79    7.43   0
  -6  10   4   21.34    7.95   0
   6 -10  -4   13.55    7.83   0
   5 -10  -4   13.85    7.60   0
  -5  10   4    9.01    7.68   0
   5 -10  -4   -0.99    7.70   0
   4 -10  -4   33.37    9.10   0
  -4  10   4   36.94    8.10   0
   4 -10  -4   55.37    7.93   0
   3 -10  -4    2.10    9.03   0
  -3  10   4    6.38    7.85   0
   3 -10  -4   10.12    6.17   0
   2 -10  -4    2.55    8.93   0
  -2  10   4    4.20    7.43   0
   2 -10  -4   12.02    6.48   0
  -4  14  -5  158.96    8.56   0
   4 -14   5  140.17    8.20   0
   4 -14   5  129.95    8.28   0
   4 -14   5  133.27    8.73   0
  -5  14  -5   14.45    7.65   0
   5 -14   5    9.94    7.74   0
   5 -14   5   13.72    6.29   0
   5 -14   5   11.75    7.91   0
   0 -13   5   -2.14    7.54   0
   0 -13   5    5.80   11.98   0
  -1  13  -5    6.80    8.87   0
   1 -13   5   89.15    7.87   0
   1 -13   5  109.56    9.59   0
   1 -13   5  102.26    6.65   0
   2 -13   5    3.85    7.18   0
   2 -13   5   14.50    7.59   0
  -2  13  -5   12.19    8.35   0
   2 -13   5    0.55    5.95   0
  -3  13  -5  129.53    7.86   0
   3 -13   5  130.41    6.40   0
   3 -13   5  126.77    7.59   0
   3 -13   5  128.09    8.31   0
  -4  13  -5   -0.47    7.22   0
   4 -13   5    0.95    5.95   0
   4 -13   5   -6.69    7.36   0
   4 -13   5    5.28    7.46   0
  -5  13  -5   82.57    7.54   0
   5 -13   5   76.36    7.56   0
   5 -13   5   82.71    7.71   0
   5 -13   5   94.04    7.64   0
  -6  13  -5   -0.53    5.79   0
   6 -13   5   -5.73    5.63   0
   6 -13   5    4.72    7.33   0
   6 -13   5    6.71    5.98   0
  -7  13  -5   58.53    7.43   0
   7 -13   5   60.77    6.31   0
   7 -13   5   48.73    6.34   0
   7 -13   5   49.55    6.36   0
   8 -13   5   -3.21    6.40   0
  -8  13  -5    0.13    6.49   0
   8 -13   5    7.67    7.31   0
  -2 -12   5   16.30    8.05   0
  -1 -12   5    4.93   17.20   0
  -1 -12   5    3.08   17.24   0
  -1 -12   5    5.39    7.38   0
   0  12  -5    4.59    8.43   0
   0 -12   5  399.31   12.12   0
   0 -12   5  387.03    8.37   0
  -1  12  -5    2.81    7.97   0
   1 -12   5   10.27    7.05   0
   1 -12   5    0.86    5.65   0
   1 -12   5   13.58    8.10   0
   2 -12   5   68.92    5.79   0
  -2  12  -5   60.69    8.26   0
   2 -12   5   68.97    5.95   0
   2 -12   5   73.48    7.59   0
  -3  12  -5   25.91    6.61   0
   3 -12   5   17.74    5.66   0
   3 -12   5   17.10    5.73   0
   3 -12   5   19.53    8.22   0
   4 -12   5  175.46    7.41   0
  -4  12  -5  181.90    7.36   0
   4 -12   5  180.48    7.69   0
   4 -12   5  175.26    6.40   0
  -5  12  -5   -4.73    6.45   0
   5 -12   5    8.12    5.62   0
   5 -12   5   16.62    5.92   0
   6 -12   5  171.84    6.30   0
  -6  12  -5  151.20    7.63   0
   6 -12   5  167.76    7.55   0
  -7  12  -5   -2.55    7.02   0
   7 -12   5    4.64    5.70   0
   7 -12   5    7.21    7.18   0
  -8  12  -5   -1.45    5.80   0
   8 -12   5    2.01    5.97   0
   8 -12   5    9.30    7.24   0
  -9  12  -5   17.39    7.23   0
   9 -12   5    9.79    6.26   0
   9 -12   5    3.03    6.25   0
  -3 -11   5   -0.78    7.77   0
  -2 -11   5    1.79    5.92   0
  -1 -11   5  497.16   14.96   0
  -1 -11   5  603.74   15.10   0
  -1 -11   5  609.12    9.04   0
   0 -11   5    4.57    5.63   0
   0 -11   5    1.27    8.36   0
   0  11  -5   11.42    7.83   0
  -1  11  -5    8.61    6.75   0
   1 -11   5   17.43    5.66   0
   1 -11   5   24.99    6.82   0
   1 -11   5   12.24    8.37   0
   2 -11   5   55.54    6.85   0
   2 -11   5   43.85    5.63   0
   2 -11   5   51.40    8.55   0
  -2  11  -5   53.82    6.87   0
   3 -11   5  462.56    6.93   0
   3 -11   5  450.81    6.96   0
  -3  11  -5  466.53    8.35   0
   3 -11   5  458.20    8.65   0
   4 -11   5   34.40    6.92   0
  -4  11  -5   24.53    5.39   0
   4 -11   5   25.82    6.79   0
   5 -11   5   77.55    5.85   0
   5 -11   5   79.79    7.03   0
  -5  11  -5   80.86    6.62   0
   6 -11   5   16.88    6.91   0
   6 -11   5   11.87    5.54   0
  -6  11  -5    0.03    5.45   0
  -7  11  -5  253.42    6.49   0
   7 -11   5  272.80    7.90   0
   7 -11   5  242.30    7.98   0
   8 -11   5    6.02    7.20   0
   8 -11   5   13.12    5.78   0
  -8  11  -5    9.21    5.57   0
   9 -11   5   25.08    6.21   0
   9 -11   5   23.43    6.12   0
  -9  11  -5   21.41    5.86   0
 -10  11  -5    0.32    6.13   0
  10 -11   5    5.32    7.71   0
  10 -11   5    0.47    7.83   0
  -4 -10   5   63.85    6.64   0
  -3 -10   5    4.15    7.10   0
  -2 -10   5  383.47   20.37   0
  -2 -10   5  434.34    7.23   0
  -2 -10   5  405.08   19.97   0
  -1 -10   5   17.26    5.46   0
  -1 -10   5   15.93   10.19   0
   0  10  -5   79.85    7.98   0
   0 -10   5   76.89    5.56   0
   0 -10   5   69.77    8.42   0
   1 -10   5   -2.56    5.37   0
   1 -10   5   -3.49    6.71   0
   1 -10   5    2.69    6.82   0
  -1  10  -5    0.15    6.54   0
   2 -10   5  700.08    9.34   0
  -2  10  -5  738.22   10.03   0
   2 -10   5  743.85    7.73   0
   3 -10   5   14.30    5.20   0
  -3  10  -5   10.15    6.38   0
   3 -10   5    8.28    5.37   0
   4 -10   5    8.97    5.26   0
   4 -10   5   10.41    6.75   0
  -4  10  -5    7.86    6.62   0
   5 -10   5    4.46    6.88   0
   5 -10   5    8.26    6.80   0
  -5  10  -5   10.51    5.18   0
  -6  10  -5  416.20    7.74   0
   6 -10   5  404.86    6.94   0
   6 -10   5  389.16    6.75   0
   7 -10   5   16.94    6.71   0
   7 -10   5   14.25    5.65   0
  -7  10  -5    8.46    5.46   0
   8 -10   5   29.16    7.25   0
  -8  10  -5   12.89    5.67   0
   8 -10   5   20.32    5.70   0
   9 -10   5   -5.52    7.22   0
  -9  10  -5    5.44    7.16   0
   9 -10   5    6.59    7.27   0
 -10  10  -5   65.92    7.53   0
  10 -10   5   69.59    7.64   0
  10 -10   5   65.09    8.03   0
  -5  -9   5  291.38    9.06   0
  -4  -9   5   -3.70    7.37   0
  -3  -9   5  196.26    6.77   0
  -2  -9   5   11.09   10.59   0
  -2  -9   5   13.93    5.34   0
  -2  -9   5   10.51   10.68   0
  -1  -9   5  185.32   10.08   0
  -1  -9   5  172.43    7.14   0
   0  -9   5   23.77    5.44   0
   0  -9   5   16.77    5.47   0
   0   9  -5   22.31    7.55   0
   0  -9   5   19.98    8.29   0
  -1   9  -5  245.60    7.75   0
   1  -9   5  235.74    8.22   0
   1  -9   5  242.47    6.23   0
   2  -9   5    6.23    5.53   0
   2  -9   5    6.80    7.24   0
  -2   9  -5    7.67    6.62   0
  -3   9  -5   14.62    6.52   0
   3  -9   5   16.65    5.65   0
   3  -9   5   24.68    6.92   0
  -4   9  -5    3.15    5.33   0
   4  -9   5   12.45    6.71   0
   4  -9   5   -5.09    5.42   0
   5  -9   5  998.72    8.66   0
  -5   9  -5 1021.63    8.49   0
   5  -9   5 1043.29    9.51   0
  -6   9  -5    8.14    5.32   0
   6  -9   5   28.75    6.56   0
   6  -9   5   11.48    5.53   0
  -7   9  -5    4.43    6.61   0
   7  -9   5    3.03    6.85   0
   7  -9   5   -2.80    6.82   0
   8  -9   5    3.63    5.71   0
  -8   9  -5    7.18    6.82   0
   8  -9   5   12.21    7.07   0
  -9   9  -5  217.15    7.65   0
   9  -9   5  196.49    7.79   0
   9  -9   5  230.00    6.79   0
  10  -9   5    2.43    5.91   0
 -10   9  -5    3.64    5.92   0
  10  -9   5    6.09    7.58   0
  -6  -8   5  412.07    9.93   0
  -5  -8   5    0.02    7.48   0
  -4  -8   5   11.49    7.10   0
  -3  -8   5    8.31   12.53   0
  -3  -8   5    7.19    6.63   0
  -3  -8   5    9.16   11.83   0
  -2  -8   5  672.41   12.79   0
  -2  -8   5  707.20    8.77   0
  -2  -8   5  702.68   13.39   0
   1   8  -5   30.19    7.71   0
  -1  -8   5   30.03    5.64   0
  -1  -8   5   24.41    8.26   0
   0   8  -5   -0.28    7.43   0
   0  -8   5    4.11    5.48   0
   0  -8   5   11.35    7.08   0
  -1   8  -5   27.73    6.85   0
   1  -8   5   26.04    6.93   0
   1  -8   5   39.20    7.49   0
  -2   8  -5  332.05    8.06   0
   2  -8   5  319.92    7.21   0
   2  -8   5  344.39    7.67   0
  -3   8  -5   39.30    6.62   0
   3  -8   5   30.30    5.63   0
   3  -8   5   26.32    6.98   0
  -4   8  -5  896.67    9.42   0
   4  -8   5  887.68    8.59   0
   4  -8   5  889.09    8.51   0
  -5   8  -5    2.45    6.84   0
   5  -8   5    3.93    7.17   0
   5  -8   5   -1.86    7.11   0
   6  -8   5   10.46    6.84   0
   6  -8   5   22.56    6.84   0
  -6   8  -5   17.96    6.58   0
   7  -8   5   14.96    5.54   0
  -7   8  -5   30.28    6.74   0
   7  -8   5   15.95    5.48   0
  -8   8  -5  311.37    6.54   0
   8  -8   5  297.76    6.55   0
   8  -8   5  331.36    8.06   0
  -9   8  -5    1.52    5.66   0
   9  -8   5    4.37    7.05   0
   9  -8   5    4.46    7.11   0
 -10   8  -5   -1.15    7.03   0
  10  -8   5    2.65    7.87   0
  10  -8   5   13.26    7.18   0
  11  -8   5   30.57    8.36   0
 -11   8  -5   22.25    7.54   0
  11  -8   5   35.64    7.85   0
  -7  -7   5  287.93    9.83   0
  -6  -7   5    7.09    7.47   0
  -5  -7   5   26.94    7.31   0
  -4  -7   5   12.17   13.34   0
  -4  -7   5    9.97    7.12   0
  -4  -7   5   14.16   14.33   0
  -3  -7   5  487.49   12.96   0
  -3  -7   5  508.90   12.73   0
  -3  -7   5  512.48    8.68   0
  -2  -7   5   35.48    9.50   0
  -2  -7   5   34.71    6.93   0
  -2  -7   5   42.25    8.51   0
  -1  -7   5   49.17    5.83   0
   1   7  -5   50.87    8.03   0
  -1  -7   5   42.29    8.35   0
  -1  -7   5   47.71    5.82   0
   0  -7   5   18.43    7.30   0
   0   7  -5   24.66    6.97   0
   0  -7   5   19.79    7.29   0
   1  -7   5 1246.35   10.51   0
   1  -7   5 1252.62   11.01   0
  -1   7  -5 1283.73   10.65   0
   2  -7   5   16.04    7.61   0
   2  -7   5    9.14    5.79   0
  -2   7  -5   12.78    7.04   0
   3  -7   5   96.17    7.29   0
  -3   7  -5   97.16    6.23   0
   3  -7   5   85.48    6.51   0
  -4   7  -5   13.02    5.79   0
   4  -7   5   10.31    6.09   0
   4  -7   5   14.66    5.94   0
  -5   7  -5  681.11    8.82   0
   5  -7   5  678.81    8.11   0
  -5   7  -5  666.53    7.77   0
   5  -7   5  658.85    8.93   0
   6  -7   5    9.26    5.70   0
  -6   7  -5   24.64    6.91   0
   6  -7   5   23.12    7.20   0
  -6   7  -5   19.29    5.44   0
  -7   7  -5  431.79    8.22   0
   7  -7   5  413.68    7.02   0
   7  -7   5  427.17    7.45   0
  -7   7  -5  438.96    7.86   0
  -8   7  -5   10.46    5.43   0
   8  -7   5    6.17    5.65   0
   8  -7   5   -2.78    5.59   0
  -8   7  -5   11.36    6.65   0
   9  -7   5   30.29    6.95   0
  -9   7  -5   50.56    5.83   0
   9  -7   5   59.90    7.44   0
  -9   7  -5   42.97    6.92   0
 -10   7  -5    7.98    7.28   0
  10  -7   5    9.43    7.74   0
 -10   7  -5    2.02    5.67   0
  10  -7   5   -5.81    7.25   0
 -11   7  -5   64.98    6.40   0
 -11   7  -5   70.04    8.13   0
  11  -7   5   55.04    6.55   0
  11  -7   5   42.69    8.81   0
  -8  -6   5  102.18   10.46   0
  -7  -6   5   21.99    9.00   0
  -6  -6   5   39.30    7.54   0
  -5  -6   5    8.85   11.52   0
  -5  -6   5   -0.30    7.34   0
  -5  -6   5    4.72   11.82   0
  -4  -6   5  859.76   14.65   0
  -4  -6   5  848.75   10.84   0
  -4  -6   5  830.10   14.73   0
  -3  -6   5   53.33    8.69   0
  -3  -6   5   67.59    9.36   0
  -3  -6   5   66.67    7.32   0
  -2  -6   5   19.06    8.06   0
  -2  -6   5   10.81    8.00   0
  -2  -6   5   11.31    5.53   0
  -2  -6   5   21.40    6.91   0
  -1  -6   5   13.91    6.99   0
  -1  -6   5   14.49    7.48   0
   1   6  -5   13.20    7.38   0
   0  -6   5 3524.42   15.42   0
   0  -6   5 3585.57   16.57   0
   0   6  -5 3693.62   16.57   0
   1  -6   5    3.52    7.09   0
   1  -6   5    6.60    6.98   0
  -1   6  -5    7.88    6.72   0
   2  -6   5    4.22    6.06   0
  -2   6  -5    5.28    7.18   0
   2  -6   5    3.56    6.08   0
   3  -6   5   27.24    6.33   0
  -3   6  -5   26.91    5.99   0
   3  -6   5   29.16    7.46   0
  -3   6  -5   14.03    6.04   0
   4  -6   5 1376.97   10.76   0
   4  -6   5 1351.61   11.01   0
  -4   6  -5 1409.82    9.76   0
  -4   6  -5 1372.44   10.92   0
   5  -6   5   27.49    7.03   0
  -5   6  -5   31.02    6.81   0
  -5   6  -5   26.74    6.78   0
   5  -6   5   27.41    5.71   0
  -6   6  -5  155.01    7.31   0
   6  -6   5  150.58    7.39   0
  -6   6  -5  165.90    7.09   0
   6  -6   5  162.11    7.74   0
   7  -6   5    1.23    5.54   0
  -7   6  -5    1.56    5.31   0
   7  -6   5   -2.60    7.02   0
  -7   6  -5   17.30    6.68   0
  -8   6  -5  391.03    7.99   0
   8  -6   5  413.03    8.56   0
   8  -6   5  369.55    8.02   0
  -8   6  -5  390.05    8.13   0
   9  -6   5   10.44    7.42   0
   9  -6   5    8.60    7.02   0
  -9   6  -5   18.00    5.38   0
  -9   6  -5   12.02    6.88   0
  10  -6   5   37.42    6.02   0
 -10   6  -5   61.26    5.85   0
  10  -6   5   35.58    8.09   0
 -10   6  -5   46.19    7.42   0
  -8  -5   5    2.41   10.10   0
  -7  -5   5   98.92   10.12   0
  -7  -5   5   92.56   13.00   0
  -7  -5   5   94.94   12.36   0
  -6  -5   5    8.23    9.75   0
  -6  -5   5    1.07   10.01   0
  -6  -5   5    2.31    8.60   0
  -5  -5   5    5.63    8.61   0
  -5  -5   5   10.44    8.32   0
  -5  -5   5    5.68    8.92   0
  -4  -5   5   29.73    8.43   0
  -4  -5   5   28.07    7.11   0
  -4  -5   5   23.63    8.65   0
  -3  -5   5  458.96   10.51   0
  -3  -5   5  480.69    8.89   0
  -3  -5   5  484.97   10.29   0
  -3  -5   5  476.98    9.15   0
  -2  -5   5    6.56    7.54   0
  -2  -5   5   12.36    8.59   0
  -2  -5   5    6.98    6.87   0
  -1  -5   5 2072.80   13.05   0
  -1  -5   5 2115.73   13.91   0
   0  -5   5    5.01    5.73   0
   0   5  -5   10.69    7.00   0
   0  -5   5    5.16    6.93   0
   1  -5   5   43.45    7.35   0
  -1   5  -5   57.35    6.99   0
  -1   5  -5   49.37    7.24   0
   1  -5   5   46.17    7.35   0
  -2   5  -5   -2.60    6.99   0
   2  -5   5    0.53    6.00   0
  -2   5  -5    5.24    7.33   0
   2  -5   5    0.08    7.44   0
   3  -5   5 2677.30   13.96   0
  -3   5  -5 2801.71   12.98   0
   3  -5   5 2712.43   13.69   0
  -3   5  -5 2776.96   13.95   0
   4  -5   5   13.48    7.69   0
  -4   5  -5    7.25    7.14   0
  -4   5  -5    7.91    7.58   0
   4  -5   5    9.77    5.98   0
  -5   5  -5   15.33    5.84   0
  -5   5  -5   10.31    7.00   0
   5  -5   5   11.72    7.06   0
   5  -5   5   14.06    7.30   0
  -6   5  -5    8.03    6.66   0
  -6   5  -5    8.82    5.51   0
   6  -5   5   21.98    5.78   0
   6  -5   5   14.96    6.96   0
  -7   5  -5  693.44    8.94   0
   7  -5   5  683.06    9.27   0
  -7   5  -5  700.43    8.86   0
   7  -5   5  678.11    8.88   0
  -8   5  -5   -1.19    6.66   0
   8  -5   5    1.80    7.15   0
  -8   5  -5    4.23    6.64   0
   8  -5   5    5.59    6.70   0
   9  -5   5    0.99    7.50   0
  -9   5  -5   16.79    6.86   0
   9  -5   5   -3.87    6.71   0
  -9   5  -5   12.27    7.00   0
  10  -5   5    3.97    7.84   0
 -10   5  -5    7.47    7.06   0
  10  -5   5    1.12    6.01   0
 -10   5  -5   13.54    7.22   0
  -9  -4   5    6.67   11.57   0
  -9  -4   5    5.47   10.85   0
  -9  -4   5   -2.50   12.80   0
  -9  -4   5    2.60   11.40   0
  -8  -4   5  253.86   12.07   0
  -8  -4   5  230.65   11.58   0
  -8  -4   5  242.08   11.35   0
  -8  -4   5  232.60   10.84   0
  -7  -4   5    7.71    9.94   0
  -7  -4   5    8.26    9.32   0
  -7  -4   5   13.55    8.77   0
  -6  -4   5    9.31    8.93   0
  -6  -4   5   10.22    7.99   0
  -6  -4   5   15.04    9.47   0
  -5  -4   5   -1.91    8.41   0
  -5  -4   5    4.41    8.50   0
  -5  -4   5    6.12    8.05   0
  -5  -4   5    4.20    8.21   0
  -4  -4   5  736.79   11.19   0
  -4  -4   5  799.18   11.60   0
  -4  -4   5  755.87   11.33   0
  -4  -4   5  730.35   11.41   0
  -3  -4   5    8.32    7.60   0
  -3  -4   5    9.68    7.29   0
  -3  -4   5   13.38    8.33   0
  -2  -4   5 1541.78   12.72   0
  -2  -4   5 1481.79   12.75   0
  -2  -4   5 1481.43   12.82   0
  -1  -4   5   90.10    7.61   0
  -1  -4   5   93.53    7.56   0
  -1  -4   5   82.58    6.22   0
   0   4  -5  709.16   10.00   0
   0  -4   5  689.78    9.98   0
   0  -4   5  696.15    9.91   0
   0   4  -5  692.88    9.94   0
  -1   4  -5  199.27    7.98   0
  -1   4  -5  208.67    7.06   0
   1  -4   5  190.96    8.07   0
   1  -4   5  201.74    8.36   0
  -2   4  -5 1528.70   10.63   0
   2  -4   5 1489.90   10.87   0
  -2   4  -5 1499.07   11.52   0
   2  -4   5 1500.85   11.44   0
  -3   4  -5  574.07    8.94   0
   3  -4   5  565.24    9.12   0
  -3   4  -5  576.53    8.14   0
   3  -4   5  557.85    8.24   0
   4  -4   5   16.07    6.12   0
   4  -4   5   12.44    7.94   0
  -4   4  -5   21.60    7.58   0
  -4   4  -5   14.47    7.32   0
   5  -4   5    2.27    7.10   0
   5  -4   5    2.57    6.12   0
  -5   4  -5    1.40    7.14   0
  -5   4  -5    0.86    5.51   0
  -6   4  -5  589.54    8.45   0
   6  -4   5  579.62    8.11   0
   6  -4   5  565.06    7.61   0
  -6   4  -5  590.63    8.65   0
   7  -4   5   33.39    7.30   0
   7  -4   5   25.65    5.59   0
  -7   4  -5   46.62    6.53   0
  -7   4  -5   41.42    6.83   0
   8  -4   5   92.81    7.70   0
  -8   4  -5  107.97    7.14   0
  -8   4  -5  112.60    7.00   0
   8  -4   5  103.73    7.21   0
   9  -4   5   -0.17    7.51   0
  -9   4  -5    6.64    6.83   0
   9  -4   5    7.99    6.93   0
  -9   4  -5   -8.62    7.01   0
  10  -4   5  183.85    8.94   0
 -10   4  -5  189.72    8.19   0
  10  -4   5  176.46    8.41   0
 -10   4  -5  171.73    8.24   0
 -10  -3   5    9.42   11.16   0
  10   3  -5    4.62    9.79   0
  -9  -3   5  150.57   10.52   0
   9   3  -5    1.35    9.00   0
  -8  -3   5    5.28    8.35   0
  -8  -3   5    4.67   12.92   0
   8   3  -5    4.96    9.25   0
  -8  -3   5    3.01   12.93   0
   7   3  -5   15.18    8.26   0
  -7  -3   5   18.76    9.97   0
  -7  -3   5   18.80    8.47   0
  -7  -3   5   13.75   11.10   0
  -6  -3   5    3.24   10.37   0
  -6  -3   5    5.28    9.42   0
  -6  -3   5    7.12    8.30   0
   6   3  -5   -4.65    8.18   0
  -5  -3   5 1607.77   16.94   0
   5   3  -5 1647.93   13.99   0
  -5  -3   5 1600.68   13.67   0
  -5  -3   5 1605.28   17.03   0
   4   3  -5   32.81    7.29   0
  -4  -3   5   27.38    9.08   0
  -4  -3   5   21.10    8.78   0
  -4  -3   5   30.90    7.76   0
  -3  -3   5   25.59    7.51   0
  -3  -3   5   29.75    8.55   0
  -2  -3   5  325.61    8.70   0
  -2  -3   5  304.80    7.55   0
  -2  -3   5  303.17    9.54   0
   1   3  -5 4142.18   19.33   0
  -1  -3   5 4215.59   18.21   0
  -1  -3   5 4074.03   19.35   0
  -1  -3   5 3971.48   17.95   0
   0   3  -5  237.31    7.17   0
   0  -3   5  239.60    7.85   0
   0   3  -5  227.28    8.88   0
   0  -3   5  238.16    7.15   0
   1  -3   5 1654.06   12.19   0
  -1   3  -5 1633.74   12.12   0
  -1   3  -5 1638.65   11.66   0
   1  -3   5 1601.91   12.81   0
  -2   3  -5  916.75    9.07   0
   2  -3   5  910.23   10.06   0
  -2   3  -5  912.57    9.42   0
   2  -3   5  896.71   10.46   0
  -3   3  -5 1597.63   10.69   0
   3  -3   5 1562.60   10.62   0
  -3   3  -5 1556.70   11.07   0
   3  -3   5 1545.49   12.07   0
  -4   3  -5   62.44    6.40   0
   4  -3   5   59.12    7.24   0
   4  -3   5   52.83    6.70   0
  -4   3  -5   53.19    5.94   0
  -5   3  -5  393.21    8.25   0
   5  -3   5  378.12    8.78   0
   5  -3   5  380.11    8.28   0
  -5   3  -5  402.85    8.37   0
   6  -3   5   16.52    6.71   0
  -6   3  -5   10.75    6.42   0
  -6   3  -5   22.52    6.90   0
   6  -3   5   14.53    7.42   0
   7  -3   5   44.32    7.43   0
  -7   3  -5   32.91    6.58   0
  -7   3  -5   24.40    6.89   0
   7  -3   5   29.57    6.78   0
   8  -3   5    4.96    6.04   0
  -8   3  -5    4.79    6.83   0
   8  -3   5    6.59    6.91   0
  -8   3  -5    8.40    6.74   0
  -9   3  -5  231.82    8.06   0
   9  -3   5  216.86    8.33   0
  -9   3  -5  235.22    8.21   0
   9  -3   5  257.15    8.49   0
 -10   3  -5    1.93    7.55   0
 -10   3  -5   -3.42    7.39   0
  10  -3   5    0.52    7.77   0
  10  -3   5   -0.37    7.87   0
  10   2  -5    3.60    8.38   0
 -10  -2   5   60.85    9.28   0
   9   2  -5    8.83    7.18   0
  -9  -2   5   11.56    8.60   0
   8   2  -5   21.90    8.06   0
  -8  -2   5   27.74    8.38   0
   7   2  -5   14.15    6.94   0
  -7  -2   5   14.70    8.10   0
   6   2  -5 1832.92   13.00   0
  -6  -2   5 1738.95   12.65   0
  -5  -2   5   34.49   12.29   0
  -5  -2   5   33.64   12.67   0
  -5  -2   5   38.52    7.60   0
   5   2  -5   31.23    7.57   0
   4   2  -5    6.46    7.01   0
  -4  -2   5   14.14    9.80   0
  -4  -2   5   10.18   10.76   0
  -4  -2   5    7.78    7.66   0
   3   2  -5   28.11    7.40   0
  -3  -2   5   30.14    7.38   0
  -3  -2   5   32.54    8.73   0
  -2  -2   5 1370.65   11.18   0
   2   2  -5 1383.88   12.12   0
   2   2  -5 1402.59   14.20   0
  -2  -2   5 1381.35   13.84   0
  -1  -2   5   27.24    7.88   0
  -1  -2   5   32.47    6.58   0
   1   2  -5   26.69    7.95   0
  -1  -2   5   17.18    8.49   0
   0  -2   5  125.88    8.11   0
   0  -2   5  141.42    9.08   0
   0  -2   5  147.26    8.11   0
   0   2  -5  148.77    8.91   0
  -1   2  -5  203.92    7.39   0
   1  -2   5  211.40    6.92   0
   1  -2   5  213.41    8.83   0
  -1   2  -5  216.02    7.04   0
  -2   2  -5 1581.89   11.34   0
   2  -2   5 1561.41   11.48   0
  -2   2  -5 1625.30   12.02   0
   2  -2   5 1587.62   11.86   0
  -3   2  -5   11.48    7.82   0
   3  -2   5    6.26    6.47   0
   3  -2   5    5.30    5.71   0
  -3   2  -5    7.64    5.43   0
  -4   2  -5   52.83    7.01   0
   4  -2   5   55.66    6.77   0
   4  -2   5   44.42    8.33   0
  -4   2  -5   57.96    6.58   0
  -5   2  -5   16.30    7.31   0
   5  -2   5    2.21    6.32   0
   5  -2   5    2.45    7.11   0
  -5   2  -5    6.08    6.81   0
  -6   2  -5  123.90    6.09   0
   6  -2   5  125.91    7.84   0
  -6   2  -5  127.20    7.12   0
   6  -2   5  113.63    7.30   0
   7  -2   5   13.55    7.45   0
  -7   2  -5   14.13    5.66   0
   7  -2   5   13.92    6.77   0
  -7   2  -5    5.74    6.64   0
  -8   2  -5  187.08    8.57   0
   8  -2   5  179.68    7.76   0
  -8   2  -5  170.75    7.51   0
   8  -2   5  168.04    7.93   0
  -9   2  -5    0.14    8.35   0
   9  -2   5    4.85    8.61   0
   9  -2   5    6.81    7.65   0
  -9   2  -5   -2.37    7.25   0
  10   1  -5    3.63    7.64   0
 -10  -1   5    5.87    7.52   0
   9   1  -5  155.65    7.83   0
  -9  -1   5  169.34    7.89   0
   8   1  -5    1.87    6.97   0
  -8  -1   5   10.93    7.00   0
   7   1  -5  450.63    8.59   0
  -7  -1   5  432.58    8.66   0
   6   1  -5   52.98    7.54   0
  -6  -1   5   47.17    7.60   0
   5   1  -5  212.55    8.06   0
  -5  -1   5  205.58    6.86   0
   4   1  -5    6.52    5.95   0
  -4  -1   5    1.80   12.17   0
  -4  -1   5    4.26    7.36   0
  -3  -1   5 2644.19   14.47   0
   3   1  -5 2732.93   14.84   0
  -3  -1   5 2635.98   21.70   0
   3   1  -5 2707.34   20.56   0
  -2  -1   5   24.54    6.36   0
   2   1  -5   30.19    7.52   0
  -2  -1   5   27.06    9.40   0
   2   1  -5   26.94    6.40   0
   1   1  -5   13.25    8.44   0
  -1  -1   5   19.36    7.78   0
  -1  -1   5   14.44    8.85   0
   0  -1   5  228.33    8.44   0
   0  -1   5  240.30    9.77   0
   0  -1   5  243.44    8.55   0
   0   1  -5  233.48    9.36   0
   1  -1   5  889.03    9.95   0
   1  -1   5  875.28   10.33   0
   1  -1   5  915.87   10.36   0
  -1   1  -5  904.73   10.72   0
  -2   1  -5  117.35    8.83   0
  -2   1  -5  133.71    7.39   0
   2  -1   5  115.62    6.23   0
   2  -1   5  116.00    7.46   0
  -3   1  -5   40.52    5.79   0
   3  -1   5   34.23    8.39   0
   3  -1   5   35.97    6.98   0
  -3   1  -5   26.40    8.13   0
   4  -1   5   -2.62    6.54   0
   4  -1   5    0.44    7.06   0
  -4   1  -5    2.61    6.93   0
  -4   1  -5    1.23    7.67   0
  -5   1  -5  653.24    9.08   0
   5  -1   5  620.79    9.03   0
  -5   1  -5  641.78    9.51   0
   5  -1   5  626.29    8.72   0
   6  -1   5   13.07    7.30   0
   6  -1   5    7.97    6.62   0
  -6   1  -5    7.49    6.79   0
  -6   1  -5    6.60    5.44   0
   7  -1   5  152.18    8.70   0
  -7   1  -5  144.73    8.48   0
   7  -1   5  153.32    6.56   0
  -7   1  -5  142.76    7.50   0
  -8   1  -5   11.18    7.18   0
  -8   1  -5   13.86    8.33   0
   8  -1   5    2.10    7.33   0
   8  -1   5    6.65    7.48   0
  -9   1  -5   14.32    7.79   0
  -9   1  -5   19.96    7.73   0
   9  -1   5    6.80    8.14   0
   9  -1   5   17.68    8.05   0
  11   0  -5    3.99    7.74   0
 -11   0   5   -3.11    7.75   0
  10   0  -5  312.65    9.74   0
 -10   0   5  308.63    8.96   0
   9   0  -5    7.69    7.12   0
  -9   0   5    1.24    7.41   0
   8   0  -5   93.06    7.17   0
  -8   0   5   91.96    7.33   0
   7   0  -5   18.02    6.94   0
  -7   0   5   12.96    7.21   0
   6   0  -5  406.35    8.48   0
  -6   0   5  394.46    8.63   0
   5   0  -5   32.77    6.26   0
  -5   0   5   29.99    6.34   0
   4   0  -5 1125.35   10.96   0
   4   0  -5 1125.52   18.87   0
  -4   0   5 1093.08   19.06   0
  -4   0   5 1110.84   10.00   0
  -3   0   5   14.31    7.61   0
  -3   0   5   21.30    9.32   0
   3   0  -5   22.05    8.78   0
   3   0  -5   25.87    6.09   0
  -2   0   5  398.23    7.63   0
   2   0  -5  405.53    7.77   0
  -2   0   5  392.17   10.13   0
   2   0  -5  411.15   10.62   0
  -1   0   5   47.42    9.07   0
  -1   0   5   40.75    6.46   0
   1   0  -5   41.21    8.57   0
   1   0  -5   43.15    6.30   0
   0   0   5  578.94    9.14   0
   0   0   5  558.76    8.35   0
   0   0   5  579.04    9.39   0
   0   0  -5  593.50   10.14   0
   1   0   5   34.54    7.03   0
   1   0   5   30.74    6.82   0
  -1   0  -5   30.38    8.06   0
   1   0   5   31.96    7.13   0
   2   0   5  406.34    8.38   0
   2   0   5  385.89    8.62   0
  -2   0  -5  401.91    8.16   0
   2   0   5  409.14    8.37   0
   3   0   5   25.77    6.68   0
   3   0   5   22.96    7.35   0
   3   0   5   22.99    7.00   0
  -3   0  -5   31.89    6.53   0
   4   0   5 2126.11   14.03   0
  -4   0  -5 2086.56   11.87   0
   4   0   5 2046.47   12.08   0
   5   0   5    3.88    7.88   0
  -5   0  -5   -3.08    6.84   0
  -5   0  -5    6.02    7.08   0
   5   0   5   -0.12    6.04   0
  -6   0  -5   28.88    8.03   0
   6   0   5   31.11    7.87   0
  -6   0  -5   33.58    5.92   0
   6   0   5   36.71    7.19   0
   7   0   5    0.99    8.03   0
  -7   0  -5   -0.44    5.82   0
   7   0   5   14.03    7.30   0
   8   0   5   16.77    7.96   0
   8   0   5  331.78    8.78   0
  -8   0  -5  317.32    8.64   0
  -9   0  -5    5.59    7.74   0
   9   0   5    6.00    7.88   0
   9   0   5    7.61    9.66   0
  11  -1  -5  151.88    8.44   0
 -11   1   5  144.82    8.37   0
  10  -1  -5    6.79    7.41   0
 -10   1   5    9.32    7.36   0
   9  -1  -5   10.16    6.92   0
  -9   1   5   16.19    7.11   0
   8  -1  -5   -1.57    7.12   0
  -8   1   5    4.96    7.16   0
   7  -1  -5  428.55    7.07   0
  -7   1   5  419.95    7.23   0
   6  -1  -5    6.22    5.75   0
  -6   1   5   17.20    7.28   0
   5  -1  -5  499.96    7.85   0
  -5   1   5  497.12    9.08   0
   4  -1  -5   52.31    6.39   0
  -4   1   5   43.60    9.67   0
   4  -1  -5   46.77   10.56   0
  -4   1   5   52.44    7.93   0
   3  -1  -5  603.00    9.51   0
   3  -1  -5  612.62   12.07   0
  -3   1   5  585.58   12.16   0
  -3   1   5  591.31    9.51   0
  -2   1   5   58.69    7.76   0
   2  -1  -5   51.49    6.23   0
   2  -1  -5   52.37    8.16   0
  -2   1   5   68.38    8.28   0
  -1   1   5  750.40    9.71   0
   1  -1  -5  761.22    9.71   0
   1  -1  -5  781.92   10.58   0
  -1   1   5  754.74   10.47   0
   0   1   5    3.29    6.12   0
   0  -1  -5    9.67    7.90   0
   0   1   5   10.26    6.62   0
   1   1   5   62.83    7.31   0
   1   1   5   66.44    7.03   0
  -1  -1  -5   54.93    6.87   0
   1   1   5   59.90    6.97   0
   2   1   5    1.47    8.11   0
   2   1   5    0.94    7.34   0
  -2  -1  -5   -9.30    7.95   0
   2   1   5   -8.83    6.58   0
   3   1   5  581.97    9.35   0
   3   1   5  587.79    9.54   0
  -3  -1  -5  604.22    9.46   0
   3   1   5  594.54    9.52   0
   4   1   5   10.87    7.88   0
  -4  -1  -5   12.77    6.36   0
   4   1   5    9.11    6.78   0
   4   1   5   -0.97    6.40   0
   5   1   5   44.36    7.80   0
   5   1   5   39.27    6.61   0
  -5  -1  -5   37.45    6.06   0
   5   1   5   50.42    7.19   0
   6   1   5    9.22    8.86   0
   6   1   5    0.26    7.73   0
  -6  -1  -5    4.51    5.90   0
   6   1   5   10.23    6.10   0
   7   1   5   53.40    9.22   0
   7   1   5    4.98    8.32   0
  -7  -1  -5  184.16    7.88   0
   7   1   5  195.46    6.93   0
   8   1   5    3.10    9.29   0
   8   1   5   -1.26    7.72   0
   8   1   5    0.27    8.12   0
  -8  -1  -5    6.79    7.58   0
  11  -2  -5   32.02    7.88   0
 -11   2   5   10.47    7.71   0
  10  -2  -5    0.21    5.84   0
 -10   2   5    7.64    7.17   0
   9  -2  -5   40.08    5.76   0
  -9   2   5   39.93    7.35   0
   8  -2  -5  529.95    8.49   0
  -8   2   5  543.41    7.75   0
   7  -2  -5   81.89    7.11   0
  -7   2   5   91.43    7.34   0
   6  -2  -5   80.68    7.28   0
  -6   2   5   73.32    7.61   0
   5  -2  -5    9.88    5.95   0
   5  -2  -5    6.01   10.64   0
  -5   2   5   19.72    7.47   0
   4  -2  -5 1059.99    9.34   0
   4  -2  -5 1048.51   13.42   0
  -4   2   5 1039.09   13.07   0
  -4   2   5 1015.51    9.38   0
   3  -2  -5   97.61    7.98   0
   3  -2  -5   96.35    8.65   0
  -3   2   5   94.45    8.57   0
  -3   2   5  103.26    6.69   0
   2  -2  -5   28.54    6.18   0
  -2   2   5   29.45    7.70   0
   2  -2  -5   27.18    8.02   0
  -2   2   5   24.19    6.51   0
  -1   2   5    7.77    7.64   0
   1  -2  -5    9.50    6.79   0
   1  -2  -5    4.72    7.24   0
  -1   2   5   21.97    6.48   0
   0   2   5 1022.36   10.78   0
   0  -2  -5 1067.88   10.04   0
   0   2   5 1069.38   10.09   0
  -1  -2  -5    4.42    6.66   0
   1   2   5    5.52    7.10   0
   1   2   5    6.33    7.23   0
   1   2   5    4.15    7.93   0
   2   2   5  755.17   10.15   0
   2   2   5  777.79    9.97   0
  -2  -2  -5  742.85    8.64   0
   2   2   5  785.02    8.72   0
   3   2   5   10.60    7.88   0
  -3  -2  -5   10.21    7.56   0
   3   2   5    8.07    7.84   0
   3   2   5   -3.19    6.11   0
   4   2   5   26.51    7.75   0
  -4  -2  -5   31.79    7.54   0
   4   2   5   21.44    7.34   0
   4   2   5   29.49    7.28   0
   5   2   5    2.32    8.14   0
   5   2   5    1.16    8.79   0
   5   2   5   -4.19    5.59   0
  -5  -2  -5    9.35    7.26   0
   6   2   5   21.20    9.10   0
  -6  -2  -5  152.05    6.62   0
   6   2   5    0.77    8.14   0
   6   2   5  170.11    7.82   0
   7   2   5    3.10    9.91   0
   7   2   5    3.61    9.66   0
  -7  -2  -5   -2.31    7.64   0
   7   2   5    9.59    6.16   0
  11  -3  -5   65.06    7.75   0
 -11   3   5   50.36    7.70   0
  10  -3  -5   -1.22    5.71   0
 -10   3   5   -0.44    7.24   0
   9  -3  -5  331.37    6.96   0
  -9   3   5  324.94    8.15   0
   8  -3  -5   55.81    5.69   0
  -8   3   5   57.86    6.85   0
   7  -3  -5   50.18    6.99   0
  -7   3   5   59.98    7.29   0
   6  -3  -5   15.79    7.04   0
   6  -3  -5   20.35   11.16   0
  -6   3   5   21.62    6.06   0
   5  -3  -5  414.56    8.13   0
   5  -3  -5  431.84   10.97   0
  -5   3   5  418.79    7.26   0
   4  -3  -5    4.45    6.04   0
   4  -3  -5    8.61    7.86   0
  -4   3   5    9.70    8.55   0
  -4   3   5    9.07    7.55   0
   3  -3  -5    6.99    7.78   0
   3  -3  -5   12.18    7.32   0
  -3   3   5   15.43    7.46   0
  -3   3   5   15.66    7.57   0
   2  -3  -5   18.59    7.74   0
   2  -3  -5   22.76    7.45   0
  -2   3   5   21.32    6.16   0
  -2   3   5   28.05    7.69   0
   1  -3  -5 1917.88   12.84   0
   1  -3  -5 1901.77   12.52   0
  -1   3   5 1874.26   12.53   0
  -1   3   5 1896.60   12.71   0
   0   3   5   23.87    7.56   0
   0  -3  -5   29.75    6.46   0
   0   3   5   31.69    7.72   0
   0  -3  -5   30.04    7.23   0
   1   3   5  233.14    9.09   0
   1   3   5  257.23    7.92   0
  -1  -3  -5  247.23    8.73   0
   1   3   5  260.72    7.10   0
   2   3   5    9.01    7.27   0
   2   3   5    9.58    7.90   0
  -2  -3  -5    3.16    6.36   0
   2   3   5   12.69    6.22   0
   3   3   5  377.28    9.72   0
   3   3   5  391.50    9.26   0
   3   3   5  380.96    8.43   0
  -3  -3  -5  360.80    8.50   0
   4   3   5   -0.21    9.05   0
  -4  -3  -5    6.00    6.02   0
   4   3   5    3.76    7.65   0
   4   3   5   -3.60    5.83   0
   5   3   5    4.40    8.96   0
  -5  -3  -5   33.14    6.22   0
   5   3   5    3.03    8.08   0
   5   3   5   24.39    7.16   0
   6   3   5    1.09   10.60   0
  -6  -3  -5    1.77    7.63   0
   6   3   5   -4.06    6.11   0
   6   3   5    0.54   10.17   0
   7   3   5   -1.42    7.84   0
  -7  -3  -5   15.46    8.13   0
   7   3   5    1.87   16.20   0
   7   3   5    1.61   15.74   0
  11  -4  -5   14.72    7.47   0
 -11   4   5   26.33    6.26   0
  10  -4  -5   71.53    7.43   0
 -10   4   5   71.45    7.47   0
   9  -4  -5   -0.53    5.51   0
  -9   4   5   11.85    7.05   0
   8  -4  -5  197.63    6.40   0
  -8   4   5  196.31    6.52   0
   7  -4  -5   19.48    6.77   0
   7  -4  -5   21.58   10.08   0
   7  -4  -5   18.55    9.98   0
  -7   4   5    9.27    7.06   0
  -6   4   5  108.75    7.44   0
   6  -4  -5  114.44    5.89   0
   6  -4  -5  100.63   10.05   0
   5  -4  -5   11.18    7.29   0
   5  -4  -5   19.72    8.65   0
  -5   4   5   18.07    6.12   0
   4  -4  -5   44.82    7.63   0
   4  -4  -5   40.95    6.17   0
  -4   4   5   44.67    7.20   0
  -4   4   5   43.69    6.15   0
   3  -4  -5    4.34    7.95   0
   3  -4  -5   15.73    7.13   0
  -3   4   5    5.59    7.40   0
  -3   4   5   13.15    5.98   0
   2  -4  -5  906.57   10.36   0
   2  -4  -5  916.50    9.96   0
  -2   4   5  930.39    8.91   0
  -2   4   5  901.96   10.11   0
   1  -4  -5   19.53    7.60   0
   1  -4  -5    8.14    7.28   0
  -1   4   5   14.53    6.03   0
  -1   4   5   12.65    7.33   0
   0  -4  -5  248.57    7.95   0
   0  -4  -5  259.58    8.64   0
   0   4   5  257.58    6.88   0
   0   4   5  241.46    7.98   0
  -1  -4  -5   40.66    6.21   0
   1   4   5   34.92    6.03   0
   1   4   5   25.92    6.69   0
   1   4   5   20.72    7.22   0
  -2  -4  -5  525.56    8.00   0
   2   4   5  548.26   10.02   0
   2   4   5  548.44    7.87   0
   2   4   5  536.05    9.53   0
   3   4   5   -0.06    7.68   0
   3   4   5   -2.85    7.13   0
  -3  -4  -5   12.36    6.08   0
   3   4   5    1.08    9.19   0
  -4  -4  -5   19.85    5.78   0
   4   4   5   28.45    6.95   0
   4   4   5   -0.65    8.65   0
   4   4   5   -1.10    8.46   0
  -5  -4  -5   14.06    7.68   0
   5   4   5    0.82   10.12   0
   5   4   5   17.89    7.47   0
   5   4   5    3.91   11.22   0
  -6  -4  -5   85.30    8.41   0
   6   4   5   81.54    8.29   0
  11  -5  -5    3.78    5.95   0
 -11   5   5    3.15    7.50   0
  10  -5  -5    7.55    5.78   0
 -10   5   5    5.58    7.10   0
   9  -5  -5  125.46    7.36   0
  -9   5   5  126.18    7.47   0
   8  -5  -5    0.86    5.67   0
   8  -5  -5    7.93   10.96   0
  -8   5   5    7.02    6.97   0
   8  -5  -5    7.74    9.83   0
   7  -5  -5  168.37    7.48   0
   7  -5  -5  164.51   10.56   0
  -7   5   5  168.41    7.74   0
   6  -5  -5   24.84    8.38   0
   6  -5  -5   21.16    6.89   0
  -6   5   5   30.32    5.79   0
   5  -5  -5   31.64    7.77   0
   5  -5  -5   30.24    5.74   0
  -5   5   5   43.61    7.49   0
   4  -5  -5   11.37    7.43   0
   4  -5  -5    7.13    6.91   0
  -4   5   5   13.38    7.00   0
  -4   5   5   13.62    6.07   0
   3  -5  -5  853.49   10.03   0
   3  -5  -5  893.44    9.40   0
  -3   5   5  907.47    9.73   0
  -3   5   5  865.02    8.78   0
   2  -5  -5    4.79    7.38   0
   2  -5  -5    5.97    7.06   0
  -2   5   5    5.85    5.80   0
  -2   5   5    5.48    7.24   0
   1  -5  -5   63.83    7.10   0
   1  -5  -5   51.58    7.74   0
  -1   5   5   76.43    7.18   0
  -1   5   5   61.00    7.42   0
   0  -5  -5    9.49    5.96   0
   0   5   5   15.98    7.00   0
   0   5   5   14.68    8.10   0
  -1  -5  -5  332.20    8.44   0
   1   5   5  344.02    9.38   0
   1   5   5  332.97    8.17   0
   1   5   5  337.60    9.72   0
  -2  -5  -5   17.42    7.36   0
   2   5   5   17.77    7.81   0
   2   5   5    4.33    7.10   0
   2   5   5   12.25    8.31   0
   3   5   5   11.50    6.00   0
  -3  -5  -5    5.87    7.52   0
   3   5   5    0.57    8.63   0
   3   5   5    8.25    8.03   0
  -4  -5  -5    9.56    6.05   0
   4   5   5    0.78   10.02   0
   4   5   5    5.49    5.91   0
   4   5   5   -0.62   10.47   0
  -5  -5  -5  104.35    8.67   0
   5   5   5  135.72    8.38   0
  11  -6  -5    5.51    7.42   0
 -11   6   5    1.97    6.26   0
  10  -6  -5   27.19    6.12   0
 -10   6   5   17.86    6.15   0
   9  -6  -5   18.56    7.15   0
   9  -6  -5    2.96   11.21   0
  -9   6   5   22.13    7.32   0
   9  -6  -5    0.95   10.61   0
   8  -6  -5    1.61    5.61   0
   8  -6  -5    7.08    9.47   0
  -8   6   5    8.42    5.85   0
   8  -6  -5   10.66    8.97   0
   7  -6  -5   -1.11    8.10   0
   7  -6  -5    2.30    5.64   0
  -7   6   5    9.55    7.24   0
   6  -6  -5  566.64    7.43   0
  -6   6   5  567.77    8.85   0
   6  -6  -5  568.45    9.66   0
   5  -6  -5    7.12    6.88   0
  -5   6   5   17.70    6.99   0
   5  -6  -5    8.00    7.16   0
   4  -6  -5  198.68    7.43   0
  -4   6   5  199.87    6.02   0
  -4   6   5  192.28    7.74   0
   4  -6  -5  191.36    7.87   0
   3  -6  -5   27.96    7.23   0
   3  -6  -5   30.40    7.02   0
  -3   6   5   30.64    5.48   0
  -3   6   5   40.00    5.67   0
   2  -6  -5  205.91    6.58   0
   2  -6  -5  224.29    7.64   0
  -2   6   5  219.59    7.40   0
  -2   6   5  222.38    7.93   0
   1  -6  -5   19.73    6.08   0
   1  -6  -5    7.43    8.03   0
  -1   6   5   -0.27    5.61   0
  -1   6   5   14.20    7.23   0
   0  -6  -5   40.65    7.74   0
   0   6   5   50.84    7.28   0
   0   6   5   47.05    8.33   0
  -1  -6  -5   -3.24    6.29   0
   1   6   5   -1.86    7.27   0
   1   6   5    8.20    8.35   0
   1   6   5   12.59    7.75   0
  -2  -6  -5    8.49    6.27   0
   2   6   5    1.22    7.10   0
   2   6   5   -0.82    8.05   0
   2   6   5    3.15    8.64   0
  -3  -6  -5    0.60    6.50   0
   3   6   5    3.37    9.96   0
   3   6   5    4.75    6.22   0
   3   6   5   -0.78   10.36   0
  -4  -6  -5   72.64    8.38   0
   4   6   5   81.84    6.98   0
  10  -7  -5    3.10    6.42   0
  10  -7  -5    3.30   14.23   0
  10  -7  -5    0.42   14.14   0
 -10   7   5   15.42    7.86   0
   9  -7  -5    5.85    5.89   0
   9  -7  -5   -0.64   10.15   0
   9  -7  -5    2.88    8.71   0
  -9   7   5    3.93    5.97   0
   8  -7  -5    3.00    8.45   0
   8  -7  -5   -0.61    5.76   0
   8  -7  -5   10.71    8.04   0
  -8   7   5    4.68    6.04   0
   7  -7  -5  293.01    6.63   0
  -7   7   5  297.79    8.14   0
   7  -7  -5  291.99    9.75   0
   6  -7  -5    6.11    6.65   0
  -6   7   5    9.62    7.12   0
   6  -7  -5   -5.43    8.19   0
   5  -7  -5   15.91    6.95   0
  -5   7   5   25.60    7.24   0
   5  -7  -5   32.30    7.35   0
   4  -7  -5    8.62    6.92   0
  -4   7   5   -0.29    7.21   0
   4  -7  -5    2.90    7.13   0
   3  -7  -5  259.43    8.39   0
  -3   7   5  257.51    8.45   0
  -3   7   5  271.97    7.84   0
   3  -7  -5  245.76    6.72   0
   2  -7  -5   11.45    7.14   0
  -2   7   5   12.58    6.93   0
   2  -7  -5   13.75    8.21   0
  -2   7   5    3.83    7.38   0
   1  -7  -5   45.49    5.89   0
  -1   7   5   58.18    6.99   0
   1  -7  -5   57.37    7.28   0
  -1   7   5   50.62    7.58   0
   0  -7  -5  -12.64    7.68   0
   0   7   5   -1.24    7.92   0
   0   7   5    6.72    5.95   0
   0   7   5    1.46    7.35   0
  -1  -7  -5   46.15    6.44   0
   1   7   5    1.54    7.43   0
   1   7   5   55.43    7.49   0
   1   7   5    2.66    7.99   0
  -2  -7  -5   19.68    6.42   0
   2   7   5   20.16    6.20   0
   2   7   5    0.13    9.72   0
   2   7   5    2.77    9.91   0
   9  -8  -5   11.36    6.08   0
   9  -8  -5    6.03    9.42   0
   9  -8  -5    9.39    9.03   0
  -9   8   5  -12.48    6.30   0
   8  -8  -5  123.61    9.53   0
   8  -8  -5  134.23    6.68   0
  -8   8   5  150.45    8.27   0
   7  -8  -5    0.74    6.90   0
  -7   8   5   -2.43    5.93   0
   7  -8  -5    6.78    7.49   0
   6  -8  -5    1.32    5.74   0
  -6   8   5    4.56    5.98   0
   6  -8  -5    6.13    7.45   0
   5  -8  -5    9.11    5.76   0
  -5   8   5   12.22    7.39   0
   5  -8  -5   -3.02    6.03   0
   4  -8  -5  141.55    7.56   0
  -4   8   5  133.96    7.78   0
   4  -8  -5  133.46    6.33   0
   3  -8  -5   -6.47    7.49   0
   3  -8  -5   13.89    7.13   0
  -3   8   5    4.45    7.37   0
  -3   8   5   -4.30    5.82   0
   2  -8  -5   15.02    6.23   0
  -2   8   5   24.85    7.17   0
   2  -8  -5   27.24    7.42   0
  -2   8   5   29.80    7.50   0
   1  -8  -5   13.51    7.57   0
   1  -8  -5    5.50    7.26   0
  -1   8   5    2.84    7.57   0
  -1   8   5    9.88    7.10   0
   0  -8  -5   93.08    6.97   0
   0   8   5    3.96    8.99   0
   0   8   5  108.38    7.91   0
   0   8   5    3.74    8.16   0
  -1  -8  -5    7.89    8.20   0
   1   8   5    2.77   10.01   0
   1   8   5   26.52    7.92   0
   1   8   5    7.07   10.34   0
   8  -9  -5    1.31    7.50   0
  -8   9   5    6.84    6.45   0
   8  -9  -5    5.65    7.97   0
   7  -9  -5   13.59    7.26   0
  -7   9   5    8.48    6.34   0
   7  -9  -5    7.84    8.06   0
   6  -9  -5    2.98    6.01   0
  -6   9   5   -0.51    7.67   0
   6  -9  -5   14.14    7.75   0
   5  -9  -5   22.95    7.32   0
  -5   9   5   31.23    7.53   0
   5  -9  -5   25.55    8.00   0
   4  -9  -5    5.15    6.15   0
  -4   9   5   15.53    7.69   0
   4  -9  -5   15.23    7.71   0
   3  -9  -5   16.39    6.29   0
   3  -9  -5   11.24    7.49   0
  -3   9   5    1.30    7.72   0
   2  -9  -5    2.96    6.27   0
   2  -9  -5    3.62    8.88   0
  -2   9   5    1.45    7.98   0
   1  -9  -5  110.95    7.11   0
  -1   9   5  111.01    8.29   0
  -1   9   5    1.24    7.36   0
  -3  14  -6   -0.37    7.60   0
   3 -14   6    2.92    7.64   0
   3 -14   6    4.29    7.56   0
   3 -14   6    3.19    7.90   0
  -4  14  -6  139.49    8.19   0
   4 -14   6  153.20    6.77   0
   4 -14   6  144.79    8.06   0
   4 -14   6  142.17    8.69   0
   5 -14   6    8.17    6.03   0
   5 -14   6   -5.61    7.87   0
  -5  14  -6   -2.97    7.52   0
   5 -14   6    6.38    6.11   0
   0 -13   6    5.41    6.23   0
   0 -13   6   -1.28    6.08   0
   0 -13   6   -0.09   10.22   0
   1 -13   6    4.48    7.07   0
  -1  13  -6   -2.02    8.03   0
   1 -13   6   -3.04    7.09   0
   1 -13   6    0.65    9.19   0
  -2  13  -6    8.63    8.33   0
   2 -13   6   13.95    5.97   0
   2 -13   6    6.60    7.34   0
   2 -13   6   21.03    8.63   0
  -3  13  -6  294.03    8.71   0
   3 -13   6  310.07    8.31   0
   3 -13   6  310.89    8.97   0
   3 -13   6  279.52    7.06   0
   4 -13   6   11.15    7.15   0
  -4  13  -6    1.67    5.97   0
   4 -13   6    8.54    5.93   0
   4 -13   6    3.35    7.32   0
   5 -13   6   67.01    6.07   0
  -5  13  -6   54.10    7.23   0
   5 -13   6   62.10    6.11   0
   5 -13   6   59.60    7.47   0
   6 -13   6    2.16    7.12   0
  -6  13  -6    3.07    7.12   0
   6 -13   6    0.65    7.44   0
   7 -13   6  157.88    8.17   0
   7 -13   6  180.60    6.83   0
  -7  13  -6  195.16    6.64   0
  -8  13  -6    0.98    7.74   0
   8 -13   6   -1.50    7.54   0
   8 -13   6   11.98    7.92   0
  -2 -12   6   25.36    7.75   0
  -2 -12   6   26.45    6.17   0
  -1 -12   6    3.89   11.65   0
  -1 -12   6   -5.21    6.14   0
  -1 -12   6    3.12    5.93   0
  -1 -12   6    1.18   11.64   0
   0 -12   6   54.16    7.21   0
   0 -12   6   78.63    7.45   0
   0 -12   6   64.37   10.14   0
   0  12  -6    0.31    7.58   0
  -1  12  -6    7.30    6.94   0
   1 -12   6   14.15    5.68   0
   1 -12   6   16.24    8.46   0
   1 -12   6    5.71    5.69   0
   2 -12   6  318.37    7.90   0
  -2  12  -6  318.35    8.30   0
   2 -12   6  323.67    8.61   0
   2 -12   6  310.46    7.92   0
   3 -12   6   16.02    7.12   0
  -3  12  -6    1.32    6.64   0
   3 -12   6    5.33    6.92   0
   3 -12   6   -6.82    5.59   0
  -4  12  -6   16.95    6.67   0
   4 -12   6   10.37    6.80   0
   4 -12   6   11.49    6.94   0
   5 -12   6   64.69    5.85   0
  -5  12  -6   68.71    7.03   0
   5 -12   6   58.76    7.27   0
  -6  12  -6  282.52    7.81   0
   6 -12   6  249.84    6.54   0
   6 -12   6  269.89    7.98   0
  -7  12  -6    8.20    6.69   0
   7 -12   6   -1.13    7.21   0
   7 -12   6    2.54    7.22   0
  -8  12  -6   -2.24    5.85   0
   8 -12   6   -0.37    7.25   0
   8 -12   6   -4.93    5.92   0
   9 -12   6   -2.57    6.48   0
  -9  12  -6   -9.02    6.09   0
   9 -12   6    3.58    6.19   0
  -3 -11   6   10.17    7.58   0
  -3 -11   6   11.98    5.88   0
  -2 -11   6   11.96   14.29   0
  -2 -11   6   11.47    7.10   0
  -2 -11   6   15.46    7.28   0
  -2 -11   6    3.89   14.77   0
  -1 -11   6  410.73    7.13   0
  -1 -11   6  352.87   11.65   0
  -1 -11   6  387.18    8.14   0
  -1 -11   6  408.29   11.81   0
   0  11  -6   11.10    7.80   0
   0 -11   6    6.24    5.38   0
   0 -11   6   10.63    5.83   0
   0 -11   6   12.62    8.40   0
  -1  11  -6  205.15    8.52   0
   1 -11   6  202.30    7.96   0
   1 -11   6  174.60    6.08   0
   1 -11   6  186.56    7.22   0
   2 -11   6   24.30    5.63   0
   2 -11   6   33.42    5.66   0
   2 -11   6   32.91    7.21   0
  -2  11  -6   28.15    6.61   0
  -3  11  -6  310.04    7.79   0
   3 -11   6  300.98    8.04   0
   3 -11   6  291.85    7.62   0
  -4  11  -6    8.10    6.50   0
   4 -11   6    2.53    6.95   0
   4 -11   6    3.04    5.71   0
   5 -11   6   40.83    6.97   0
  -5  11  -6   46.13    6.65   0
   5 -11   6   53.43    7.15   0
  -6  11  -6   30.69    5.47   0
   6 -11   6   30.91    5.72   0
   6 -11   6   42.08    6.87   0
  -7  11  -6   10.07    5.66   0
   7 -11   6    9.28    5.69   0
   7 -11   6    4.98    6.93   0
   8 -11   6    6.69    5.86   0
  -8  11  -6   -0.26    5.64   0
   8 -11   6    7.66    5.86   0
   9 -11   6  138.94    6.95   0
  -9  11  -6  144.60    6.53   0
   9 -11   6  131.86    7.91   0
  -4 -10   6   10.30    7.57   0
  -3 -10   6   10.47    5.83   0
  -2 -10   6  684.02   15.79   0
  -2 -10   6  780.83    9.25   0
  -2 -10   6  788.42   15.20   0
  -2 -10   6  763.41    8.18   0
  -1 -10   6    9.19    6.57   0
  -1 -10   6    3.65    6.96   0
  -1 -10   6   10.01    8.64   0
   0 -10   6   34.84    5.77   0
   0  10  -6   33.19    7.67   0
   0 -10   6   32.74    6.86   0
   0 -10   6   30.43    7.01   0
  -1  10  -6    6.56    6.59   0
   1 -10   6    1.65    7.04   0
   1 -10   6   -2.62    6.59   0
  -2  10  -6  821.08    9.44   0
   2 -10   6  796.83    9.64   0
   2 -10   6  781.74    8.04   0
  -3  10  -6    7.11    6.62   0
   3 -10   6    5.23    5.41   0
   3 -10   6    3.94    5.80   0
   4 -10   6   36.31    5.68   0
  -4  10  -6   55.06    5.38   0
   4 -10   6   43.87    6.78   0
  -5  10  -6    0.02    6.40   0
   5 -10   6   -6.73    5.46   0
   5 -10   6   -6.28    5.59   0
  -6  10  -6  118.77    5.76   0
   6 -10   6   91.46    6.85   0
   6 -10   6   93.39    5.82   0
   7 -10   6   13.74    6.77   0
   7 -10   6   12.73    6.99   0
  -7  10  -6   21.21    6.72   0
   8 -10   6  163.56    7.70   0
  -8  10  -6  161.66    7.40   0
   8 -10   6  141.12    6.49   0
  -9  10  -6   17.55    7.00   0
   9 -10   6   -2.22    5.99   0
   9 -10   6   10.83    7.28   0
 -10  10  -6    7.07    7.50   0
  10 -10   6   12.71    6.30   0
  10 -10   6    9.67    7.88   0
  -5  -9   6   40.50    7.85   0
  -4  -9   6    9.36    7.47   0
  -3  -9   6  624.73   16.49   0
  -3  -9   6  651.22    8.04   0
  -3  -9   6  630.06    8.80   0
  -3  -9   6  639.18   15.94   0
  -2  -9   6   11.26    6.80   0
  -2  -9   6    8.57    8.73   0
  -2  -9   6    0.66    6.60   0
  -2  -9   6    6.89    8.94   0
  -1  -9   6   47.99    5.33   0
  -1  -9   6   52.06    6.57   0
  -1  -9   6   48.01    8.26   0
   0   9  -6    5.91    6.41   0
   0  -9   6    6.16    7.08   0
   0  -9   6    9.50    5.26   0
   1  -9   6  789.11    8.83   0
  -1   9  -6  827.76    9.47   0
   1  -9   6  804.36    9.97   0
   2  -9   6   15.14    7.07   0
   2  -9   6   19.50    5.59   0
  -2   9  -6   11.99    6.76   0
  -3   9  -6   21.25    6.39   0
   3  -9   6   32.25    5.61   0
   3  -9   6   35.25    6.65   0
  -4   9  -6    5.98    6.49   0
   4  -9   6   -0.48    5.68   0
   4  -9   6   11.32    6.93   0
  -5   9  -6  783.15    7.85   0
   5  -9   6  738.58    8.94   0
   5  -9   6  779.56    8.87   0
   6  -9   6   13.27    6.64   0
  -6   9  -6   18.16    5.35   0
   6  -9   6   17.22    5.63   0
   7  -9   6    2.42    6.77   0
  -7   9  -6   19.56    5.38   0
   7  -9   6    8.66    5.73   0
  -8   9  -6   19.86    6.69   0
   8  -9   6   -5.53    6.97   0
   8  -9   6    3.74    6.97   0
   9  -9   6   88.09    7.39   0
   9  -9   6   73.67    6.14   0
  -9   9  -6   85.98    6.10   0
 -10   9  -6    8.18    5.85   0
  10  -9   6   15.33    7.89   0
  10  -9   6   12.20    7.53   0
  -6  -8   6  178.59    8.26   0
  -6  -8   6  165.25    8.74   0
  -5  -8   6   -5.34    7.22   0
  -4  -8   6  304.10    7.91   0
  -4  -8   6  299.29   15.11   0
  -4  -8   6  298.18    8.23   0
  -4  -8   6  293.44   14.87   0
  -3  -8   6   15.79    9.18   0
  -3  -8   6   22.54    6.99   0
  -3  -8   6   20.58    9.73   0
  -3  -8   6    6.42    6.61   0
  -2  -8   6   24.40    7.04   0
  -2  -8   6   39.20    8.97   0
  -2  -8   6   43.10    8.07   0
  -2  -8   6   38.83    6.78   0
  -1  -8   6    8.14    8.03   0
  -1  -8   6    9.08    6.50   0
   0  -8   6  544.78    7.45   0
   0   8  -6  550.73    8.59   0
   0  -8   6  541.66    9.58   0
  -1   8  -6   46.95    6.88   0
   1  -8   6   53.09    7.25   0
   1  -8   6   50.52    6.05   0
  -2   8  -6  111.22    7.21   0
   2  -8   6   98.49    6.06   0
   2  -8   6   93.72    7.57   0
  -3   8  -6   28.67    6.68   0
   3  -8   6   17.02    7.06   0
   3  -8   6   29.77    5.94   0
   4  -8   6 1290.14    9.80   0
  -4   8  -6 1313.71   10.54   0
   4  -8   6 1296.06    9.46   0
   5  -8   6   14.19    7.07   0
  -5   8  -6   23.51    5.49   0
   5  -8   6   34.78    6.99   0
   6  -8   6   39.64    5.59   0
  -6   8  -6   43.41    5.40   0
  -6   8  -6   49.30    5.48   0
   6  -8   6   41.16    5.71   0
  -7   8  -6   30.60    6.79   0
   7  -8   6   19.21    6.85   0
  -7   8  -6   19.19    6.65   0
   7  -8   6   24.33    6.94   0
  -8   8  -6  240.92    6.31   0
   8  -8   6  224.79    6.40   0
   8  -8   6  226.72    8.09   0
  -8   8  -6  217.70    7.75   0
  -9   8  -6    8.11    5.66   0
   9  -8   6   11.12    6.00   0
   9  -8   6   10.51    5.83   0
  -9   8  -6    7.99    7.09   0
 -10   8  -6    5.37    5.85   0
  10  -8   6    9.49    8.04   0
  10  -8   6   14.33    5.95   0
 -10   8  -6   12.64    6.00   0
  -7  -7   6  334.85   10.52   0
  -7  -7   6  343.53   11.30   0
  -6  -7   6    2.83    8.03   0
  -6  -7   6    2.44    8.63   0
  -5  -7   6  123.86    7.28   0
  -5  -7   6  134.71   12.28   0
  -5  -7   6  110.34    7.84   0
  -5  -7   6  120.44   12.57   0
  -4  -7   6   40.31    6.85   0
  -4  -7   6   42.44    9.18   0
  -4  -7   6   50.31    6.96   0
  -4  -7   6   45.86    9.55   0
  -3  -7   6  720.55   11.55   0
  -3  -7   6  743.58    9.10   0
  -3  -7   6  749.56   11.20   0
  -3  -7   6  752.63    9.43   0
  -2  -7   6   -3.44    8.22   0
  -2  -7   6    1.03    6.77   0
  -2  -7   6    4.32    6.98   0
  -2  -7   6    2.29    6.88   0
  -1  -7   6   34.62    6.92   0
  -1  -7   6   29.55    8.07   0
   0  -7   6    6.29    7.21   0
   0   7  -6    4.35    6.81   0
   0  -7   6    2.63    6.93   0
   1  -7   6  156.56    6.32   0
   1  -7   6  161.53    7.61   0
  -1   7  -6  150.93    6.01   0
   2  -7   6   13.83    5.85   0
  -2   7  -6   20.85    6.89   0
   2  -7   6   11.27    7.02   0
   3  -7   6  797.78    8.10   0
   3  -7   6  804.79    9.31   0
  -3   7  -6  803.40    8.17   0
  -4   7  -6   11.15    5.45   0
   4  -7   6    7.36    6.98   0
   4  -7   6    9.90    5.76   0
  -4   7  -6    7.31    6.84   0
   5  -7   6   10.54    6.02   0
  -5   7  -6   18.64    5.54   0
   5  -7   6   -3.16    7.07   0
  -5   7  -6   13.33    7.00   0
  -6   7  -6    5.29    5.40   0
  -6   7  -6   12.55    6.52   0
   6  -7   6   18.17    6.85   0
   6  -7   6   10.63    6.80   0
  -7   7  -6  883.28    9.48   0
  -7   7  -6  864.36    8.19   0
   7  -7   6  797.85    8.19   0
   7  -7   6  846.89    9.57   0
  -8   7  -6   13.67    6.73   0
  -8   7  -6    3.41    6.41   0
   8  -7   6    1.38    5.68   0
   8  -7   6   -3.37    5.44   0
  -9   7  -6   14.18    5.60   0
  -9   7  -6   16.18    6.82   0
   9  -7   6   19.25    7.51   0
   9  -7   6   25.16    6.95   0
 -10   7  -6    6.79    7.52   0
 -10   7  -6    6.02    7.18   0
  10  -7   6   11.52    6.05   0
  10  -7   6   11.72    7.82   0
  -8  -6   6  237.57   12.56   0
  -8  -6   6  254.04   10.63   0
  -7  -6   6    3.95   12.89   0
  -7  -6   6    8.16    9.34   0
  -7  -6   6    8.62   13.24   0
  -7  -6   6    2.34    9.17   0
  -6  -6   6    7.21   10.54   0
  -6  -6   6    1.64    6.70   0
  -6  -6   6    5.61   10.23   0
  -6  -6   6    8.15    8.46   0
  -5  -6   6    6.34    9.80   0
  -5  -6   6    3.11    7.73   0
  -5  -6   6   17.92    7.93   0
  -5  -6   6    1.89    9.05   0
  -4  -6   6  912.72   10.90   0
  -4  -6   6  948.27   12.32   0
  -4  -6   6  943.70   10.49   0
  -4  -6   6  905.34   12.27   0
  -3  -6   6    3.53    8.19   0
  -3  -6   6    6.68    8.02   0
  -3  -6   6    5.14    6.79   0
  -3  -6   6    5.04    6.76   0
  -2  -6   6    6.35    7.08   0
  -2  -6   6    3.60    8.21   0
  -2  -6   6    8.63    6.96   0
  -1  -6   6    5.90    6.92   0
  -1  -6   6   12.69    6.80   0
   0  -6   6 1231.89   10.67   0
   0   6  -6 1305.85   10.75   0
   0  -6   6 1301.17   10.94   0
  -1   6  -6   13.17    6.99   0
   1  -6   6    8.44    5.94   0
   1  -6   6   16.22    7.43   0
  -2   6  -6  735.92    8.29   0
  -2   6  -6  724.11    8.26   0
   2  -6   6  722.03    9.42   0
   2  -6   6  726.74    9.31   0
   3  -6   6   10.84    7.34   0
   3  -6   6   16.77    7.30   0
  -3   6  -6    6.66    6.95   0
  -3   6  -6    8.14    7.12   0
   4  -6   6  129.44    7.59   0
  -4   6  -6  147.81    7.21   0
   4  -6   6  130.13    6.36   0
  -4   6  -6  143.01    7.48   0
  -5   6  -6    8.01    5.62   0
   5  -6   6   -3.56    5.74   0
  -5   6  -6    5.37    5.63   0
   5  -6   6   -1.04    7.39   0
  -6   6  -6  600.16    7.44   0
  -6   6  -6  557.13    8.62   0
   6  -6   6  549.61    7.38   0
   6  -6   6  548.85    7.79   0
   7  -6   6   11.94    6.68   0
   7  -6   6   18.84    5.67   0
  -7   6  -6   -1.94    6.57   0
  -7   6  -6    9.81    6.73   0
  -8   6  -6   77.78    6.80   0
   8  -6   6   80.27    6.30   0
  -8   6  -6   64.98    6.84   0
   8  -6   6   59.98    7.24   0
   9  -6   6   12.03    7.67   0
  -9   6  -6   17.07    6.81   0
  -9   6  -6   12.50    7.05   0
   9  -6   6   10.15    6.98   0
 -10   6  -6  216.38    6.89   0
  10  -6   6  198.65    8.84   0
  10  -6   6  168.21    8.33   0
 -10   6  -6  190.71    7.15   0
  -8  -5   6    7.65   10.26   0
  -8  -5   6    6.04   11.50   0
  -8  -5   6    8.45   11.20   0
  -8  -5   6    5.88   10.65   0
  -7  -5   6   13.65    9.78   0
  -7  -5   6    8.52    9.12   0
  -7  -5   6   15.32    8.89   0
  -7  -5   6    9.47    9.53   0
  -6  -5   6    6.57    9.17   0
  -6  -5   6   10.21    8.65   0
  -6  -5   6    6.44    8.30   0
  -6  -5   6    3.96    8.38   0
  -5  -5   6  275.43    9.16   0
  -5  -5   6  263.97    8.83   0
  -5  -5   6  251.72    9.18   0
  -5  -5   6  258.63    9.27   0
  -4  -5   6   10.69    8.16   0
  -4  -5   6    7.69    7.60   0
  -4  -5   6   10.07    8.03   0
  -4  -5   6   10.34    6.83   0
  -3  -5   6   40.69    7.36   0
  -3  -5   6   61.76    7.33   0
  -3  -5   6   56.89    8.12   0
  -2  -5   6   10.50    7.30   0
  -2  -5   6   12.84    7.11   0
  -2  -5   6   10.50    6.88   0
  -1  -5   6 2710.04   13.81   0
  -1  -5   6 2606.40   14.02   0
  -1  -5   6 2524.68   13.31   0
   0   5  -6   24.51    6.86   0
   0  -5   6   20.83    7.06   0
   0  -5   6   18.87    7.30   0
   0   5  -6   26.39    7.36   0
  -1   5  -6  127.48    7.59   0
  -1   5  -6  135.56    7.35   0
   1  -5   6  128.87    6.43   0
   1  -5   6  126.58    7.81   0
   2  -5   6  104.27    6.61   0
  -2   5  -6  116.54    7.49   0
   2  -5   6  101.27    7.76   0
  -2   5  -6  109.02    6.53   0
   3  -5   6  584.60    8.09   0
  -3   5  -6  632.35    7.90   0
  -3   5  -6  600.99    8.93   0
   3  -5   6  576.75    9.06   0
  -4   5  -6    3.47    7.23   0
  -4   5  -6   -1.71    5.65   0
   4  -5   6    5.52    5.93   0
   4  -5   6  -10.28    6.12   0
  -5   5  -6  176.76    7.49   0
   5  -5   6  160.72    6.25   0
   5  -5   6  167.20    6.58   0
  -5   5  -6  173.44    7.48   0
  -6   5  -6    1.51    6.80   0
   6  -5   6   -7.92    7.00   0
   6  -5   6    2.52    7.11   0
  -6   5  -6   10.75    6.56   0
   7  -5   6  109.83    5.88   0
  -7   5  -6  111.94    6.79   0
   7  -5   6  125.30    7.62   0
  -7   5  -6  115.96    6.89   0
  -8   5  -6    6.72    6.79   0
  -8   5  -6    3.15    5.46   0
   8  -5   6   17.63    7.29   0
   8  -5   6   29.63    6.72   0
  -9   5  -6  103.49    7.58   0
   9  -5   6  105.41    8.07   0
  -9   5  -6  110.92    7.31   0
   9  -5   6  114.48    7.35   0
  10  -5   6    2.52    6.61   0
 -10   5  -6   10.32    7.56   0
 -10   5  -6    4.40    7.40   0
  10  -5   6    8.61    7.43   0
  -9  -4   6   19.23   10.23   0
  -9  -4   6   15.84   10.12   0
  -8  -4   6  105.79   12.99   0
  -8  -4   6  101.89   13.95   0
  -8  -4   6  111.68   10.06   0
  -7  -4   6    3.32   10.52   0
  -7  -4   6    3.61    9.55   0
  -7  -4   6   -2.60    7.98   0
  -6  -4   6  156.69    9.86   0
  -6  -4   6  148.02    8.52   0
  -6  -4   6  147.57   10.44   0
  -5  -4   6   10.49    8.74   0
  -5  -4   6   16.84    7.25   0
  -5  -4   6    8.66    9.06   0
  -5  -4   6    9.85    7.07   0
  -4  -4   6    3.65    7.15   0
  -4  -4   6   13.12    8.02   0
  -4  -4   6    5.97    9.05   0
  -4  -4   6    4.40    8.17   0
  -3  -4   6  115.88    7.89   0
  -3  -4   6  120.23    7.60   0
  -3  -4   6  116.13    8.62   0
  -2  -4   6 3108.29   15.30   0
  -2  -4   6 3276.37   15.63   0
  -2  -4   6 3077.23   16.40   0
  -1  -4   6   21.34    7.04   0
   1   4  -6   22.13    6.96   0
  -1  -4   6   16.92    6.84   0
  -1  -4   6   13.96    6.92   0
   0  -4   6   27.00    7.19   0
   0  -4   6   17.49    7.08   0
   0   4  -6   19.02    5.74   0
   1  -4   6   26.21    7.33   0
  -1   4  -6   27.50    5.98   0
   1  -4   6   24.51    7.26   0
  -1   4  -6   36.30    7.07   0
  -2   4  -6 5707.09   17.57   0
   2  -4   6 5735.95   17.67   0
  -2   4  -6 5726.93   18.11   0
   2  -4   6 5466.50   17.96   0
   3  -4   6    6.38    6.06   0
  -3   4  -6   -5.29    7.42   0
   3  -4   6    8.79    7.64   0
  -3   4  -6    1.84    7.28   0
  -4   4  -6   -1.14    7.20   0
   4  -4   6    4.33    7.32   0
  -4   4  -6    0.93    6.03   0
   4  -4   6    6.10    6.37   0
   5  -4   6   31.21    7.66   0
  -5   4  -6   26.88    6.63   0
   5  -4   6   33.13    5.82   0
  -5   4  -6   31.93    5.97   0
   6  -4   6  579.78    7.96   0
   6  -4   6  561.06    8.35   0
  -6   4  -6  583.34    7.57   0
  -6   4  -6  571.46    7.33   0
  -7   4  -6   -3.15    5.46   0
   7  -4   6    7.52    7.16   0
   7  -4   6   15.32    6.81   0
  -7   4  -6    3.72    6.69   0
   8  -4   6    2.96    7.45   0
   8  -4   6    5.54    5.60   0
  -8   4  -6   -3.22    5.56   0
  -8   4  -6    2.54    6.64   0
   9  -4   6    3.29    6.24   0
  -9   4  -6   -3.91    6.86   0
   9  -4   6    3.77    7.16   0
  -9   4  -6    9.29    7.01   0
 -10   4  -6    4.33    7.54   0
  10  -4   6   -1.40    7.73   0
 -10   4  -6    5.36    6.29   0
  10  -4   6    4.33    8.21   0
  -9  -3   6  127.38   10.49   0
   9   3  -6    2.86    7.12   0
   8   3  -6    6.98    8.28   0
  -8  -3   6    3.66    7.17   0
   7   3  -6   35.42    7.12   0
  -7  -3   6   36.56    7.18   0
   6   3  -6    2.92    7.09   0
  -6  -3   6    5.03   11.11   0
  -6  -3   6    6.51    7.09   0
  -6  -3   6    2.42   11.67   0
  -5  -3   6  572.25   13.16   0
  -5  -3   6  546.51   12.42   0
   5   3  -6  587.80   10.08   0
  -5  -3   6  546.80    8.97   0
  -4  -3   6   57.05    7.42   0
   4   3  -6   43.71    8.46   0
  -4  -3   6   42.82    9.36   0
  -3  -3   6  487.40    8.93   0
  -3  -3   6  490.63   10.00   0
   2   3  -6   16.41    7.41   0
  -2  -3   6   24.06    8.65   0
  -2  -3   6   19.91    7.19   0
  -2  -3   6   21.62    7.08   0
   1   3  -6  116.34    7.55   0
  -1  -3   6   93.05    6.21   0
  -1  -3   6  104.40    7.33   0
  -1  -3   6  107.79    7.83   0
   0  -3   6   13.93    5.85   0
   0  -3   6   16.62    5.88   0
   0   3  -6   10.05    7.30   0
   0  -3   6   20.61    7.64   0
  -1   3  -6 2617.11   12.99   0
   1  -3   6 2562.39   13.81   0
  -1   3  -6 2589.99   13.37   0
   1  -3   6 2473.80   14.03   0
  -2   3  -6    5.03    6.17   0
   2  -3   6    4.69    5.95   0
  -2   3  -6   10.67    5.81   0
   2  -3   6   13.77    6.41   0
  -3   3  -6  459.08    8.98   0
   3  -3   6  458.29    7.61   0
   3  -3   6  443.44    7.95   0
  -3   3  -6  462.89    7.43   0
  -4   3  -6   20.12    7.53   0
  -4   3  -6    7.43    5.52   0
   4  -3   6    9.48    7.76   0
   4  -3   6    6.48    6.96   0
  -5   3  -6 1256.95   10.37   0
   5  -3   6 1193.90   10.96   0
   5  -3   6 1211.60    9.34   0
  -5   3  -6 1223.77   10.61   0
  -6   3  -6    3.96    6.43   0
   6  -3   6    3.61    5.90   0
   6  -3   6   -1.69    6.85   0
  -6   3  -6    9.97    5.73   0
   7  -3   6   37.83    7.39   0
  -7   3  -6   44.33    6.90   0
  -7   3  -6   28.41    6.68   0
   7  -3   6   32.47    6.70   0
   8  -3   6    3.57    7.43   0
  -8   3  -6   19.86    7.15   0
  -8   3  -6    1.65    6.87   0
   8  -3   6   16.84    6.90   0
   9  -3   6   88.10    8.85   0
  -9   3  -6   78.54    7.83   0
  -9   3  -6   85.54    8.72   0
   9  -3   6   72.94    8.14   0
  10   2  -6    4.44    8.54   0
 -10  -2   6  103.90    9.76   0
  -9  -2   6    4.51    7.44   0
   9   2  -6   10.96    8.35   0
   8   2  -6   10.08    6.97   0
  -8  -2   6   12.10    7.25   0
  -7  -2   6    4.64    8.20   0
   7   2  -6    5.90    8.30   0
   6   2  -6 1331.14   12.20   0
  -6  -2   6 1252.18   11.15   0
   5   2  -6   16.09    7.45   0
  -5  -2   6   11.70   12.43   0
  -5  -2   6    7.94   13.49   0
  -5  -2   6   12.81    7.32   0
   4   2  -6  282.70    6.97   0
  -4  -2   6  264.43   11.65   0
  -4  -2   6  278.45    8.16   0
  -3  -2   6    7.13    7.22   0
   3   2  -6    5.66    7.54   0
  -3  -2   6    6.43    8.74   0
   3   2  -6    5.93    7.89   0
   2   2  -6  758.57   10.94   0
  -2  -2   6  773.85    8.81   0
  -2  -2   6  779.31   12.52   0
  -1  -2   6   19.74    7.42   0
   1   2  -6   13.88    7.41   0
  -1  -2   6   27.67    7.85   0
  -1  -2   6   14.36    7.32   0
   0   2  -6  271.44    8.61   0
   0  -2   6  278.97    6.92   0
   0  -2   6  261.15    8.05   0
   0  -2   6  273.06    7.61   0
  -1   2  -6   38.66    6.30   0
   1  -2   6   44.58    7.31   0
   1  -2   6   41.89    8.02   0
  -2   2  -6  211.99    7.31   0
  -2   2  -6  219.79    8.02   0
   2  -2   6  222.58    7.46   0
   2  -2   6  213.58    6.88   0
   3  -2   6   12.05    7.93   0
   3  -2   6    4.67    7.15   0
  -3   2  -6   11.01    6.73   0
  -3   2  -6    7.98    6.32   0
  -4   2  -6  506.96    8.30   0
   4  -2   6  496.32    7.54   0
   4  -2   6  510.18    9.11   0
  -4   2  -6  504.42    7.65   0
  -5   2  -6   48.62    7.30   0
   5  -2   6   44.93    7.75   0
  -5   2  -6   52.68    6.79   0
   5  -2   6   46.51    7.06   0
  -6   2  -6   21.82    5.70   0
   6  -2   6   19.18    5.86   0
  -6   2  -6   31.16    6.52   0
   6  -2   6   20.23    6.74   0
   7  -2   6    4.21    6.02   0
  -7   2  -6    6.73    7.02   0
  -7   2  -6    5.30    6.77   0
   7  -2   6   10.67    6.78   0
  -8   2  -6  224.94    7.09   0
   8  -2   6  222.38    9.18   0
   8  -2   6  224.76    8.59   0
  -8   2  -6  235.83    8.13   0
  -9   2  -6    3.53    8.64   0
  -9   2  -6    9.77    7.53   0
   9  -2   6    2.43    7.57   0
   9  -2   6    2.89    6.40   0
  10   1  -6    5.74    7.68   0
 -10  -1   6   13.17    7.71   0
   9   1  -6    9.04    8.26   0
  -9  -1   6   10.70    7.22   0
   8   1  -6   -3.10    7.23   0
  -8  -1   6   -4.76    7.20   0
   7   1  -6  872.02    9.77   0
  -7  -1   6  842.28    9.65   0
   6   1  -6   28.52    7.06   0
  -6  -1   6   17.92    7.34   0
   5   1  -6   79.25    7.32   0
  -5  -1   6   74.98    7.50   0
   4   1  -6   33.44    9.01   0
  -4  -1   6   28.95   11.13   0
   4   1  -6   42.03    7.58   0
  -4  -1   6   32.47    6.34   0
  -3  -1   6 2025.83   12.83   0
   3   1  -6 2126.27   12.24   0
  -3  -1   6 2018.12   17.97   0
   3   1  -6 2107.37   16.77   0
  -2  -1   6   19.19    7.48   0
  -2  -1   6   21.55    7.97   0
   2   1  -6   22.49    7.47   0
   2   1  -6   19.37    8.73   0
  -1  -1   6  206.95    6.96   0
  -1  -1   6  205.81    8.73   0
   1   1  -6  213.12    8.23   0
   0  -1   6   11.11    7.26   0
   0  -1   6   10.74    6.36   0
   0  -1   6   17.75    7.17   0
   0   1  -6   12.22    7.62   0
   1  -1   6  387.51    8.40   0
   1  -1   6  420.26    8.67   0
   1  -1   6  380.44    8.34   0
  -1   1  -6  409.17    8.23   0
   2  -1   6   18.41    8.13   0
   2  -1   6    6.41    6.94   0
   2  -1   6   16.90    7.00   0
  -2   1  -6    9.01    6.46   0
   3  -1   6  149.97    6.64   0
   3  -1   6  151.98    7.52   0
  -3   1  -6  153.75    7.93   0
  -4   1  -6   19.91    6.88   0
   4  -1   6   33.66    8.13   0
   4  -1   6   18.62    6.88   0
  -4   1  -6   27.72    6.29   0
   5  -1   6   -7.15    7.34   0
  -5   1  -6   -1.34    6.49   0
   5  -1   6   -0.06    6.47   0
  -5   1  -6    2.75    7.04   0
  -6   1  -6   -3.24    6.65   0
   6  -1   6    1.50    6.61   0
  -6   1  -6   -6.81    6.94   0
   6  -1   6    4.43    6.06   0
  -7   1  -6  511.75    9.38   0
   7  -1   6  500.26   10.01   0
   7  -1   6  512.08    8.32   0
  -7   1  -6  533.61    7.92   0
  -8   1  -6   -9.23    7.20   0
  -8   1  -6    6.46    7.22   0
   8  -1   6    0.39    7.34   0
   8  -1   6    2.79    6.08   0
  10   0  -6   41.82    7.62   0
 -10   0   6   30.59    7.66   0
   9   0  -6    5.78    7.06   0
  -9   0   6    4.98    7.07   0
   8   0  -6  432.73    7.40   0
  -8   0   6  406.37    8.52   0
   7   0  -6   -6.10    6.91   0
  -7   0   6   10.38    6.86   0
   6   0  -6   83.87    7.02   0
  -6   0   6   93.09    7.24   0
   5   0  -6   69.35    7.32   0
  -5   0   6   70.00   16.55   0
  -5   0   6   56.33    6.09   0
   4   0  -6 2038.00   12.68   0
   4   0  -6 2016.77   18.57   0
  -4   0   6 1923.66   18.89   0
  -4   0   6 1917.18   12.35   0
   3   0  -6   30.38    8.96   0
  -3   0   6   32.97    7.74   0
   3   0  -6   26.58    6.31   0
  -3   0   6   26.34    9.70   0
  -2   0   6  309.01    9.53   0
  -2   0   6  301.13    8.54   0
   2   0  -6  318.03    7.32   0
   2   0  -6  325.06    9.04   0
  -1   0   6  201.44    8.62   0
  -1   0   6  214.27    8.21   0
   1   0  -6  200.89    8.04   0
   1   0  -6  213.71    8.48   0
   0   0   6 1499.52   12.57   0
   0   0   6 1568.56   10.82   0
   0   0   6 1456.48   11.50   0
   0   0  -6 1534.93   12.26   0
   1   0   6   44.78    6.87   0
   1   0   6   51.34    5.67   0
   1   0   6   46.62    5.76   0
  -1   0  -6   52.57    6.70   0
   2   0   6  171.63    8.43   0
   2   0   6  163.59    7.57   0
   2   0   6  166.89    7.47   0
  -2   0  -6  171.53    7.09   0
   3   0   6   -4.09    8.04   0
   3   0   6    2.05    8.23   0
   3   0   6   -3.09    6.87   0
  -3   0  -6    1.78    6.38   0
   4   0   6  243.08    7.73   0
  -4   0  -6  248.60    7.01   0
   4   0   6  238.69    7.92   0
   4   0   6  246.86    7.10   0
   5   0   6    9.77    7.85   0
   5   0   6   11.56    6.81   0
  -5   0  -6   10.16    5.78   0
   5   0   6   14.09    5.93   0
   6   0   6  115.06    8.35   0
   6   0   6  113.59    8.34   0
  -6   0  -6  101.07    7.43   0
   6   0   6  108.80    6.44   0
   7   0   6   -4.01    7.16   0
   7   0   6    9.13    7.49   0
   7   0   6    9.47    8.34   0
  -7   0  -6    9.23    5.93   0
   8   0   6   -0.26    8.24   0
   8   0   6    2.79    8.13   0
   8   0   6   81.14    6.76   0
  -8   0  -6   68.11    7.99   0
  11  -1  -6  100.55    8.57   0
 -11   1   6   96.69    8.58   0
  10  -1  -6    7.11    6.04   0
 -10   1   6   19.40    7.63   0
   9  -1  -6   48.96    5.96   0
  -9   1   6   47.11    6.22   0
   8  -1  -6   13.90    6.88   0
  -8   1   6    9.37    7.11   0
   7  -1  -6   17.23    5.63   0
  -7   1   6   14.97    6.81   0
   6  -1  -6   39.42    6.95   0
  -6   1   6   40.10    7.34   0
   5  -1  -6  499.75    8.58   0
   5  -1  -6  521.29   14.28   0
  -5   1   6  508.10   14.40   0
  -5   1   6  491.64    7.63   0
   4  -1  -6   32.29    6.10   0
  -4   1   6   33.70    8.72   0
   4  -1  -6   33.82    9.52   0
  -4   1   6   37.49    7.44   0
   3  -1  -6  192.80    7.95   0
   3  -1  -6  189.49    8.72   0
  -3   1   6  184.71   10.15   0
  -3   1   6  188.59    8.01   0
  -2   1   6   24.48    7.62   0
   2  -1  -6   25.46    7.69   0
   2  -1  -6   14.37    6.28   0
  -2   1   6   15.95    7.87   0
  -1   1   6 1327.16   11.25   0
   1  -1  -6 1349.51   10.27   0
   1  -1  -6 1348.18   11.75   0
  -1   1   6 1332.64   11.67   0
   0   1   6    7.50    7.11   0
   0   1   6    3.85    7.02   0
   0  -1  -6    0.66    6.68   0
   0   1   6    8.81    6.67   0
   1   1   6   28.83    7.11   0
  -1  -1  -6   30.73    7.90   0
   1   1   6   21.47    7.11   0
   1   1   6   26.51    6.81   0
   2   1   6   -2.39    7.31   0
   2   1   6   -1.82    7.07   0
  -2  -1  -6    4.59    6.23   0
   2   1   6    8.44    6.37   0
   3   1   6  679.98    9.50   0
  -3  -1  -6  696.59    9.65   0
   3   1   6  668.38   10.51   0
   3   1   6  684.52    9.63   0
   4   1   6   14.63    7.82   0
   4   1   6    1.75    7.47   0
  -4  -1  -6   17.04    7.36   0
   4   1   6    9.75    7.31   0
   5   1   6   16.42    7.81   0
   5   1   6   11.57    7.74   0
  -5  -1  -6   14.64    6.15   0
   5   1   6    5.16    5.83   0
  -6  -1  -6    5.88    5.97   0
   6   1   6    7.64    8.01   0
   6   1   6   -4.27    7.13   0
   6   1   6   -2.14    7.15   0
   7   1   6    5.11    8.03   0
   7   1   6    4.71    7.73   0
   7   1   6   74.31    7.97   0
  -7  -1  -6   53.46    6.79   0
  11  -2  -6    4.30    7.60   0
 -11   2   6   -0.77    7.45   0
  10  -2  -6   42.32    7.38   0
 -10   2   6   46.64    6.12   0
   9  -2  -6    9.74    6.93   0
  -9   2   6    5.29    7.00   0
   8  -2  -6  207.62    7.38   0
  -8   2   6  199.42    6.44   0
   7  -2  -6   20.88    5.58   0
  -7   2   6   25.05    7.11   0
   6  -2  -6  176.09    7.47   0
   6  -2  -6  168.93   13.91   0
  -6   2   6  171.82    6.49   0
   5  -2  -6    2.81    5.99   0
   5  -2  -6    6.18    9.60   0
  -5   2   6    9.89    9.29   0
  -5   2   6   13.11    7.34   0
   4  -2  -6   38.71    5.95   0
   4  -2  -6   36.30    8.75   0
  -4   2   6   28.63    8.56   0
  -4   2   6   32.29    5.95   0
   3  -2  -6   19.93    7.32   0
   3  -2  -6   22.51    7.84   0
  -3   2   6   29.57    9.00   0
  -3   2   6   27.86    6.12   0
   2  -2  -6  259.12    8.70   0
   2  -2  -6  266.53    8.22   0
  -2   2   6  261.40    8.42   0
  -2   2   6  255.86    8.32   0
  -1   2   6  138.06    6.36   0
   1  -2  -6  134.63    7.55   0
   1  -2  -6  125.27    6.92   0
  -1   2   6  139.96    8.05   0
   0   2   6   10.18    7.47   0
   0   2   6   10.54    5.94   0
   0  -2  -6   26.51    7.85   0
   0   2   6   19.70    6.34   0
   1   2   6    3.59    7.20   0
   1   2   6   -0.38    6.98   0
  -1  -2  -6   -2.80    6.56   0
   1   2   6    2.37    6.47   0
   2   2   6 1085.84   11.69   0
   2   2   6 1146.62   10.92   0
  -2  -2  -6 1108.98   10.42   0
   2   2   6 1122.38   10.36   0
   3   2   6   11.24    8.12   0
   3   2   6   16.30    6.57   0
  -3  -2  -6   14.76    5.99   0
   3   2   6   15.76    7.26   0
   4   2   6   16.87    7.96   0
   4   2   6   12.32    7.64   0
  -4  -2  -6   16.19    7.31   0
   4   2   6    5.38    5.80   0
   5   2   6    4.50    8.22   0
   5   2   6    3.90    7.83   0
  -5  -2  -6    8.91    5.78   0
   5   2   6   -0.23    5.89   0
   6   2   6    5.26    8.04   0
   6   2   6    1.07    8.55   0
  -6  -2  -6  137.59    8.16   0
   6   2   6  154.58    7.90   0
   7   2   6    3.58    9.68   0
   7   2   6    5.08   10.32   0
   7   2   6   -1.97    6.48   0
  -7  -2  -6    2.65    7.99   0
  11  -3  -6    8.48    7.67   0
 -11   3   6    1.23    8.18   0
  10  -3  -6   19.08    7.27   0
 -10   3   6   22.58    7.41   0
   9  -3  -6  315.40    7.04   0
  -9   3   6  317.55    8.16   0
   8  -3  -6   10.76    5.69   0
  -8   3   6   10.88    7.08   0
   7  -3  -6   73.75    5.87   0
  -7   3   6   86.80    6.09   0
   6  -3  -6   99.87    7.16   0
   6  -3  -6  105.40    9.81   0
  -6   3   6  110.17    6.31   0
   5  -3  -6  520.88    7.54   0
  -5   3   6  560.44   10.75   0
   5  -3  -6  547.36   11.07   0
  -5   3   6  515.78    8.81   0
   4  -3  -6    2.80    7.36   0
   4  -3  -6   10.13    7.34   0
  -4   3   6    4.32    7.31   0
  -4   3   6   12.62    7.21   0
   3  -3  -6    3.08    5.68   0
   3  -3  -6   10.21    7.78   0
  -3   3   6   10.46    7.45   0
  -3   3   6   21.51    7.23   0
   2  -3  -6   44.93    7.85   0
   2  -3  -6   51.81    7.09   0
  -2   3   6   53.70    7.48   0
  -2   3   6   52.56    7.27   0
   1  -3  -6  238.64    8.23   0
   1  -3  -6  242.61    7.89   0
  -1   3   6  250.28    7.82   0
  -1   3   6  250.35    8.27   0
   0   3   6   -2.00    7.27   0
   0  -3  -6   12.95    6.27   0
   0   3   6    4.81    6.34   0
   1   3   6  892.12   10.48   0
   1   3   6  983.78   10.34   0
  -1  -3  -6  914.67    9.84   0
   1   3   6  997.63   10.15   0
   2   3   6   12.30    6.87   0
   2   3   6    9.54    6.67   0
   2   3   6   19.35    6.24   0
  -2  -3  -6   15.01    6.25   0
   3   3   6   69.63    8.39   0
   3   3   6   69.21    6.99   0
  -3  -3  -6   74.57    7.63   0
   3   3   6   78.44    7.40   0
   4   3   6    9.55    9.24   0
  -4  -3  -6    5.02    6.04   0
   4   3   6    7.62    7.81   0
   4   3   6    4.69    5.91   0
   5   3   6    2.99    8.69   0
  -5  -3  -6  184.98    6.78   0
   5   3   6    1.63    8.27   0
   5   3   6  179.35    6.72   0
   6   3   6    1.24   10.56   0
  -6  -3  -6   10.56    7.74   0
   6   3   6   -0.76   10.22   0
   6   3   6   -1.88    6.31   0
  11  -4  -6    6.48    6.51   0
 -11   4   6   16.65    8.09   0
  10  -4  -6  107.10    7.62   0
 -10   4   6  111.26    6.53   0
   9  -4  -6    6.14    5.78   0
  -9   4   6    4.11    7.01   0
   8  -4  -6   24.85    6.92   0
  -8   4   6    9.22    5.89   0
   7  -4  -6    2.34    5.55   0
   7  -4  -6    0.73   10.15   0
  -7   4   6   12.76    7.04   0
   6  -4  -6  436.49    7.02   0
   6  -4  -6  436.43   10.97   0
  -6   4   6  423.24    8.27   0
   5  -4  -6   28.73    6.96   0
   5  -4  -6   25.10    8.52   0
  -5   4   6   30.14    7.05   0
  -5   4   6   23.54    7.15   0
   4  -4  -6   22.47    5.82   0
   4  -4  -6   16.13    8.57   0
  -4   4   6   20.10    8.05   0
  -4   4   6   17.40    7.18   0
   3  -4  -6   17.53    7.44   0
   3  -4  -6    6.96    6.81   0
  -3   4   6    8.39    7.23   0
  -3   4   6    6.54    5.84   0
   2  -4  -6  374.78    8.16   0
   2  -4  -6  361.69    8.49   0
  -2   4   6  364.37    8.26   0
  -2   4   6  360.84    8.38   0
   1  -4  -6   10.56    5.94   0
   1  -4  -6    8.62    6.74   0
  -1   4   6   11.65    7.04   0
  -1   4   6    7.10    5.69   0
   0  -4  -6   32.26    7.29   0
   0   4   6   30.63    7.02   0
   0   4   6    7.55    6.81   0
  -1  -4  -6    1.75    7.35   0
   1   4   6    5.58    7.79   0
   1   4   6    8.32    7.19   0
   1   4   6    4.38    8.31   0
   2   4   6  253.03    7.87   0
   2   4   6  274.20    6.75   0
  -2  -4  -6  255.38    6.71   0
   2   4   6  262.78    9.35   0
  -3  -4  -6    0.56    7.39   0
   3   4   6    1.60    7.91   0
   3   4   6    0.57    7.27   0
   3   4   6    2.75    8.40   0
  -4  -4  -6   72.44    7.84   0
   4   4   6    3.69    8.39   0
   4   4   6   76.83    7.64   0
   4   4   6   -1.66    8.70   0
  -5  -4  -6   15.36    7.98   0
   5   4   6    2.17   10.76   0
   5   4   6    3.86    6.29   0
   5   4   6    5.11   11.15   0
  10  -5  -6   16.76    7.54   0
 -10   5   6   -6.03    7.50   0
   9  -5  -6    8.07    7.23   0
  -9   5   6    5.75    7.30   0
   8  -5  -6    4.05    5.65   0
   8  -5  -6    1.64    9.95   0
   8  -5  -6    2.02    9.39   0
  -8   5   6   12.20    7.26   0
   7  -5  -6  151.87    6.16   0
  -7   5   6  142.10    6.46   0
   7  -5  -6  146.43    9.22   0
   6  -5  -6    9.65    5.70   0
   6  -5  -6    9.25    8.46   0
  -6   5   6    4.01    5.83   0
   5  -5  -6  103.23    5.88   0
   5  -5  -6   92.77    7.66   0
  -5   5   6  103.21    8.29   0
  -5   5   6  104.10    6.26   0
   4  -5  -6   12.91    7.58   0
   4  -5  -6   10.16    6.78   0
  -4   5   6    1.39    5.38   0
  -4   5   6    1.41    5.72   0
   3  -5  -6  455.01    8.64   0
   3  -5  -6  453.49    8.59   0
  -3   5   6  483.26    7.34   0
  -3   5   6  480.38    7.69   0
   2  -5  -6   26.05    6.72   0
   2  -5  -6   10.13    7.25   0
  -2   5   6   37.55    6.88   0
  -2   5   6   28.97    6.93   0
   1  -5  -6   48.40    6.07   0
   1  -5  -6   58.35    7.03   0
  -1   5   6   66.98    5.80   0
  -1   5   6   56.13    7.24   0
   0   5   6   20.62    6.74   0
   0  -5  -6   17.32    6.17   0
   0   5   6   21.93    6.02   0
   0   5   6   27.90    7.05   0
  -1  -5  -6   19.38    6.07   0
   1   5   6   34.28    6.78   0
   1   5   6   28.59    5.89   0
   1   5   6   36.29    8.46   0
  -2  -5  -6   14.07    7.63   0
   2   5   6   -5.88    6.08   0
   2   5   6    1.50    7.91   0
   2   5   6    5.15    9.46   0
  -3  -5  -6    8.97    7.88   0
   3   5   6    0.04    8.37   0
   3   5   6    6.76    7.49   0
   3   5   6    3.25    8.70   0
  -4  -5  -6    2.44    8.14   0
   4   5   6    0.48   10.88   0
   4   5   6    4.91    7.64   0
   4   5   6    1.61   10.59   0
  10  -6  -6   32.61    7.90   0
 -10   6   6   47.28    7.77   0
   9  -6  -6    4.73    7.43   0
   9  -6  -6    2.30   10.94   0
   9  -6  -6    0.93   12.35   0
  -9   6   6    6.33    6.19   0
   8  -6  -6   16.50    7.08   0
  -8   6   6   16.02    7.16   0
   8  -6  -6    1.45    7.86   0
   7  -6  -6    9.42    7.08   0
   7  -6  -6   10.56    8.55   0
  -7   6   6    1.56    7.37   0
   6  -6  -6   58.24    5.56   0
   6  -6  -6   52.31    8.55   0
  -6   6   6   40.41    7.25   0
   5  -6  -6    1.69    7.31   0
   5  -6  -6   -0.45    6.63   0
  -5   6   6    1.34    6.93   0
   4  -6  -6  527.92    9.21   0
   4  -6  -6  566.00    8.47   0
  -4   6   6  567.85    9.05   0
  -4   6   6  560.56    7.70   0
   3  -6  -6   -7.90    7.38   0
   3  -6  -6   13.40    6.78   0
  -3   6   6    9.98    7.13   0
  -3   6   6    5.98    5.72   0
   2  -6  -6   40.07    7.29   0
   2  -6  -6   41.44    7.17   0
  -2   6   6   40.11    5.95   0
  -2   6   6   35.71    7.29   0
   1  -6  -6   16.01    6.00   0
  -1   6   6   21.68    5.78   0
   1  -6  -6   11.75    6.96   0
  -1   6   6   27.98    7.45   0
   0   6   6  278.54    8.37   0
   0  -6  -6  282.14    7.09   0
   0   6   6  285.95    8.12   0
   0   6   6  271.37    8.79   0
  -1  -6  -6   14.47    7.63   0
   1   6   6   -1.04    5.89   0
   1   6   6    6.24    8.24   0
   1   6   6   -0.39    8.59   0
   2   6   6    5.13    8.61   0
  -2  -6  -6    1.85    6.46   0
   2   6   6   15.60    6.23   0
   2   6   6    1.11    9.14   0
  -3  -6  -6   16.49    6.73   0
   3   6   6    2.40   10.10   0
   3   6   6    0.80   10.57   0
   3   6   6    4.09    7.89   0
   9  -7  -6    1.04    9.72   0
   9  -7  -6    7.66    6.22   0
   9  -7  -6    2.79    9.16   0
  -9   7   6   -4.59    6.47   0
   8  -7  -6   15.94    6.03   0
   8  -7  -6    2.45    8.17   0
  -8   7   6   -2.29    6.25   0
   7  -7  -6   41.39    7.25   0
   7  -7  -6   44.83    9.14   0
  -7   7   6   43.22    6.20   0
   6  -7  -6   10.75    7.45   0
   6  -7  -6    5.75    5.84   0
  -6   7   6    3.70    7.08   0
   5  -7  -6  133.92    8.03   0
   5  -7  -6  149.25    6.31   0
  -5   7   6  153.03    7.93   0
   4  -7  -6    7.31    7.40   0
   4  -7  -6    8.37    7.25   0
  -4   7   6   17.73    5.48   0
  -4   7   6    4.08    7.15   0
   3  -7  -6   29.37    7.42   0
   3  -7  -6   27.65    7.28   0
  -3   7   6   28.78    5.84   0
  -3   7   6   42.77    7.48   0
   2  -7  -6   -2.31    6.03   0
   2  -7  -6    1.49    7.12   0
  -2   7   6   19.33    6.88   0
  -2   7   6    7.07    7.63   0
   1  -7  -6   91.39    6.58   0
   1  -7  -6   84.10    7.72   0
  -1   7   6   99.20    7.55   0
  -1   7   6   88.16    8.03   0
   0  -7  -6    1.99    6.28   0
   0   7   6    4.39    7.22   0
   0   7   6    9.81    7.40   0
   0   7   6    3.11    7.69   0
   1   7   6    1.76    7.99   0
  -1  -7  -6   15.33    8.17   0
   1   7   6   15.33    6.46   0
   1   7   6    6.03    8.52   0
   8  -8  -6   21.09    7.60   0
   8  -8  -6    3.92    8.94   0
  -8   8   6   19.99    7.76   0
   7  -8  -6    4.98    7.86   0
   7  -8  -6    3.33    6.08   0
  -7   8   6    5.37    6.18   0
   6  -8  -6   26.70    7.92   0
   6  -8  -6   24.91    7.26   0
  -6   8   6   26.55    6.20   0
   5  -8  -6   12.38    7.73   0
   5  -8  -6   12.75    5.74   0
  -5   8   6    4.51    7.44   0
   4  -8  -6   23.93    7.91   0
   4  -8  -6   18.21    7.51   0
  -4   8   6   16.43    7.87   0
   3  -8  -6   -7.34    7.59   0
  -3   8   6   14.36    7.26   0
   3  -8  -6    5.62    7.45   0
  -3   8   6    7.35    7.83   0
   2  -8  -6   23.45    8.07   0
   2  -8  -6   18.90    7.59   0
  -2   8   6   30.59    7.56   0
  -2   8   6   20.23    9.10   0
   1  -8  -6   -3.36    6.30   0
  -1   8   6    5.07    7.82   0
  -1   8   6   -0.80    9.07   0
   6  -9  -6    2.72    8.36   0
   6  -9  -6    7.04    7.88   0
  -6   9   6    0.53    6.89   0
   5  -9  -6   59.51    8.34   0
   5  -9  -6   67.90    8.12   0
  -5   9   6   55.58    8.21   0
   4  -9  -6   -1.03    8.10   0
   4  -9  -6   11.54    7.81   0
  -4   9   6   10.07    7.96   0
  -3  14  -7   -2.66    8.85   0
   3 -14   7   -8.37    7.46   0
   3 -14   7   10.01    7.49   0
   3 -14   7    0.47    8.00   0
  -4  14  -7   29.84    7.81   0
   4 -14   7   31.77    7.83   0
   4 -14   7   37.92    6.33   0
   4 -14   7   36.88    7.98   0
   5 -14   7    6.26    6.13   0
   5 -14   7    7.52    6.38   0
  -5  14  -7    9.39    7.57   0
   5 -14   7    8.54    7.80   0
   0 -13   7   11.25    7.82   0
   0 -13   7    0.48    6.43   0
   0 -13   7    8.62   10.38   0
   1 -13   7    2.74    7.15   0
  -1  13  -7    4.89    8.16   0
   1 -13   7   -3.41    7.18   0
   1 -13   7    8.16    8.96   0
  -2  13  -7    2.10    8.31   0
   2 -13   7    3.02    5.91   0
   2 -13   7   -1.50    7.64   0
   2 -13   7   -1.94    7.18   0
   3 -13   7  175.96    6.55   0
   3 -13   7  186.33    7.80   0
   3 -13   7  162.74    8.20   0
  -3  13  -7  182.84    7.81   0
  -4  13  -7    8.49    7.01   0
   4 -13   7    4.57    6.10   0
   4 -13   7    1.94    5.96   0
   5 -13   7   32.66    7.46   0
  -5  13  -7   31.65    7.01   0
   5 -13   7   29.06    6.05   0
  -6  13  -7   -0.29    5.76   0
   6 -13   7    3.91    7.47   0
   6 -13   7    8.03    5.99   0
  -7  13  -7  153.46    7.98   0
   7 -13   7  143.47    8.16   0
   7 -13   7  138.72    6.96   0
  -2 -12   7  135.41   17.19   0
  -2 -12   7  179.13    8.35   0
  -2 -12   7  180.69    7.23   0
  -2 -12   7  152.74   17.09   0
  -1 -12   7    3.52    9.64   0
  -1 -12   7    3.71    7.45   0
  -1 -12   7   -3.97    5.94   0
  -1 -12   7    3.99    9.77   0
   0 -12   7    8.30    5.52   0
   0 -12   7    0.45    6.94   0
   0 -12   7    0.44    8.95   0
   0  12  -7    3.45    8.20   0
   1 -12   7   -2.37    6.95   0
  -1  12  -7    2.20    6.89   0
   1 -12   7    9.18    7.29   0
   1 -12   7    1.78    5.57   0
   2 -12   7  488.08    7.35   0
   2 -12   7  484.81    9.31   0
  -2  12  -7  501.68    8.92   0
   2 -12   7  491.98    7.26   0
   3 -12   7    2.75    5.61   0
  -3  12  -7    9.02    6.70   0
   3 -12   7    5.10    6.90   0
   4 -12   7   11.95    5.56   0
  -4  12  -7   21.36    6.71   0
   4 -12   7   15.30    6.96   0
  -5  12  -7   21.48    6.73   0
   5 -12   7   27.89    5.72   0
   5 -12   7   18.39    5.81   0
  -6  12  -7  149.81    7.46   0
   6 -12   7  143.56    7.39   0
   6 -12   7  134.20    7.64   0
  -7  12  -7    7.40    5.82   0
   7 -12   7   10.14    7.29   0
   7 -12   7    9.54    6.15   0
   8 -12   7    4.83    7.57   0
  -8  12  -7    8.52    7.29   0
   8 -12   7    2.43    6.30   0
  -3 -11   7   42.08    7.52   0
  -3 -11   7   40.27    7.68   0
  -2 -11   7    3.66   10.82   0
  -2 -11   7    1.17    5.80   0
  -2 -11   7   -2.59   10.75   0
  -2 -11   7    1.55    6.96   0
  -1 -11   7   27.04    8.50   0
  -1 -11   7   42.15    5.85   0
  -1 -11   7   42.16    7.04   0
  -1 -11   7   41.11    9.69   0
   0 -11   7   17.04    5.70   0
   0  11  -7   16.77    7.81   0
   0 -11   7   21.73    6.98   0
   0 -11   7   20.58    8.24   0
   1 -11   7  642.88    7.72   0
   1 -11   7  624.33    9.35   0
   1 -11   7  642.72    8.58   0
  -1  11  -7  668.28    9.28   0
  -2  11  -7   -0.28    6.53   0
   2 -11   7   23.44    6.66   0
   2 -11   7   12.20    6.91   0
  -3  11  -7  102.03    6.89   0
   3 -11   7   99.28    5.94   0
   3 -11   7   89.48    6.31   0
  -4  11  -7   19.83    6.70   0
   4 -11   7   20.26    5.77   0
   4 -11   7   21.44    6.88   0
  -5  11  -7  560.32    7.48   0
   5 -11   7  522.17    8.74   0
   5 -11   7  546.03    7.72   0
  -6  11  -7    1.38    5.42   0
   6 -11   7   -2.62    6.80   0
   6 -11   7    2.04    7.00   0
  -7  11  -7   14.49    5.69   0
   7 -11   7   20.00    5.99   0
   7 -11   7    7.50    7.27   0
   8 -11   7    4.17    7.39   0
  -8  11  -7    4.88    7.15   0
   8 -11   7   -1.25    6.01   0
  -9  11  -7   97.67    6.84   0
   9 -11   7   86.75    8.15   0
   9 -11   7  113.07    8.00   0
  -4 -10   7    8.44    7.16   0
  -4 -10   7   -1.24    7.40   0
  -3 -10   7    5.02   11.32   0
  -3 -10   7   14.49    7.09   0
  -3 -10   7    0.71   11.27   0
  -3 -10   7    1.20    5.76   0
  -2 -10   7  235.44    9.95   0
  -2 -10   7  268.93    7.68   0
  -2 -10   7  263.28    7.76   0
  -2 -10   7  268.32   10.75   0
  -1 -10   7   -0.35    5.42   0
  -1 -10   7    8.28    7.95   0
  -1 -10   7    8.20    6.67   0
  -1 -10   7   -0.60    8.11   0
   0 -10   7  304.16    7.75   0
   0  10  -7  318.87    8.17   0
   0 -10   7  326.44    8.27   0
   1 -10   7   -1.47    6.85   0
   1 -10   7   11.11    6.70   0
  -1  10  -7    2.91    6.42   0
   2 -10   7  257.57    6.33   0
   2 -10   7  236.00    7.86   0
  -2  10  -7  244.60    7.48   0
   3 -10   7    5.54    5.49   0
  -3  10  -7    3.34    6.53   0
   3 -10   7    3.29    5.58   0
  -4  10  -7  480.74    7.79   0
   4 -10   7  451.44    7.93   0
   4 -10   7  455.94    8.08   0
  -5  10  -7   18.09    5.42   0
   5 -10   7   24.98    6.83   0
   5 -10   7    9.57    5.59   0
  -6  10  -7    3.23    6.71   0
   6 -10   7    2.99    6.95   0
   6 -10   7   -1.12    7.00   0
   7 -10   7    1.97    7.05   0
  -7  10  -7   -4.23    5.53   0
   7 -10   7    1.33    5.76   0
  -8  10  -7  292.94    7.80   0
   8 -10   7  276.71    6.92   0
   8 -10   7  291.79    7.11   0
  -9  10  -7    1.87    5.91   0
   9 -10   7   11.87    7.25   0
   9 -10   7    8.68    7.45   0
  -5  -9   7   16.75    7.64   0
  -5  -9   7    5.01    7.27   0
  -4  -9   7    1.72   11.70   0
  -4  -9   7    2.80    7.15   0
  -4  -9   7    7.50    6.93   0
  -4  -9   7    1.11   12.58   0
  -3  -9   7  611.88   13.10   0
  -3  -9   7  657.70    9.30   0
  -3  -9   7  648.47   12.82   0
  -3  -9   7  611.82    9.06   0
  -2  -9   7   25.16    8.12   0
  -2  -9   7   24.26    5.63   0
  -2  -9   7   32.36    6.66   0
  -2  -9   7   24.77    7.90   0
  -1  -9   7   67.83    6.58   0
  -1  -9   7   74.15    5.82   0
  -1  -9   7   66.35    7.79   0
  -1  -9   7   71.23    8.06   0
   0   9  -7    2.94    6.25   0
   0  -9   7    1.45    7.05   0
   0  -9   7    2.22    5.38   0
  -1   9  -7  447.35    8.21   0
   1  -9   7  459.43    7.98   0
   1  -9   7  434.43    8.41   0
   2  -9   7   26.01    6.63   0
  -2   9  -7   11.21    6.53   0
   2  -9   7   11.44    6.81   0
  -3   9  -7   73.25    6.59   0
   3  -9   7   58.80    6.94   0
   3  -9   7   68.30    5.77   0
  -4   9  -7   10.12    6.51   0
   4  -9   7   12.79    5.41   0
   4  -9   7   10.93    5.46   0
   5  -9   7  119.04    6.14   0
  -5   9  -7  135.26    5.79   0
   5  -9   7  124.82    5.97   0
   6  -9   7   -0.18    6.90   0
   6  -9   7    2.05    5.63   0
  -6   9  -7    9.66    6.52   0
  -7   9  -7  255.51    6.41   0
   7  -9   7  217.46    6.45   0
   7  -9   7  248.31    7.77   0
  -8   9  -7    6.30    6.97   0
  -8   9  -7    6.47    5.70   0
   8  -9   7   11.01    7.10   0
   8  -9   7    8.27    5.72   0
  -9   9  -7   -1.43    7.22   0
  -9   9  -7   15.07    7.12   0
   9  -9   7    8.08    6.25   0
   9  -9   7    2.47    7.29   0
 -10   9  -7    6.27    7.51   0
  10  -9   7  -13.53    8.21   0
 -10   9  -7    3.78    7.64   0
  10  -9   7   10.92    6.34   0
  -6  -8   7    5.47    7.35   0
  -6  -8   7   11.69    9.00   0
  -5  -8   7    1.99   11.56   0
  -5  -8   7    4.82    7.95   0
  -5  -8   7    5.01    7.34   0
  -5  -8   7    6.91   11.77   0
  -4  -8   7 1058.70   10.55   0
  -4  -8   7 1040.65   15.39   0
  -4  -8   7 1070.33   11.72   0
  -4  -8   7 1028.67   15.20   0
  -3  -8   7    6.51    8.00   0
  -3  -8   7    6.84    6.63   0
  -3  -8   7    5.83    7.75   0
  -3  -8   7    2.56    6.93   0
  -2  -8   7    3.87    6.61   0
  -2  -8   7   16.07    7.72   0
  -2  -8   7   15.38    7.59   0
  -2  -8   7    6.47    6.66   0
  -1  -8   7   45.76    6.97   0
  -1  -8   7   58.54    8.14   0
  -1  -8   7   56.84    6.70   0
   0   8  -7 1109.02   10.25   0
   0  -8   7 1090.69   10.47   0
   0  -8   7 1088.65    8.69   0
   1  -8   7    6.56    5.73   0
  -1   8  -7    8.55    6.49   0
   1  -8   7    6.60    5.21   0
  -2   8  -7  241.57    7.26   0
   2  -8   7  233.37    7.49   0
   2  -8   7  239.80    7.79   0
   3  -8   7   12.26    5.77   0
  -3   8  -7   13.77    5.38   0
   3  -8   7   -3.75    5.76   0
  -4   8  -7  554.00    8.23   0
   4  -8   7  540.68    8.46   0
   4  -8   7  523.33    7.21   0
  -4   8  -7  560.32    7.38   0
   5  -8   7    8.49    7.02   0
  -5   8  -7   21.43    6.52   0
   5  -8   7    7.78    5.45   0
  -5   8  -7    9.87    5.57   0
  -6   8  -7  150.61    6.20   0
  -6   8  -7  160.00    5.85   0
   6  -8   7  147.90    7.11   0
   6  -8   7  133.91    7.34   0
  -7   8  -7    5.03    6.67   0
   7  -8   7    7.18    6.86   0
   7  -8   7   -2.55    5.48   0
  -7   8  -7    6.08    6.53   0
  -8   8  -7  100.87    5.94   0
   8  -8   7   87.45    7.25   0
  -8   8  -7  101.08    5.88   0
   8  -8   7   88.78    7.69   0
   9  -8   7  -13.28    7.64   0
   9  -8   7   -5.76    7.00   0
  -9   8  -7    4.74    6.71   0
  -9   8  -7   -0.23    7.28   0
 -10   8  -7   74.57    7.73   0
  10  -8   7   71.10    8.53   0
  10  -8   7   57.88    6.59   0
 -10   8  -7   69.85    7.81   0
  -7  -7   7   70.28   18.75   0
  -7  -7   7   72.83   19.06   0
  -7  -7   7   78.20    9.08   0
  -7  -7   7   68.21   10.94   0
  -6  -7   7   15.03    8.14   0
  -6  -7   7    7.96   10.25   0
  -6  -7   7   12.48   10.33   0
  -6  -7   7    8.48    8.88   0
  -5  -7   7  442.62    9.72   0
  -5  -7   7  443.63   11.85   0
  -5  -7   7  443.73   10.06   0
  -5  -7   7  438.12   11.88   0
  -4  -7   7   -0.34    8.10   0
  -4  -7   7    0.79    6.62   0
  -4  -7   7    1.94    8.79   0
  -4  -7   7    7.95    6.86   0
  -3  -7   7  282.66    9.15   0
  -3  -7   7  321.38    8.14   0
  -3  -7   7  307.52    9.15   0
  -3  -7   7  295.29    7.66   0
  -2  -7   7   49.09    7.04   0
  -2  -7   7   48.36    7.04   0
  -2  -7   7   49.63    5.64   0
  -1  -7   7  972.39    9.88   0
  -1  -7   7 1059.99   10.28   0
  -1  -7   7 1030.99    9.84   0
   0  -7   7   13.73    7.04   0
   0   7  -7   17.42    6.78   0
   0  -7   7   22.20    5.50   0
   1  -7   7   -3.12    5.42   0
  -1   7  -7    8.91    5.33   0
   1  -7   7    3.18    6.86   0
  -2   7  -7   53.39    5.70   0
  -2   7  -7   49.82    5.48   0
   2  -7   7   47.50    6.91   0
   2  -7   7   43.90    5.75   0
  -3   7  -7  886.34    8.28   0
   3  -7   7  865.60    8.41   0
  -3   7  -7  879.23    9.25   0
   3  -7   7  872.78    9.39   0
   4  -7   7    7.79    7.12   0
  -4   7  -7    3.88    6.68   0
  -4   7  -7    5.24    5.63   0
   4  -7   7    7.12    5.70   0
  -5   7  -7    6.92    6.79   0
  -5   7  -7   -6.76    6.62   0
   5  -7   7   16.36    5.53   0
   5  -7   7   13.62    5.68   0
  -6   7  -7    2.65    6.55   0
   6  -7   7   -2.06    6.86   0
   6  -7   7    2.88    6.87   0
  -6   7  -7    8.62    5.50   0
  -7   7  -7  325.24    6.51   0
   7  -7   7  318.39    6.74   0
   7  -7   7  312.18    7.91   0
  -7   7  -7  331.98    6.84   0
  -8   7  -7    3.94    6.50   0
   8  -7   7    5.39    5.84   0
   8  -7   7   -0.10    6.72   0
  -8   7  -7    3.98    7.00   0
  -9   7  -7   50.78    5.87   0
   9  -7   7   67.11    7.86   0
   9  -7   7   65.17    7.44   0
  -9   7  -7   61.07    7.46   0
 -10   7  -7   -4.97    7.45   0
  10  -7   7   12.88    8.26   0
 -10   7  -7    8.12    7.38   0
  10  -7   7    5.29    7.71   0
  -8  -6   7  157.90   13.30   0
  -8  -6   7  177.89   12.05   0
  -8  -6   7  145.61   14.43   0
  -8  -6   7  176.61   13.64   0
  -7  -6   7   11.19   10.42   0
  -7  -6   7   10.46    9.20   0
  -7  -6   7   10.78   10.64   0
  -7  -6   7    9.20   10.23   0
  -6  -6   7   67.59    8.69   0
  -6  -6   7   71.07    8.26   0
  -6  -6   7   68.39    9.64   0
  -6  -6   7   69.31    8.68   0
  -5  -6   7   14.66    7.89   0
  -5  -6   7   19.13    7.76   0
  -5  -6   7   21.02    8.01   0
  -5  -6   7   11.53    8.93   0
  -4  -6   7  120.11    8.35   0
  -4  -6   7  103.17    7.09   0
  -4  -6   7  123.81    8.21   0
  -4  -6   7  108.18    7.42   0
  -3  -6   7   26.25    8.02   0
  -3  -6   7   22.83    6.89   0
  -3  -6   7   11.45    6.63   0
  -2  -6   7  337.80    8.01   0
  -2  -6   7  357.64    8.03   0
  -2  -6   7  316.76    7.91   0
  -1  -6   7    2.31    6.80   0
  -1  -6   7    5.22    7.05   0
  -1  -6   7    8.29    6.65   0
   0   6  -7   11.57    6.80   0
   0  -6   7   18.24    5.74   0
   0  -6   7   22.55    7.22   0
   1  -6   7   21.54    7.43   0
   1  -6   7   18.79    7.46   0
  -1   6  -7   16.94    6.90   0
  -1   6  -7   11.42    7.12   0
  -2   6  -7 1674.87   11.22   0
   2  -6   7 1567.41   11.40   0
  -2   6  -7 1617.25   10.39   0
   2  -6   7 1600.16   10.33   0
   3  -6   7   40.93    7.26   0
  -3   6  -7   55.70    6.60   0
   3  -6   7   54.36    5.68   0
  -3   6  -7   52.81    5.81   0
  -4   6  -7   10.87    6.87   0
  -4   6  -7   20.43    5.81   0
   4  -6   7    4.72    5.72   0
   4  -6   7    6.58    5.91   0
  -5   6  -7   63.64    6.84   0
  -5   6  -7   48.51    7.12   0
   5  -6   7   51.46    5.72   0
   5  -6   7   56.99    5.90   0
  -6   6  -7  534.07    8.43   0
  -6   6  -7  520.26    8.11   0
   6  -6   7  525.59    7.10   0
   6  -6   7  517.51    8.50   0
  -7   6  -7    3.06    5.34   0
  -7   6  -7    0.85    6.41   0
   7  -6   7    8.37    5.75   0
   7  -6   7    1.26    5.51   0
  -8   6  -7   10.77    6.77   0
   8  -6   7    9.24    7.33   0
   8  -6   7   13.07    6.87   0
  -8   6  -7   12.88    6.54   0
   9  -6   7   -2.19    6.39   0
  -9   6  -7    3.82    6.92   0
  -9   6  -7   13.09    7.39   0
   9  -6   7    2.64    7.04   0
  10  -6   7  125.46    9.01   0
 -10   6  -7  171.69    7.13   0
 -10   6  -7  138.41    8.31   0
  10  -6   7  131.29    8.39   0
  -8  -5   7    7.66    9.67   0
  -8  -5   7    4.93   13.58   0
  -8  -5   7   -4.32    8.74   0
  -8  -5   7    2.09   11.91   0
  -7  -5   7   23.79    9.43   0
  -7  -5   7   15.87    9.41   0
  -7  -5   7   17.86    9.87   0
  -7  -5   7   18.66   10.70   0
  -6  -5   7    4.91    8.79   0
  -6  -5   7    8.12    8.14   0
  -6  -5   7    3.70    9.23   0
  -6  -5   7    4.80    8.21   0
  -5  -5   7  500.47    9.92   0
  -5  -5   7  490.05   10.62   0
  -5  -5   7  474.52   10.07   0
  -5  -5   7  477.59   10.54   0
  -4  -5   7    1.38    8.03   0
  -4  -5   7    2.37    8.02   0
  -4  -5   7    9.37    7.95   0
  -4  -5   7    7.40    7.88   0
  -3  -5   7   36.74    7.02   0
  -3  -5   7   44.63    6.85   0
  -3  -5   7   36.75    7.77   0
  -2  -5   7   26.29    7.01   0
  -2  -5   7   26.17    7.03   0
  -2  -5   7   19.13    6.98   0
  -1  -5   7  682.05    9.15   0
  -1  -5   7  703.69    8.42   0
  -1  -5   7  722.57    8.32   0
   0  -5   7   19.43    7.28   0
   0  -5   7    9.73    5.84   0
   0   5  -7   11.79    5.74   0
   1  -5   7  848.18    8.93   0
   1  -5   7  880.39    9.70   0
  -1   5  -7  890.90    9.88   0
  -1   5  -7  893.93    9.61   0
  -2   5  -7   11.10    7.27   0
   2  -5   7   18.41    5.77   0
   2  -5   7   23.60    7.61   0
  -2   5  -7   18.24    5.63   0
  -3   5  -7  265.13    6.64   0
  -3   5  -7  256.79    6.65   0
   3  -5   7  254.35    7.76   0
   3  -5   7  246.26    7.87   0
  -4   5  -7  228.36    6.41   0
   4  -5   7  226.95    7.64   0
   4  -5   7  214.39    8.07   0
  -4   5  -7  215.18    7.80   0
  -5   5  -7  525.97    8.32   0
   5  -5   7  489.16    7.44   0
   5  -5   7  485.62    7.78   0
  -5   5  -7  521.28    7.54   0
   6  -5   7   17.14    5.84   0
   6  -5   7   13.83    5.50   0
  -6   5  -7   21.96    6.86   0
  -6   5  -7   14.04    6.57   0
  -7   5  -7   -4.57    5.66   0
   7  -5   7    4.23    5.82   0
   7  -5   7    6.49    6.67   0
  -7   5  -7   10.56    6.71   0
   8  -5   7   21.33    7.32   0
  -8   5  -7    8.98    6.75   0
   8  -5   7   22.67    7.00   0
  -8   5  -7    8.98    6.94   0
   9  -5   7  162.14    8.53   0
  -9   5  -7  153.60    7.97   0
   9  -5   7  160.45    8.04   0
  -9   5  -7  156.00    7.73   0
  -9  -4   7    1.47    9.31   0
  -9  -4   7    6.55    9.11   0
  -8  -4   7   14.93    7.60   0
  -8  -4   7   31.22    8.64   0
  -7  -4   7   33.87   13.14   0
  -7  -4   7   36.18   12.88   0
  -7  -4   7   37.22    8.32   0
  -6  -4   7  554.19    9.33   0
  -6  -4   7  549.09   13.26   0
  -6  -4   7  553.20   13.43   0
  -6  -4   7  540.65    9.35   0
  -5  -4   7   12.06    6.78   0
  -5  -4   7   11.79    8.90   0
  -5  -4   7   13.94    8.95   0
  -5  -4   7   16.80    6.79   0
  -4  -4   7   51.40    7.04   0
  -4  -4   7   54.65    7.23   0
  -4  -4   7   56.81    8.55   0
  -3  -4   7    3.96    6.93   0
  -3  -4   7    2.91    6.90   0
  -3  -4   7    3.13    8.24   0
  -2  -4   7 1006.21   11.81   0
  -2  -4   7  984.99   10.01   0
  -2  -4   7 1036.42    9.39   0
  -1  -4   7  118.71    7.61   0
   1   4  -7  110.98    7.31   0
  -1  -4   7  115.63    6.32   0
  -1  -4   7   98.96    7.69   0
   0  -4   7  435.47    8.68   0
   0   4  -7  440.18    8.64   0
   0  -4   7  415.56    8.51   0
   0  -4   7  428.82    8.67   0
   1  -4   7   -4.54    5.98   0
  -1   4  -7    3.70    7.12   0
   1  -4   7    4.21    7.73   0
  -1   4  -7    2.56    6.05   0
   2  -4   7  691.97    8.02   0
  -2   4  -7  700.44    9.07   0
   2  -4   7  667.33    8.50   0
  -2   4  -7  686.17    9.47   0
  -3   4  -7  137.98    7.30   0
   3  -4   7  123.94    7.55   0
  -3   4  -7  134.00    6.22   0
   3  -4   7  119.07    7.79   0
   4  -4   7 1399.64    9.80   0
   4  -4   7 1385.20   10.18   0
  -4   4  -7 1478.51   11.13   0
  -4   4  -7 1418.01   10.64   0
  -5   4  -7   37.49    5.63   0
   5  -4   7   27.77    7.86   0
  -5   4  -7   39.90    7.21   0
   5  -4   7   46.10    6.65   0
   6  -4   7  155.31    7.71   0
  -6   4  -7  168.47    6.00   0
  -6   4  -7  152.99    7.24   0
   6  -4   7  151.79    6.21   0
   7  -4   7   -3.09    6.23   0
  -7   4  -7    7.49    6.42   0
   7  -4   7    6.86    6.74   0
  -7   4  -7    7.99    7.01   0
   8  -4   7  109.84    6.77   0
  -8   4  -7  128.01    7.37   0
   8  -4   7  120.51    7.44   0
  -8   4  -7  135.25    6.25   0
   9  -4   7   -2.92    8.15   0
  -9   4  -7    1.14    7.30   0
   9  -4   7    4.75    7.44   0
  -9   4  -7    8.92    7.62   0
   9   3  -7   33.23    9.11   0
  -9  -3   7   44.58    9.04   0
   8   3  -7    8.32    7.25   0
  -8  -3   7   -3.96    7.07   0
   7   3  -7  284.85    8.30   0
  -7  -3   7  268.30    8.30   0
   6   3  -7    1.35    6.68   0
  -6  -3   7   -1.91   13.21   0
  -6  -3   7    2.16   13.29   0
  -6  -3   7   -2.04    7.88   0
   5   3  -7    7.28    7.08   0
  -5  -3   7    9.89    9.84   0
  -5  -3   7    5.27    9.92   0
  -5  -3   7    9.07    7.01   0
  -4  -3   7   14.19    7.16   0
  -4  -3   7    8.37    8.49   0
  -3  -3   7 1748.79   10.98   0
  -3  -3   7 1824.11   12.05   0
  -3  -3   7 1745.68   15.14   0
  -2  -3   7  126.68    7.71   0
  -2  -3   7  119.39    7.70   0
   2   3  -7  124.13    8.09   0
  -2  -3   7  138.26    9.41   0
   1   3  -7   67.82    7.11   0
  -1  -3   7   64.08    7.63   0
  -1  -3   7   67.95    7.66   0
  -1  -3   7   69.03    6.21   0
   0  -3   7   42.29    6.03   0
   0  -3   7   37.21    6.13   0
   0   3  -7   42.20    6.33   0
   0  -3   7   48.12    7.60   0
   1  -3   7 1286.50    9.91   0
  -1   3  -7 1285.37   11.14   0
   1  -3   7 1251.38   10.35   0
  -2   3  -7   40.23    6.93   0
   2  -3   7   22.27    6.07   0
   2  -3   7   20.55    7.84   0
  -2   3  -7   47.08    7.78   0
  -3   3  -7   34.43    7.36   0
   3  -3   7   26.48    7.01   0
   3  -3   7   36.27    7.52   0
  -3   3  -7   37.33    6.89   0
   4  -3   7   -0.59    6.66   0
  -4   3  -7   13.65    6.00   0
  -4   3  -7   11.03    5.09   0
   4  -3   7   10.22    7.64   0
  -5   3  -7  806.33    8.38   0
   5  -3   7  758.08    9.63   0
  -5   3  -7  803.87    8.93   0
   5  -3   7  743.37    9.17   0
   6  -3   7   46.13    6.18   0
  -6   3  -7   59.14    6.71   0
  -6   3  -7   52.29    7.12   0
   6  -3   7   58.05    5.59   0
   7  -3   7   60.22    6.10   0
  -7   3  -7   59.12    7.07   0
  -7   3  -7   52.15    6.00   0
   7  -3   7   65.24    7.26   0
   8  -3   7    7.70    7.67   0
  -8   3  -7   10.06    7.01   0
  -8   3  -7   -0.18    7.27   0
   8  -3   7   11.76    7.22   0
  -9   3  -7   11.36    7.51   0
  -9   3  -7    7.23    6.23   0
   9  -3   7    3.93    7.61   0
   9  -3   7    4.43    6.29   0
  10   2  -7   30.37    8.36   0
 -10  -2   7   39.99    8.23   0
   9   2  -7    8.07    8.49   0
  -9  -2   7    3.59    7.37   0
   8   2  -7   10.32    6.94   0
  -8  -2   7    7.76    7.12   0
   7   2  -7   14.17    7.16   0
  -7  -2   7   17.60    7.04   0
   6   2  -7  239.92    7.53   0
  -6  -2   7  232.96    7.69   0
  -5  -2   7   -1.10   11.10   0
   5   2  -7   10.02    6.99   0
  -5  -2   7    3.19    7.10   0
  -4  -2   7 1399.43   10.09   0
   4   2  -7 1436.31   11.23   0
  -4  -2   7 1384.52   16.31   0
  -3  -2   7   25.01    7.54   0
   3   2  -7   21.36    6.20   0
  -3  -2   7   27.53    8.78   0
   3   2  -7   16.52    8.16   0
  -2  -2   7   58.91    6.41   0
  -2  -2   7   62.17    9.65   0
  -2  -2   7   58.31    6.16   0
   2   2  -7   55.68    7.70   0
  -1  -2   7    8.92    7.45   0
  -1  -2   7   12.99    6.01   0
   1   2  -7    9.95    7.15   0
  -1  -2   7    5.36    7.81   0
   0   2  -7 1752.46   11.46   0
   0  -2   7 1667.92   10.81   0
   0  -2   7 1769.03   11.90   0
   0  -2   7 1711.45   11.76   0
  -1   2  -7   16.08    7.85   0
   1  -2   7   22.61    7.22   0
   1  -2   7   21.32    5.83   0
   1  -2   7   14.38    8.04   0
  -2   2  -7    9.39    6.21   0
   2  -2   7    7.38    6.28   0
   2  -2   7   10.91    7.13   0
   2  -2   7    0.85    5.80   0
   3  -2   7    2.76    6.88   0
   3  -2   7    4.31    7.66   0
  -3   2  -7   11.56    6.22   0
   4  -2   7  775.16    9.80   0
  -4   2  -7  754.60    8.27   0
   4  -2   7  739.19    9.13   0
  -4   2  -7  785.27    8.55   0
  -5   2  -7    6.47    5.84   0
   5  -2   7   -1.66    6.04   0
   5  -2   7   -2.74    6.30   0
  -5   2  -7   13.38    6.35   0
   6  -2   7   19.30    6.01   0
  -6   2  -7   21.94    7.06   0
   6  -2   7   16.43    6.95   0
  -6   2  -7   27.36    6.55   0
   7  -2   7   14.88    7.32   0
  -7   2  -7   14.46    5.83   0
  -7   2  -7    8.83    6.83   0
   7  -2   7    8.37    7.08   0
  -8   2  -7  101.58    8.13   0
  -8   2  -7   82.98    8.71   0
   8  -2   7   80.15    8.97   0
   8  -2   7   88.35    8.06   0
  10   1  -7    5.25    7.61   0
 -10  -1   7   -1.04    7.80   0
   9   1  -7    2.30    7.24   0
  -9  -1   7    5.77    7.39   0
   8   1  -7   16.70    6.78   0
  -8  -1   7    5.58    6.92   0
   7   1  -7  279.29    7.79   0
  -7  -1   7  247.84    7.85   0
   6   1  -7    7.62    7.04   0
  -6  -1   7    3.15    5.49   0
   5   1  -7  596.23    8.94   0
  -5  -1   7  564.82   16.38   0
  -5  -1   7  567.48    8.67   0
  -4  -1   7   18.76   10.16   0
   4   1  -7    8.51    7.29   0
   4   1  -7   17.02    8.22   0
  -4  -1   7    9.96    5.96   0
  -3  -1   7  498.43    7.74   0
  -3  -1   7  481.78   10.50   0
   3   1  -7  506.73    7.80   0
   3   1  -7  513.90    9.66   0
  -2  -1   7    7.73    5.99   0
   2   1  -7    7.98    7.76   0
  -2  -1   7   15.04    8.14   0
   2   1  -7    2.35    5.96   0
  -1  -1   7 1644.06   11.71   0
  -1  -1   7 1676.01   12.90   0
  -1  -1   7 1741.99   10.89   0
   1   1  -7 1715.07   12.63   0
   0  -1   7   28.91    8.09   0
   0  -1   7   18.41    7.41   0
   0  -1   7   21.97    6.08   0
   0   1  -7   30.39    6.37   0
   1  -1   7   64.86    7.38   0
   1  -1   7   56.06    8.29   0
   1  -1   7   62.50    7.39   0
  -1   1  -7   58.96    6.60   0
   2  -1   7    4.76    7.86   0
   2  -1   7    7.27    5.63   0
   2  -1   7   -2.67    6.60   0
  -2   1  -7   11.48    7.54   0
   3  -1   7  384.50    8.07   0
   3  -1   7  387.98    8.89   0
  -3   1  -7  406.13    8.66   0
   3  -1   7  402.46    8.12   0
   4  -1   7    3.91    7.45   0
   4  -1   7    4.57    6.47   0
   4  -1   7   10.21    6.46   0
  -4   1  -7    7.22    7.30   0
   5  -1   7   33.18    7.37   0
   5  -1   7   37.09    6.86   0
  -5   1  -7   25.34    5.87   0
   6  -1   7   26.64    6.92   0
  -6   1  -7   30.50    7.04   0
   6  -1   7   40.83    7.39   0
   7  -1   7  155.56    8.87   0
   7  -1   7  172.23    8.02   0
  -7   1  -7  148.85    6.59   0
  -8   1  -7    6.46    7.76   0
   8  -1   7   -6.67    8.72   0
   8  -1   7    7.42    6.58   0
   8  -1   7    7.78    8.98   0
  10   0  -7   11.46    7.51   0
 -10   0   7    1.26    7.68   0
   9   0  -7    7.38    7.06   0
  -9   0   7   -5.29    7.17   0
   8   0  -7  628.58    8.94   0
  -8   0   7  631.85    9.04   0
   7   0  -7   58.20    7.20   0
  -7   0   7   60.74    7.02   0
   6   0  -7   58.45    5.70   0
  -6   0   7   56.95    5.98   0
   5   0  -7  207.17    7.92   0
   5   0  -7  199.69   11.83   0
  -5   0   7  196.23   12.36   0
  -5   0   7  190.26    7.76   0
   4   0  -7 1351.07   15.10   0
   4   0  -7 1367.42   10.70   0
  -4   0   7 1296.96   14.69   0
  -4   0   7 1304.23    9.64   0
  -3   0   7   34.61    7.26   0
   3   0  -7   33.80    7.35   0
  -3   0   7   34.31    7.97   0
   3   0  -7   36.01    7.65   0
  -2   0   7  417.54    9.64   0
  -2   0   7  411.97    8.58   0
   2   0  -7  439.30    7.33   0
   2   0  -7  444.76    9.22   0
  -1   0   7   15.42    7.91   0
  -1   0   7    7.76    6.15   0
   1   0  -7    9.70    7.48   0
   0   0   7  975.12   10.66   0
   0   0   7  976.35   10.19   0
   0   0   7 1020.41   10.13   0
   0   0  -7 1000.98    9.44   0
   1   0   7    6.98    7.68   0
   1   0   7   -0.67    6.74   0
   1   0   7   -0.59    6.59   0
  -1   0  -7   19.32    7.49   0
   2   0   7  200.05    8.39   0
   2   0   7  192.80    7.56   0
  -2   0  -7  203.61    8.32   0
   2   0   7  198.58    6.42   0
   3   0   7    9.48    7.04   0
   3   0   7   18.54    6.63   0
  -3   0  -7   12.38    7.45   0
   3   0   7   14.93    7.53   0
   4   0   7   59.32    6.90   0
   4   0   7   47.28    6.94   0
  -4   0  -7   57.52    6.12   0
   4   0   7   58.32    7.48   0
   5   0   7    1.16    6.52   0
  -5   0  -7   17.19    7.19   0
   5   0   7    7.32    7.23   0
   5   0   7    9.39    7.80   0
   6   0   7  256.06    9.42   0
   6   0   7  232.74    8.11   0
  -6   0  -7  254.04    6.99   0
   6   0   7  248.10    7.00   0
   7   0   7    1.79    8.63   0
   7   0   7    6.80    8.54   0
   7   0   7    8.85    7.78   0
  -7   0  -7    1.52    7.57   0
  10  -1  -7    7.20    6.15   0
 -10   1   7    2.98    6.24   0
   9  -1  -7  237.00    8.10   0
  -9   1   7  243.16    7.00   0
   8  -1  -7   -4.38    7.17   0
  -8   1   7   -2.25    7.29   0
   7  -1  -7   21.15    5.74   0
  -7   1   7   30.20    7.15   0
   6  -1  -7   23.55    6.92   0
  -6   1   7   24.42    7.02   0
   5  -1  -7  155.08    6.44   0
  -5   1   7  156.27   10.89   0
  -5   1   7  156.19    7.70   0
   5  -1  -7  156.50   10.00   0
   4  -1  -7   31.27    5.82   0
  -4   1   7   27.65    8.82   0
   4  -1  -7   33.85    8.56   0
  -4   1   7   16.55    6.00   0
   3  -1  -7   17.64    6.97   0
   3  -1  -7   20.31    7.45   0
  -3   1   7   11.47    7.52   0
  -3   1   7    0.27    7.04   0
  -2   1   7   14.41    7.32   0
   2  -1  -7    7.90    7.15   0
   2  -1  -7    5.53    6.34   0
  -2   1   7   11.58    7.95   0
  -1   1   7  717.09    9.17   0
   1  -1  -7  719.08    9.75   0
  -1   1   7  710.65    8.67   0
   0   1   7   14.17    6.78   0
   0   1   7   17.61    5.78   0
   0  -1  -7    9.66    7.50   0
   0   1   7   29.86    6.05   0
   1   1   7   34.25    6.59   0
  -1  -1  -7   24.23    6.52   0
   1   1   7   20.36    6.80   0
   1   1   7   45.20    7.91   0
   2   1   7    1.81    6.99   0
   2   1   7    3.76    6.74   0
  -2  -1  -7    5.71    5.93   0
   2   1   7   -2.71    5.90   0
   3   1   7   64.64    8.21   0
   3   1   7   83.67    6.84   0
  -3  -1  -7   89.83    7.82   0
   3   1   7   69.78    7.70   0
   4   1   7    1.45    6.90   0
   4   1   7    8.40    6.79   0
  -4  -1  -7    3.63    5.94   0
   4   1   7   19.69    7.41   0
   5   1   7  141.21    8.87   0
   5   1   7  144.41    8.44   0
  -5  -1  -7  142.78    7.75   0
   5   1   7  144.69    7.95   0
   6   1   7   13.86    8.55   0
   6   1   7    2.93    7.05   0
  -6  -1  -7   13.18    6.01   0
   6   1   7  -14.50    7.36   0
   7   1   7    4.61    8.86   0
   7   1   7    6.69    8.49   0
   7   1   7    7.70    6.61   0
  -7  -1  -7    8.25    6.64   0
  10  -2  -7  128.94    7.89   0
 -10   2   7  130.70    8.07   0
   9  -2  -7    4.03    5.76   0
  -9   2   7   -2.92    6.10   0
   8  -2  -7   92.05    7.21   0
  -8   2   7  104.18    6.17   0
   7  -2  -7   35.89    5.62   0
  -7   2   7   38.42    7.24   0
   6  -2  -7  623.17    8.52   0
   6  -2  -7  640.85   14.17   0
  -6   2   7  581.48    8.75   0
   5  -2  -7   18.00    5.83   0
  -5   2   7   16.43    8.16   0
   5  -2  -7   19.55    8.17   0
  -5   2   7   17.18    7.17   0
   4  -2  -7   27.31    7.23   0
   4  -2  -7   29.31    8.61   0
  -4   2   7   31.22    8.33   0
  -4   2   7   36.63    7.26   0
   3  -2  -7  258.99    6.79   0
   3  -2  -7  258.86    9.33   0
  -3   2   7  247.24    8.40   0
  -3   2   7  237.49    6.91   0
   2  -2  -7  265.41    7.68   0
   2  -2  -7  269.80    8.41   0
  -2   2   7  251.61    8.23   0
  -2   2   7  260.53    7.88   0
  -1   2   7    0.48    6.76   0
   1  -2  -7    9.32    6.66   0
   1  -2  -7    3.23    7.21   0
  -1   2   7   15.43    7.19   0
   0   2   7    3.99    6.79   0
   0   2   7   -3.80    6.94   0
   0  -2  -7   -3.44    6.43   0
   0   2   7  -10.04    7.90   0
   1   2   7   -0.64    6.75   0
   1   2   7    3.01    5.42   0
  -1  -2  -7    5.05    7.36   0
   1   2   7    7.03    7.44   0
   2   2   7  408.24    8.59   0
   2   2   7  413.80    8.51   0
  -2  -2  -7  399.64    7.39   0
   2   2   7  433.73    7.49   0
   3   2   7    4.30    6.93   0
   3   2   7   11.03    6.83   0
  -3  -2  -7    0.43    6.03   0
   3   2   7    4.13    5.96   0
   4   2   7   93.12    8.67   0
   4   2   7   89.80    7.26   0
  -4  -2  -7  100.80    7.68   0
   4   2   7  100.83    7.73   0
   5   2   7    3.87    7.45   0
   5   2   7    1.60    8.17   0
  -5  -2  -7    3.18    6.26   0
   5   2   7    1.32    7.69   0
   6   2   7   -3.18    8.34   0
   6   2   7   -0.92    7.98   0
  -6  -2  -7   39.94    8.06   0
   6   2   7   38.04    6.79   0
  10  -3  -7   17.57    7.20   0
 -10   3   7    8.26    7.54   0
   9  -3  -7   84.55    7.34   0
  -9   3   7   74.47    7.44   0
   8  -3  -7    4.96    5.57   0
  -8   3   7   -0.77    5.70   0
   7  -3  -7  268.98    6.64   0
   7  -3  -7  242.99   14.08   0
  -7   3   7  266.15    8.03   0
   6  -3  -7    5.40    6.99   0
   6  -3  -7    4.81    9.24   0
  -6   3   7   -3.29    5.82   0
   5  -3  -7   56.19    6.96   0
   5  -3  -7   53.70    8.30   0
  -5   3   7   53.42    8.07   0
  -5   3   7   46.78    7.04   0
   4  -3  -7   -5.04    7.08   0
   4  -3  -7    8.06    8.31   0
  -4   3   7   -5.80    8.27   0
  -4   3   7    3.34    5.67   0
   3  -3  -7  498.99    7.30   0
   3  -3  -7  489.24    9.13   0
  -3   3   7  480.09    8.91   0
  -3   3   7  464.06    8.55   0
   2  -3  -7    9.59    6.99   0
   2  -3  -7   -6.80    7.29   0
  -2   3   7   -6.81    7.03   0
  -2   3   7   13.97    6.92   0
   1  -3  -7  245.29    7.91   0
   1  -3  -7  261.88    7.60   0
  -1   3   7  266.49    7.97   0
  -1   3   7  243.03    7.86   0
   0   3   7   13.83    6.79   0
   0  -3  -7   11.82    7.24   0
   0   3   7    3.21    6.39   0
   0   3   7   15.08    7.22   0
   1   3   7  762.41    9.87   0
   1   3   7  803.08    9.67   0
  -1  -3  -7  762.53    9.54   0
   1   3   7  793.22    8.65   0
   2   3   7    9.33    8.32   0
  -2  -3  -7   -5.51    7.33   0
   2   3   7   14.46    7.25   0
   2   3   7    4.82    7.94   0
   3   3   7   18.65    7.25   0
  -3  -3  -7   26.33    6.17   0
   3   3   7   22.05    7.95   0
   3   3   7   25.19    6.11   0
   4   3   7    2.23    8.76   0
   4   3   7    0.34    8.16   0
  -4  -3  -7    2.62    6.25   0
   4   3   7   12.11    7.52   0
   5   3   7   -3.21    9.42   0
   5   3   7   -1.23    8.92   0
  -5  -3  -7  142.44    6.98   0
   5   3   7  133.15    6.93   0
  10  -4  -7   35.79    7.60   0
 -10   4   7   22.60    6.35   0
   9  -4  -7    3.22    7.22   0
  -9   4   7   13.65    7.37   0
   8  -4  -7   46.42    6.03   0
  -8   4   7   59.68    7.39   0
   7  -4  -7   12.81    6.99   0
   7  -4  -7   11.46   10.24   0
  -7   4   7   16.57    7.16   0
   6  -4  -7  230.39    7.70   0
   6  -4  -7  248.15    9.80   0
  -6   4   7  242.47    7.89   0
   5  -4  -7   -0.87    5.60   0
  -5   4   7    4.12    7.80   0
   5  -4  -7    2.87    7.30   0
  -5   4   7    5.04    7.10   0
   4  -4  -7   20.31    6.82   0
   4  -4  -7   23.33    8.42   0
  -4   4   7   17.59    6.92   0
  -4   4   7   16.84    5.55   0
   3  -4  -7   53.64    6.85   0
   3  -4  -7   52.68    7.49   0
  -3   4   7   45.06    6.78   0
  -3   4   7   58.73    5.90   0
   2  -4  -7  140.81    6.61   0
   2  -4  -7  139.52    6.24   0
  -2   4   7  141.19    7.23   0
  -2   4   7  141.23    6.15   0
   1  -4  -7   -2.77    6.94   0
   1  -4  -7   -1.56    6.72   0
  -1   4   7   27.15    6.74   0
  -1   4   7    6.26    6.96   0
   0   4   7   76.43    6.67   0
   0  -4  -7   65.06    6.08   0
   0   4   7   77.99    5.95   0
   0   4   7   67.04    7.28   0
   1   4   7    8.83    7.53   0
   1   4   7    9.06    7.17   0
  -1  -4  -7   11.82    7.33   0
   1   4   7   19.21    7.19   0
   2   4   7    6.31    6.94   0
  -2  -4  -7    9.17    6.06   0
   2   4   7    6.86    5.96   0
   2   4   7    3.18    8.33   0
   3   4   7    1.86    8.08   0
  -3  -4  -7   -0.94    6.40   0
   3   4   7    9.69    7.65   0
   3   4   7    4.50    7.43   0
   4   4   7    0.74    9.05   0
  -4  -4  -7   74.72    6.79   0
   4   4   7   80.28    6.74   0
   4   4   7    5.36    9.42   0
  10  -5  -7    0.19    6.49   0
 -10   5   7    3.60    6.57   0
   9  -5  -7   -3.00    7.46   0
  -9   5   7   -0.61    6.27   0
   8  -5  -7   17.15    5.78   0
   8  -5  -7    0.25    9.59   0
  -8   5   7   14.37    7.21   0
   7  -5  -7  138.57    7.49   0
   7  -5  -7  137.46   10.42   0
  -7   5   7  119.44    6.49   0
   6  -5  -7   13.44    7.04   0
   6  -5  -7    9.14    7.59   0
  -6   5   7    1.08    7.25   0
   5  -5  -7   13.04    6.81   0
  -5   5   7    8.05    7.78   0
   5  -5  -7    7.40    8.32   0
  -5   5   7    3.39    5.67   0
   4  -5  -7   16.20    5.64   0
   4  -5  -7   16.65    7.03   0
  -4   5   7    6.90    6.87   0
  -4   5   7   13.04    7.10   0
   3  -5  -7  276.62    6.67   0
   3  -5  -7  277.48    8.17   0
  -3   5   7  285.97    7.97   0
  -3   5   7  264.82    7.87   0
   2  -5  -7   17.65    6.17   0
   2  -5  -7    5.46    6.63   0
  -2   5   7    9.81    6.99   0
  -2   5   7    6.86    7.04   0
   1  -5  -7  297.04    7.37   0
  -1   5   7  327.33    8.19   0
  -1   5   7  303.72    9.40   0
   0   5   7   10.64    7.95   0
   0  -5  -7    0.03    7.43   0
   0   5   7    3.10    7.09   0
   0   5   7    3.17    8.60   0
   1   5   7   13.02    7.06   0
  -1  -5  -7   20.38    7.70   0
   1   5   7   21.13    5.95   0
   1   5   7   16.28    7.54   0
   2   5   7    2.33    8.07   0
  -2  -5  -7   11.36    7.82   0
   2   5   7    9.42    6.34   0
   2   5   7    8.95    8.79   0
  -3  -5  -7   31.48    6.82   0
   3   5   7    1.97    9.18   0
   3   5   7   40.82    6.54   0
   3   5   7    1.47    9.78   0
   9  -6  -7   12.03    7.72   0
   9  -6  -7    2.09   11.91   0
  -9   6   7   24.37    6.45   0
   9  -6  -7    3.92   11.61   0
   8  -6  -7   98.63    7.55   0
   8  -6  -7    0.38    9.10   0
  -8   6   7   77.51    7.84   0
   7  -6  -7   10.23    5.63   0
   7  -6  -7    7.70    8.83   0
  -7   6   7    5.17    7.45   0
   6  -6  -7    8.02    5.57   0
   6  -6  -7    8.49    8.56   0
  -6   6   7    9.37    7.19   0
   5  -6  -7    3.74    6.97   0
   5  -6  -7    9.78    7.46   0
  -5   6   7   -1.53    6.87   0
  -5   6   7    6.77    5.91   0
   4  -6  -7  226.06    8.29   0
   4  -6  -7  242.86    7.75   0
  -4   6   7  245.67    6.74   0
  -4   6   7  224.78    7.97   0
   3  -6  -7    3.00    5.59   0
   3  -6  -7    9.24    6.13   0
  -3   6   7   -1.49    5.50   0
  -3   6   7    5.40    5.86   0
   2  -6  -7   43.65    7.60   0
   2  -6  -7   48.37    7.17   0
  -2   6   7   54.27    7.19   0
  -2   6   7   42.57    7.51   0
   1  -6  -7    5.48    6.10   0
  -1   6   7    4.95    7.08   0
  -1   6   7    4.53    7.48   0
   0   6   7  126.72    8.89   0
   0  -6  -7  112.10    6.96   0
   0   6   7  119.17    7.74   0
   0   6   7  116.24    8.19   0
  -1  -6  -7    9.20    6.47   0
   1   6   7    3.76    8.16   0
   1   6   7    7.41    6.11   0
   1   6   7    4.23    7.52   0
   8  -7  -7   12.69    6.45   0
   8  -7  -7    3.67    8.86   0
  -8   7   7    8.75    6.34   0
   7  -7  -7   18.61    6.14   0
   7  -7  -7   14.48    9.20   0
  -7   7   7   14.08    7.75   0
   6  -7  -7    9.70    7.27   0
   6  -7  -7    3.94    7.83   0
  -6   7   7   17.59    5.90   0
   5  -7  -7   65.96    8.24   0
   5  -7  -7   69.71    7.55   0
  -5   7   7   69.55    6.36   0
   4  -7  -7    5.62    7.28   0
   4  -7  -7    7.07    7.57   0
  -4   7   7   13.81    7.12   0
  -4   7   7    5.49    7.45   0
   3  -7  -7   20.31    7.68   0
  -3   7   7   10.23    5.91   0
  -3   7   7   17.25    7.74   0
   3  -7  -7   18.55    7.40   0
   2  -7  -7   18.98    7.89   0
   2  -7  -7    8.20    7.31   0
  -2   7   7   15.16    7.22   0
  -2   7   7   10.31    7.73   0
  -1   7   7   77.91    7.79   0
   1  -7  -7   75.39    8.44   0
  -1   7   7   94.54    6.87   0
  -1   7   7   75.98    8.32   0
   0  -7  -7    6.73    7.94   0
   0   7   7    4.25    6.35   0
   0   7   7   -0.10    7.72   0
   0   7   7   -1.94    8.30   0
   6  -8  -7   35.48    8.31   0
   6  -8  -7   28.52    6.35   0
  -6   8   7   41.14    7.84   0
   5  -8  -7    7.86    7.83   0
   5  -8  -7   -5.04    7.76   0
  -5   8   7    3.36    7.95   0
   4  -8  -7    0.93    8.05   0
   4  -8  -7   -0.38    7.76   0
  -4   8   7    9.23    7.98   0
   3  -8  -7   -0.98    6.77   0
   3  -8  -7    1.21    7.87   0
  -3   8   7   -0.93    6.31   0
  -3   8   7   -0.46    8.06   0
   0 -13   8    4.25    9.23   0
   0 -13   8   -3.67    6.26   0
   0 -13   8   -4.37    9.13   0
   0 -13   8   -0.36    7.42   0
  -1  13  -8   42.93    8.72   0
   1 -13   8   44.69    7.41   0
   1 -13   8   38.78    6.36   0
   1 -13   8   50.52    7.97   0
   2 -13   8   20.76    5.94   0
   2 -13   8   15.42    7.25   0
   2 -13   8   20.88    7.73   0
  -2  13  -8   24.75    7.27   0
   3 -13   8    7.65    7.14   0
  -3  13  -8    9.52    7.08   0
   3 -13   8   16.00    7.58   0
  -4  13  -8    7.42    7.04   0
   4 -13   8    1.01    7.40   0
   4 -13   8   10.07    7.23   0
  -5  13  -8  113.87    7.49   0
   5 -13   8  117.04    7.76   0
   5 -13   8  111.61    7.76   0
  -6  13  -8   -0.27    7.31   0
   6 -13   8   19.99    7.45   0
   6 -13   8   11.22    7.59   0
   7 -13   8   11.75    6.17   0
  -7  13  -8   14.79    5.90   0
   7 -13   8   13.14    6.32   0
  -2 -12   8  201.43    8.22   0
  -2 -12   8  166.07   12.90   0
  -2 -12   8  198.40    8.41   0
  -2 -12   8  187.73   12.94   0
  -1 -12   8   -1.19   10.08   0
  -1 -12   8   15.29    7.44   0
  -1 -12   8    4.84    8.91   0
  -1 -12   8    7.24    7.31   0
   0 -12   8    4.02    5.81   0
   0 -12   8   -6.64    8.53   0
   0 -12   8    7.45    5.81   0
   1 -12   8    4.68    5.62   0
   1 -12   8   12.33    6.83   0
  -1  12  -8    5.43    7.88   0
   1 -12   8    6.11    8.32   0
   2 -12   8  244.39    6.59   0
  -2  12  -8  247.48    7.91   0
   2 -12   8  243.70    8.17   0
   3 -12   8    0.37    6.97   0
   3 -12   8    8.10    6.94   0
  -3  12  -8   -2.96    5.56   0
  -4  12  -8  142.72    6.22   0
   4 -12   8  138.65    7.77   0
   4 -12   8  149.83    6.18   0
   5 -12   8    3.79    5.73   0
   5 -12   8    2.02    7.24   0
  -5  12  -8   -2.10    5.72   0
   6 -12   8   77.32    5.86   0
  -6  12  -8   69.97    6.00   0
   6 -12   8   70.53    6.13   0
   7 -12   8   24.03    6.24   0
  -7  12  -8   29.82    7.27   0
   7 -12   8   26.53    6.19   0
   8 -12   8   63.06    6.47   0
  -8  12  -8   64.75    6.27   0
   8 -12   8   51.37    7.77   0
  -3 -11   8  200.42   13.97   0
  -3 -11   8  231.80    8.28   0
  -3 -11   8  244.66    8.47   0
  -3 -11   8  219.01   14.01   0
  -2 -11   8    1.78    9.63   0
  -2 -11   8    5.28    7.33   0
  -2 -11   8    0.35    9.67   0
  -2 -11   8    3.73    5.87   0
  -1 -11   8   36.10    8.27   0
  -1 -11   8   43.58    7.06   0
  -1 -11   8   37.37    8.39   0
  -1 -11   8   41.00    7.09   0
   0 -11   8    9.65    6.82   0
   0 -11   8   16.56    8.13   0
   0 -11   8    2.40    6.80   0
  -1  11  -8  626.97    9.13   0
   1 -11   8  613.70    8.34   0
   1 -11   8  610.82    9.33   0
   2 -11   8   21.78    6.73   0
  -2  11  -8   10.15    6.55   0
   2 -11   8    9.38    7.07   0
  -3  11  -8   55.98    6.81   0
   3 -11   8   74.19    7.05   0
   3 -11   8   72.56    5.48   0
  -4  11  -8    4.03    6.59   0
   4 -11   8    6.23    5.57   0
   4 -11   8   10.43    5.64   0
  -5  11  -8  487.84    7.33   0
   5 -11   8  499.23    7.50   0
   5 -11   8  461.00    7.43   0
   6 -11   8    0.81    7.13   0
  -6  11  -8   -2.15    5.59   0
   6 -11   8   13.35    5.73   0
   7 -11   8   36.28    7.15   0
  -7  11  -8   20.10    5.95   0
   7 -11   8   31.86    7.37   0
   8 -11   8   -1.30    7.34   0
  -8  11  -8   11.55    7.11   0
   8 -11   8   -6.61    7.66   0
  -4 -10   8  137.28    8.32   0
  -4 -10   8  132.75   13.05   0
  -4 -10   8  127.98    8.09   0
  -4 -10   8  116.97   14.14   0
  -3 -10   8    8.23    9.65   0
  -3 -10   8   12.18    7.11   0
  -3 -10   8    8.36    9.35   0
  -3 -10   8    0.44    7.01   0
  -2 -10   8    4.97    8.24   0
  -2 -10   8    0.60    6.84   0
  -2 -10   8    2.72    8.15   0
  -2 -10   8    0.78    6.78   0
  -1 -10   8    0.01    5.65   0
  -1 -10   8    4.32    6.84   0
  -1 -10   8    1.90    6.76   0
  -1 -10   8    5.42    6.60   0
   0  10  -8  654.37    9.28   0
   0 -10   8  621.37    7.63   0
   0 -10   8  650.56    9.36   0
   1 -10   8   -6.96    5.33   0
  -1  10  -8   -3.02    6.61   0
   1 -10   8   -4.37    6.86   0
  -2  10  -8   31.54    6.68   0
   2 -10   8   35.01    6.68   0
   2 -10   8   37.25    6.63   0
  -3  10  -8    6.66    6.66   0
   3 -10   8    3.51    5.50   0
   3 -10   8    7.84    5.50   0
  -4  10  -8  777.47    7.99   0
   4 -10   8  765.86    8.98   0
   4 -10   8  753.87    9.02   0
  -5  10  -8    3.55    6.57   0
   5 -10   8   13.11    5.46   0
   5 -10   8    9.18    5.73   0
   6 -10   8    1.91    5.76   0
  -6  10  -8    1.43    5.61   0
   6 -10   8   13.07    7.10   0
  -7  10  -8   29.64    5.61   0
   7 -10   8   20.92    6.86   0
   7 -10   8   12.15    5.85   0
  -8  10  -8   79.29    7.45   0
   8 -10   8   75.17    6.33   0
   8 -10   8   78.47    7.59   0
  -9  10  -8    8.16    6.05   0
   9 -10   8   11.98    7.45   0
   9 -10   8    0.95    7.78   0
  -5  -9   8    9.37   12.39   0
  -5  -9   8   19.40    7.73   0
  -5  -9   8   14.53    8.39   0
  -5  -9   8    9.62   12.65   0
  -4  -9   8    7.92    9.96   0
  -4  -9   8    6.04    7.23   0
  -4  -9   8   10.67    6.86   0
  -4  -9   8    4.57    9.52   0
  -3  -9   8  182.59   10.19   0
  -3  -9   8  201.86    7.54   0
  -3  -9   8  190.74    9.12   0
  -3  -9   8  217.56    7.55   0
  -2  -9   8   40.64    6.97   0
  -2  -9   8   46.94    7.16   0
  -2  -9   8   39.35    8.08   0
  -2  -9   8   35.94    6.94   0
  -1  -9   8  440.25    8.12   0
  -1  -9   8  438.67    8.57   0
  -1  -9   8  393.94    8.49   0
   0  -9   8    3.12    6.50   0
   0   9  -8    9.98    6.27   0
   0  -9   8   12.99    6.58   0
  -1   9  -8   72.69    6.69   0
   1  -9   8   69.32    7.02   0
   1  -9   8   64.39    6.78   0
  -2   9  -8   11.52    6.30   0
   2  -9   8    5.60    5.58   0
   2  -9   8    3.56    6.71   0
   3  -9   8  373.27    7.81   0
   3  -9   8  372.79    7.82   0
  -3   9  -8  392.86    7.49   0
   4  -9   8   -0.76    5.52   0
   4  -9   8   13.47    6.80   0
  -4   9  -8    1.35    5.24   0
   5  -9   8   22.58    7.01   0
   5  -9   8   13.55    5.74   0
  -5   9  -8   31.30    6.66   0
   6  -9   8   15.13    6.94   0
  -6   9  -8   13.96    6.78   0
   6  -9   8   10.53    5.63   0
  -6   9  -8   11.07    5.49   0
  -7   9  -8  493.60    8.36   0
   7  -9   8  461.00    7.44   0
  -7   9  -8  484.37    7.39   0
   7  -9   8  481.15    7.67   0
  -8   9  -8    3.31    6.83   0
   8  -9   8    7.51    7.15   0
   8  -9   8   -0.80    7.48   0
  -8   9  -8    9.77    7.10   0
  -9   9  -8    2.43    7.10   0
   9  -9   8   16.21    7.90   0
   9  -9   8    8.71    7.22   0
  -9   9  -8   15.41    7.59   0
  -6  -8   8    5.67   11.66   0
  -6  -8   8   -1.10    8.58   0
  -6  -8   8    3.96    8.98   0
  -6  -8   8    3.31   11.89   0
  -5  -8   8    2.37    9.17   0
  -5  -8   8    6.84    7.05   0
  -5  -8   8    1.92    7.36   0
  -5  -8   8    4.81    9.26   0
  -4  -8   8  620.40   11.67   0
  -4  -8   8  655.79   11.73   0
  -4  -8   8  681.08    9.73   0
  -4  -8   8  679.35   10.26   0
  -3  -8   8   35.06    8.12   0
  -3  -8   8   23.99    6.60   0
  -3  -8   8   29.41    6.83   0
  -3  -8   8   32.57    8.00   0
  -2  -8   8  338.33    6.96   0
  -2  -8   8  314.57    8.19   0
  -2  -8   8  337.85    9.11   0
  -1  -8   8   17.84    6.53   0
  -1  -8   8   12.60    6.54   0
  -1  -8   8   12.37    6.59   0
   0   8  -8  755.67    8.92   0
   0  -8   8  719.25    9.06   0
   0  -8   8  720.49    8.90   0
  -1   8  -8    7.01    6.57   0
   1  -8   8   15.05    6.85   0
   1  -8   8    1.65    6.98   0
   2  -8   8  186.56    7.45   0
   2  -8   8  205.21    7.69   0
  -2   8  -8  200.35    6.13   0
  -3   8  -8    2.87    6.48   0
   3  -8   8    3.12    6.88   0
  -3   8  -8    8.31    6.61   0
   3  -8   8   -3.88    6.70   0
   4  -8   8   27.67    6.78   0
  -4   8  -8   34.90    6.43   0
  -4   8  -8   34.84    5.44   0
   4  -8   8   30.30    6.73   0
  -5   8  -8    4.14    6.64   0
   5  -8   8   18.85    5.58   0
  -5   8  -8   20.70    6.62   0
   5  -8   8    2.93    5.61   0
  -6   8  -8  449.51    6.95   0
  -6   8  -8  437.86    7.12   0
   6  -8   8  421.55    6.98   0
   6  -8   8  416.30    8.30   0
  -7   8  -8   16.66    5.48   0
  -7   8  -8    6.27    6.65   0
   7  -8   8   13.61    5.61   0
   7  -8   8   18.56    7.00   0
  -8   8  -8    6.18    6.93   0
  -8   8  -8    6.60    6.76   0
   8  -8   8   -9.45    7.30   0
   8  -8   8   -4.41    6.91   0
  -9   8  -8   10.26    5.93   0
  -9   8  -8   -3.61    7.16   0
   9  -8   8   11.21    7.90   0
   9  -8   8    2.12    5.92   0
  -7  -7   8    5.11    9.70   0
  -7  -7   8    2.04   11.00   0
  -7  -7   8    4.07   11.12   0
  -7  -7   8    1.98   10.55   0
  -6  -7   8   -0.94    8.43   0
  -6  -7   8    9.64    9.24   0
  -6  -7   8    4.81    8.76   0
  -6  -7   8    8.11    9.43   0
  -5  -7   8  524.13   10.15   0
  -5  -7   8  518.21   11.11   0
  -5  -7   8  532.87   10.42   0
  -5  -7   8  515.43   10.94   0
  -4  -7   8   15.18    7.89   0
  -4  -7   8   12.86    6.78   0
  -4  -7   8   10.32    7.71   0
  -4  -7   8   14.12    6.88   0
  -3  -7   8   33.82    6.78   0
  -3  -7   8   37.78    6.65   0
  -3  -7   8   35.09    7.86   0
  -2  -7   8   51.87    6.89   0
  -2  -7   8   50.69    6.95   0
  -2  -7   8   57.21    6.75   0
  -1  -7   8  995.73   10.03   0
  -1  -7   8 1150.71   10.51   0
  -1  -7   8 1105.58    9.31   0
   0  -7   8   21.95    6.73   0
   0  -7   8   30.92    6.87   0
  -1   7  -8   41.55    5.68   0
   1  -7   8   38.96    5.94   0
   1  -7   8   42.06    5.74   0
  -2   7  -8   13.18    5.75   0
  -2   7  -8   17.28    7.03   0
   2  -7   8   26.31    7.37   0
   2  -7   8   25.55    5.75   0
   3  -7   8  396.07    7.18   0
  -3   7  -8  412.16    6.93   0
  -3   7  -8  393.08    8.05   0
   3  -7   8  403.57    6.92   0
  -4   7  -8   18.44    6.80   0
  -4   7  -8   29.61    5.40   0
   4  -7   8   36.97    6.69   0
   4  -7   8   23.87    6.95   0
  -5   7  -8  133.03    5.86   0
   5  -7   8  126.45    5.85   0
   5  -7   8  116.47    7.42   0
  -5   7  -8  135.19    7.16   0
  -6   7  -8    7.07    6.62   0
   6  -7   8    6.59    6.72   0
  -6   7  -8    3.57    5.52   0
   6  -7   8   15.06    6.89   0
   7  -7   8   14.31    7.19   0
   7  -7   8   17.09    5.57   0
  -7   7  -8    7.77    6.71   0
  -7   7  -8   13.14    5.39   0
  -8   7  -8    4.46    6.82   0
   8  -7   8    9.83    7.43   0
   8  -7   8    1.44    5.70   0
  -8   7  -8   13.56    7.12   0
  -9   7  -8  131.80    6.59   0
   9  -7   8  120.24    7.07   0
   9  -7   8   98.75    7.82   0
  -9   7  -8  121.58    6.61   0
  -8  -6   8   27.38   13.86   0
  -8  -6   8   21.43   10.18   0
  -8  -6   8   26.14   11.93   0
  -8  -6   8   16.57   10.58   0
  -7  -6   8    8.40    9.64   0
  -7  -6   8    5.12    9.52   0
  -7  -6   8    5.88    8.67   0
  -7  -6   8   -0.60   10.01   0
  -6  -6   8  430.30   10.43   0
  -6  -6   8  424.80   11.62   0
  -6  -6   8  430.65   10.59   0
  -6  -6   8  413.18   10.33   0
  -5  -6   8    3.87    7.01   0
  -5  -6   8    4.87    8.03   0
  -5  -6   8   -0.32    7.67   0
  -5  -6   8    2.45    7.13   0
  -4  -6   8    6.40    7.87   0
  -4  -6   8    0.76    6.42   0
  -4  -6   8    6.81    6.71   0
  -4  -6   8    5.55    7.46   0
  -3  -6   8   20.36    7.07   0
  -3  -6   8   19.80    6.89   0
  -3  -6   8   18.41    6.69   0
  -2  -6   8  792.01    9.50   0
  -2  -6   8  881.18    9.70   0
  -2  -6   8  845.87    9.84   0
  -1  -6   8    9.91    5.50   0
  -1  -6   8    0.32    6.87   0
  -1  -6   8    6.43    5.60   0
   0   6  -8  267.01    6.59   0
   0  -6   8  255.44    7.97   0
   0  -6   8  255.81    6.51   0
   1  -6   8   11.00    7.11   0
  -1   6  -8    7.87    6.58   0
   1  -6   8   -3.24    5.50   0
  -1   6  -8   14.44    5.64   0
   2  -6   8 1797.53   11.55   0
  -2   6  -8 1851.99   11.43   0
   2  -6   8 1801.71   10.64   0
  -2   6  -8 1841.89   10.76   0
  -3   6  -8  151.73    7.25   0
   3  -6   8  142.79    7.37   0
  -3   6  -8  116.28    7.47   0
   3  -6   8  125.32    6.43   0
  -4   6  -8   -0.39    5.75   0
  -4   6  -8    5.72    5.42   0
   4  -6   8    8.75    6.71   0
   4  -6   8   14.67    7.22   0
  -5   6  -8   19.84    6.68   0
  -5   6  -8   18.95    5.33   0
   5  -6   8   16.94    5.52   0
   5  -6   8   12.09    5.75   0
  -6   6  -8  164.93    7.40   0
  -6   6  -8  177.49    6.14   0
   6  -6   8  162.03    6.35   0
   6  -6   8  165.54    6.16   0
  -7   6  -8    6.65    6.69   0
  -7   6  -8    7.92    6.69   0
   7  -6   8   15.40    5.98   0
   7  -6   8    3.04    6.92   0
  -8   6  -8   22.16    7.25   0
  -8   6  -8   23.22    6.99   0
   8  -6   8   35.07    7.56   0
   8  -6   8   20.25    7.06   0
   9  -6   8    5.34    6.66   0
  -9   6  -8   -1.27    7.52   0
  -9   6  -8    3.11    7.29   0
   9  -6   8    0.07    6.14   0
  -8  -5   8   -4.24   10.22   0
  -8  -5   8   10.43    9.02   0
  -7  -5   8  219.32    9.79   0
  -7  -5   8  225.76   12.78   0
  -7  -5   8  220.24    9.65   0
  -7  -5   8  217.48   13.19   0
  -6  -5   8    7.92    8.95   0
  -6  -5   8    6.57    9.05   0
  -6  -5   8    2.57    7.10   0
  -6  -5   8    4.45    6.98   0
  -5  -5   8  156.20    7.67   0
  -5  -5   8  165.12    8.84   0
  -5  -5   8  162.19    9.81   0
  -5  -5   8  158.10    8.61   0
  -4  -5   8   -2.21    6.60   0
  -4  -5   8    0.86    6.56   0
  -4  -5   8    3.18    7.66   0
  -3  -5   8  222.27    7.78   0
  -3  -5   8  239.92    7.67   0
  -3  -5   8  223.11    7.79   0
  -2  -5   8   19.81    7.05   0
  -2  -5   8   24.36    7.37   0
  -2  -5   8   27.22    6.97   0
  -1  -5   8    7.75    7.20   0
  -1  -5   8    1.70    6.64   0
   1   5  -8    3.61    6.98   0
  -1  -5   8    4.59    6.74   0
   0   5  -8   62.06    7.00   0
   0  -5   8   46.06    7.26   0
   0  -5   8   51.57    5.88   0
   0  -5   8   56.03    7.07   0
  -1   5  -8  992.35    9.53   0
   1  -5   8  984.05    8.74   0
  -1   5  -8  993.12    9.86   0
   1  -5   8  956.02    9.93   0
  -2   5  -8   26.48    7.10   0
   2  -5   8   22.61    6.89   0
  -2   5  -8   18.26    5.49   0
   2  -5   8   22.85    7.25   0
  -3   5  -8  245.77    6.47   0
   3  -5   8  232.23    6.54   0
   3  -5   8  233.74    8.15   0
  -3   5  -8  241.20    7.79   0
  -4   5  -8   14.35    6.64   0
   4  -5   8  -10.97    6.86   0
   4  -5   8   18.78    5.93   0
  -4   5  -8    2.89    6.86   0
  -5   5  -8  639.25    8.45   0
   5  -5   8  607.84    7.76   0
   5  -5   8  592.22    8.48   0
  -5   5  -8  648.35    8.65   0
   6  -5   8   14.37    7.15   0
  -6   5  -8   -4.02    6.61   0
   6  -5   8   11.96    5.40   0
  -6   5  -8    7.61    5.73   0
  -7   5  -8   22.05    6.84   0
   7  -5   8   13.96    5.65   0
  -7   5  -8   23.57    7.00   0
   7  -5   8   24.95    7.47   0
   8  -5   8    1.36    6.26   0
  -8   5  -8    3.04    6.93   0
   8  -5   8    2.56    7.07   0
  -8   5  -8    7.87    7.24   0
   9  -5   8   79.48    7.13   0
  -9   5  -8   62.41    7.79   0
   9  -5   8   73.65    7.96   0
  -9   5  -8   72.93    7.86   0
  -9  -4   8    2.41    7.99   0
  -9  -4   8    0.41    9.20   0
  -8  -4   8   53.12    8.81   0
  -8  -4   8   41.58    8.85   0
  -7  -4   8   15.64    7.04   0
  -7  -4   8   16.89    7.05   0
  -6  -4   8  510.87    8.99   0
  -6  -4   8  496.98   13.99   0
  -6  -4   8  494.86   13.34   0
  -6  -4   8  506.98    9.80   0
  -5  -4   8    1.00    6.71   0
  -5  -4   8    3.95    8.92   0
  -5  -4   8    4.29    9.19   0
  -5  -4   8    1.71    6.73   0
  -4  -4   8   26.31    7.04   0
  -4  -4   8   38.39    5.68   0
  -4  -4   8   35.68    8.32   0
  -3  -4   8   -2.78    6.69   0
  -3  -4   8    8.23    5.45   0
  -3  -4   8    3.21    6.90   0
  -2  -4   8   57.08    6.91   0
  -2  -4   8   59.97    5.69   0
   2   4  -8   50.21    7.30   0
  -2  -4   8   51.60    8.71   0
  -1  -4   8    3.16    7.08   0
  -1  -4   8    2.21    7.02   0
   1   4  -8   12.21    7.02   0
  -1  -4   8    7.11    7.46   0
   0   4  -8  706.26    8.28   0
   0  -4   8  664.52    7.91   0
   0  -4   8  708.22    9.18   0
   0  -4   8  682.66    8.34   0
   1  -4   8   -7.05    6.72   0
   1  -4   8   -0.37    7.38   0
  -1   4  -8    2.64    5.72   0
  -2   4  -8   -2.20    5.54   0
   2  -4   8    5.60    6.86   0
   2  -4   8    8.74    6.00   0
  -2   4  -8   -6.70    5.85   0
  -3   4  -8   80.08    7.06   0
   3  -4   8   62.72    7.16   0
   3  -4   8   68.75    8.01   0
  -3   4  -8   81.45    7.52   0
  -4   4  -8 1021.20    8.81   0
   4  -4   8  978.70    9.95   0
   4  -4   8  980.10    8.78   0
  -4   4  -8 1018.28    9.76   0
  -5   4  -8   18.34    6.47   0
   5  -4   8   18.89    7.21   0
  -5   4  -8    9.24    5.73   0
   5  -4   8   11.13    5.22   0
   6  -4   8   71.16    7.39   0
  -6   4  -8   58.01    6.62   0
  -6   4  -8   53.68    5.84   0
   6  -4   8   62.88    6.82   0
   7  -4   8    0.18    5.95   0
  -7   4  -8    2.10    6.66   0
  -7   4  -8    0.14    5.46   0
   7  -4   8    5.21    5.40   0
   8  -4   8  271.41    8.75   0
  -8   4  -8  276.63    8.44   0
   8  -4   8  237.09    8.58   0
  -8   4  -8  269.25    8.38   0
   9   3  -8   -0.57    7.73   0
  -9  -3   8    5.87    8.92   0
   8   3  -8   42.86    7.53   0
  -8  -3   8   57.40    7.55   0
   7   3  -8  247.55    8.18   0
  -7  -3   8  254.68    8.30   0
  -6  -3   8   28.08   13.64   0
   6   3  -8   24.71    7.11   0
  -6  -3   8   29.50   13.41   0
  -6  -3   8   12.71    6.85   0
  -5  -3   8   12.69   10.37   0
  -5  -3   8   10.35    5.61   0
  -4  -3   8    4.03    5.34   0
  -4  -3   8    0.89    8.49   0
  -3  -3   8  868.96    8.43   0
  -3  -3   8  920.88    9.41   0
   3   3  -8  925.40   10.98   0
  -3  -3   8  876.98   12.00   0
  -2  -3   8   46.89    7.14   0
  -2  -3   8   47.93    7.16   0
   2   3  -8   36.92    7.17   0
  -2  -3   8   47.31    7.85   0
  -1  -3   8  207.76    7.75   0
  -1  -3   8  208.79    6.55   0
  -1  -3   8  198.81    7.12   0
   1   3  -8  198.42    7.86   0
   0  -3   8   -1.63    5.48   0
   0  -3   8    3.67    7.00   0
   0  -3   8    0.51    6.14   0
   0   3  -8    6.31    5.88   0
   1  -3   8  174.93    7.53   0
   1  -3   8  193.28    7.44   0
  -1   3  -8  179.07    6.60   0
   1  -3   8  194.13    8.22   0
  -2   3  -8    6.31    7.24   0
   2  -3   8    3.87    7.61   0
   2  -3   8    7.22    5.79   0
  -3   3  -8  420.64    8.52   0
   3  -3   8  379.83    8.82   0
   3  -3   8  389.62    7.96   0
  -4   3  -8   14.29    5.37   0
  -4   3  -8   12.70    5.73   0
   4  -3   8   14.42    6.08   0
   4  -3   8   12.84    6.49   0
   5  -3   8    3.78    7.49   0
  -5   3  -8   10.84    5.83   0
  -5   3  -8    7.57    6.53   0
   5  -3   8    1.24    6.60   0
   6  -3   8    8.01    7.46   0
  -6   3  -8   13.38    5.84   0
  -6   3  -8   22.67    6.68   0
   6  -3   8   15.64    6.77   0
   7  -3   8  335.15    8.93   0
  -7   3  -8  350.28    8.47   0
  -7   3  -8  352.82    7.37   0
   7  -3   8  304.99    8.46   0
   8  -3   8   17.95    7.90   0
  -8   3  -8    6.09    7.49   0
  -8   3  -8    8.81    6.28   0
   8  -3   8   12.42    7.56   0
   9   2  -8   13.32    7.44   0
  -9  -2   8   14.32    7.60   0
   8   2  -8  117.23    7.64   0
  -8  -2   8  108.44    7.77   0
   7   2  -8   10.50    7.04   0
  -7  -2   8   16.18    7.16   0
   6   2  -8   28.14    6.96   0
  -6  -2   8   23.89    7.12   0
  -5  -2   8    4.77   10.34   0
   5   2  -8   10.64    6.74   0
  -5  -2   8    9.59    5.62   0
  -4  -2   8 1420.23   10.99   0
  -4  -2   8 1428.46   15.98   0
   4   2  -8 1513.86   10.27   0
   4   2  -8 1504.04   14.65   0
  -3  -2   8   41.36    7.15   0
   3   2  -8   33.16    8.13   0
  -3  -2   8   37.69    7.87   0
  -2  -2   8  123.18    6.29   0
  -2  -2   8  123.52    8.44   0
  -2  -2   8  131.08    7.49   0
   2   2  -8  138.29    7.72   0
  -1  -2   8    6.86    7.07   0
  -1  -2   8  -10.11    5.46   0
   1   2  -8    1.88    7.29   0
  -1  -2   8    7.92    7.84   0
   0  -2   8  774.06    9.24   0
   0   2  -8  758.04    9.55   0
   0  -2   8  726.27    8.71   0
   0  -2   8  701.78    9.20   0
  -1   2  -8   32.33    6.10   0
   1  -2   8   26.71    6.48   0
   1  -2   8   30.11    5.59   0
   1  -2   8   33.82    5.73   0
  -2   2  -8  158.28    8.00   0
   2  -2   8  155.63    6.95   0
   2  -2   8  152.65    6.17   0
   2  -2   8  151.83    7.28   0
  -3   2  -8    5.09    5.95   0
   3  -2   8  -10.16    7.62   0
   3  -2   8   -5.11    5.12   0
   3  -2   8   18.67    6.46   0
  -4   2  -8  301.08    6.89   0
   4  -2   8  321.88    8.32   0
   4  -2   8  317.55    6.55   0
  -5   2  -8   29.03    5.76   0
   5  -2   8   23.35    6.12   0
   5  -2   8   15.50    6.72   0
   6  -2   8   26.53    6.19   0
  -6   2  -8   14.97    5.57   0
   6  -2   8   37.90    6.81   0
  -7   2  -8    6.70    5.98   0
   7  -2   8    3.11    8.29   0
   7  -2   8    7.68    7.53   0
  -8   2  -8    6.50    6.73   0
   8  -2   8    5.98    7.75   0
   8  -2   8    5.77    8.04   0
  10   1  -8    1.58    7.95   0
 -10  -1   8    0.39    7.95   0
   9   1  -8   39.14    7.42   0
  -9  -1   8   38.07    7.43   0
   8   1  -8   -6.05    7.20   0
  -8  -1   8   -4.31    5.95   0
   7   1  -8   17.75    6.81   0
  -7  -1   8    8.78    7.02   0
   6   1  -8   23.06    6.62   0
  -6  -1   8   18.05    6.69   0
   5   1  -8  598.87    8.65   0
  -5  -1   8  562.29   13.93   0
   5   1  -8  608.27   13.15   0
  -5  -1   8  559.18    8.62   0
  -4  -1   8   15.11    6.09   0
   4   1  -8   20.36    8.30   0
  -4  -1   8   29.56    8.99   0
   4   1  -8   28.02    7.40   0
  -3  -1   8   94.94    6.30   0
  -3  -1   8  102.60    8.23   0
   3   1  -8   92.93    6.14   0
   3   1  -8  107.48    7.48   0
  -2  -1   8    0.78    5.58   0
   2   1  -8    9.15    7.51   0
  -2  -1   8   13.82    7.74   0
   1   1  -8 1727.81   12.44   0
  -1  -1   8 1643.93   11.87   0
  -1  -1   8 1622.39   11.21   0
  -1  -1   8 1710.98   11.34   0
   0  -1   8    4.03    7.55   0
   0  -1   8    2.19    6.86   0
   0  -1   8    2.52    6.89   0
   0   1  -8    4.79    7.19   0
   1  -1   8   93.30    8.16   0
   1  -1   8  103.89    6.98   0
   1  -1   8   91.53    7.15   0
  -1   1  -8  113.56    7.77   0
   2  -1   8    7.58    6.24   0
   2  -1   8    8.06    5.35   0
   2  -1   8    2.28    5.17   0
  -2   1  -8    6.54    6.12   0
   3  -1   8  508.11    8.70   0
   3  -1   8  498.05    8.38   0
   3  -1   8  486.06    7.18   0
  -3   1  -8  497.91    7.48   0
   4  -1   8   17.76    7.56   0
   4  -1   8   22.52    6.75   0
   4  -1   8   17.55    5.50   0
  -4   1  -8   13.30    6.00   0
   5  -1   8    4.21    6.93   0
   5  -1   8    9.68    6.93   0
  -5   1  -8    4.26    7.07   0
   5  -1   8    2.98    7.48   0
   6  -1   8    4.83    8.24   0
   6  -1   8   12.74    6.90   0
   6  -1   8    9.17    7.58   0
  -6   1  -8    5.82    6.11   0
  -7   1  -8    4.39    7.69   0
   7  -1   8   11.60    7.50   0
   7  -1   8    5.05    8.58   0
   7  -1   8   -5.53    8.06   0
  10   0  -8   12.50    7.84   0
 -10   0   8   -8.97    7.98   0
   9   0  -8   10.89    7.37   0
  -9   0   8   14.88    7.33   0
   8   0  -8  134.95    7.34   0
  -8   0   8  129.55    6.28   0
   7   0  -8   17.56    5.74   0
  -7   0   8   11.86    5.76   0
   6   0  -8  204.85    7.24   0
  -6   0   8  172.78    7.43   0
   5   0  -8   44.31    9.78   0
   5   0  -8   27.68    7.01   0
  -5   0   8   39.43   10.32   0
  -5   0   8   40.40    5.73   0
   4   0  -8   23.03    8.35   0
   4   0  -8   27.04    7.17   0
  -4   0   8   28.25    8.94   0
  -4   0   8   25.45    5.61   0
   3   0  -8  105.27    7.45   0
  -3   0   8  112.17    7.59   0
   3   0  -8  109.33    7.45   0
  -3   0   8   97.96    8.03   0
  -2   0   8  823.04    8.53   0
   2   0  -8  867.45   10.16   0
  -2   0   8  817.64   10.35   0
  -1   0   8   46.42    7.17   0
  -1   0   8   53.25    5.73   0
   1   0  -8   41.19    6.50   0
  -1   0   8   51.27    7.72   0
   0   0   8   96.03    5.82   0
   0   0   8  109.40    7.14   0
   0   0  -8   95.87    7.45   0
   0   0   8  108.74    6.61   0
   1   0   8   28.21    6.75   0
   1   0   8   19.51    6.65   0
  -1   0  -8   19.93    7.49   0
   1   0   8   16.87    7.65   0
   2   0   8  703.43    9.19   0
   2   0   8  725.50    9.03   0
  -2   0  -8  726.48    8.24   0
   2   0   8  736.65    9.47   0
   3   0   8   16.40    6.87   0
   3   0   8   13.62    5.53   0
  -3   0  -8   10.99    7.22   0
   3   0   8   15.82    7.14   0
   4   0   8   34.15    7.06   0
   4   0   8   27.92    6.83   0
  -4   0  -8   47.89    6.10   0
   4   0   8   41.51    7.53   0
   5   0   8    3.67    8.15   0
   5   0   8    7.13    6.90   0
  -5   0  -8   -9.69    7.48   0
   5   0   8  -11.01    6.26   0
   6   0   8   64.06    7.86   0
   6   0   8   55.56    7.71   0
   6   0   8   71.86    8.26   0
  -6   0  -8   70.76    6.67   0
  10  -1  -8    1.52    7.75   0
 -10   1   8    8.47    7.69   0
   9  -1  -8  258.74    8.22   0
  -9   1   8  264.63    7.07   0
   8  -1  -8   15.52    7.11   0
  -8   1   8   19.02    7.09   0
   7  -1  -8   94.23    6.96   0
  -7   1   8   91.79    6.12   0
   6  -1  -8    7.15    5.64   0
   6  -1  -8    8.80   10.85   0
  -6   1   8    8.14   10.56   0
  -6   1   8   12.00    7.00   0
   5  -1  -8  361.94   10.30   0
   5  -1  -8  358.61    7.96   0
  -5   1   8  358.53   10.36   0
  -5   1   8  345.95    8.03   0
   4  -1  -8   36.91    6.96   0
  -4   1   8   35.77    7.50   0
   4  -1  -8   45.32    8.42   0
  -4   1   8   34.78    5.72   0
   3  -1  -8   46.74    7.03   0
   3  -1  -8   48.21    7.34   0
  -3   1   8   38.34    7.58   0
  -3   1   8   28.22    7.11   0
  -2   1   8  102.39    7.59   0
   2  -1  -8  113.80    7.40   0
   2  -1  -8  113.91    7.71   0
  -2   1   8  110.96    6.49   0
  -1   1   8   77.00    7.34   0
  -1   1   8   76.16    7.15   0
   1  -1  -8   82.91    7.42   0
  -1   1   8   81.16    7.56   0
   0   1   8    2.36    5.42   0
   0   1   8    3.67    6.43   0
   0  -1  -8    2.19    5.81   0
   0   1   8    4.32    7.28   0
   1   1   8  239.91    7.54   0
   1   1   8  272.21    7.40   0
  -1  -1  -8  244.85    6.74   0
   1   1   8  247.08    6.77   0
   2   1   8   15.29    6.97   0
   2   1   8   11.58    6.77   0
  -2  -1  -8   16.49    7.24   0
   2   1   8   20.23    7.35   0
   3   1   8    1.10    7.02   0
   3   1   8   11.14    6.65   0
  -3  -1  -8   15.12    5.79   0
   3   1   8    4.78    5.79   0
   4   1   8    5.99    7.09   0
   4   1   8   -1.60    8.20   0
  -4  -1  -8    6.20    7.41   0
   4   1   8   -2.48    6.01   0
   5   1   8  140.16    8.47   0
   5   1   8  162.26    7.98   0
  -5  -1  -8  146.90    8.14   0
   5   1   8  172.73    6.94   0
   6   1   8    4.42    7.37   0
   6   1   8    4.99    8.04   0
   6   1   8    6.88    7.86   0
  -6  -1  -8   18.38    6.46   0
  10  -2  -8  125.00    8.25   0
 -10   2   8  127.70    8.35   0
   9  -2  -8    5.27    7.38   0
  -9   2   8   -2.73    7.41   0
   8  -2  -8    5.87    6.97   0
  -8   2   8    4.37    7.04   0
   7  -2  -8    6.26    5.73   0
  -7   2   8   15.31    7.03   0
   6  -2  -8  498.02   12.81   0
   6  -2  -8  470.21    8.25   0
  -6   2   8  501.79   12.10   0
  -6   2   8  460.79    8.36   0
   5  -2  -8   15.05    5.68   0
  -5   2   8   14.19    8.01   0
   5  -2  -8    5.66    8.02   0
  -5   2   8    7.35    5.61   0
   4  -2  -8  176.32    7.44   0
   4  -2  -8  182.87    7.93   0
  -4   2   8  180.32    7.86   0
  -4   2   8  186.32    7.41   0
   3  -2  -8    1.86    6.82   0
   3  -2  -8   -7.44    6.89   0
  -3   2   8    9.72    6.98   0
  -3   2   8    0.86    6.93   0
   2  -2  -8  216.57    7.37   0
   2  -2  -8  210.21    7.89   0
  -2   2   8  217.41    7.77   0
  -2   2   8  201.42    7.67   0
  -1   2   8   41.96    5.71   0
   1  -2  -8   43.92    7.26   0
  -1   2   8   48.50    7.22   0
   0   2   8    3.77    5.86   0
   0   2   8    7.82    6.87   0
   0  -2  -8   14.22    6.87   0
   0   2   8   15.51    6.92   0
   1   2   8   16.88    6.90   0
   1   2   8   19.94    6.72   0
  -1  -2  -8   18.75    7.47   0
   1   2   8   32.47    7.39   0
   2   2   8   36.69    7.10   0
   2   2   8   53.75    7.91   0
  -2  -2  -8   48.09    7.49   0
   2   2   8   54.22    6.21   0
   3   2   8   10.23    7.00   0
   3   2   8    3.45    6.90   0
  -3  -2  -8    3.88    5.98   0
   3   2   8    3.21    5.98   0
   4   2   8  141.60    8.22   0
   4   2   8  167.61    8.15   0
  -4  -2  -8  172.11    7.01   0
   4   2   8  175.31    8.17   0
   5   2   8    0.49    8.76   0
   5   2   8    2.18    8.12   0
  -5  -2  -8    5.02    8.18   0
   5   2   8    6.02    8.05   0
  10  -3  -8   -2.35    6.27   0
 -10   3   8   -6.28    6.37   0
   9  -3  -8    1.09    6.03   0
  -9   3   8  -16.96    7.38   0
   8  -3  -8   -2.94    7.20   0
  -8   3   8    3.54    5.90   0
   7  -3  -8  201.29    6.44   0
   7  -3  -8    1.46    9.78   0
  -7   3   8  197.92    7.67   0
   6  -3  -8    2.48    6.97   0
  -6   3   8    5.59    8.92   0
   6  -3  -8    8.33    9.27   0
  -6   3   8    1.57    5.51   0
   5  -3  -8   56.31    7.07   0
  -5   3   8   55.78    7.19   0
   5  -3  -8   59.20    8.36   0
  -5   3   8   54.83    6.00   0
   4  -3  -8    9.16    5.51   0
   4  -3  -8    9.11    8.31   0
  -4   3   8    6.44    7.03   0
  -4   3   8    6.12    7.03   0
   3  -3  -8  317.53    6.39   0
   3  -3  -8  313.71    8.15   0
  -3   3   8  296.72    7.98   0
  -3   3   8  308.53    6.53   0
   2  -3  -8   21.77    6.74   0
   2  -3  -8   15.01    5.96   0
  -2   3   8   23.16    7.14   0
  -2   3   8   20.36    6.89   0
   1  -3  -8   -3.51    5.77   0
  -1   3   8    0.24    6.84   0
  -1   3   8   -0.75    7.08   0
   0   3   8    9.98    6.35   0
   0  -3  -8   -3.63    6.96   0
   0   3   8   -5.66    5.59   0
   0   3   8   -0.40    6.97   0
   1   3   8   10.75    6.89   0
   1   3   8   11.92    6.49   0
  -1  -3  -8   16.95    7.23   0
   1   3   8   15.15    7.16   0
   2   3   8    7.74    7.21   0
   2   3   8    9.98    8.03   0
  -2  -3  -8    5.79    6.22   0
   2   3   8    2.36    5.94   0
   3   3   8   69.93    7.90   0
   3   3   8   68.36    8.77   0
  -3  -3  -8   79.63    6.66   0
   3   3   8   70.97    6.53   0
   4   3   8    2.56    8.51   0
   4   3   8    1.88    8.19   0
  -4  -3  -8    6.49    8.18   0
   4   3   8   10.08    6.46   0
   9  -4  -8    0.81    6.11   0
  -9   4   8   -2.01    7.62   0
   8  -4  -8   20.75    6.15   0
   8  -4  -8    0.20   12.40   0
   8  -4  -8    1.28   13.18   0
  -8   4   8   30.54    7.43   0
   7  -4  -8    3.63    7.45   0
   7  -4  -8    1.54    9.25   0
  -7   4   8    6.62    7.29   0
   6  -4  -8   49.86    7.14   0
  -6   4   8   43.38    8.30   0
   6  -4  -8   43.79    8.52   0
  -6   4   8   35.09    6.04   0
   5  -4  -8   33.80    5.67   0
   5  -4  -8   35.30    7.54   0
  -5   4   8   47.09    7.17   0
  -5   4   8   35.84    7.07   0
   4  -4  -8  284.29    7.98   0
   4  -4  -8  288.72    8.49   0
  -4   4   8  272.76    8.20   0
  -4   4   8  293.73    8.08   0
   3  -4  -8    2.94    7.02   0
   3  -4  -8   15.25    7.52   0
  -3   4   8    2.64    6.67   0
  -3   4   8    8.97    6.88   0
   2  -4  -8   10.52    6.75   0
   2  -4  -8    1.78    5.82   0
  -2   4   8    9.42    6.70   0
  -2   4   8   10.55    6.85   0
   1  -4  -8   -1.20    7.40   0
  -1   4   8    6.23    6.91   0
  -1   4   8    2.28    5.45   0
  -1   4   8    1.11    7.08   0
   0   4   8  282.95    8.13   0
   0  -4  -8  280.95    8.24   0
   0   4   8  296.28    8.08   0
   0   4   8  279.68    8.28   0
   1   4   8   19.80    6.87   0
  -1  -4  -8   16.66    7.49   0
   1   4   8   11.22    5.98   0
   1   4   8    4.91    7.25   0
   2   4   8    8.87    6.96   0
  -2  -4  -8    0.00    7.80   0
   2   4   8   10.03    7.56   0
   2   4   8    3.22    8.53   0
   3   4   8    0.90    8.29   0
  -3  -4  -8  -18.40    8.02   0
   3   4   8    0.13    6.52   0
   3   4   8    5.14    8.40   0
   9  -5  -8   33.44    6.47   0
  -9   5   8   24.60    7.96   0
   8  -5  -8   -4.14    6.07   0
  -8   5   8   17.79    7.52   0
   8  -5  -8    2.69   10.00   0
   7  -5  -8   22.17    7.23   0
   7  -5  -8    4.16    8.88   0
  -7   5   8    6.07    7.36   0
   6  -5  -8   -2.36    7.21   0
   6  -5  -8   14.30    7.65   0
  -6   5   8   15.58    6.02   0
   5  -5  -8   71.89    7.07   0
   5  -5  -8   66.96    7.83   0
  -5   5   8   72.35    7.33   0
  -5   5   8   67.20    6.07   0
   4  -5  -8    3.98    7.39   0
  -4   5   8   -2.59    6.96   0
   4  -5  -8    6.84    6.99   0
  -4   5   8    8.61    7.03   0
   3  -5  -8   11.36    5.68   0
   3  -5  -8    6.97    7.29   0
  -3   5   8    3.38    5.85   0
  -3   5   8    3.10    7.12   0
   2  -5  -8   -0.45    6.04   0
   2  -5  -8    5.16    6.98   0
  -2   5   8   -3.36    6.92   0
  -2   5   8   -0.16    7.26   0
  -1   5   8  246.95    8.10   0
   1  -5  -8  238.03    8.32   0
  -1   5   8  265.26    8.14   0
  -1   5   8  230.20    8.51   0
   0   5   8    5.05    7.19   0
   0  -5  -8    7.45    6.19   0
   0   5   8   16.08    7.08   0
   0   5   8    2.66    7.69   0
   1   5   8   22.31    7.41   0
  -1  -5  -8   28.52    7.67   0
   1   5   8   15.65    7.63   0
   1   5   8   16.77    8.99   0
   2   5   8    1.92    8.50   0
  -2  -5  -8   10.71    8.21   0
   2   5   8    2.13    7.89   0
   2   5   8    2.09    8.79   0
   8  -6  -8   28.22    6.54   0
   8  -6  -8   -0.23    9.88   0
  -8   6   8   24.75    6.57   0
   7  -6  -8   -7.77    5.96   0
   7  -6  -8    0.45    8.38   0
  -7   6   8    1.83    6.09   0
   6  -6  -8    7.82    7.16   0
   6  -6  -8    7.45    9.11   0
  -6   6   8   16.15    7.29   0
   5  -6  -8    5.01    7.32   0
   5  -6  -8    8.92    9.03   0
  -5   6   8   10.24    7.19   0
  -5   6   8    5.27    5.81   0
   4  -6  -8   13.75    7.37   0
   4  -6  -8   35.67    7.73   0
  -4   6   8   22.86    5.98   0
  -4   6   8   31.33    6.39   0
   3  -6  -8   -0.07    6.39   0
   3  -6  -8   -3.05    7.26   0
  -3   6   8    9.95    7.36   0
  -3   6   8   13.39    7.29   0
   2  -6  -8   88.75    6.60   0
  -2   6   8   98.64    6.62   0
   2  -6  -8   80.46    8.04   0
  -2   6   8   88.14    8.02   0
   1  -6  -8   15.11    7.87   0
  -1   6   8   -3.58    7.38   0
  -1   6   8   12.55    7.51   0
  -1   6   8    2.41    7.81   0
   0   6   8   10.25    8.83   0
   0  -6  -8   13.33    6.56   0
   0   6   8   10.24    7.85   0
   0   6   8   17.46    8.14   0
   6  -7  -8    0.84    7.75   0
   6  -7  -8    9.21    8.13   0
  -6   7   8   -2.52    6.34   0
   5  -7  -8   75.23    7.89   0
   5  -7  -8   81.17    8.46   0
  -5   7   8   78.60    6.78   0
   4  -7  -8   15.69    6.36   0
   4  -7  -8    3.84    6.65   0
  -4   7   8    3.20    7.62   0
  -4   7   8    2.80    7.72   0
   3  -7  -8   -3.15    6.31   0
  -3   7   8    4.85    7.60   0
  -3   7   8  -10.05    7.85   0
   3  -7  -8   -2.43    8.21   0
   2  -7  -8   12.35    6.96   0
  -2   7   8    8.12    7.73   0
  -2   7   8    5.40    6.73   0
   0 -13   9   19.54    7.90   0
   0 -13   9    7.51    7.68   0
   0 -13   9   -1.26    7.71   0
   0 -13   9   15.42    9.32   0
   1 -13   9  233.41    6.93   0
  -1  13  -9  236.19    9.84   0
   1 -13   9  237.42    8.31   0
   1 -13   9  206.94    9.11   0
   2 -13   9   -3.06    7.15   0
  -2  13  -9    4.39    7.29   0
   2 -13   9   15.17    7.73   0
  -3  13  -9   15.73    7.31   0
   3 -13   9    5.15    7.46   0
   3 -13   9    8.24    7.26   0
  -4  13  -9   -1.31    5.96   0
   4 -13   9   -0.95    6.22   0
   4 -13   9    6.76    7.36   0
   5 -13   9  160.36    6.92   0
   5 -13   9  152.17    7.06   0
  -5  13  -9  162.06    6.83   0
  -6  13  -9   10.87    7.21   0
   6 -13   9    1.44    6.21   0
   6 -13   9   11.45    7.39   0
  -1 -12   9    4.92    8.75   0
  -1 -12   9   -2.53    6.07   0
  -1 -12   9    8.30    7.53   0
  -1 -12   9    6.21    8.80   0
   0 -12   9  108.27    7.69   0
   0 -12   9   85.35    7.78   0
   0 -12   9  103.20    6.35   0
   0 -12   9  101.23    9.01   0
   1 -12   9    4.44    5.62   0
   1 -12   9   12.75    7.52   0
  -1  12  -9    7.08    7.20   0
  -2  12  -9    0.32    6.76   0
   2 -12   9    0.98    7.12   0
   2 -12   9    4.05    6.94   0
  -3  12  -9   17.01    6.77   0
   3 -12   9    2.11    7.07   0
   3 -12   9    9.27    7.02   0
  -4  12  -9  348.68    8.31   0
   4 -12   9  371.91    7.09   0
   4 -12   9  349.63    7.37   0
   5 -12   9    6.07    6.05   0
   5 -12   9    6.91    7.24   0
  -5  12  -9   19.04    6.97   0
   6 -12   9   14.58    5.97   0
  -6  12  -9   18.57    7.10   0
   6 -12   9   17.33    7.32   0
   7 -12   9    8.60    7.46   0
  -7  12  -9   -3.68    7.37   0
   7 -12   9    8.43    5.84   0
  -3 -11   9  247.95   12.48   0
  -3 -11   9  286.12    8.86   0
  -3 -11   9  269.02    8.82   0
  -3 -11   9  265.93   12.29   0
  -2 -11   9   -3.99    8.90   0
  -2 -11   9   -0.10    7.45   0
  -2 -11   9    7.97    7.37   0
  -2 -11   9   13.95    8.67   0
  -1 -11   9    9.85    7.02   0
  -1 -11   9    6.58    8.30   0
  -1 -11   9    6.79    6.99   0
  -1 -11   9    2.45    7.24   0
   0 -11   9   12.03    6.91   0
   0 -11   9   10.82    7.22   0
  -1  11  -9   66.36    7.06   0
   1 -11   9   67.04    7.27   0
   1 -11   9   69.85    6.02   0
  -2  11  -9   15.19    6.61   0
   2 -11   9   22.96    6.78   0
   2 -11   9   13.22    5.77   0
  -3  11  -9  244.26    7.57   0
   3 -11   9  236.83    7.82   0
   3 -11   9  239.14    7.76   0
  -4  11  -9    9.91    6.41   0
   4 -11   9   11.69    5.65   0
   4 -11   9   -2.38    5.67   0
   5 -11   9   79.21    6.29   0
  -5  11  -9   99.90    5.84   0
   5 -11   9   86.69    7.36   0
   6 -11   9   15.06    7.06   0
  -6  11  -9    5.97    5.58   0
   6 -11   9    6.54    5.86   0
  -7  11  -9  163.77    6.43   0
   7 -11   9  155.31    7.95   0
   7 -11   9  158.26    6.81   0
  -8  11  -9   14.83    7.54   0
   8 -11   9   -0.32    7.66   0
   8 -11   9    9.97    6.36   0
  -4 -10   9  251.30    9.81   0
  -4 -10   9  212.11   11.68   0
  -4 -10   9  246.97    9.07   0
  -4 -10   9  218.23   12.04   0
  -3 -10   9    7.32    8.62   0
  -3 -10   9    6.64    7.32   0
  -3 -10   9    9.05    8.29   0
  -3 -10   9    1.41    7.18   0
  -2 -10   9   18.20    6.95   0
  -2 -10   9    9.39    7.43   0
  -2 -10   9   13.97    7.07   0
  -2 -10   9    5.85    8.04   0
  -1 -10   9   33.93    6.88   0
  -1 -10   9   32.07    7.07   0
  -1 -10   9   35.90    7.26   0
   0 -10   9  494.90    8.96   0
   0 -10   9  492.73    8.43   0
  -1  10  -9    9.52    6.56   0
   1 -10   9   13.80    5.64   0
   1 -10   9    6.05    6.71   0
  -2  10  -9   20.04    5.13   0
   2 -10   9   15.88    6.68   0
   2 -10   9   12.25    6.82   0
  -3  10  -9    6.81    6.45   0
   3 -10   9    4.73    5.56   0
   3 -10   9    8.60    5.60   0
   4 -10   9  375.04    6.86   0
   4 -10   9  346.77    7.96   0
  -4  10  -9  376.16    6.61   0
   5 -10   9    0.13    7.01   0
  -5  10  -9    0.19    5.50   0
   5 -10   9   -2.28    6.79   0
  -6  10  -9   86.96    5.99   0
   6 -10   9   80.21    7.26   0
   6 -10   9   95.50    6.22   0
   7 -10   9    9.74    7.23   0
   7 -10   9   17.91    7.12   0
  -7  10  -9    4.71    5.56   0
   8 -10   9    6.79    6.14   0
   8 -10   9    9.05    7.61   0
  -8  10  -9    5.67    5.97   0
  -8  10  -9    0.56    7.27   0
  -5  -9   9  176.81    9.51   0
  -5  -9   9  144.21   11.18   0
  -5  -9   9  154.71    9.95   0
  -5  -9   9  147.06   11.38   0
  -4  -9   9    4.31    8.64   0
  -4  -9   9    3.20    7.08   0
  -4  -9   9   -1.67    9.34   0
  -4  -9   9    8.19    8.47   0
  -3  -9   9  -10.20    6.77   0
  -3  -9   9    3.03    8.01   0
  -3  -9   9   -2.84    6.90   0
  -3  -9   9   12.40    8.05   0
  -2  -9   9   23.18    6.96   0
  -2  -9   9   24.48    6.97   0
  -2  -9   9   23.81    6.85   0
  -1  -9   9  848.83   10.57   0
  -1  -9   9  938.56    9.92   0
  -1  -9   9  948.05    9.50   0
   0  -9   9  104.07    7.20   0
   0  -9   9   98.00    7.03   0
  -1   9  -9   68.92    6.75   0
   1  -9   9   64.34    6.88   0
   1  -9   9   63.10    6.64   0
  -2   9  -9   -1.21    6.28   0
   2  -9   9    9.63    5.44   0
   2  -9   9    0.18    5.24   0
   3  -9   9  453.64    8.25   0
  -3   9  -9  437.26    7.90   0
   3  -9   9  444.25    7.02   0
   4  -9   9   14.35    6.84   0
  -4   9  -9   10.15    6.58   0
   4  -9   9    9.55    5.66   0
  -4   9  -9   13.11    5.68   0
  -5   9  -9   10.98    5.39   0
  -5   9  -9   19.38    6.65   0
   5  -9   9    9.05    6.69   0
   5  -9   9    2.84    5.76   0
  -6   9  -9   -1.59    6.63   0
  -6   9  -9    0.05    6.86   0
   6  -9   9    3.58    5.61   0
   6  -9   9    4.87    7.11   0
  -7   9  -9   95.19    7.45   0
  -7   9  -9   85.56    5.97   0
   7  -9   9   73.18    6.12   0
   7  -9   9   78.11    7.48   0
  -8   9  -9    6.82    7.06   0
   8  -9   9    9.60    5.86   0
   8  -9   9   22.47    7.64   0
  -8   9  -9    6.92    6.14   0
  -6  -8   9   23.18   10.21   0
  -6  -8   9   22.09    9.27   0
  -6  -8   9   27.30    8.85   0
  -6  -8   9   22.90   10.47   0
  -5  -8   9    2.53    8.40   0
  -5  -8   9   11.22    8.60   0
  -5  -8   9    3.91    7.14   0
  -5  -8   9    6.77    8.63   0
  -4  -8   9   37.70    8.38   0
  -4  -8   9   31.50    8.01   0
  -4  -8   9   33.31    8.12   0
  -4  -8   9   41.79    6.99   0
  -3  -8   9    2.44    7.05   0
  -3  -8   9   12.18    7.06   0
  -3  -8   9   10.25    6.73   0
  -2  -8   9  728.33    9.55   0
  -2  -8   9  788.94    9.82   0
  -2  -8   9  787.13    9.48   0
  -1  -8   9   44.90    6.63   0
  -1  -8   9   39.93    6.71   0
  -1  -8   9   45.88    6.86   0
   0  -8   9  160.00    7.16   0
   0  -8   9  147.63    6.14   0
  -1   8  -9   33.43    5.50   0
   1  -8   9   39.02    6.63   0
   1  -8   9   29.56    6.57   0
  -2   8  -9 1298.40    9.22   0
   2  -8   9 1275.37    9.37   0
  -2   8  -9 1289.17    9.09   0
   2  -8   9 1270.60    9.12   0
   3  -8   9   -0.94    5.54   0
  -3   8  -9    7.63    5.24   0
  -3   8  -9    2.23    5.72   0
   3  -8   9   13.05    6.82   0
  -4   8  -9   51.28    5.59   0
   4  -8   9   44.45    5.68   0
  -4   8  -9   57.79    5.63   0
   4  -8   9   43.15    5.83   0
  -5   8  -9   16.40    5.60   0
  -5   8  -9   10.32    5.47   0
   5  -8   9    0.07    5.48   0
   5  -8   9    8.59    6.96   0
  -6   8  -9  280.46    7.73   0
  -6   8  -9  280.66    7.66   0
   6  -8   9  270.16    7.60   0
   6  -8   9  276.90    6.79   0
  -7   8  -9  -11.01    7.04   0
  -7   8  -9   -2.91    5.66   0
   7  -8   9   15.65    6.91   0
   7  -8   9   13.16    7.30   0
  -8   8  -9   11.79    7.43   0
  -8   8  -9    3.66    5.73   0
   8  -8   9    7.41    7.65   0
   8  -8   9   10.34    5.86   0
  -9   8  -9    9.73    7.57   0
  -9   8  -9    3.81    7.34   0
   9  -8   9   14.00    8.06   0
   9  -8   9    5.20    7.48   0
  -7  -7   9   -0.81   10.20   0
  -7  -7   9   -2.25    9.87   0
  -7  -7   9    1.54   10.49   0
  -7  -7   9    4.18   10.40   0
  -6  -7   9    1.75    8.55   0
  -6  -7   9    0.26    8.37   0
  -6  -7   9    2.59    8.60   0
  -6  -7   9    6.40    8.65   0
  -5  -7   9  241.72    9.30   0
  -5  -7   9  255.13    9.41   0
  -5  -7   9  241.57    9.28   0
  -5  -7   9  236.30    9.29   0
  -4  -7   9    7.78    6.97   0
  -4  -7   9    1.21    6.80   0
  -4  -7   9   14.12    7.90   0
  -4  -7   9    6.29    7.69   0
  -3  -7   9  122.55    7.41   0
  -3  -7   9  123.14    7.30   0
  -3  -7   9  135.64    7.19   0
  -2  -7   9    4.40    6.39   0
  -2  -7   9   -0.47    6.49   0
  -2  -7   9    6.71    6.62   0
  -1  -7   9  228.38    7.71   0
  -1  -7   9  228.17    7.58   0
  -1  -7   9  215.78    7.31   0
   0  -7   9   19.02    5.59   0
   0  -7   9   22.86    6.52   0
   0  -7   9   21.60    6.56   0
   1  -7   9  343.25    7.82   0
  -1   7  -9  347.92    7.68   0
   1  -7   9  316.65    6.75   0
  -1   7  -9  346.65    7.83   0
   2  -7   9   55.36    5.95   0
  -2   7  -9   55.31    5.57   0
   2  -7   9   48.70    5.61   0
  -2   7  -9   68.93    7.07   0
  -3   7  -9   -5.85    6.77   0
  -3   7  -9    5.12    6.59   0
   3  -7   9    5.69    5.47   0
   3  -7   9    5.15    5.77   0
  -4   7  -9   47.41    6.64   0
   4  -7   9   38.96    6.79   0
  -4   7  -9   42.92    5.65   0
   4  -7   9   45.16    5.84   0
  -5   7  -9  495.63    8.25   0
   5  -7   9  455.13    7.08   0
  -5   7  -9  477.56    8.41   0
   5  -7   9  473.78    8.43   0
  -6   7  -9   -9.31    6.65   0
  -6   7  -9   -1.33    5.53   0
   6  -7   9    1.65    5.46   0
   6  -7   9    6.00    5.73   0
  -7   7  -9   21.30    5.55   0
  -7   7  -9   12.43    6.96   0
   7  -7   9    8.92    7.45   0
   7  -7   9   21.05    6.87   0
  -8   7  -9    1.50    5.84   0
   8  -7   9   -9.02    6.53   0
  -8   7  -9    2.86    5.99   0
   8  -7   9    7.63    7.28   0
  -7  -6   9    0.35   11.39   0
  -7  -6   9    1.64    8.68   0
  -7  -6   9   10.94    7.59   0
  -7  -6   9    0.09   10.89   0
  -6  -6   9  482.12   11.93   0
  -6  -6   9  451.04    9.84   0
  -6  -6   9  482.63   12.26   0
  -6  -6   9  490.61   10.72   0
  -5  -6   9   17.09    8.06   0
  -5  -6   9   13.73    8.03   0
  -5  -6   9   12.67    8.12   0
  -5  -6   9   19.81    6.99   0
  -4  -6   9   48.05    7.02   0
  -4  -6   9   45.95    7.13   0
  -4  -6   9   59.55    7.02   0
  -3  -6   9    6.40    6.40   0
  -3  -6   9    2.52    6.82   0
  -3  -6   9    9.28    6.63   0
  -2  -6   9  653.16    9.09   0
  -2  -6   9  610.70    8.70   0
  -2  -6   9  677.16    7.90   0
  -1  -6   9   15.91    6.95   0
  -1  -6   9   11.36    6.42   0
  -1  -6   9   20.51    5.45   0
   0  -6   9   22.48    5.67   0
   0  -6   9   36.17    6.71   0
   0  -6   9   26.12    5.40   0
   0   6  -9   31.24    5.57   0
  -1   6  -9    7.04    6.88   0
   1  -6   9   10.90    5.64   0
   1  -6   9   -0.38    7.13   0
   2  -6   9   37.08    6.90   0
  -2   6  -9   41.70    7.04   0
  -2   6  -9   41.10    6.78   0
   2  -6   9   40.94    5.92   0
  -3   6  -9   29.98    5.45   0
  -3   6  -9   24.30    5.65   0
   3  -6   9   23.83    6.65   0
   3  -6   9   35.85    7.08   0
  -4   6  -9  708.71    8.63   0
  -4   6  -9  698.38    7.82   0
   4  -6   9  631.15    8.50   0
   4  -6   9  650.81    8.81   0
  -5   6  -9   95.96    7.24   0
  -5   6  -9  103.82    6.72   0
   5  -6   9   79.83    6.93   0
   5  -6   9   86.51    6.22   0
  -6   6  -9    2.00    5.55   0
  -6   6  -9    7.17    6.61   0
   6  -6   9    6.24    5.84   0
   6  -6   9    5.45    6.58   0
  -7   6  -9    7.25    5.71   0
  -7   6  -9    3.03    6.82   0
   7  -6   9   -7.76    7.28   0
   7  -6   9   -3.01    5.74   0
  -8   6  -9  112.28    7.86   0
   8  -6   9  114.71    7.10   0
  -8   6  -9  128.86    7.93   0
   8  -6   9  113.31    7.90   0
  -8  -5   9    5.75    8.99   0
  -8  -5   9    1.79    9.04   0
  -7  -5   9  423.74   17.06   0
  -7  -5   9  445.62    9.57   0
  -7  -5   9  438.60   18.04   0
  -7  -5   9  453.95   10.61   0
  -6  -5   9   13.55    6.87   0
  -6  -5   9    7.35   10.16   0
  -6  -5   9    3.92   10.18   0
  -6  -5   9    9.53    8.02   0
  -5  -5   9   57.52    6.94   0
  -5  -5   9   65.06    8.32   0
  -5  -5   9   62.56    8.56   0
  -5  -5   9   47.93    6.98   0
  -4  -5   9   13.60    5.49   0
  -4  -5   9   12.93    6.71   0
  -4  -5   9    3.06    7.68   0
  -3  -5   9  686.95    8.97   0
  -3  -5   9  750.17    9.14   0
  -3  -5   9  724.05    9.88   0
  -2  -5   9   49.76    5.65   0
  -2  -5   9   55.56    5.54   0
   2   5  -9   55.63    6.97   0
  -2  -5   9   45.70    7.27   0
  -1  -5   9   76.75    7.29   0
  -1  -5   9   76.42    7.16   0
   1   5  -9   74.40    7.24   0
  -1  -5   9   78.00    7.43   0
   0  -5   9   52.89    5.86   0
   0  -5   9   52.90    5.98   0
   0   5  -9   65.37    5.75   0
   0  -5   9   56.25    5.96   0
  -1   5  -9  779.09    8.03   0
   1  -5   9  716.19    7.88   0
   1  -5   9  771.21    9.07   0
   1  -5   9  745.13    8.34   0
  -2   5  -9   -1.42    5.49   0
   2  -5   9   -0.51    5.57   0
   2  -5   9    5.20    7.37   0
  -2   5  -9    8.57    7.04   0
  -3   5  -9   18.79    6.49   0
   3  -5   9   18.58    5.45   0
   3  -5   9   27.52    5.98   0
  -3   5  -9   20.55    5.66   0
  -4   5  -9   52.28    5.43   0
   4  -5   9   49.19    6.88   0
   4  -5   9   36.00    7.24   0
  -4   5  -9   60.53    7.16   0
  -5   5  -9  376.97    7.86   0
   5  -5   9  369.34    8.47   0
   5  -5   9  356.30    7.96   0
  -5   5  -9  389.93    8.20   0
  -6   5  -9    1.85    6.69   0
   6  -5   9   16.46    7.30   0
   6  -5   9    9.67    5.43   0
  -6   5  -9    0.26    7.16   0
  -7   5  -9  114.17    7.19   0
   7  -5   9  111.62    7.87   0
   7  -5   9  103.05    7.42   0
  -7   5  -9  107.61    6.27   0
   8  -5   9    6.82    6.48   0
  -8   5  -9   -5.82    7.16   0
   8  -5   9   -7.87    7.39   0
  -8   5  -9    0.47    6.13   0
  -8  -4   9  113.13    9.34   0
  -8  -4   9  104.77    8.17   0
  -7  -4   9    5.93    8.34   0
  -7  -4   9   -4.37    7.39   0
  -6  -4   9  134.55    7.44   0
  -6  -4   9  126.78   12.70   0
  -6  -4   9  132.30   11.68   0
  -6  -4   9  124.35    7.46   0
  -5  -4   9   32.07    5.53   0
  -5  -4   9   22.75    9.37   0
  -5  -4   9   31.38    6.95   0
  -4  -4   9  537.44    7.53   0
  -4  -4   9  579.18    8.69   0
  -4  -4   9  544.51   10.58   0
  -3  -4   9   30.10    6.82   0
  -3  -4   9   36.17    5.68   0
   3   4  -9   35.33    7.89   0
  -3  -4   9   34.61    7.21   0
   2   4  -9   39.05    7.12   0
  -2  -4   9   36.76    7.00   0
  -2  -4   9   36.57    7.19   0
  -2  -4   9   31.65    7.54   0
  -1  -4   9    7.39    5.72   0
  -1  -4   9    0.61    5.79   0
   1   4  -9    7.22    6.96   0
  -1  -4   9    5.13    7.45   0
   0  -4   9  873.76    9.48   0
   0  -4   9  944.80    9.69   0
   0  -4   9  909.88   10.09   0
   0   4  -9  949.64    9.74   0
   1  -4   9   20.28    6.84   0
   1  -4   9   19.06    5.65   0
   1  -4   9   24.57    6.99   0
  -1   4  -9   24.85    7.33   0
   2  -4   9   18.47    6.79   0
   2  -4   9   17.60    6.01   0
  -2   4  -9   16.66    7.09   0
   3  -4   9    0.25    5.98   0
   3  -4   9    3.36    6.63   0
  -3   4  -9   -1.23    5.74   0
  -4   4  -9  250.69    7.23   0
   4  -4   9  213.32    8.05   0
   4  -4   9  232.24    7.22   0
  -4   4  -9  225.52    6.67   0
   5  -4   9    7.38    6.07   0
  -5   4  -9   13.31    5.23   0
  -5   4  -9   20.91    7.22   0
   5  -4   9    1.36    6.64   0
   6  -4   9   59.91    6.09   0
  -6   4  -9   54.07    7.09   0
  -6   4  -9   49.46    5.99   0
   6  -4   9   51.90    7.12   0
   7  -4   9    5.68    7.39   0
  -7   4  -9   11.64    5.69   0
  -7   4  -9    7.49    5.89   0
   7  -4   9    6.82    5.70   0
   8  -4   9   69.24    8.42   0
  -8   4  -9   71.14    7.91   0
   8  -4   9   67.99    7.91   0
  -8   4  -9   63.77    8.03   0
  -9  -3   9   25.99    8.08   0
   8   3  -9   45.95    7.67   0
  -8  -3   9   52.30    7.59   0
   7   3  -9   34.66    5.94   0
  -7  -3   9   31.59    7.09   0
  -6  -3   9    5.64   13.09   0
  -6  -3   9   10.03   13.06   0
  -6  -3   9    2.59    5.65   0
  -5  -3   9  104.77   10.13   0
  -5  -3   9  115.10    7.23   0
  -4  -3   9    3.48    6.57   0
  -4  -3   9   -1.02    5.45   0
  -4  -3   9    7.90    8.44   0
  -3  -3   9   64.26    7.06   0
  -3  -3   9   67.27    7.16   0
  -3  -3   9   66.06    8.92   0
   3   3  -9   60.62    7.22   0
   2   3  -9   11.22    6.69   0
  -2  -3   9   15.17    7.00   0
  -2  -3   9   13.31    7.12   0
  -2  -3   9    7.30    7.53   0
  -1  -3   9  903.24    9.71   0
  -1  -3   9  968.21    8.80   0
  -1  -3   9  913.46   10.66   0
   1   3  -9  920.65   10.22   0
   0  -3   9   45.43    7.01   0
   0  -3   9   45.55    5.88   0
   0  -3   9   53.82    7.52   0
   0   3  -9   49.48    5.93   0
   1  -3   9    2.44    5.60   0
   1  -3   9    5.89    6.80   0
   1  -3   9    0.44    7.70   0
  -1   3  -9    3.51    7.26   0
  -2   3  -9   10.54    7.04   0
   2  -3   9    8.59    6.01   0
   2  -3   9    1.26    6.69   0
   2  -3   9   -1.12    6.76   0
  -3   3  -9  517.72    8.60   0
   3  -3   9  487.67    8.90   0
   3  -3   9  489.76    8.06   0
   3  -3   9  513.41    7.09   0
   4  -3   9   -5.12    7.43   0
  -4   3  -9    5.57    5.80   0
   4  -3   9    0.16    6.56   0
   5  -3   9   10.60    6.01   0
  -5   3  -9   15.94    7.08   0
   5  -3   9    3.62    6.58   0
   6  -3   9   -0.50    6.11   0
  -6   3  -9   21.11    7.27   0
   6  -3   9   10.73    5.54   0
   7  -3   9  167.57    8.65   0
  -7   3  -9  160.91    8.17   0
   7  -3   9  149.98    8.00   0
   9   2  -9    4.97    7.75   0
  -9  -2   9   13.63    7.74   0
   8   2  -9  255.56    7.40   0
  -8  -2   9  251.95    8.50   0
   7   2  -9    5.41    7.08   0
  -7  -2   9   16.23    7.06   0
   6   2  -9   33.34    7.12   0
  -6  -2   9   43.20   16.45   0
  -6  -2   9   43.58    7.10   0
  -5  -2   9  125.33   11.53   0
   5   2  -9  141.02    7.12   0
  -5  -2   9  134.13    5.99   0
  -4  -2   9  431.20    8.19   0
  -4  -2   9  452.74   10.97   0
   4   2  -9  468.60   10.00   0
  -3  -2   9   29.73    7.04   0
  -3  -2   9   18.01    8.89   0
  -3  -2   9    8.98    7.09   0
   3   2  -9   19.00    6.98   0
  -2  -2   9  278.87    7.79   0
  -2  -2   9  295.15    8.88   0
  -2  -2   9  295.95    7.85   0
   2   2  -9  305.65    8.03   0
  -1  -2   9    1.90    7.04   0
  -1  -2   9    5.36    6.88   0
  -1  -2   9   -0.69    7.56   0
   1   2  -9   12.76    7.19   0
   0   2  -9  299.30    7.96   0
   0  -2   9  264.50    7.87   0
   0  -2   9  282.96    8.50   0
   0  -2   9  288.86    6.68   0
  -1   2  -9    2.49    7.08   0
   1  -2   9    6.33    7.77   0
   1  -2   9    6.72    6.80   0
   1  -2   9   -0.70    5.73   0
  -2   2  -9  425.00    8.50   0
   2  -2   9  434.93    8.83   0
   2  -2   9  399.54    7.84   0
   2  -2   9  424.06    7.95   0
  -3   2  -9   21.18    5.94   0
   3  -2   9   16.29    6.21   0
   3  -2   9   19.92    6.62   0
   3  -2   9   21.57    6.58   0
  -4   2  -9    7.53    5.82   0
   4  -2   9    9.78    7.35   0
   4  -2   9   12.82    5.51   0
   4  -2   9    4.83    6.56   0
   5  -2   9   11.62    7.49   0
  -5   2  -9    5.65    5.92   0
   5  -2   9    8.09    6.73   0
   5  -2   9    9.80    6.78   0
  -6   2  -9  257.79    6.92   0
   6  -2   9  259.93    8.42   0
   6  -2   9  250.70    8.25   0
   6  -2   9  242.40    8.64   0
  -7   2  -9   -1.31    6.31   0
   7  -2   9    8.19    7.64   0
   7  -2   9    8.38    7.59   0
   7  -2   9    3.71    7.89   0
   9   1  -9   75.60    6.68   0
  -9  -1   9   73.95    7.91   0
   8   1  -9   12.10    5.70   0
  -8  -1   9    8.63    7.13   0
   7   1  -9   15.19    6.89   0
  -7  -1   9   14.54    5.61   0
   6   1  -9   24.48    5.67   0
  -6  -1   9   25.15   14.17   0
  -6  -1   9   27.87    6.89   0
   5   1  -9  151.99   10.01   0
   5   1  -9  162.48    6.04   0
  -5  -1   9  144.17   10.55   0
  -5  -1   9  143.34    7.18   0
  -4  -1   9   17.42    5.77   0
   4   1  -9   16.44    5.57   0
   4   1  -9   20.20    7.90   0
  -4  -1   9   26.75    8.43   0
  -3  -1   9   88.27    8.07   0
  -3  -1   9   86.21    7.10   0
   3   1  -9   84.61    7.46   0
  -2  -1   9    6.49    7.60   0
  -2  -1   9    1.86    5.63   0
   2   1  -9    5.23    7.20   0
  -2  -1   9   12.69    5.63   0
   1   1  -9  319.97    8.13   0
  -1  -1   9  315.27    8.78   0
  -1  -1   9  318.03    6.67   0
  -1  -1   9  307.07    7.75   0
   0  -1   9   -0.49    6.79   0
   0  -1   9   -4.03    7.19   0
   0  -1   9    7.55    6.82   0
   0   1  -9    7.94    6.79   0
   1  -1   9  407.92    8.97   0
   1  -1   9  409.18    7.94   0
   1  -1   9  417.58    7.00   0
  -1   1  -9  427.63    8.24   0
   2  -1   9    4.64    6.05   0
   2  -1   9   -1.94    5.40   0
   2  -1   9    8.04    6.76   0
  -2   1  -9    6.29    5.91   0
   3  -1   9  128.63    6.48   0
   3  -1   9  114.35    7.20   0
   3  -1   9  130.09    5.90   0
  -3   1  -9  121.65    6.43   0
   4  -1   9    9.61    7.03   0
   4  -1   9    9.12    6.75   0
  -4   1  -9   17.98    7.28   0
   4  -1   9   11.03    5.99   0
   5  -1   9   89.40    7.53   0
   5  -1   9   94.05    7.35   0
   5  -1   9   98.80    7.80   0
  -5   1  -9  113.68    6.37   0
  -6   1  -9    1.14    7.63   0
   6  -1   9    1.22    7.51   0
   6  -1   9    8.04    7.34   0
   6  -1   9    8.68    7.70   0
   9   0  -9   10.62    7.52   0
  -9   0   9    0.59    7.57   0
   8   0  -9    8.75    5.84   0
  -8   0   9   13.92    7.11   0
   7   0  -9    4.64    5.66   0
  -7   0   9   11.17    5.70   0
   6   0  -9  593.61   14.60   0
   6   0  -9  626.83    8.86   0
  -6   0   9  630.71   15.90   0
  -6   0   9  607.94    8.75   0
   5   0  -9  115.83    7.45   0
  -5   0   9  112.30    9.08   0
   5   0  -9  119.88    9.63   0
  -5   0   9  119.05    6.12   0
   4   0  -9   22.09    6.85   0
   4   0  -9   12.37    6.81   0
  -4   0   9   25.34    8.40   0
  -4   0   9   15.56    6.90   0
  -3   0   9   31.53    5.58   0
   3   0  -9   22.09    7.14   0
   3   0  -9   27.25    5.56   0
  -3   0   9   26.44    7.32   0
  -2   0   9  302.66    6.49   0
  -2   0   9  302.61    6.49   0
   2   0  -9  313.59    7.09   0
  -2   0   9  304.36    8.41   0
  -1   0   9   21.02    5.55   0
  -1   0   9   15.21    5.45   0
   1   0  -9   21.14    6.83   0
  -1   0   9    8.01    7.33   0
   0   0   9   16.21    6.74   0
   0   0   9   23.96    5.38   0
   0   0  -9   18.04    7.09   0
   0   0   9   20.48    7.14   0
   1   0   9   14.75    6.81   0
   1   0   9    2.25    6.63   0
  -1   0  -9   11.18    5.75   0
   1   0   9    0.90    6.02   0
   2   0   9  299.53    7.98   0
   2   0   9  327.36    7.76   0
  -2   0  -9  317.55    6.97   0
   2   0   9  308.01    7.06   0
   3   0   9   10.31    6.98   0
   3   0   9    3.01    6.95   0
  -3   0  -9   -0.22    6.22   0
   3   0   9    4.39    7.70   0
   4   0   9   25.46    5.73   0
   4   0   9   23.85    6.92   0
  -4   0  -9   20.59    6.14   0
   4   0   9   29.52    7.44   0
   5   0   9    8.31    7.54   0
   5   0   9    9.75    8.50   0
   5   0   9   11.01    7.75   0
  -5   0  -9    6.48    7.77   0
   6   0   9    3.68    9.20   0
   6   0   9    4.00    7.71   0
   6   0   9    1.58    6.58   0
  -6   0  -9    5.26    7.92   0
   9  -1  -9   56.24    7.69   0
  -9   1   9   58.50    7.73   0
   8  -1  -9   -0.20    7.37   0
  -8   1   9    5.86    7.16   0
   7  -1  -9  253.66    7.87   0
  -7   1   9  220.57    7.85   0
   6  -1  -9    4.24    7.05   0
  -6   1   9   -1.72    9.93   0
   6  -1  -9    4.55    9.74   0
  -6   1   9   11.28    6.91   0
   5  -1  -9   80.72    9.31   0
   5  -1  -9   79.38    7.20   0
  -5   1   9   75.80    9.50   0
  -5   1   9   76.42    7.27   0
   4  -1  -9    6.33    5.59   0
  -4   1   9    4.88    8.37   0
   4  -1  -9    0.04    8.24   0
  -4   1   9    2.40    5.65   0
   3  -1  -9  539.54    8.43   0
  -3   1   9  536.24    9.12   0
   3  -1  -9  537.76    9.04   0
  -3   1   9  549.16    8.51   0
  -2   1   9   -1.22    6.67   0
   2  -1  -9   11.39    6.97   0
  -2   1   9   -4.14    6.90   0
  -1   1   9   11.74    5.34   0
  -1   1   9    6.37    5.32   0
   1  -1  -9    9.99    7.14   0
  -1   1   9   -3.78    5.91   0
   0   1   9   44.61    5.60   0
   0   1   9   34.73    5.47   0
   0  -1  -9   46.44    5.70   0
   0   1   9   64.82    7.40   0
   1   1   9  408.01    8.28   0
   1   1   9  428.10    7.15   0
  -1  -1  -9  437.93    7.63   0
   1   1   9  410.51    8.67   0
   2   1   9    9.06    7.03   0
   2   1   9    0.61    6.93   0
  -2  -1  -9    8.94    7.32   0
   2   1   9   12.81    7.57   0
   3   1   9   28.63    7.28   0
   3   1   9   15.48    6.79   0
  -3  -1  -9   16.25    7.40   0
   3   1   9   17.47    7.32   0
   4   1   9   -2.52    7.40   0
   4   1   9    0.48    7.19   0
  -4  -1  -9   -2.91    6.38   0
   4   1   9    0.52    7.71   0
   5   1   9   46.44    8.45   0
   5   1   9   44.71    7.96   0
   5   1   9   66.52    8.17   0
  -5  -1  -9   55.33    6.78   0
   9  -2  -9   -6.97    7.54   0
  -9   2   9    0.80    7.58   0
   8  -2  -9   52.31    6.04   0
  -8   2   9   50.99    7.31   0
   7  -2  -9   -0.12    5.91   0
   7  -2  -9    1.01   11.30   0
  -7   2   9    5.60    5.81   0
   6  -2  -9   62.63    9.60   0
   6  -2  -9   51.16    5.84   0
  -6   2   9   64.05    9.56   0
  -6   2   9   56.60    7.35   0
   5  -2  -9    7.96    6.99   0
  -5   2   9    3.55    8.22   0
   5  -2  -9    0.90    8.10   0
  -5   2   9   -3.06    7.08   0
   4  -2  -9  171.64    6.33   0
  -4   2   9  178.04    7.77   0
   4  -2  -9  182.45    7.63   0
  -4   2   9  150.81    7.59   0
   3  -2  -9   19.71    5.64   0
   3  -2  -9   25.05    7.02   0
  -3   2   9   19.26    8.23   0
  -3   2   9   21.77    6.93   0
   2  -2  -9  136.44    7.63   0
  -2   2   9  138.45    7.57   0
  -2   2   9  147.31    7.18   0
  -1   2   9    8.42    6.90   0
  -1   2   9   17.04    6.56   0
   1  -2  -9   17.50    7.05   0
  -1   2   9   12.09    6.96   0
   0   2   9   72.83    7.19   0
   0   2   9   85.22    6.86   0
   0  -2  -9  102.36    6.21   0
   0   2   9   86.27    6.24   0
   1   2   9   17.72    7.00   0
   1   2   9    7.45    6.83   0
  -1  -2  -9   13.94    7.43   0
   1   2   9   11.90    5.74   0
   2   2   9    3.52    7.18   0
   2   2   9   18.10    7.02   0
  -2  -2  -9   20.12    7.28   0
   2   2   9   19.11    7.25   0
   3   2   9    6.41    7.53   0
   3   2   9   14.81    7.40   0
  -3  -2  -9   18.69    6.44   0
   3   2   9   22.17    7.75   0
   4   2   9   65.60    8.59   0
   4   2   9   47.41    7.91   0
  -4  -2  -9   69.49    6.88   0
   4   2   9   59.94    6.82   0
   9  -3  -9    6.77    6.18   0
  -9   3   9    5.07    7.60   0
   8  -3  -9   11.77    6.07   0
  -8   3   9    2.47    7.53   0
   7  -3  -9   70.17    7.38   0
   7  -3  -9   -0.27    9.57   0
  -7   3   9   83.01    6.05   0
   6  -3  -9   11.18    7.07   0
  -6   3   9    0.63    8.18   0
   6  -3  -9    7.44    9.32   0
  -6   3   9    9.45    7.03   0
   5  -3  -9   67.98    6.27   0
  -5   3   9   86.38    8.55   0
   5  -3  -9   82.14    7.68   0
  -5   3   9   84.77    7.37   0
   4  -3  -9   28.73    6.89   0
   4  -3  -9   39.58    7.30   0
  -4   3   9   34.50    8.20   0
  -4   3   9   29.62    5.87   0
   3  -3  -9   96.65    7.37   0
   3  -3  -9   92.53    7.64   0
  -3   3   9   93.57    7.67   0
  -3   3   9   96.22    6.36   0
   2  -3  -9   15.03    7.17   0
  -2   3   9   14.58    7.13   0
  -2   3   9   19.68    5.70   0
  -1   3   9   75.75    6.98   0
   1  -3  -9   79.23    6.65   0
  -1   3   9   83.35    7.80   0
  -1   3   9   87.71    7.43   0
   0   3   9    4.84    5.54   0
   0  -3  -9   -0.24    7.03   0
   0   3   9    2.91    7.09   0
   0   3   9    6.59    6.94   0
   1   3   9   18.51    7.07   0
  -1  -3  -9   23.21    7.50   0
   1   3   9   16.32    7.29   0
   1   3   9   17.61    7.40   0
   2   3   9   10.63    7.56   0
   2   3   9    8.49    8.42   0
  -2  -3  -9   15.22    7.74   0
   2   3   9    2.91    6.23   0
   3   3   9   44.58    9.59   0
   3   3   9   74.79    9.32   0
  -3  -3  -9   62.27    8.15   0
   3   3   9   69.14    6.73   0
   8  -4  -9   54.11    7.88   0
   8  -4  -9    1.58   12.54   0
  -8   4   9   64.48    7.91   0
   7  -4  -9    9.72    6.12   0
  -7   4   9   -1.12    7.56   0
   7  -4  -9    1.33    9.09   0
   6  -4  -9    5.72    5.87   0
  -6   4   9    6.31    8.26   0
   6  -4  -9    8.66    8.66   0
  -6   4   9   10.33    5.99   0
   5  -4  -9   22.27    5.61   0
  -5   4   9   13.72    7.19   0
   5  -4  -9   28.83    7.59   0
  -5   4   9   24.44    5.94   0
   4  -4  -9  134.43    7.54   0
   4  -4  -9  147.89    8.07   0
  -4   4   9  133.20    7.88   0
  -4   4   9  133.64    6.42   0
   3  -4  -9    2.38    7.19   0
   3  -4  -9   14.62    7.12   0
  -3   4   9    5.46    7.13   0
  -3   4   9    4.06    7.17   0
   2  -4  -9   13.49    7.53   0
  -2   4   9    6.28    7.15   0
  -2   4   9   13.40    7.22   0
  -1   4   9    2.47    5.72   0
   1  -4  -9    0.49    7.63   0
  -1   4   9    0.09    5.82   0
  -1   4   9    7.37    7.10   0
   0   4   9   59.97    6.12   0
   0  -4  -9   53.72    7.75   0
   0   4   9   69.95    6.35   0
   0   4   9   57.08    7.61   0
   1   4   9    4.26    7.42   0
  -1  -4  -9   -1.95    7.55   0
   1   4   9    8.54    6.03   0
   1   4   9    6.71    7.83   0
   2   4   9   37.64    8.08   0
  -2  -4  -9   27.40    6.70   0
   2   4   9   21.59    7.90   0
   2   4   9   28.37    8.36   0
   8  -5  -9    0.06    7.75   0
  -8   5   9   -2.54    7.76   0
   8  -5  -9    0.70   10.47   0
   7  -5  -9   33.08    6.23   0
   7  -5  -9    2.59    8.59   0
  -7   5   9   20.59    7.74   0
   6  -5  -9   -1.46    7.35   0
   6  -5  -9   -0.72    9.13   0
  -6   5   9    1.33    7.45   0
   5  -5  -9   28.46    7.43   0
  -5   5   9   30.68    7.54   0
   5  -5  -9   29.87    9.10   0
  -5   5   9   28.34    7.50   0
   4  -5  -9    1.29    5.93   0
   4  -5  -9   -5.96    7.98   0
  -4   5   9   -4.17    7.47   0
  -4   5   9   -5.69    7.44   0
   3  -5  -9    3.93    7.18   0
   3  -5  -9    5.46    7.56   0
  -3   5   9    1.21    5.83   0
  -3   5   9    1.95    7.38   0
   2  -5  -9    3.53    7.68   0
  -2   5   9   11.04    7.36   0
  -2   5   9    3.22    7.42   0
  -1   5   9   60.92    7.74   0
   1  -5  -9   81.64    7.08   0
  -1   5   9   70.35    6.40   0
  -1   5   9   62.01    8.11   0
   0   5   9   -3.79    7.59   0
   0  -5  -9   -0.05    6.72   0
   0   5   9   15.80    7.85   0
   0   5   9   14.44    7.90   0
   6  -6  -9   44.78    6.43   0
   6  -6  -9   28.39    8.43   0
  -6   6   9   28.65    8.37   0
  -5   6   9    0.16    7.66   0
   5  -6  -9    5.12    8.05   0
   5  -6  -9   11.34    7.87   0
  -5   6   9    6.81    7.76   0
   4  -6  -9   11.08    7.81   0
   4  -6  -9   11.64    8.15   0
  -4   6   9   19.28    7.56   0
  -4   6   9    8.88    7.58   0
   3  -6  -9    2.95    6.26   0
   3  -6  -9   -1.00    6.63   0
  -3   6   9    2.85    7.73   0
  -3   6   9   -1.35    7.57   0
   1 -13  10  197.75    9.04   0
   1 -13  10  199.55    8.38   0
  -2  13 -10   -0.32    7.32   0
   2 -13  10    1.56    7.73   0
   2 -13  10    8.26    7.45   0
  -3  13 -10    8.08    5.97   0
   3 -13  10    3.28    7.76   0
   3 -13  10   11.21    7.53   0
  -4  13 -10   10.55    7.20   0
   4 -13  10   10.66    7.68   0
   4 -13  10    1.91    6.19   0
  -5  13 -10   32.46    7.77   0
   5 -13  10   45.20    6.54   0
   5 -13  10   33.70    7.95   0
  -1 -12  10   -3.65    7.79   0
  -1 -12  10   10.78    6.04   0
  -1 -12  10    1.72    7.73   0
  -1 -12  10   16.01    7.57   0
   0 -12  10  203.28    8.72   0
   0 -12  10  247.20    8.97   0
   0 -12  10  268.21    8.24   0
  -1  12 -10   10.57    7.00   0
   1 -12  10   -3.58    7.53   0
   1 -12  10   14.86    7.04   0
  -2  12 -10   12.50    7.17   0
   2 -12  10    9.96    7.42   0
   2 -12  10   17.03    5.95   0
  -3  12 -10    3.05    7.01   0
   3 -12  10    6.29    5.97   0
   3 -12  10   13.11    7.18   0
  -4  12 -10  178.66    6.66   0
   4 -12  10  181.59    6.78   0
   4 -12  10  177.17    8.04   0
  -5  12 -10    5.59    7.30   0
   5 -12  10   -1.15    7.35   0
   5 -12  10    5.41    6.01   0
   6 -12  10   17.30    7.85   0
  -6  12 -10   16.67    7.30   0
   6 -12  10   11.34    7.45   0
  -3 -11  10   28.58    9.56   0
  -3 -11  10   47.07    8.07   0
  -3 -11  10   33.09    9.55   0
  -3 -11  10   45.10    7.99   0
  -2 -11  10   10.67    8.99   0
  -2 -11  10   10.95    7.52   0
  -2 -11  10    7.82    7.66   0
  -2 -11  10   18.39    7.50   0
  -1 -11  10  173.35    8.60   0
  -1 -11  10  180.33    8.51   0
  -1 -11  10  205.94    6.76   0
   0 -11  10    2.25    6.91   0
   0 -11  10    5.57    7.09   0
   0 -11  10   -4.49    7.20   0
  -1  11 -10    1.78    6.91   0
   1 -11  10   13.11    7.14   0
   1 -11  10   14.38    5.74   0
   2 -11  10    0.46    5.74   0
   2 -11  10   16.97    6.82   0
  -2  11 -10    4.22    5.41   0
  -3  11 -10  300.71    7.87   0
   3 -11  10  300.92    6.78   0
   3 -11  10  301.79    8.20   0
   4 -11  10   13.87    6.96   0
  -4  11 -10   14.10    6.83   0
   4 -11  10   12.00    7.16   0
   5 -11  10    5.87    6.04   0
  -5  11 -10    4.38    6.67   0
   5 -11  10   18.70    5.75   0
  -6  11 -10   12.22    5.80   0
   6 -11  10   -0.42    6.01   0
   6 -11  10    2.31    7.58   0
  -7  11 -10  198.24    7.14   0
   7 -11  10  182.19    7.28   0
   7 -11  10  197.13    8.67   0
  -4 -10  10   87.60   11.00   0
  -4 -10  10   82.36    9.90   0
  -4 -10  10  100.79    8.33   0
  -4 -10  10  100.49    8.07   0
  -3 -10  10    4.82    7.61   0
  -3 -10  10    2.82    7.18   0
  -3 -10  10    9.48    8.57   0
  -3 -10  10    2.55    7.39   0
  -2 -10  10   26.24    7.31   0
  -2 -10  10   44.37    7.35   0
  -2 -10  10   42.62    7.21   0
  -1 -10  10   36.25    7.08   0
  -1 -10  10   36.10    7.24   0
  -1 -10  10   36.35    5.89   0
   0 -10  10   18.28    6.64   0
   0 -10  10   30.08    7.01   0
   0 -10  10   22.01    5.81   0
  -1  10 -10    8.44    6.57   0
   1 -10  10    9.00    6.77   0
   1 -10  10   13.24    6.90   0
  -2  10 -10  328.48    7.73   0
   2 -10  10  338.57    7.83   0
   2 -10  10  331.08    7.98   0
   3 -10  10    2.54    5.73   0
  -3  10 -10    3.46    6.57   0
   3 -10  10   -0.55    6.41   0
   4 -10  10    7.05    7.15   0
  -4  10 -10   12.52    5.19   0
   4 -10  10   13.25    6.79   0
  -5  10 -10    2.08    6.79   0
   5 -10  10    0.52    6.92   0
   5 -10  10    9.81    7.02   0
  -6  10 -10  318.97    8.33   0
  -6  10 -10  311.50    6.99   0
   6 -10  10  258.40    8.21   0
   6 -10  10  304.92    8.41   0
  -7  10 -10   -4.75    5.76   0
  -7  10 -10   11.56    5.87   0
   7 -10  10   -8.28    5.86   0
   7 -10  10   -0.69    6.01   0
  -5  -9  10  184.08   10.83   0
  -5  -9  10  225.02    9.29   0
  -5  -9  10  236.93   10.16   0
  -5  -9  10  211.42   10.74   0
  -4  -9  10    9.17    8.61   0
  -4  -9  10   -0.15    8.41   0
  -4  -9  10    7.53    7.35   0
  -4  -9  10   -4.19    7.19   0
  -3  -9  10    8.24    7.07   0
  -3  -9  10    3.04    8.24   0
  -3  -9  10    2.86    7.06   0
  -3  -9  10    5.83    8.09   0
  -2  -9  10   74.18    7.04   0
  -2  -9  10   95.82    7.09   0
  -2  -9  10   74.78    7.14   0
  -1  -9  10  353.45    8.05   0
  -1  -9  10  380.40    8.30   0
  -1  -9  10  387.02    7.13   0
   0  -9  10    6.14    6.39   0
   0  -9  10    6.10    5.33   0
   0  -9  10   18.79    6.57   0
  -1   9 -10  254.74    6.35   0
   1  -9  10  228.12    6.50   0
   1  -9  10  244.48    7.40   0
   2  -9  10    0.59    5.48   0
  -2   9 -10    3.76    5.34   0
   2  -9  10    1.75    5.45   0
   3  -9  10  339.64    8.07   0
  -3   9 -10  356.00    7.78   0
  -3   9 -10  351.76    6.87   0
   3  -9  10  315.85    6.76   0
  -4   9 -10    5.38    6.70   0
   4  -9  10   10.36    6.92   0
  -4   9 -10    8.14    5.60   0
   4  -9  10    1.79    5.79   0
  -5   9 -10  132.19    6.18   0
  -5   9 -10  126.83    7.23   0
   5  -9  10  110.64    6.09   0
   5  -9  10  120.12    6.12   0
  -6   9 -10   -0.23    5.55   0
   6  -9  10    1.22    6.94   0
   6  -9  10   19.78    7.18   0
  -6   9 -10    9.55    6.99   0
  -7   9 -10    4.31    6.00   0
   7  -9  10   10.24    7.28   0
   7  -9  10    6.79    7.68   0
  -7   9 -10   -0.93    7.42   0
  -8   9 -10    8.91    7.56   0
  -8   9 -10   -3.32    6.29   0
   8  -9  10    7.32    8.02   0
   8  -9  10   -0.15    7.49   0
  -6  -8  10  137.97   10.33   0
  -6  -8  10  153.89   10.28   0
  -6  -8  10  141.74   11.46   0
  -6  -8  10  130.69   10.46   0
  -5  -8  10    2.78    8.65   0
  -5  -8  10    7.72    7.32   0
  -5  -8  10    8.66    8.56   0
  -5  -8  10    2.92    8.70   0
  -4  -8  10   24.96    7.21   0
  -4  -8  10   22.84    7.22   0
  -4  -8  10   23.28    7.22   0
  -4  -8  10   27.05    7.20   0
  -3  -8  10   -0.78    6.73   0
  -3  -8  10    5.83    6.64   0
  -3  -8  10    8.37    6.72   0
  -2  -8  10  503.68    8.84   0
  -2  -8  10  544.75    7.90   0
  -2  -8  10  551.43    9.02   0
  -1  -8  10   13.17    5.39   0
  -1  -8  10   12.90    6.82   0
  -1  -8  10   10.73    6.83   0
   0  -8  10   11.27    6.78   0
   0  -8  10   10.80    6.75   0
   0  -8  10   23.66    6.51   0
   1  -8  10   -0.83    5.23   0
   1  -8  10    4.82    5.47   0
   2  -8  10  889.84    8.59   0
  -2   8 -10  917.62    9.28   0
   2  -8  10  887.16    9.34   0
  -2   8 -10  906.80    8.45   0
  -3   8 -10   35.25    5.54   0
   3  -8  10   20.11    5.52   0
  -3   8 -10   50.43    6.95   0
   3  -8  10   38.18    7.01   0
  -4   8 -10    8.71    6.65   0
  -4   8 -10    1.81    5.62   0
   4  -8  10   15.41    5.66   0
   4  -8  10   18.04    7.10   0
  -5   8 -10    5.23    5.71   0
  -5   8 -10   -4.96    6.91   0
   5  -8  10    3.51    5.72   0
   5  -8  10   11.00    7.26   0
  -6   8 -10   73.95    5.82   0
   6  -8  10   64.41    5.91   0
   6  -8  10   74.06    7.44   0
  -6   8 -10   49.46    7.32   0
  -7   8 -10    2.67    7.25   0
   7  -8  10    8.65    6.09   0
   7  -8  10    3.53    7.34   0
  -7   8 -10    4.77    5.94   0
  -8   8 -10   35.70    7.69   0
   8  -8  10   42.05    8.38   0
   8  -8  10   38.66    6.29   0
  -8   8 -10   53.27    6.44   0
  -6  -7  10    5.88    8.70   0
  -6  -7  10    4.30    8.67   0
  -6  -7  10    7.63    8.89   0
  -6  -7  10   -0.84    8.67   0
  -5  -7  10    9.45    8.14   0
  -5  -7  10    3.89    8.22   0
  -5  -7  10    2.53    8.50   0
  -5  -7  10    8.60    7.14   0
  -4  -7  10    8.48    6.72   0
  -4  -7  10    1.74    8.07   0
  -4  -7  10    5.12    6.71   0
  -3  -7  10  515.46    8.92   0
  -3  -7  10  560.56    9.38   0
  -3  -7  10  566.57    8.88   0
  -2  -7  10    5.49    6.88   0
  -2  -7  10    3.20    5.53   0
  -2  -7  10   -2.05    6.63   0
  -1  -7  10   51.72    6.90   0
  -1  -7  10   34.39    5.29   0
  -1  -7  10   34.73    6.69   0
   0  -7  10   20.68    6.80   0
   0  -7  10   12.32    5.19   0
   0  -7  10    0.52    5.33   0
   0   7 -10    5.12    6.60   0
   1  -7  10  487.08    8.09   0
  -1   7 -10  494.41    8.19   0
   1  -7  10  491.72    7.10   0
  -2   7 -10   -4.55    6.81   0
  -2   7 -10   10.94    6.53   0
   2  -7  10   -2.92    5.53   0
   2  -7  10   15.53    5.54   0
  -3   7 -10   -3.53    6.56   0
   3  -7  10    6.83    6.62   0
   3  -7  10    2.79    6.99   0
  -3   7 -10   11.65    6.91   0
  -4   7 -10   19.54    5.54   0
   4  -7  10   12.01    6.91   0
  -4   7 -10    5.81    5.81   0
   4  -7  10   11.73    5.93   0
  -5   7 -10   83.20    5.80   0
  -5   7 -10  101.83    7.45   0
   5  -7  10   79.92    5.97   0
   5  -7  10  102.23    6.34   0
  -6   7 -10   16.47    5.60   0
  -6   7 -10    5.72    5.83   0
   6  -7  10   12.80    5.94   0
   6  -7  10   11.29    5.48   0
  -7   7 -10   24.32    7.22   0
  -7   7 -10   29.12    7.42   0
   7  -7  10   23.70    7.75   0
   7  -7  10   27.20    7.18   0
  -8   7 -10   -1.38    7.33   0
   8  -7  10   -1.34    8.28   0
  -8   7 -10    4.55    6.38   0
   8  -7  10   16.96    7.67   0
  -7  -6  10   -0.80    8.85   0
  -7  -6  10    4.54   11.94   0
  -7  -6  10   -3.09   12.37   0
  -7  -6  10   -2.17    8.91   0
  -6  -6  10  148.36    8.17   0
  -6  -6  10  141.07   10.78   0
  -6  -6  10  152.19   10.67   0
  -6  -6  10  126.10    8.08   0
  -5  -6  10    6.55    7.00   0
  -5  -6  10    6.23    7.22   0
  -5  -6  10    6.30    8.19   0
  -5  -6  10    3.66    8.10   0
  -4  -6  10  326.69    8.14   0
  -4  -6  10  325.95    8.21   0
  -4  -6  10  343.05    9.67   0
  -3  -6  10    7.88    6.79   0
  -3  -6  10    8.09    6.65   0
  -3  -6  10    2.20    6.86   0
  -2  -6  10  128.35    7.12   0
  -2  -6  10  129.27    7.05   0
  -2  -6  10  140.20    7.39   0
  -1  -6  10    8.65    6.69   0
  -1  -6  10    1.65    6.72   0
   1   6 -10   -2.39    6.48   0
  -1  -6  10    1.08    6.90   0
   0   6 -10  696.74    9.03   0
   0  -6  10  646.95    7.57   0
   0  -6  10  673.04    7.77   0
   0  -6  10  659.55    8.20   0
   1  -6  10    3.75    6.48   0
   1  -6  10   12.64    5.34   0
  -1   6 -10   16.84    5.46   0
   1  -6  10   12.29    6.91   0
   2  -6  10   78.33    6.95   0
  -2   6 -10   66.53    6.95   0
   2  -6  10   76.71    7.12   0
  -3   6 -10   46.84    7.04   0
  -3   6 -10   50.52    5.49   0
   3  -6  10   51.08    5.62   0
   3  -6  10   38.92    5.83   0
  -4   6 -10  739.22    8.16   0
  -4   6 -10  736.79    7.89   0
   4  -6  10  699.71    7.86   0
   4  -6  10  723.24    9.46   0
  -5   6 -10   -2.34    5.67   0
   5  -6  10    0.29    5.89   0
   5  -6  10    0.64    5.54   0
  -5   6 -10    1.32    5.82   0
  -6   6 -10    8.92    7.26   0
  -6   6 -10   -3.39    5.43   0
   6  -6  10    0.71    6.10   0
   6  -6  10   -2.23    5.62   0
  -7   6 -10    6.71    7.34   0
  -7   6 -10    7.25    7.09   0
   7  -6  10   -5.82    6.27   0
   7  -6  10   -4.21    7.25   0
  -8   6 -10   86.94    6.89   0
   8  -6  10   69.26    7.17   0
  -8   6 -10   83.39    6.80   0
   8  -6  10   76.59    8.22   0
  -7  -5  10  180.02    8.69   0
  -7  -5  10  191.32   19.98   0
  -7  -5  10  199.37    8.55   0
  -7  -5  10  194.52   20.37   0
  -6  -5  10    7.13    7.05   0
  -6  -5  10    6.55    9.31   0
  -6  -5  10   22.13   10.34   0
  -6  -5  10   15.38    7.29   0
  -5  -5  10  128.49    7.77   0
  -5  -5  10  158.94    7.70   0
  -5  -5  10  150.83    9.26   0
  -4  -5  10    5.01    6.67   0
  -4  -5  10   12.67    6.59   0
  -4  -5  10   12.86    8.08   0
  -3  -5  10  415.27    8.24   0
  -3  -5  10  454.79    7.38   0
  -3  -5  10  438.64    8.87   0
  -2  -5  10    3.64    5.34   0
   2   5 -10   11.41    6.62   0
  -2  -5  10    8.84    5.38   0
  -2  -5  10    5.20    7.03   0
  -1  -5  10   51.31    6.93   0
  -1  -5  10   61.42    5.64   0
  -1  -5  10   52.69    7.20   0
   1   5 -10   59.68    6.84   0
   0  -5  10   12.89    5.44   0
   0  -5  10   18.15    6.75   0
   0   5 -10   21.62    6.87   0
   0  -5  10   14.55    7.10   0
  -1   5 -10    9.94    6.69   0
   1  -5  10    6.39    6.32   0
   1  -5  10   14.43    5.53   0
   1  -5  10   11.37    5.64   0
   2  -5  10   10.95    6.61   0
   2  -5  10    6.41    5.37   0
   2  -5  10   12.39    6.98   0
  -2   5 -10    7.48    5.44   0
   3  -5  10  281.05    6.54   0
   3  -5  10  276.64    8.02   0
  -3   5 -10  297.60    6.81   0
  -4   5 -10   14.82    6.56   0
   4  -5  10    6.70    6.04   0
   4  -5  10   14.50    6.77   0
  -4   5 -10    9.05    5.73   0
  -5   5 -10   -4.89    5.17   0
   5  -5  10   12.44    7.45   0
   5  -5  10    0.95    5.40   0
  -5   5 -10   15.48    5.84   0
   6  -5  10   -1.14    6.21   0
  -6   5 -10    4.03    5.78   0
   6  -5  10   13.25    6.93   0
  -6   5 -10    0.06    5.85   0
   7  -5  10  130.81    8.61   0
  -7   5 -10  154.76    6.62   0
   7  -5  10  125.45    7.96   0
  -7   5 -10  155.49    8.22   0
  -8  -4  10  135.39    8.77   0
  -8  -4  10  157.38    8.69   0
  -7  -4  10    4.15    7.65   0
  -7  -4  10    7.90    7.41   0
  -6  -4  10    6.79    6.90   0
  -6  -4  10    5.01   11.37   0
  -6  -4  10    3.48   10.84   0
  -6  -4  10    1.34    7.20   0
  -5  -4  10   19.05    7.07   0
  -5  -4  10    2.46    9.53   0
  -5  -4  10    5.90    5.58   0
  -4  -4  10  575.33    7.68   0
  -4  -4  10  574.37    8.90   0
  -4  -4  10  572.47   11.12   0
   3   4 -10    7.93    6.70   0
  -3  -4  10    5.19    6.50   0
  -3  -4  10    2.23    6.61   0
  -3  -4  10    1.42    7.28   0
  -2  -4  10    5.39    6.62   0
  -2  -4  10    5.64    6.51   0
  -2  -4  10    7.79    7.02   0
   2   4 -10    5.89    6.55   0
   1   4 -10    1.69    6.70   0
  -1  -4  10   10.41    5.51   0
  -1  -4  10   -4.54    6.84   0
  -1  -4  10   -2.43    5.95   0
   0  -4  10  207.80    6.24   0
   0  -4  10  216.53    6.15   0
   0  -4  10  207.49    7.85   0
   0   4 -10  217.90    7.56   0
   1  -4  10   12.98    5.27   0
   1  -4  10   18.14    5.51   0
   1  -4  10   12.86    7.16   0
  -1   4 -10   21.14    5.65   0
   2  -4  10  136.78    7.13   0
   2  -4  10  153.71    6.49   0
   2  -4  10  134.74    5.96   0
  -2   4 -10  139.13    7.32   0
   3  -4  10   11.01    7.42   0
   3  -4  10    2.13    6.62   0
   3  -4  10   -2.02    6.43   0
  -3   4 -10    3.66    5.65   0
   4  -4  10   26.81    7.40   0
   4  -4  10    7.85    6.59   0
  -4   4 -10   13.41    5.89   0
   5  -4  10    5.18    7.55   0
  -5   4 -10    7.57    5.95   0
   5  -4  10   11.66    6.84   0
   6  -4  10   65.86    6.78   0
   6  -4  10   63.79    7.30   0
  -6   4 -10   91.55    7.73   0
   7  -4  10   11.54    8.12   0
   7  -4  10    6.37    7.53   0
  -7   4 -10   -2.87    7.51   0
  -8  -3  10    3.81    7.61   0
  -7  -3  10   26.60    7.30   0
  -6  -3  10   44.67   12.46   0
  -6  -3  10   36.42    7.10   0
  -5  -3  10  230.11   11.06   0
  -5  -3  10  249.50    6.64   0
  -5  -3  10  240.94    6.47   0
  -4  -3  10   -2.35    6.58   0
   4   3 -10    8.32    7.82   0
  -4  -3  10    4.09    6.52   0
  -4  -3  10    2.09    7.42   0
  -3  -3  10   30.17    6.62   0
  -3  -3  10   35.19    6.69   0
  -3  -3  10   30.52    8.47   0
   3   3 -10   25.36    7.01   0
  -2  -3  10   12.00    5.42   0
  -2  -3  10   16.24    5.49   0
  -2  -3  10   17.13    7.09   0
   2   3 -10   12.32    6.73   0
  -1  -3  10  706.92    7.94   0
  -1  -3  10  714.66    7.86   0
  -1  -3  10  708.51    9.58   0
   1   3 -10  740.71    9.26   0
   0  -3  10   19.45    6.65   0
   0  -3  10   10.35    7.23   0
   0  -3  10   12.90    5.50   0
   0   3 -10   16.19    6.91   0
   1  -3  10   11.39    5.79   0
   1  -3  10   22.00    5.43   0
   1  -3  10   12.58    6.65   0
  -1   3 -10   13.49    5.56   0
   2  -3  10   16.59    5.93   0
  -2   3 -10    5.26    5.70   0
   2  -3  10    4.82    6.81   0
   2  -3  10    8.33    5.39   0
   3  -3  10  192.96    8.11   0
  -3   3 -10  197.33    6.73   0
   3  -3  10  179.62    6.25   0
   3  -3  10  178.65    7.36   0
   4  -3  10   -8.18    6.05   0
  -4   3 -10   10.46    5.92   0
   4  -3  10    5.57    6.75   0
   4  -3  10    2.23    5.35   0
   5  -3  10   55.64    6.42   0
  -5   3 -10   61.50    7.50   0
   5  -3  10   41.84    7.11   0
   5  -3  10   44.37    7.04   0
   6  -3  10    2.87    6.45   0
  -6   3 -10    5.02    6.22   0
   6  -3  10   11.24    7.48   0
   6  -3  10    1.94    5.88   0
   8   2 -10   76.85    7.78   0
  -8  -2  10   88.05    7.86   0
   7   2 -10   10.86    7.18   0
  -7  -2  10   10.61    7.16   0
   6   2 -10  103.95    7.08   0
  -6  -2  10   92.14   12.73   0
  -6  -2  10   95.39    7.27   0
   5   2 -10   10.78    8.85   0
  -5  -2  10   11.97    6.88   0
  -5  -2  10   10.74    9.63   0
  -4  -2  10   -1.53    6.96   0
  -4  -2  10   10.73    8.62   0
  -4  -2  10    1.29    5.60   0
   4   2 -10    4.81    6.82   0
  -3  -2  10   97.98    5.91   0
  -3  -2  10  108.92    7.73   0
  -3  -2  10  103.98    5.85   0
   3   2 -10  125.82    8.41   0
  -2  -2  10  603.49    7.50   0
  -2  -2  10  602.74   10.00   0
  -2  -2  10  639.66    7.67   0
   2   2 -10  630.66    9.72   0
  -1  -2  10   11.11    6.70   0
  -1  -2  10   17.22    7.60   0
  -1  -2  10   20.74    6.64   0
   1   2 -10    6.01    7.02   0
   0  -2  10   10.99    7.21   0
   0  -2  10   14.22    6.62   0
   0   2 -10    8.19    6.86   0
   0  -2  10    1.64    6.69   0
   1  -2  10   15.33    7.09   0
  -1   2 -10   12.88    6.76   0
   1  -2  10   15.38    5.42   0
   1  -2  10   22.13    5.36   0
   2  -2  10  510.29    7.96   0
  -2   2 -10  534.58    8.90   0
   2  -2  10  476.58    8.52   0
   2  -2  10  484.96    7.30   0
   3  -2  10   16.69    5.98   0
  -3   2 -10   20.04    5.92   0
   3  -2  10   10.05    6.90   0
   3  -2  10   18.19    6.71   0
   4  -2  10   12.54    7.65   0
  -4   2 -10   11.24    7.44   0
   4  -2  10   10.08    6.79   0
   4  -2  10   14.16    5.66   0
  -5   2 -10    1.78    7.66   0
   5  -2  10    9.67    7.45   0
   5  -2  10    9.56    6.00   0
   5  -2  10   -6.25    6.25   0
  -6   2 -10   94.47    8.18   0
   6  -2  10   76.84    8.13   0
   6  -2  10   75.51    7.99   0
   6  -2  10   74.05    8.59   0
   9   1 -10   53.09    6.76   0
  -9  -1  10   54.34    8.16   0
   8   1 -10   13.79    7.39   0
  -8  -1  10   20.93    7.29   0
   7   1 -10    9.74    5.86   0
  -7  -1  10   17.24    7.03   0
   6   1 -10    7.43    6.96   0
  -6  -1  10    3.59   11.93   0
  -6  -1  10    2.12    5.45   0
   5   1 -10   51.17    7.03   0
   5   1 -10   63.09    8.33   0
  -5  -1  10   56.35    9.63   0
  -5  -1  10   62.33    7.07   0
  -4  -1  10   92.58    6.12   0
   4   1 -10  106.18    8.26   0
  -4  -1  10  109.53    7.72   0
  -3  -1  10  155.60    6.13   0
  -3  -1  10  156.02    7.16   0
   3   1 -10  160.21    7.71   0
  -3  -1  10  162.56    8.17   0
  -2  -1  10    8.15    7.26   0
  -2  -1  10    2.36    6.79   0
   2   1 -10   12.67    7.00   0
  -2  -1  10    3.86    6.69   0
  -1  -1  10   18.71    7.15   0
   1   1 -10    3.04    6.98   0
  -1  -1  10   14.31    6.74   0
  -1  -1  10    3.08    6.67   0
   0   1 -10    0.14    6.84   0
   0  -1  10   -4.57    5.80   0
   0  -1  10   -6.23    5.58   0
   0  -1  10   10.99    6.59   0
   1  -1  10  268.22    8.19   0
   1  -1  10  260.94    6.56   0
   1  -1  10  269.08    7.51   0
  -1   1 -10  301.98    6.59   0
   2  -1  10    2.51    7.34   0
   2  -1  10   -6.54    6.94   0
   2  -1  10    3.63    5.43   0
  -2   1 -10    0.10    7.21   0
   3  -1  10   40.38    7.09   0
   3  -1  10   25.20    6.76   0
  -3   1 -10   26.12    6.12   0
   3  -1  10   24.96    7.52   0
   4  -1  10    1.02    7.25   0
   4  -1  10    3.91    7.03   0
   4  -1  10    2.73    7.69   0
  -4   1 -10   14.47    7.39   0
  -5   1 -10  156.59    7.09   0
   5  -1  10  142.75    8.56   0
   5  -1  10  148.59    7.92   0
   5  -1  10  161.93    8.48   0
   9   0 -10    5.28    7.75   0
  -9   0  10    2.00    7.84   0
   8   0 -10   12.66    7.23   0
  -8   0  10   -3.38    6.02   0
   7   0 -10   17.48    7.02   0
  -7   0  10    6.26    7.01   0
   6   0 -10  292.64    6.88   0
  -6   0  10  266.30   12.27   0
  -6   0  10  276.46    7.73   0
   6   0 -10    1.94    8.93   0
   5   0 -10    7.59    5.62   0
  -5   0  10   11.03    9.43   0
   5   0 -10   10.09    8.95   0
  -5   0  10   -1.45    6.94   0
   4   0 -10   83.60    8.28   0
   4   0 -10   87.69    5.77   0
  -4   0  10   73.19    7.65   0
  -4   0  10   80.95    5.96   0
  -3   0  10    9.05    6.85   0
   3   0 -10   12.94    7.22   0
  -3   0  10   11.21    7.48   0
  -2   0  10   88.58    7.16   0
  -2   0  10   97.36    5.79   0
  -2   0  10   88.17    7.52   0
   2   0 -10   88.22    7.23   0
  -1   0  10   -2.33    5.49   0
  -1   0  10   -9.03    5.42   0
   1   0 -10    5.99    6.94   0
  -1   0  10    7.68    7.20   0
   0   0  10  132.39    5.88   0
   0   0  10  141.58    7.26   0
   0   0 -10  148.23    6.21   0
   0   0  10  143.06    6.51   0
   1   0  10    7.52    6.93   0
   1   0  10    0.01    6.84   0
  -1   0 -10    5.52    6.92   0
   1   0  10   -6.18    7.15   0
   2   0  10   29.28    6.87   0
   2   0  10   22.69    6.84   0
  -2   0 -10   31.33    7.44   0
   2   0  10   31.97    6.11   0
   3   0  10    9.74    7.23   0
   3   0  10   13.22    7.08   0
  -3   0 -10   11.85    7.35   0
   3   0  10    9.08    7.48   0
   4   0  10  126.50    8.26   0
   4   0  10  122.31    7.88   0
   4   0  10  116.39    8.26   0
  -4   0 -10  115.76    8.24   0
   9  -1 -10   -0.54    6.45   0
  -9   1  10  -10.44    6.34   0
   8  -1 -10    5.48    7.29   0
  -8   1  10    4.51    6.18   0
   7  -1 -10  198.05    7.70   0
  -7   1  10  168.05    7.91   0
   6  -1 -10    4.85    7.18   0
  -6   1  10   13.35    9.23   0
   6  -1 -10    2.17    9.24   0
  -6   1  10   18.40    7.09   0
   5  -1 -10   24.22    8.19   0
   5  -1 -10   24.03    7.04   0
  -5   1  10   21.89    8.42   0
  -5   1  10   31.53    7.01   0
   4  -1 -10   -0.71    7.26   0
   4  -1 -10    9.84    6.87   0
  -4   1  10   -5.64    7.28   0
  -4   1  10    4.01    5.65   0
  -3   1  10  227.98    8.15   0
   3  -1 -10  229.84    7.98   0
  -3   1  10  220.91    7.72   0
  -2   1  10    8.30    6.50   0
  -2   1  10    6.51    5.40   0
  -2   1  10    1.51    6.76   0
   2  -1 -10    8.76    6.87   0
  -1   1  10   57.17    6.99   0
  -1   1  10   61.99    5.57   0
   1  -1 -10   64.74    7.32   0
  -1   1  10   66.74    7.32   0
   0   1  10    8.70    5.73   0
   0   1  10    7.55    6.81   0
   0  -1 -10    5.14    5.78   0
   0   1  10   -4.43    7.09   0
   1   1  10  113.68    6.32   0
   1   1  10  116.18    7.26   0
  -1  -1 -10  123.68    6.42   0
   1   1  10  115.93    7.80   0
   2   1  10    5.41    7.29   0
   2   1  10    9.73    6.93   0
  -2  -1 -10   20.17    7.25   0
   2   1  10   12.43    5.93   0
   3   1  10   35.00    7.63   0
   3   1  10   48.76    7.42   0
  -3  -1 -10   46.03    7.87   0
   3   1  10   55.42    7.79   0
   4   1  10   -2.73    7.99   0
   4   1  10   19.41    9.05   0
   4   1  10    2.46    6.57   0
  -4  -1 -10    5.99    6.57   0
   8  -2 -10   49.13    6.28   0
  -8   2  10   47.33    7.65   0
   7  -2 -10    0.58   10.42   0
   7  -2 -10   13.95    7.42   0
  -7   2  10    2.73    6.04   0
   6  -2 -10   -0.28    7.57   0
   6  -2 -10    0.25    7.10   0
  -6   2  10    6.28    8.42   0
  -6   2  10    3.13    5.90   0
   5  -2 -10   12.25    5.86   0
  -5   2  10    6.15    8.22   0
  -5   2  10   13.26    5.86   0
   5  -2 -10   12.66    8.13   0
   4  -2 -10  220.08    6.55   0
  -4   2  10  237.59    8.21   0
   4  -2 -10  240.57    8.15   0
  -4   2  10  215.71    7.82   0
  -3   2  10   28.88    7.24   0
   3  -2 -10   36.38    7.06   0
  -3   2  10   25.09    5.72   0
  -2   2  10    5.34    6.60   0
   2  -2 -10   11.93    7.10   0
  -2   2  10   12.19    6.99   0
  -2   2  10   13.90    7.02   0
  -1   2  10   15.70    6.97   0
  -1   2  10    9.21    6.71   0
   1  -2 -10   11.15    7.21   0
  -1   2  10    6.20    5.81   0
   0   2  10  153.28    7.72   0
   0   2  10  151.12    7.44   0
   0  -2 -10  183.14    7.86   0
   0   2  10  156.44    7.84   0
   1   2  10   19.60    5.95   0
   1   2  10   20.09    7.17   0
  -1  -2 -10   15.97    6.20   0
   1   2  10   15.61    7.61   0
   2   2  10    5.34    7.61   0
   2   2  10    5.09    7.39   0
  -2  -2 -10   11.26    6.26   0
   2   2  10    0.11    6.23   0
   3   2  10    2.14    8.09   0
   3   2  10    7.25    8.95   0
  -3  -2 -10    8.23    6.52   0
   3   2  10   19.73    6.45   0
   8  -3 -10    5.41    6.33   0
  -8   3  10   -2.30    8.02   0
   7  -3 -10    5.05    7.53   0
   7  -3 -10   -1.14    9.10   0
  -7   3  10    1.23    7.53   0
   6  -3 -10   17.27    7.30   0
  -6   3  10   -0.25    8.62   0
  -6   3  10    0.56    6.01   0
   6  -3 -10    1.88    8.01   0
   5  -3 -10   91.76    7.60   0
  -5   3  10   94.44    7.80   0
   5  -3 -10  101.11    7.88   0
  -5   3  10   83.97    7.52   0
   4  -3 -10    8.14    7.16   0
  -4   3  10    3.13    7.29   0
   4  -3 -10    4.19    7.37   0
  -4   3  10    8.41    5.92   0
   3  -3 -10   56.33    7.66   0
  -3   3  10   54.24    7.50   0
  -3   3  10   59.89    7.34   0
  -2   3  10   16.11    6.88   0
   2  -3 -10   19.71    7.22   0
  -2   3  10   13.63    7.30   0
  -2   3  10   10.50    5.90   0
  -1   3  10  110.51    6.34   0
   1  -3 -10  116.90    7.96   0
  -1   3  10  119.34    7.89   0
  -1   3  10  110.53    6.44   0
   0   3  10    6.84    7.40   0
   0  -3 -10   -5.65    6.43   0
   0   3  10   -3.07    6.29   0
   0   3  10   -6.07    7.10   0
   1   3  10    3.43    7.20   0
  -1  -3 -10    0.64    6.28   0
   1   3  10    8.94    6.18   0
   1   3  10   -0.03    7.85   0
  -7   4  10   17.38    6.56   0
   7  -4 -10    9.37    7.80   0
   7  -4 -10    3.18    9.69   0
   6  -4 -10   18.17    7.53   0
  -6   4  10   12.73    8.99   0
   6  -4 -10   -1.25    7.37   0
  -6   4  10   16.58    6.21   0
   5  -4 -10   -1.46    7.36   0
  -5   4  10   10.23    8.59   0
   5  -4 -10   11.90    7.70   0
  -5   4  10    8.02    6.22   0
   4  -4 -10   22.82    6.35   0
  -4   4  10   35.70    7.46   0
   4  -4 -10   27.99    7.79   0
  -4   4  10   27.05    6.00   0
   3  -4 -10    9.49    7.71   0
  -3   4  10   10.24    7.50   0
  -3   4  10   10.22    5.88   0
  -2   4  10   43.19    6.08   0
   2  -4 -10   58.98    7.94   0
  -2   4  10   44.90    7.93   0
  -2   4  10   53.54    6.37   0
  -1   4  10    5.34    7.46   0
   1  -4 -10   -1.15    7.79   0
  -1   4  10    3.74    6.25   0
  -1   4  10   -3.80    7.83   0
   0   4  10    8.95    7.67   0
   0  -4 -10   -0.63    7.90   0
   0   4  10    9.85    7.50   0
   0   4  10   -2.20    7.86   0
   5  -5 -10   46.76    6.47   0
  -5   5  10   50.82    8.11   0
   5  -5 -10   49.03    8.53   0
  -5   5  10   40.71    7.89   0
   4  -5 -10    0.74    7.63   0
  -4   5  10    6.16    7.60   0
   4  -5 -10    3.76    8.02   0
  -4   5  10   11.89    7.77   0
   3  -5 -10    8.74    6.81   0
  -3   5  10    4.74    7.77   0
  -3   5  10   10.37    7.84   0
   0 -12  11  120.41    8.41   0
   0 -12  11  143.25    8.72   0
   0 -12  11  169.42    6.98   0
   1 -12  11   -2.68    6.01   0
   1 -12  11   -4.72    7.54   0
  -2  12 -11   14.49    7.16   0
   2 -12  11   25.70    7.35   0
   2 -12  11    5.58    6.11   0
  -3  12 -11    7.38    7.11   0
   3 -12  11    5.18    6.00   0
   3 -12  11   -2.18    7.41   0
   4 -12  11   10.67    6.24   0
   4 -12  11   24.37    7.38   0
  -4  12 -11   10.19    7.41   0
   5 -12  11   18.00    7.75   0
  -5  12 -11   14.30    7.47   0
   5 -12  11   16.87    7.57   0
  -2 -11  11    0.77    8.91   0
  -2 -11  11    9.08    7.58   0
  -2 -11  11   -4.11    7.63   0
  -2 -11  11   -0.18    6.18   0
  -1 -11  11  211.13    8.81   0
  -1 -11  11  228.47    9.00   0
  -1 -11  11  286.58    8.67   0
   0 -11  11   38.92    7.21   0
   0 -11  11   45.30    7.33   0
   0 -11  11   45.32    7.40   0
   1 -11  11   14.85    5.93   0
   1 -11  11   13.10    5.69   0
  -2  11 -11   -7.52    6.76   0
   2 -11  11   13.93    7.23   0
   2 -11  11    4.88    7.10   0
   3 -11  11  120.85    7.77   0
  -3  11 -11  106.65    6.00   0
   3 -11  11  102.69    7.57   0
   4 -11  11    3.37    7.42   0
  -4  11 -11   -2.21    6.73   0
   4 -11  11   -0.87    5.74   0
  -5  11 -11   22.94    7.08   0
   5 -11  11   29.00    7.19   0
   5 -11  11   27.68    6.18   0
  -6  11 -11    6.95    7.29   0
   6 -11  11   11.27    7.62   0
   6 -11  11    4.95    6.44   0
  -3 -10  11    2.16    7.68   0
  -3 -10  11    9.15    7.60   0
  -3 -10  11    9.80    7.78   0
  -3 -10  11    7.08    7.46   0
  -2 -10  11  223.10    8.93   0
  -2 -10  11  265.93    8.50   0
  -2 -10  11  235.43    8.82   0
  -1 -10  11   16.49    6.94   0
  -1 -10  11   -0.20    7.17   0
  -1 -10  11   -1.40    7.20   0
   0 -10  11   12.58    6.94   0
   0 -10  11   15.85    6.94   0
   0 -10  11   12.27    7.17   0
   1 -10  11    7.89    7.02   0
   1 -10  11   10.53    7.03   0
   2 -10  11  367.05    8.22   0
  -2  10 -11  361.71    7.94   0
   2 -10  11  336.22    8.18   0
   3 -10  11   14.46    7.11   0
  -3  10 -11   -3.21    6.49   0
   3 -10  11    3.77    5.47   0
  -4  10 -11    9.05    6.75   0
   4 -10  11   11.60    5.66   0
   4 -10  11    1.05    7.05   0
  -5  10 -11   -0.09    5.99   0
  -5  10 -11   10.80    7.19   0
   5 -10  11    7.05    5.99   0
   5 -10  11   18.86    7.52   0
  -6  10 -11  215.92    6.84   0
  -6  10 -11  191.29    8.26   0
   6 -10  11  151.88    7.99   0
   6 -10  11  202.11    6.97   0
  -7  10 -11    4.21    6.04   0
   7 -10  11    4.69    6.25   0
   7 -10  11   -3.26    6.43   0
  -7  10 -11    1.20    7.63   0
  -4  -9  11    3.55    8.82   0
  -4  -9  11   -5.37    7.41   0
  -4  -9  11    4.36    7.51   0
  -4  -9  11   -5.00    7.51   0
  -3  -9  11   60.94    8.77   0
  -3  -9  11   61.41    7.67   0
  -3  -9  11   47.09    7.71   0
  -2  -9  11   -6.78    7.12   0
  -2  -9  11   -3.88    7.08   0
  -2  -9  11   -3.88    7.06   0
  -1  -9  11    3.46    6.90   0
  -1  -9  11    6.55    5.55   0
  -1  -9  11    9.10    5.70   0
   0  -9  11   52.30    7.20   0
   0  -9  11   38.99    6.96   0
   0  -9  11   42.33    6.05   0
   1  -9  11  438.59    7.50   0
   1  -9  11  426.06    8.13   0
  -2   9 -11    2.90    6.35   0
   2  -9  11   16.22    5.20   0
   2  -9  11   10.40    5.60   0
  -3   9 -11   34.50    5.28   0
  -3   9 -11   39.11    5.66   0
   3  -9  11   34.08    5.61   0
   3  -9  11   20.50    5.92   0
  -4   9 -11  -10.26    5.61   0
  -4   9 -11    1.79    5.66   0
   4  -9  11  -15.52    7.13   0
   4  -9  11   -3.34    7.04   0
  -5   9 -11  459.08    7.37   0
   5  -9  11  413.18    7.64   0
  -5   9 -11  475.48    7.63   0
   5  -9  11  463.62    7.74   0
  -6   9 -11   13.22    5.89   0
  -6   9 -11    7.75    5.98   0
   6  -9  11   17.39    5.95   0
   6  -9  11   23.26    6.14   0
  -7   9 -11   -3.17    6.07   0
  -7   9 -11    9.75    6.46   0
   7  -9  11   -2.64    6.72   0
   7  -9  11    9.43    6.14   0
  -5  -8  11   10.61    7.63   0
  -5  -8  11   19.78    7.63   0
  -5  -8  11   14.30    7.64   0
  -5  -8  11    8.72    8.89   0
  -4  -8  11    7.00    7.40   0
  -4  -8  11    1.39    7.30   0
  -4  -8  11    7.99    7.44   0
  -3  -8  11   10.44    6.91   0
  -3  -8  11   -2.91    7.08   0
  -3  -8  11    4.69    6.90   0
  -2  -8  11   82.84    7.22   0
  -2  -8  11   74.21    7.25   0
  -2  -8  11   95.43    5.81   0
  -1  -8  11    4.86    5.46   0
  -1  -8  11    2.40    6.79   0
  -1  -8  11    2.50    5.59   0
   0  -8  11  145.13    6.03   0
   0  -8  11  147.10    7.28   0
   0  -8  11  151.88    6.01   0
   1  -8  11    1.63    5.25   0
   1  -8  11   11.06    6.65   0
  -1   8 -11   -2.13    6.76   0
   1  -8  11   -4.44    6.93   0
  -2   8 -11   95.93    6.98   0
   2  -8  11  106.46    5.74   0
   2  -8  11  112.28    5.96   0
  -3   8 -11    6.49    6.56   0
  -3   8 -11   -4.68    6.88   0
   3  -8  11   -8.17    6.72   0
   3  -8  11    2.22    5.64   0
  -4   8 -11  248.94    6.66   0
  -4   8 -11  234.66    6.57   0
   4  -8  11  222.53    6.68   0
   4  -8  11  229.13    8.03   0
  -5   8 -11   46.76    7.07   0
   5  -8  11   35.45    5.95   0
   5  -8  11   41.71    6.07   0
  -5   8 -11   26.75    7.26   0
  -6   8 -11    8.36    5.67   0
   6  -8  11   11.31    6.35   0
   6  -8  11    8.43    7.29   0
  -6   8 -11    9.68    7.50   0
  -7   8 -11   -4.29    7.16   0
   7  -8  11   13.43    6.68   0
   7  -8  11    1.07    5.97   0
  -7   8 -11   11.50    6.46   0
  -6  -7  11    6.23    7.75   0
  -6  -7  11    5.98   10.01   0
  -6  -7  11    4.69   10.17   0
  -6  -7  11   -0.10    7.73   0
  -5  -7  11    8.21    7.38   0
  -5  -7  11    5.28    7.42   0
  -5  -7  11    7.87    8.65   0
  -5  -7  11    6.16    8.56   0
  -4  -7  11    7.23    7.11   0
  -4  -7  11    3.24    7.24   0
  -4  -7  11    5.31    8.34   0
  -3  -7  11  338.91    8.13   0
  -3  -7  11  389.22    8.31   0
  -3  -7  11  384.66    9.55   0
  -2  -7  11   15.65    5.94   0
  -2  -7  11   22.40    6.82   0
  -2  -7  11   29.20    7.18   0
  -1  -7  11   70.25    5.74   0
  -1  -7  11   73.84    5.78   0
  -1  -7  11   66.59    6.00   0
   0  -7  11   39.85    6.79   0
   0   7 -11   36.23    5.60   0
   0  -7  11   27.65    5.64   0
   0  -7  11   32.24    6.88   0
   1  -7  11  469.42    7.14   0
   1  -7  11  470.62    8.22   0
  -1   7 -11  495.40    8.31   0
   1  -7  11  464.67    7.43   0
   2  -7  11    7.61    5.43   0
   2  -7  11   -7.32    5.48   0
  -2   7 -11   16.45    6.79   0
  -3   7 -11   43.12    5.61   0
   3  -7  11   37.51    5.75   0
  -3   7 -11   43.21    5.70   0
   3  -7  11   40.65    5.91   0
  -4   7 -11   11.30    6.87   0
  -4   7 -11   14.30    5.73   0
   4  -7  11    7.19    6.86   0
   4  -7  11   10.36    5.91   0
  -5   7 -11   36.43    5.70   0
  -5   7 -11   25.16    7.24   0
   5  -7  11   26.52    7.45   0
   5  -7  11   24.23    5.81   0
  -6   7 -11   -0.15    5.70   0
  -6   7 -11    4.50    6.11   0
   6  -7  11    3.99    6.41   0
   6  -7  11   -0.35    6.97   0
  -7   7 -11   37.79    7.49   0
  -7   7 -11   50.95    6.44   0
   7  -7  11   50.09    6.85   0
   7  -7  11   35.97    7.80   0
  -6  -6  11    5.98    7.53   0
  -6  -6  11    8.12   10.37   0
  -6  -6  11   -1.58    9.85   0
  -6  -6  11    6.30    7.44   0
  -5  -6  11   18.81    7.12   0
  -5  -6  11   11.06    7.15   0
  -5  -6  11   12.37    9.57   0
  -4  -6  11  452.60    8.55   0
  -4  -6  11  475.98    8.74   0
  -4  -6  11  477.69   10.43   0
  -3  -6  11   33.63    6.76   0
  -3  -6  11   32.23    7.18   0
  -3  -6  11   28.89    8.28   0
  -2  -6  11   29.33    6.73   0
  -2  -6  11   27.89    5.51   0
  -2  -6  11   38.84    6.89   0
  -1  -6  11    2.99    6.54   0
  -1  -6  11   11.70    5.44   0
  -1  -6  11    1.82    6.89   0
   1   6 -11    3.01    5.55   0
   0   6 -11  635.16    8.68   0
   0  -6  11  559.65    8.44   0
   0  -6  11  588.48    8.66   0
   0  -6  11  594.22    9.01   0
   1  -6  11   18.37    6.85   0
   1  -6  11    3.38    6.74   0
  -1   6 -11    9.69    6.66   0
   1  -6  11    8.92    6.89   0
  -2   6 -11   -0.23    5.46   0
   2  -6  11    5.89    6.64   0
   2  -6  11    6.68    6.64   0
   2  -6  11    4.08    5.83   0
  -3   6 -11    3.93    5.80   0
   3  -6  11   -1.74    5.34   0
   3  -6  11    0.97    5.97   0
   4  -6  11  120.10    6.40   0
   4  -6  11  135.52    6.13   0
  -4   6 -11  139.28    6.31   0
  -5   6 -11   13.52    6.92   0
   5  -6  11   11.01    5.92   0
   5  -6  11   17.63    6.94   0
  -5   6 -11    9.68    7.14   0
  -6   6 -11   64.92    7.41   0
   6  -6  11   49.80    8.03   0
   6  -6  11   59.84    6.20   0
  -6   6 -11   59.18    6.44   0
  -7   6 -11   16.82    7.92   0
   7  -6  11    1.47    8.42   0
  -7   6 -11    2.60    6.01   0
   7  -6  11    3.07    6.19   0
  -7  -5  11    6.42    7.89   0
  -7  -5  11    9.97    7.75   0
  -6  -5  11    8.01    7.38   0
  -6  -5  11    2.89   10.90   0
  -6  -5  11    6.73   10.56   0
  -6  -5  11   -2.34    7.13   0
  -5  -5  11  232.95    6.83   0
  -5  -5  11  227.81    7.02   0
  -5  -5  11  238.19   10.82   0
  -4  -5  11    2.33    6.81   0
  -4  -5  11   22.58    6.74   0
  -4  -5  11   21.61    8.25   0
  -3  -5  11   75.54    5.97   0
  -3  -5  11   77.65    5.94   0
  -3  -5  11   79.86    7.66   0
  -2  -5  11   -1.85    5.37   0
  -2  -5  11    5.69    6.63   0
   2   5 -11    7.68    6.79   0
  -2  -5  11    0.52    7.12   0
  -1  -5  11  479.31    7.27   0
  -1  -5  11  533.49    7.31   0
  -1  -5  11  501.13    8.09   0
   1   5 -11  533.82    7.67   0
   0  -5  11   29.05    5.54   0
   0   5 -11   31.69    5.65   0
   0  -5  11   38.81    5.67   0
   0  -5  11   40.35    7.15   0
  -1   5 -11   36.56    6.94   0
   1  -5  11   29.17    5.40   0
   1  -5  11   28.65    5.51   0
   1  -5  11   23.13    7.06   0
   2  -5  11    2.23    5.56   0
   2  -5  11    6.35    5.32   0
   2  -5  11   19.46    6.95   0
  -2   5 -11   10.49    6.75   0
   3  -5  11  196.59    6.27   0
   3  -5  11  209.09    6.86   0
   3  -5  11  199.34    7.44   0
  -3   5 -11  204.90    6.64   0
   4  -5  11   -2.95    6.09   0
   4  -5  11    6.73    5.51   0
   4  -5  11    6.68    5.53   0
  -4   5 -11    3.33    7.27   0
   5  -5  11    2.26    6.43   0
   5  -5  11   -5.97    5.68   0
  -5   5 -11    9.69    7.32   0
   6  -5  11   -1.08    7.79   0
   6  -5  11    0.78    7.24   0
  -6   5 -11   -2.50    7.48   0
  -7  -4  11   -1.48    7.77   0
  -7  -4  11    8.04    7.63   0
  -6  -4  11   57.85   11.41   0
  -6  -4  11   54.74    7.32   0
  -6  -4  11   60.08    7.17   0
  -5  -4  11   11.68    6.86   0
  -5  -4  11   11.50    6.96   0
  -5  -4  11   14.52    9.77   0
  -4  -4  11  136.41    7.59   0
  -4  -4  11  154.49    7.32   0
  -4  -4  11  152.09    9.26   0
  -3  -4  11   21.54    6.81   0
  -3  -4  11    7.09    5.68   0
  -3  -4  11    0.19    8.38   0
   3   4 -11   13.90    6.99   0
  -2  -4  11  112.18    7.20   0
  -2  -4  11  126.23    5.90   0
  -2  -4  11  125.16    7.65   0
   2   4 -11  122.21    7.19   0
   1   4 -11   -0.45    6.74   0
  -1  -4  11   19.16    6.88   0
  -1  -4  11    4.87    6.78   0
  -1  -4  11   -5.33    7.16   0
   0  -4  11   10.07    5.32   0
   0  -4  11    4.96    5.44   0
   0  -4  11    9.51    7.20   0
   0   4 -11    8.58    6.91   0
   1  -4  11   14.54    6.59   0
   1  -4  11   -3.57    5.75   0
   1  -4  11    1.95    6.64   0
  -1   4 -11    5.73    6.89   0
   2  -4  11  315.85    7.09   0
   2  -4  11  269.55    7.80   0
   2  -4  11  309.16    7.75   0
  -2   4 -11  304.27    8.06   0
   3  -4  11    7.35    7.42   0
   3  -4  11    4.11    5.38   0
   3  -4  11   10.85    6.62   0
  -3   4 -11   10.38    5.78   0
   4  -4  11   19.73    6.15   0
   4  -4  11    8.38    6.91   0
   4  -4  11    1.93    5.64   0
  -4   4 -11    6.55    7.42   0
   5  -4  11    5.89    6.50   0
   5  -4  11    1.03    7.13   0
   5  -4  11    6.72    5.79   0
  -5   4 -11    0.23    7.73   0
   6  -4  11  117.07    7.26   0
   6  -4  11   90.59    7.96   0
   6  -4  11  111.34    6.80   0
  -6   4 -11  109.36    6.99   0
  -8  -3  11   -2.24    7.75   0
  -8  -3  11    5.32    7.70   0
  -7  -3  11   47.90    7.50   0
  -7  -3  11   45.63    7.51   0
  -6  -3  11   13.22    7.17   0
  -6  -3  11    6.64    5.76   0
  -6  -3  11    5.44   11.53   0
  -5  -3  11  204.55    9.89   0
  -5  -3  11  187.58    7.68   0
  -5  -3  11  178.32    6.63   0
  -4  -3  11    7.68    5.47   0
  -4  -3  11   16.14    8.51   0
  -4  -3  11    9.94    6.66   0
   4   3 -11   12.40    7.82   0
  -3  -3  11   44.74    5.79   0
  -3  -3  11   52.09    7.78   0
  -3  -3  11   47.86    6.86   0
   3   3 -11   54.85    6.97   0
  -2  -3  11   20.71    5.70   0
  -2  -3  11   15.74    7.42   0
  -2  -3  11    9.34    5.53   0
   2   3 -11   10.05    6.88   0
  -1  -3  11   34.25    6.72   0
  -1  -3  11   37.52    7.40   0
  -1  -3  11   38.35    5.51   0
   1   3 -11   41.16    6.95   0
   0  -3  11    6.03    6.61   0
   0  -3  11    9.02    5.96   0
   0  -3  11   15.39    5.45   0
   0   3 -11   17.66    5.64   0
   1  -3  11  265.98    7.29   0
   1  -3  11  243.99    7.74   0
   1  -3  11  259.38    6.35   0
  -1   3 -11  286.08    8.16   0
   2  -3  11    5.22    6.07   0
   2  -3  11    1.61    6.66   0
  -2   3 -11    8.23    5.56   0
   2  -3  11    4.91    6.62   0
   3  -3  11    8.78    6.15   0
   3  -3  11    7.78    6.78   0
  -3   3 -11   16.39    5.88   0
   3  -3  11   13.09    5.59   0
   4  -3  11   -2.06    6.23   0
   4  -3  11   -7.73    5.80   0
  -4   3 -11    1.75    6.07   0
   4  -3  11   10.27    5.61   0
   5  -3  11   69.59    8.05   0
   5  -3  11   60.59    6.33   0
  -5   3 -11   72.12    7.87   0
   5  -3  11   52.31    7.44   0
  -8  -2  11   15.26    7.68   0
  -7  -2  11    6.40    7.30   0
  -6  -2  11  218.12   13.24   0
  -6  -2  11  227.97    6.67   0
  -5  -2  11   11.66    5.76   0
   5   2 -11   16.80    8.16   0
  -5  -2  11   19.91    8.53   0
  -5  -2  11   10.80    6.99   0
  -4  -2  11   45.01    6.97   0
  -4  -2  11   55.60    8.50   0
  -4  -2  11   51.13    6.87   0
   4   2 -11   53.17    7.22   0
  -3  -2  11    2.57    6.67   0
  -3  -2  11    3.28    8.33   0
  -3  -2  11   13.95    6.66   0
   3   2 -11   -1.99    6.59   0
  -2  -2  11  381.72    8.88   0
  -2  -2  11  369.91    6.82   0
  -2  -2  11  383.31    7.76   0
   2   2 -11  390.30    8.21   0
  -1  -2  11    0.80    7.23   0
  -1  -2  11    8.97    5.64   0
  -1  -2  11   14.10    6.82   0
   1   2 -11    7.66    6.83   0
   0  -2  11   12.45    5.88   0
   0  -2  11   19.84    6.66   0
   0   2 -11    0.08    7.14   0
   0  -2  11    4.62    5.51   0
   1  -2  11   19.15    6.30   0
  -1   2 -11    7.66    5.76   0
   1  -2  11   23.60    6.85   0
   1  -2  11   19.17    6.75   0
   2  -2  11   88.46    7.71   0
  -2   2 -11   93.57    6.03   0
   2  -2  11   87.03    6.04   0
   2  -2  11  100.97    5.91   0
   3  -2  11    5.83    6.04   0
  -3   2 -11    6.59    7.31   0
   3  -2  11    4.82    6.88   0
   3  -2  11   -3.09    5.55   0
  -4   2 -11   48.62    6.53   0
   4  -2  11   43.47    6.12   0
   4  -2  11   58.90    7.53   0
   4  -2  11   62.87    6.54   0
  -5   2 -11    2.21    6.55   0
   5  -2  11   -1.62    7.70   0
   5  -2  11    8.91    7.52   0
   5  -2  11    1.22    8.11   0
   8   1 -11   10.61    7.65   0
  -8  -1  11   12.23    6.04   0
   7   1 -11   64.90    6.38   0
  -7  -1  11   62.89    7.54   0
   6   1 -11   14.48    7.16   0
   6   1 -11    0.78    9.35   0
  -6  -1  11    0.96   11.31   0
  -6  -1  11    5.37    7.13   0
   5   1 -11    8.52    8.16   0
  -5  -1  11    7.32    8.56   0
  -5  -1  11    8.74    7.10   0
  -4  -1  11    0.21    6.70   0
   4   1 -11    5.33    8.08   0
  -4  -1  11    5.61    7.27   0
  -4  -1  11    6.22    5.65   0
  -3  -1  11  170.42    7.26   0
  -3  -1  11  163.93    7.09   0
   3   1 -11  172.92    7.74   0
  -3  -1  11  161.49    8.07   0
  -2  -1  11   48.16    6.94   0
   2   1 -11   41.79    7.32   0
  -2  -1  11   41.10    6.80   0
  -2  -1  11   43.33    7.57   0
  -1  -1  11    8.86    5.56   0
   1   1 -11   11.37    6.77   0
  -1  -1  11   12.16    5.39   0
  -1  -1  11    8.23    6.22   0
   0   1 -11   -7.52    7.24   0
   0  -1  11    4.71    6.60   0
   0  -1  11   -5.24    6.49   0
   0  -1  11    7.94    6.20   0
  -1   1 -11  120.77    6.16   0
   1  -1  11  119.03    6.13   0
   1  -1  11  119.97    7.23   0
   1  -1  11  128.31    8.03   0
  -2   1 -11    1.74    7.13   0
   2  -1  11   -2.81    5.49   0
   2  -1  11   10.33    6.87   0
   2  -1  11   -3.12    7.46   0
  -3   1 -11   18.50    6.24   0
   3  -1  11   -6.90    7.37   0
   3  -1  11   11.19    7.15   0
   3  -1  11   13.51    6.42   0
  -4   1 -11    9.86    7.85   0
   4  -1  11    2.33    7.56   0
   4  -1  11    6.85    7.37   0
   4  -1  11   -0.90    6.51   0
   8   0 -11   25.69    6.29   0
  -8   0  11   20.25    6.28   0
   7   0 -11    2.85    6.04   0
  -7   0  11   -3.24    5.92   0
   6   0 -11   32.28    7.14   0
  -6   0  11   31.07   10.54   0
   6   0 -11    6.49    9.35   0
  -6   0  11   21.99    7.26   0
   5   0 -11    5.66    5.88   0
   5   0 -11    4.01    8.17   0
  -5   0  11    5.60    9.24   0
  -5   0  11   10.85    5.83   0
   4   0 -11  236.07    8.46   0
  -4   0  11  217.67    8.42   0
  -4   0  11  203.68    7.79   0
  -3   0  11   -4.24    7.01   0
   3   0 -11    1.59    8.03   0
  -3   0  11    2.05    5.54   0
  -3   0  11   -0.88    7.11   0
  -2   0  11    2.22    5.59   0
   2   0 -11    2.55    7.31   0
  -2   0  11   -0.08    5.40   0
  -2   0  11    6.93    7.25   0
  -1   0  11    2.88    5.48   0
  -1   0  11   13.05    6.57   0
  -1   0  11   12.05    7.31   0
   1   0 -11    8.64    5.73   0
   0   0  11  175.11    7.55   0
   0   0  11  194.88    6.34   0
   0   0  11  184.47    8.24   0
   0   0 -11  203.69    7.90   0
   1   0  11    9.41    5.71   0
   1   0  11    3.42    6.79   0
   1   0  11   10.75    7.54   0
  -1   0 -11   12.65    5.99   0
   2   0  11   25.57    7.33   0
   2   0  11   13.24    5.96   0
   2   0  11   25.44    7.96   0
  -2   0 -11   30.92    6.24   0
   3   0  11   -0.08    7.80   0
   3   0  11   14.44    7.45   0
   3   0  11   14.85    6.43   0
  -3   0 -11   10.85    7.80   0
   8  -1 -11    8.11    6.43   0
  -8   1  11    9.59    6.06   0
   7  -1 -11   40.07    7.77   0
   7  -1 -11    5.28   12.11   0
  -7   1  11   43.88    7.56   0
   6  -1 -11    5.01    5.95   0
  -6   1  11    5.79    9.65   0
   6  -1 -11    1.71    8.00   0
  -6   1  11   -3.21    7.40   0
   5  -1 -11   84.09    8.94   0
   5  -1 -11   78.62    7.34   0
  -5   1  11   78.78    9.03   0
  -5   1  11   91.19    7.42   0
   4  -1 -11    4.97    8.40   0
  -4   1  11    5.07    8.57   0
  -4   1  11    2.33    7.00   0
  -3   1  11    8.66    5.67   0
  -3   1  11    8.58    7.34   0
   3  -1 -11   11.41    8.51   0
  -3   1  11    5.56    6.94   0
  -2   1  11   11.64    5.70   0
  -2   1  11    9.74    6.86   0
  -2   1  11    8.14    7.06   0
   2  -1 -11    7.28    7.12   0
  -1   1  11   92.53    7.43   0
  -1   1  11  116.22    6.08   0
  -1   1  11  112.27    6.62   0
   1  -1 -11  105.97    7.73   0
   0   1  11   -2.90    7.25   0
   0   1  11    6.75    6.90   0
   0   1  11    9.03    7.43   0
   0  -1 -11   -5.67    6.15   0
   1   1  11   13.91    7.13   0
   1   1  11   12.64    6.91   0
   1   1  11   10.67    7.66   0
  -1  -1 -11   -4.05    6.22   0
   2   1  11   -2.06    7.60   0
   2   1  11   13.76    7.29   0
   2   1  11    7.35    6.26   0
  -2  -1 -11    7.16    7.73   0
   7  -2 -11    2.49    7.78   0
  -7   2  11   17.40    6.46   0
   7  -2 -11    4.76   10.44   0
   6  -2 -11    1.47    6.05   0
   6  -2 -11    4.20    9.13   0
  -6   2  11    6.24    8.85   0
  -6   2  11   14.46    6.01   0
   5  -2 -11   12.66    8.75   0
   5  -2 -11   18.52    7.40   0
  -5   2  11   12.27    8.80   0
  -5   2  11   15.53    7.40   0
  -4   2  11   60.15    7.81   0
   4  -2 -11   89.07    7.78   0
  -4   2  11   82.24    6.19   0
  -3   2  11   -3.12    6.75   0
  -3   2  11   10.55    7.39   0
   3  -2 -11    8.89    7.39   0
  -3   2  11    7.43    5.77   0
  -2   2  11   38.08    5.98   0
  -2   2  11   43.08    6.12   0
   2  -2 -11   41.77    7.46   0
  -2   2  11   37.90    7.42   0
  -1   2  11   -2.81    5.68   0
  -1   2  11    1.45    7.37   0
   1  -2 -11    3.04    7.58   0
  -1   2  11   -0.80    7.18   0
   0   2  11   22.55    7.70   0
   0   2  11   22.47    7.46   0
   0   2  11   42.41    6.46   0
   0  -2 -11   41.04    6.85   0
   1   2  11    6.87    7.80   0
   1   2  11   -0.47    7.52   0
   1   2  11    6.16    6.51   0
  -1  -2 -11    7.62    6.57   0
   6  -3 -11    3.45    8.54   0
   6  -3 -11    0.04    6.34   0
  -6   3  11    0.30    9.02   0
  -6   3  11   -4.35    7.68   0
   5  -3 -11   39.39    7.47   0
  -5   3  11   39.02    8.26   0
   5  -3 -11   40.80    9.21   0
  -5   3  11   39.65    7.66   0
  -4   3  11   -2.83    8.82   0
   4  -3 -11   -4.47    7.84   0
  -4   3  11   11.33    7.36   0
  -3   3  11   14.52    7.37   0
  -3   3  11   20.59    7.74   0
   3  -3 -11   10.21    7.82   0
  -3   3  11   10.75    7.62   0
  -2   3  11   -5.27    7.19   0
  -2   3  11   -1.38    7.72   0
   2  -3 -11   -1.77    6.46   0
  -2   3  11   -0.46    6.16   0
  -1   3  11   60.29    7.97   0
  -1   3  11   96.59    6.78   0
   1  -3 -11   82.64    8.27   0
  -1   3  11   76.96    8.21   0
   1 -12  12    7.43    7.76   0
   1 -12  12    5.28    7.66   0
   1 -12  12   -0.03    6.24   0
   2 -12  12  178.52    8.26   0
   2 -12  12  180.22    8.58   0
   3 -12  12   15.30    6.45   0
  -3  12 -12    4.68    7.39   0
   3 -12  12   11.79    6.17   0
  -1 -11  12   75.93    8.17   0
  -1 -11  12  107.85    8.30   0
  -1 -11  12   94.07    8.33   0
   0 -11  12    6.50    7.47   0
   0 -11  12   11.71    7.41   0
   0 -11  12    8.82    7.63   0
   1 -11  12   15.80    7.56   0
   1 -11  12   22.38    5.80   0
   1 -11  12   26.37    7.51   0
   2 -11  12   11.39    6.04   0
   2 -11  12   13.57    7.47   0
   3 -11  12   -1.59    7.39   0
  -3  11 -12   -2.52    5.88   0
   3 -11  12    8.86    7.28   0
  -4  11 -12    9.64    5.97   0
   4 -11  12    2.62    6.10   0
   4 -11  12    6.99    7.61   0
  -5  11 -12   57.66    6.46   0
   5 -11  12   33.06    7.78   0
   5 -11  12   62.34    6.48   0
  -2 -10  12  211.07    8.80   0
  -2 -10  12  245.92    8.80   0
  -2 -10  12  218.20    8.90   0
  -1 -10  12    9.63    6.13   0
  -1 -10  12    7.44    7.26   0
  -1 -10  12    8.42    5.91   0
   0 -10  12    9.38    7.16   0
   0 -10  12    4.90    7.15   0
   0 -10  12   -0.02    7.20   0
   1 -10  12   -4.04    7.35   0
   1 -10  12    2.03    7.06   0
   1 -10  12    3.92    7.20   0
   2 -10  12   59.88    7.36   0
   2 -10  12   64.84    6.39   0
  -3  10 -12    5.25    5.71   0
   3 -10  12   14.91    7.14   0
   3 -10  12   13.27    7.45   0
  -4  10 -12   55.88    5.95   0
   4 -10  12   53.50    7.35   0
  -4  10 -12   59.99    7.55   0
   4 -10  12   59.66    7.55   0
  -5  10 -12    6.11    6.18   0
  -5  10 -12   -8.65    7.61   0
   5 -10  12    9.37    7.57   0
   5 -10  12   -3.19    6.21   0
  -4  -9  12    4.90    7.84   0
  -4  -9  12    4.24    9.11   0
  -4  -9  12    6.30    7.85   0
  -4  -9  12    0.64    7.89   0
  -3  -9  12  227.14    8.68   0
  -3  -9  12  174.13    8.67   0
  -3  -9  12  152.14    8.78   0
  -2  -9  12    9.54    7.56   0
  -2  -9  12    2.72    7.29   0
  -2  -9  12    7.02    7.18   0
  -1  -9  12   39.11    7.34   0
  -1  -9  12   34.89    7.21   0
  -1  -9  12   33.49    7.19   0
   0  -9  12   11.40    5.58   0
   0  -9  12    2.30    6.99   0
   0  -9  12    7.04    6.15   0
   1  -9  12  194.04    7.78   0
   1  -9  12  232.45    8.03   0
   1  -9  12  247.32    6.83   0
   2  -9  12    4.67    6.89   0
   2  -9  12    4.52    7.05   0
  -2   9 -12    0.21    5.54   0
  -3   9 -12   22.80    5.59   0
   3  -9  12   14.89    7.16   0
   3  -9  12   20.99    7.27   0
  -4   9 -12   -5.32    7.18   0
   4  -9  12   14.77    5.78   0
   4  -9  12    4.58    7.52   0
  -4   9 -12    2.64    7.40   0
  -5   9 -12  112.19    6.49   0
  -5   9 -12  126.29    6.68   0
   5  -9  12   85.24    7.79   0
   5  -9  12  103.93    8.07   0
  -6   9 -12    5.46    7.65   0
  -6   9 -12    5.00    7.64   0
   6  -9  12   16.53    6.39   0
   6  -9  12    8.25    7.66   0
  -4  -8  12   90.23    8.06   0
  -4  -8  12   95.28    8.21   0
  -4  -8  12  103.44    8.18   0
  -3  -8  12   11.25    7.25   0
  -3  -8  12   20.25    7.35   0
  -3  -8  12    7.00    7.48   0
  -2  -8  12    3.23    5.82   0
  -2  -8  12    9.92    5.83   0
  -2  -8  12    6.73    7.26   0
  -1  -8  12    0.43    6.89   0
  -1  -8  12    0.98    5.60   0
  -1  -8  12    9.02    6.85   0
   0  -8  12  273.76    6.89   0
   0  -8  12  302.50    8.22   0
   0  -8  12  320.87    8.17   0
   1  -8  12   -4.06    6.72   0
   1  -8  12    4.65    6.71   0
  -1   8 -12    7.16    6.82   0
   1  -8  12   10.28    5.77   0
   2  -8  12   -0.01    5.58   0
   2  -8  12   -0.69    7.05   0
  -2   8 -12    5.03    5.74   0
   2  -8  12    4.30    7.09   0
  -3   8 -12   -2.80    5.62   0
   3  -8  12   14.52    6.98   0
   3  -8  12    2.78    7.24   0
  -4   8 -12  401.06    7.46   0
   4  -8  12  410.77    7.54   0
   4  -8  12  434.61    8.98   0
  -4   8 -12  464.30    7.60   0
  -5   8 -12   10.21    5.84   0
   5  -8  12   15.11    7.51   0
   5  -8  12    4.17    5.91   0
  -5   8 -12    6.11    7.34   0
  -6   8 -12   12.24    6.22   0
   6  -8  12   14.92    6.73   0
   6  -8  12   -0.76    7.58   0
  -6   8 -12   19.98    7.70   0
  -5  -7  12   16.92    7.83   0
  -5  -7  12    7.89    7.86   0
  -5  -7  12   14.40    9.06   0
  -5  -7  12    9.39    9.03   0
  -4  -7  12   -1.99    7.10   0
  -4  -7  12   -6.24    7.38   0
  -4  -7  12   10.00    8.77   0
  -3  -7  12   37.45    5.99   0
  -3  -7  12   35.56    6.08   0
  -3  -7  12   33.23    7.37   0
  -2  -7  12    7.70    5.84   0
  -2  -7  12   10.33    5.37   0
  -2  -7  12    9.66    7.11   0
  -1  -7  12  182.91    7.63   0
  -1  -7  12  185.54    7.74   0
  -1  -7  12  219.47    7.83   0
   1   7 -12  203.38    7.55   0
   0  -7  12    4.66    6.69   0
   0  -7  12    4.57    6.69   0
   0  -7  12   14.45    6.05   0
   0   7 -12    9.01    5.43   0
  -1   7 -12   72.91    5.96   0
   1  -7  12   54.15    7.01   0
   1  -7  12   79.02    7.06   0
   1  -7  12   62.28    7.33   0
   2  -7  12   23.38    5.68   0
   2  -7  12   17.34    6.96   0
   2  -7  12   12.36    5.94   0
  -2   7 -12   17.12    7.17   0
   3  -7  12  262.86    7.97   0
   3  -7  12  297.50    8.02   0
  -3   7 -12  326.90    7.00   0
   3  -7  12  319.91    8.53   0
  -4   7 -12    9.75    7.45   0
   4  -7  12   13.59    7.64   0
   4  -7  12    8.85    7.14   0
  -5   7 -12   11.45    6.08   0
   5  -7  12   -5.95    7.60   0
   5  -7  12    0.13    5.80   0
  -6   7 -12   13.19    6.28   0
  -6   7 -12   11.36    6.46   0
   6  -7  12   10.67    6.67   0
   6  -7  12    2.71    7.75   0
  -6  -6  12    9.73    7.90   0
  -6  -6  12    1.37   11.26   0
  -6  -6  12    5.03   10.89   0
  -6  -6  12   19.00    7.66   0
  -5  -6  12    7.69    7.48   0
  -5  -6  12    9.40    6.46   0
  -5  -6  12   11.06    8.81   0
  -4  -6  12  154.68    6.68   0
  -4  -6  12  168.70    7.95   0
  -4  -6  12  168.59    8.39   0
  -3  -6  12    6.61    5.49   0
  -3  -6  12   -0.86    5.56   0
  -3  -6  12   13.13    7.29   0
  -2  -6  12   63.93    7.12   0
  -2  -6  12   75.30    7.25   0
  -2  -6  12   59.93    7.79   0
   2   6 -12   79.98    7.78   0
  -1  -6  12    7.56    6.69   0
  -1  -6  12   11.41    6.55   0
   1   6 -12    8.84    6.87   0
  -1  -6  12    0.34    7.23   0
   0  -6  12  186.64    6.32   0
   0  -6  12  200.53    6.41   0
   0  -6  12  207.40    7.76   0
   0   6 -12  218.86    7.76   0
   1  -6  12   -3.06    5.60   0
   1  -6  12   12.53    6.87   0
   1  -6  12    7.31    6.04   0
  -1   6 -12   11.37    6.98   0
  -2   6 -12  102.90    7.09   0
   2  -6  12   81.08    5.91   0
   2  -6  12   77.02    7.20   0
   2  -6  12   83.57    6.27   0
  -3   6 -12   -4.96    7.10   0
   3  -6  12   -1.14    5.68   0
   3  -6  12   11.19    7.40   0
   3  -6  12   17.86    5.58   0
   4  -6  12    4.96    6.23   0
   4  -6  12   -4.92    7.00   0
   4  -6  12   -2.06    7.23   0
  -4   6 -12    7.86    6.05   0
   5  -6  12   -6.64    6.39   0
   5  -6  12    0.41    5.92   0
   5  -6  12   -0.82    5.87   0
  -5   6 -12   -9.33    7.64   0
  -6  -5  12    2.28   11.40   0
  -6  -5  12    4.07    6.26   0
  -6  -5  12    1.29    9.85   0
  -6  -5  12   -4.54    7.51   0
  -5  -5  12  186.20    6.69   0
  -5  -5  12  172.03    8.06   0
  -5  -5  12  177.47   10.02   0
  -4  -5  12   10.06    5.85   0
  -4  -5  12   18.31    7.31   0
  -4  -5  12    1.44    7.63   0
  -3  -5  12   22.81    6.85   0
  -3  -5  12   16.29    5.89   0
  -3  -5  12   23.29    8.53   0
   3   5 -12   30.12    8.10   0
  -2  -5  12   39.51    5.39   0
   2   5 -12   28.21    7.05   0
  -2  -5  12   18.99    6.95   0
  -2  -5  12   38.02    7.62   0
  -1  -5  12  361.56    8.02   0
  -1  -5  12  381.56    7.11   0
  -1  -5  12  391.12    8.88   0
   1   5 -12  397.48    8.42   0
   0  -5  12   26.65    6.89   0
   0   5 -12   13.38    6.75   0
   0  -5  12   19.49    6.67   0
   0  -5  12   20.18    7.33   0
   1  -5  12    4.19    5.65   0
   1  -5  12   -2.83    5.99   0
   1  -5  12    3.11    6.89   0
  -1   5 -12    0.28    5.81   0
   2  -5  12    5.02    5.66   0
   2  -5  12    8.65    5.93   0
   2  -5  12    2.24    5.68   0
  -2   5 -12    0.60    6.95   0
   3  -5  12   37.65    7.54   0
   3  -5  12   35.77    6.80   0
   3  -5  12   19.59    6.93   0
  -3   5 -12   44.93    5.96   0
   4  -5  12   13.74    6.47   0
   4  -5  12    2.48    5.63   0
   4  -5  12   -1.12    6.79   0
  -4   5 -12   -7.98    6.29   0
   5  -5  12   34.70    8.28   0
   5  -5  12   24.63    7.68   0
   5  -5  12   25.64    6.34   0
  -5   5 -12   36.74    8.03   0
  -7  -4  12    5.13    6.47   0
  -7  -4  12   -9.55    7.86   0
  -6  -4  12  147.77   13.45   0
  -6  -4  12  127.20    8.29   0
  -6  -4  12  131.37    6.77   0
  -5  -4  12    7.76    9.25   0
  -5  -4  12   12.55    5.98   0
  -5  -4  12   15.65    5.85   0
  -4  -4  12   52.95    7.25   0
  -4  -4  12   55.29    9.24   0
  -4  -4  12   57.17    6.09   0
   4   4 -12   64.49    7.44   0
  -3  -4  12   33.15    5.88   0
   3   4 -12   35.26    7.12   0
  -3  -4  12   29.53    7.55   0
  -3  -4  12   30.20    6.91   0
  -2  -4  12  278.82    7.85   0
  -2  -4  12  300.76    8.74   0
  -2  -4  12  327.03    7.95   0
   2   4 -12  333.93    8.35   0
   1   4 -12   11.00    6.85   0
  -1  -4  12    4.63    5.64   0
  -1  -4  12   17.28    7.22   0
  -1  -4  12    3.71    5.64   0
   0  -4  12    1.71    7.07   0
   0  -4  12   -3.39    7.16   0
   0  -4  12   11.35    5.69   0
   0   4 -12   12.81    7.08   0
   1  -4  12    8.97    5.61   0
   1  -4  12   19.54    7.38   0
   1  -4  12    5.23    6.82   0
  -1   4 -12    8.16    5.76   0
   2  -4  12  188.41    8.11   0
   2  -4  12  155.01    7.61   0
   2  -4  12  161.86    6.26   0
  -2   4 -12  188.20    6.62   0
   3  -4  12   17.88    7.77   0
   3  -4  12   14.89    7.15   0
   3  -4  12    6.25    5.65   0
  -3   4 -12   15.78    5.91   0
   4  -4  12  -13.99    7.84   0
   4  -4  12   -0.28    5.90   0
   4  -4  12   10.96    7.23   0
  -4   4 -12    4.98    7.68   0
   5  -4  12    7.25    6.71   0
   5  -4  12   -2.89    6.24   0
   5  -4  12   -1.34    6.16   0
  -5   4 -12    9.97    7.99   0
  -7  -3  12   51.69    6.90   0
  -7  -3  12   38.54    8.02   0
  -6  -3  12    2.68    6.09   0
  -6  -3  12   14.50   11.00   0
  -6  -3  12    7.25    7.37   0
  -5  -3  12   27.55    9.04   0
  -5  -3  12   25.69    7.42   0
  -5  -3  12   45.31    7.24   0
  -4  -3  12   14.90    5.55   0
  -4  -3  12   11.65    8.84   0
   4   3 -12    7.69    7.19   0
  -4  -3  12    6.07    5.85   0
  -3  -3  12  194.50    7.81   0
  -3  -3  12  203.82    8.57   0
  -3  -3  12  194.96    7.84   0
   3   3 -12  223.70    7.91   0
  -2  -3  12    7.26    5.80   0
  -2  -3  12   11.26    7.65   0
  -2  -3  12   17.63    5.69   0
   2   3 -12   12.44    7.15   0
  -1  -3  12    8.26    5.73   0
  -1  -3  12   -4.34    7.47   0
  -1  -3  12   12.56    6.82   0
   1   3 -12   12.23    6.89   0
   0  -3  12   11.12    6.15   0
   0  -3  12   13.73    6.97   0
   0  -3  12    8.72    5.71   0
   0   3 -12    5.13    7.09   0
   1  -3  12  227.93    7.14   0
   1  -3  12  204.42    7.84   0
   1  -3  12  215.23    7.76   0
  -1   3 -12  224.75    7.94   0
   2  -3  12   10.38    7.56   0
   2  -3  12    0.21    6.71   0
   2  -3  12   -0.93    6.73   0
  -2   3 -12    3.66    5.87   0
   3  -3  12    8.47    6.30   0
   3  -3  12    7.93    7.11   0
  -3   3 -12    3.29    7.47   0
   3  -3  12   -6.17    5.78   0
   4  -3  12    3.30    6.65   0
   4  -3  12   11.43    7.64   0
  -4   3 -12    3.14    7.98   0
   4  -3  12    8.51    7.39   0
  -7  -2  12    8.19    6.61   0
  -7  -2  12   10.31    6.55   0
  -6  -2  12   79.65    6.42   0
  -6  -2  12   77.55   11.67   0
  -6  -2  12   84.14    6.51   0
  -5  -2  12    5.14    5.56   0
   5   2 -12    4.61    7.61   0
  -5  -2  12    2.74    8.75   0
  -5  -2  12    8.93    5.74   0
  -4  -2  12    4.11    5.71   0
  -4  -2  12   11.70    6.93   0
   4   2 -12    2.19    8.05   0
  -4  -2  12    4.59    8.58   0
  -3  -2  12   14.76    8.69   0
  -3  -2  12   18.49    5.70   0
  -3  -2  12   17.29    6.86   0
   3   2 -12   21.05    7.16   0
  -2  -2  12    7.07    7.50   0
  -2  -2  12    8.53    5.74   0
  -2  -2  12   10.32    6.92   0
   2   2 -12   11.89    7.14   0
  -1  -2  12    7.87    7.36   0
  -1  -2  12   12.02    6.86   0
  -1  -2  12   -0.43    6.86   0
   1   2 -12   12.36    6.98   0
   0  -2  12  130.62    7.94   0
   0  -2  12   98.75    7.45   0
   0  -2  12  112.31    6.04   0
   0   2 -12  135.97    7.66   0
   1  -2  12    7.49    7.51   0
   1  -2  12   15.47    6.95   0
  -1   2 -12   11.07    7.25   0
   1  -2  12    9.62    5.63   0
   2  -2  12    5.09    7.54   0
   2  -2  12    4.68    7.23   0
  -2   2 -12    4.46    7.30   0
   2  -2  12    3.26    7.01   0
   3  -2  12    8.78    7.51   0
  -3   2 -12    7.16    7.76   0
   3  -2  12    1.84    5.94   0
   3  -2  12   -1.26    6.46   0
  -7  -1  12   80.78    8.00   0
   6   1 -12    1.60    9.12   0
  -6  -1  12    7.22   10.05   0
  -6  -1  12    8.94    7.38   0
  -5  -1  12   12.56    5.95   0
   5   1 -12    1.22    7.80   0
  -5  -1  12    7.20    8.64   0
  -5  -1  12   10.91    5.97   0
  -4  -1  12   10.16    7.09   0
   4   1 -12   18.09    7.28   0
  -4  -1  12   14.03    8.71   0
  -4  -1  12    8.55    7.19   0
  -3  -1  12   57.52    5.89   0
  -3  -1  12   72.08    7.07   0
   3   1 -12   64.28    7.54   0
  -3  -1  12   65.70    7.80   0
  -2  -1  12    1.87    6.91   0
  -2  -1  12   -0.75    5.56   0
   2   1 -12    2.89    7.24   0
  -2  -1  12    5.16    6.25   0
  -1  -1  12   25.47    5.92   0
   1   1 -12   33.97    7.20   0
  -1  -1  12   26.05    6.83   0
  -1  -1  12   38.48    6.35   0
   0  -1  12    3.85    7.06   0
   0   1 -12    4.00    7.23   0
   0  -1  12   -3.10    5.46   0
   0  -1  12   -0.32    6.31   0
  -1   1 -12   32.90    7.43   0
   1  -1  12   24.77    5.94   0
   1  -1  12   16.46    7.06   0
   1  -1  12   26.42    7.76   0
  -2   1 -12   -2.09    6.12   0
   2  -1  12    2.13    7.41   0
   2  -1  12    3.97    6.00   0
   2  -1  12    1.33    7.79   0
  -3   1 -12   44.51    6.47   0
   3  -1  12   41.54    7.94   0
   3  -1  12   39.03    6.42   0
   3  -1  12   22.96    8.21   0
   6   0 -12    1.55    8.26   0
  -6   0  12   -8.14   10.97   0
  -6   0  12   -3.99    7.50   0
  -5   0  12   -1.38    8.79   0
   5   0 -12    4.22    8.12   0
  -5   0  12    8.62    7.34   0
  -4   0  12  159.00    6.65   0
   4   0 -12  181.28    9.48   0
  -4   0  12  162.57    8.47   0
  -4   0  12  141.60    7.99   0
   3   0 -12   10.59    7.67   0
  -3   0  12    4.73    7.17   0
  -3   0  12   17.78    7.38   0
  -3   0  12    1.33    5.98   0
  -2   0  12    5.92    5.63   0
   2   0 -12    7.87    7.30   0
  -2   0  12    5.22    5.60   0
  -2   0  12   -2.80    7.40   0
   1   0 -12   10.51    7.31   0
  -1   0  12   13.15    6.04   0
  -1   0  12   22.75    7.01   0
  -1   0  12   11.07    7.53   0
   0   0 -12   47.77    7.95   0
   0   0  12   49.76    6.16   0
   0   0  12   41.26    7.49   0
   0   0  12   39.01    6.70   0
   1   0  12    8.50    6.24   0
   1   0  12   10.10    6.10   0
   1   0  12   10.63    6.37   0
  -1   0 -12   16.82    7.71   0
   6  -1 -12    9.15    6.27   0
  -6   1  12   -2.14    9.18   0
   6  -1 -12    1.83    8.35   0
  -6   1  12   10.16    7.63   0
   5  -1 -12    2.66    8.33   0
  -5   1  12   75.47    9.20   0
  -5   1  12   65.63    6.47   0
   4  -1 -12    3.06    7.76   0
  -4   1  12   -0.19    5.93   0
  -4   1  12   -2.25    7.76   0
  -4   1  12   -4.93    7.47   0
   3  -1 -12   14.35    7.70   0
  -3   1  12   23.33    7.48   0
  -3   1  12   16.99    7.69   0
  -3   1  12   13.44    7.31   0
  -2   1  12    6.42    7.30   0
  -2   1  12    0.05    7.34   0
   2  -1 -12    0.29    7.22   0
  -2   1  12    9.04    6.03   0
  -1   1  12   12.65    7.79   0
  -1   1  12   25.80    6.04   0
  -1   1  12   36.33    6.46   0
   1  -1 -12   33.95    7.83   0
   0   1  12   11.59    7.84   0
   0   1  12   10.01    7.73   0
   0   1  12    4.26    7.73   0
   0  -1 -12    7.78    6.39   0
   4  -2 -12    1.53    8.08   0
  -4   2  12    1.05    7.40   0
  -4   2  12   10.75    7.79   0
  -4   2  12   -6.24    5.95   0
  -3   2  12    4.47    7.52   0
  -3   2  12   -2.81    7.75   0
   3  -2 -12   -4.00    7.76   0
  -3   2  12   -0.63    7.83   0
  -2   2  12   64.58    8.01   0
  -2   2  12   69.16    8.20   0
   2  -2 -12   68.43    8.39   0
  -2   2  12   63.61    6.83   0
   1 -11  13  125.11    8.30   0
   1 -11  13  137.83    8.66   0
   1 -11  13  184.67    8.49   0
   2 -11  13   12.66    6.27   0
   2 -11  13   11.23    7.62   0
   2 -11  13    8.48    7.76   0
  -1 -10  13    5.66    7.26   0
  -1 -10  13    5.12    7.60   0
  -1 -10  13    1.93    7.57   0
   0 -10  13   91.91    8.04   0
   0 -10  13  103.95    6.84   0
   0 -10  13  116.91    8.19   0
   1 -10  13    9.41    7.26   0
   1 -10  13    2.73    6.09   0
   1 -10  13    1.50    7.44   0
   2 -10  13    8.75    5.98   0
   2 -10  13    3.84    7.19   0
   2 -10  13   -5.55    7.75   0
   3 -10  13    0.01    5.91   0
   3 -10  13   -6.37    6.04   0
  -4  10 -13   68.37    6.60   0
   4 -10  13   65.58    6.49   0
   4 -10  13   70.69    8.06   0
  -2  -9  13    8.00    7.42   0
  -2  -9  13    9.32    7.49   0
  -2  -9  13    3.89    7.53   0
  -1  -9  13   -2.18    5.95   0
  -1  -9  13   -2.10    7.31   0
  -1  -9  13   -1.08    7.27   0
   0  -9  13    0.71    5.97   0
   0  -9  13    5.60    7.23   0
   0  -9  13   11.64    6.37   0
   1  -9  13    7.90    6.02   0
   1  -9  13    6.66    7.45   0
   1  -9  13    5.67    7.34   0
  -2   9 -13   13.76    7.39   0
   2  -9  13    0.04    5.86   0
   2  -9  13   -0.43    7.21   0
   2  -9  13    6.15    6.23   0
  -3   9 -13   66.04    7.67   0
   3  -9  13   38.86    7.57   0
   3  -9  13   52.35    7.62   0
   3  -9  13   48.45    7.75   0
   4  -9  13    0.98    6.28   0
   4  -9  13    1.38    6.50   0
  -4   9 -13   -3.23    7.87   0
  -3  -8  13    0.79    6.02   0
  -3  -8  13   13.30    6.38   0
  -3  -8  13   19.37    7.88   0
  -2  -8  13    7.99    5.98   0
  -2  -8  13    3.68    7.36   0
  -2  -8  13   17.01    7.44   0
  -1  -8  13    3.83    5.73   0
  -1  -8  13    8.33    7.25   0
  -1  -8  13    9.98    7.52   0
   0  -8  13   88.28    7.58   0
   0  -8  13  112.43    6.45   0
   0  -8  13  110.74    6.63   0
   0   8 -13  108.24    7.75   0
  -1   8 -13    7.14    6.00   0
   1  -8  13   14.54    6.90   0
   1  -8  13   11.95    5.79   0
   1  -8  13    6.32    7.47   0
   2  -8  13   33.22    6.03   0
   2  -8  13   25.70    6.04   0
  -2   8 -13   29.34    7.46   0
   2  -8  13   38.08    7.46   0
  -3   8 -13   -5.24    6.01   0
   3  -8  13  -10.90    5.77   0
   3  -8  13    4.85    7.24   0
   3  -8  13    6.89    6.20   0
   4  -8  13   95.88    6.57   0
   4  -8  13  107.43    6.94   0
   4  -8  13   98.92    8.01   0
  -4   8 -13  118.80    6.90   0
  -4  -7  13    9.82    7.79   0
  -4  -7  13    7.07    7.73   0
  -4  -7  13    0.04    7.93   0
  -3  -7  13   12.14    7.16   0
  -3  -7  13   10.65    7.36   0
  -3  -7  13    6.19    7.69   0
  -2  -7  13    0.74    5.83   0
  -2  -7  13    8.79    7.25   0
  -2  -7  13    7.60    8.63   0
   1   7 -13  203.18    8.13   0
  -1  -7  13  174.80    6.84   0
  -1  -7  13  183.37    8.03   0
  -1  -7  13  184.64    8.36   0
   0  -7  13   14.97    5.78   0
   0  -7  13   31.29    6.99   0
   0  -7  13    4.97    7.49   0
   0   7 -13   25.93    7.27   0
  -1   7 -13    8.38    5.91   0
   1  -7  13    1.31    5.79   0
   1  -7  13   -2.31    7.19   0
   1  -7  13    3.63    6.12   0
   2  -7  13   15.02    5.96   0
   2  -7  13    8.85    6.02   0
   2  -7  13   13.65    6.16   0
  -2   7 -13   15.83    5.97   0
   3  -7  13  170.92    7.99   0
   3  -7  13  206.92    8.56   0
   3  -7  13  186.23    6.70   0
  -3   7 -13  220.14    8.36   0
   4  -7  13   11.30    7.29   0
   4  -7  13   -1.07    6.52   0
  -4   7 -13    4.94    6.46   0
   4  -7  13    1.12    6.18   0
  -5  -6  13    8.56    6.35   0
  -5  -6  13    4.30    7.90   0
  -5  -6  13   -6.15   10.59   0
  -4  -6  13    5.27    5.97   0
  -4  -6  13    3.67    7.72   0
  -4  -6  13    1.69    7.95   0
  -3  -6  13    3.66    7.15   0
  -3  -6  13    2.15    5.83   0
  -3  -6  13    3.41    7.79   0
  -2  -6  13  146.61    7.82   0
  -2  -6  13  158.30    8.08   0
  -2  -6  13  181.79    8.48   0
   2   6 -13  186.53    8.22   0
  -1  -6  13   -6.88    5.68   0
   1   6 -13    6.27    7.14   0
  -1  -6  13    8.03    5.62   0
  -1  -6  13   -5.45    7.64   0
   0  -6  13   24.01    5.75   0
   0  -6  13   10.93    7.04   0
   0  -6  13   20.06    7.54   0
   0   6 -13   25.53    7.27   0
   1  -6  13    4.60    7.07   0
   1  -6  13   -2.60    6.18   0
   1  -6  13    7.54    5.82   0
  -1   6 -13    6.38    5.81   0
  -2   6 -13  238.76    8.23   0
   2  -6  13  203.39    8.17   0
   2  -6  13  246.17    8.56   0
   2  -6  13  211.05    7.99   0
  -3   6 -13    9.96    7.65   0
   3  -6  13   16.75    7.20   0
   3  -6  13    6.13    7.81   0
   3  -6  13   -3.27    6.02   0
  -4   6 -13   23.25    7.65   0
   4  -6  13   26.50    6.45   0
   4  -6  13   16.98    7.35   0
   4  -6  13   14.78    7.48   0
  -5  -5  13   39.61    7.71   0
  -5  -5  13   36.45   10.91   0
  -5  -5  13   38.31    8.09   0
  -4  -5  13    5.25    5.99   0
  -4  -5  13   11.72    9.17   0
  -4  -5  13   12.53    7.43   0
  -3  -5  13   87.80    6.34   0
  -3  -5  13   74.63    8.13   0
  -3  -5  13   72.67    7.59   0
   3   5 -13   93.87    9.01   0
  -2  -5  13    3.84    7.06   0
   2   5 -13    2.56    7.14   0
  -2  -5  13    1.32    7.64   0
  -2  -5  13    5.57    5.76   0
  -1  -5  13   68.24    6.01   0
  -1  -5  13   65.89    6.69   0
  -1  -5  13   67.20    6.03   0
   1   5 -13   65.27    7.57   0
   0   5 -13    3.72    5.83   0
   0  -5  13    4.45    6.98   0
   0  -5  13    9.51    7.54   0
   0  -5  13    7.56    7.03   0
   1  -5  13  123.34    7.86   0
   1  -5  13  149.22    8.26   0
   1  -5  13  124.89    7.89   0
  -1   5 -13  161.78    6.74   0
   2  -5  13    9.16    7.70   0
   2  -5  13    8.98    7.24   0
   2  -5  13    4.48    7.12   0
  -2   5 -13    4.27    6.07   0
   3  -5  13    1.05    7.85   0
   3  -5  13   10.19    7.37   0
   3  -5  13   -0.82    5.85   0
  -3   5 -13   13.29    7.60   0
   4  -5  13   12.17    7.98   0
   4  -5  13    1.30    6.14   0
   4  -5  13    9.93    6.04   0
  -4   5 -13   13.66    7.78   0
  -5  -4  13    4.51   10.42   0
  -5  -4  13    9.96    6.09   0
  -5  -4  13   11.48    7.50   0
  -4  -4  13   23.00    7.32   0
  -4  -4  13   10.13    9.19   0
  -4  -4  13   18.07    6.16   0
   4   4 -13   11.39    7.55   0
  -3  -4  13    7.84    7.29   0
  -3  -4  13   14.58    7.72   0
  -3  -4  13   10.63    7.15   0
   3   4 -13   10.14    7.45   0
  -2  -4  13  276.78    8.26   0
  -2  -4  13  298.14    9.22   0
  -2  -4  13  296.95    7.23   0
   2   4 -13  332.82    8.70   0
   1   4 -13   -0.18    7.29   0
  -1  -4  13   11.13    7.11   0
  -1  -4  13    9.89    7.58   0
  -1  -4  13   17.36    7.07   0
   0  -4  13   17.31    7.12   0
   0  -4  13   20.06    7.72   0
   0  -4  13   15.58    7.18   0
   0   4 -13    9.54    7.31   0
   1  -4  13   -9.03    7.96   0
   1  -4  13    0.04    7.21   0
   1  -4  13    7.18    7.26   0
  -1   4 -13    4.49    7.28   0
   2  -4  13   28.11    6.62   0
   2  -4  13   16.55    6.00   0
   2  -4  13   27.24    6.09   0
  -2   4 -13   32.53    6.22   0
   3  -4  13    2.73    6.49   0
   3  -4  13    6.06    7.45   0
   3  -4  13   -1.54    7.41   0
  -3   4 -13   -4.42    6.24   0
  -5  -3  13   16.20    6.13   0
   5   3 -13   -0.37    9.11   0
  -5  -3  13   13.79   10.36   0
  -5  -3  13    2.08    5.93   0
  -4  -3  13    4.90    7.96   0
  -4  -3  13   -3.19    7.37   0
  -4  -3  13   11.99    5.60   0
   4   3 -13    9.56    7.67   0
  -3  -3  13   66.00    6.39   0
  -3  -3  13   69.82    9.38   0
  -3  -3  13   68.21    6.33   0
   3   3 -13   82.42    7.79   0
  -2  -3  13   15.14    7.84   0
  -2  -3  13    3.61    6.01   0
  -2  -3  13    7.86    6.03   0
   2   3 -13    6.57    7.34   0
  -1  -3  13   12.88    7.69   0
  -1  -3  13   -4.55    7.28   0
  -1  -3  13    6.75    7.15   0
   1   3 -13   13.94    7.28   0
   0  -3  13   12.74    6.32   0
   0  -3  13    3.40    7.24   0
   0  -3  13    7.33    7.25   0
   0   3 -13    9.82    7.21   0
   1  -3  13   50.18    7.98   0
   1  -3  13   39.05    6.25   0
   1  -3  13   42.75    6.15   0
  -1   3 -13   42.19    7.78   0
   2  -3  13    8.36    6.52   0
   2  -3  13   -0.69    6.03   0
   2  -3  13    9.15    7.44   0
  -2   3 -13    8.16    7.67   0
   5   2 -13   -0.03    9.24   0
  -5  -2  13   -4.42    6.35   0
  -5  -2  13    6.53    9.19   0
  -5  -2  13    0.03    7.59   0
  -4  -2  13   68.49    7.75   0
   4   2 -13  103.12    8.15   0
  -4  -2  13   94.12    6.30   0
  -4  -2  13   88.10    8.51   0
  -3  -2  13    8.71    7.26   0
  -3  -2  13   10.89    5.87   0
   3   2 -13   -0.33    7.50   0
  -3  -2  13    9.27    7.82   0
  -2  -2  13   17.00    6.09   0
  -2  -2  13   24.94    5.93   0
   2   2 -13   18.74    7.64   0
  -2  -2  13   28.88    7.71   0
  -1  -2  13    0.21    5.87   0
  -1  -2  13   -2.64    5.95   0
   1   2 -13    4.84    7.42   0
  -1  -2  13    1.06    7.76   0
   0  -2  13   79.02    6.32   0
   0  -2  13   77.43    6.41   0
   0   2 -13   87.21    6.51   0
   0  -2  13   98.49    6.77   0
   1  -2  13   -0.13    6.00   0
  -1   2 -13    6.42    7.71   0
   1  -2  13    1.81    6.00   0
   1  -2  13    2.44    8.08   0
   2  -2  13    4.49    7.75   0
  -2   2 -13    1.61    8.06   0
   2  -2  13    4.53    6.33   0
   2  -2  13   12.04    8.04   0
  -5  -1  13   25.52    6.51   0
   5   1 -13    7.54    8.53   0
  -5  -1  13   45.49    9.54   0
  -5  -1  13   44.39    6.69   0
  -4  -1  13    2.33    7.56   0
   4   1 -13    8.29    7.74   0
  -4  -1  13    3.89    9.01   0
  -4  -1  13   10.62    6.26   0
  -3  -1  13   12.13    7.53   0
  -3  -1  13   15.09    7.28   0
   3   1 -13    9.87    7.68   0
  -3  -1  13    8.96    9.02   0
  -2  -1  13    3.92    6.01   0
  -2  -1  13    8.76    6.03   0
   2   1 -13    4.41    7.56   0
  -2  -1  13    3.43    7.77   0
  -1  -1  13   75.40    7.79   0
   1   1 -13   94.85    8.11   0
  -1  -1  13   79.89    6.53   0
  -1  -1  13   93.44    8.43   0
   0  -1  13    6.95    6.05   0
   0   1 -13   -4.82    7.93   0
   0  -1  13    9.51    7.24   0
   0  -1  13    6.21    6.47   0
  -4   0  13   20.50    6.31   0
   4   0 -13   35.89    9.33   0
  -4   0  13   39.21    9.25   0
  -4   0  13   20.03    7.75   0
  -3   0  13   -4.42    7.63   0
   3   0 -13    8.72    7.78   0
  -3   0  13   11.95    7.87   0
  -3   0  13    3.01    7.63   0
  -2   0  13   21.75    6.13   0
   2   0 -13   37.08    7.99   0
  -2   0  13   21.72    6.28   0
  -2   0  13   26.01    6.62   0
  -1   0  13    8.25    8.01   0
   1   0 -13   10.26    7.86   0
  -1   0  13    6.84    7.71   0
  -1   0  13    3.34    7.91   0
   0  -9  14    0.26    6.04   0
   0  -9  14    7.17    6.20   0
   0  -9  14    4.72    7.87   0
  -1   9 -14   13.36    7.63   0
   1  -9  14   -6.27    7.52   0
   1  -9  14    6.52    7.52   0
   1  -9  14    1.52    6.40   0
  -2  -8  14   17.56    6.31   0
  -2  -8  14   30.40    7.81   0
  -2  -8  14   29.23    8.22   0
  -1  -8  14    2.47    7.42   0
  -1  -8  14   -1.35    7.55   0
  -1  -8  14   -3.88    7.90   0
   0   8 -14    1.18    6.27   0
   0  -8  14    1.22    7.43   0
   0  -8  14    7.00    6.43   0
   0  -8  14  -12.45    7.73   0
   1  -8  14    2.24    7.70   0
   1  -8  14   -3.11    6.17   0
   1  -8  14   -0.93    6.46   0
  -1   8 -14   -0.37    6.27   0
   2  -8  14   43.07    7.87   0
  -2   8 -14   51.28    6.59   0
   2  -8  14   42.78    6.58   0
   2  -8  14   49.25    8.07   0
  -2  -7  14   12.73    6.07   0
  -2  -7  14   -5.52    7.49   0
  -2  -7  14   -2.41    9.24   0
  -1  -7  14   26.23    6.18   0
  -1  -7  14   34.42    6.43   0
  -1  -7  14   39.65    8.15   0
   1   7 -14   42.79    7.73   0
   0  -7  14   16.17    6.01   0
   0  -7  14    2.33    6.19   0
   0  -7  14   -1.79    6.44   0
   0   7 -14   11.85    6.44   0
  -1   7 -14   22.21    7.62   0
   1  -7  14   21.36    7.66   0
   1  -7  14   15.22    6.53   0
   1  -7  14   24.50    6.34   0
   2  -7  14    0.74    6.18   0
   2  -7  14    3.35    7.92   0
   2  -7  14   15.74    7.53   0
  -2   7 -14    6.84    7.61   0
  -3  -6  14    8.01    6.04   0
  -3  -6  14   -3.01    8.02   0
  -3  -6  14   10.57    6.21   0
  -2  -6  14   81.11    7.84   0
   2   6 -14   96.79    8.07   0
  -2  -6  14   94.64    8.52   0
  -2  -6  14   80.14    7.73   0
  -1  -6  14   17.18    7.50   0
   1   6 -14   16.86    7.69   0
  -1  -6  14    5.92    6.66   0
  -1  -6  14    1.65    6.24   0
   0  -6  14   12.96    6.24   0
   0  -6  14   12.64    7.91   0
   0  -6  14   16.56    6.28   0
   0   6 -14    5.54    6.09   0
   1  -6  14    1.93    6.22   0
   1  -6  14    9.01    7.77   0
   1  -6  14  -10.88    7.53   0
  -1   6 -14    3.74    6.20   0
   2  -6  14   70.62    8.06   0
   2  -6  14  103.75    7.00   0
  -2   6 -14  106.97    8.06   0
   2  -6  14   84.08    8.10   0
  -3  -5  14   95.71    8.02   0
  -3  -5  14  109.95    8.72   0
   3   5 -14  104.53    9.43   0
  -3  -5  14   86.22    6.95   0
  -2  -5  14    6.98    7.50   0
  -2  -5  14   -3.22    8.07   0
  -2  -5  14    8.50    7.51   0
   2   5 -14    6.11    7.62   0
  -1  -5  14   12.19    6.13   0
  -1  -5  14   21.39    7.86   0
  -1  -5  14    8.23    7.74   0
   1   5 -14   16.58    6.18   0
   0  -5  14   -3.02    7.52   0
   0  -5  14    4.48    7.89   0
   0   5 -14   -2.14    7.71   0
   0  -5  14   -7.27    6.22   0
  -1   5 -14  172.65    8.58   0
   1  -5  14  189.85    7.58   0
   1  -5  14  125.66    8.54   0
   1  -5  14  159.18    8.67   0
  -3  -4  14   10.42    7.68   0
  -3  -4  14   10.71    8.19   0
  -3  -4  14   13.64    7.52   0
   3   4 -14    6.79    8.90   0
  -2  -4  14   12.76    7.75   0
  -2  -4  14    3.75    8.17   0
  -2  -4  14   18.26    6.30   0
   2   4 -14   16.31    7.75   0
   1   4 -14   31.66    7.72   0
  -1  -4  14   21.02    8.25   0
  -1  -4  14    9.95    7.79   0
  -1  -4  14    5.17    6.38   0
   0  -4  14  117.06    7.29   0
   0  -4  14   80.82    8.28   0
   0  -4  14   87.78    7.00   0
   0   4 -14  122.31    6.98   0
   1  -4  14   -1.25    8.01   0
   1  -4  14    9.86    6.31   0
   1  -4  14    7.88    6.29   0
  -1   4 -14    9.53    7.68   0
  -3  -3  14   29.49    6.42   0
  -3  -3  14   28.00    6.43   0
   3   3 -14   40.54    8.14   0
  -3  -3  14   33.91    9.68   0
  -2  -3  14    4.70    8.15   0
  -2  -3  14   11.89    7.66   0
  -2  -3  14    6.24    6.25   0
   2   3 -14    4.17    7.83   0
  -1  -3  14    6.76    8.04   0
  -1  -3  14    8.19    6.40   0
  -1  -3  14   -7.04    7.72   0
   1   3 -14    5.35    7.96   0
   0  -3  14    8.36    8.20   0
   0  -3  14    7.92    7.69   0
   0  -3  14    7.86    7.63   0
   0   3 -14   -3.01    6.52   0
;
_shelx_hkl_checksum              66775
loop_
_space_group_symop_operation_xyz
'x, y, z'
'-x, -y, -z'
loop_
_atom_site_label
_atom_site_type_symbol
_atom_site_fract_x
_atom_site_fract_y
_atom_site_fract_z
_atom_site_U_iso_or_equiv
_atom_site_adp_type
_atom_site_occupancy
_atom_site_site_symmetry_order
_atom_site_calc_flag
_atom_site_refinement_flags_posn
_atom_site_refinement_flags_adp
_atom_site_refinement_flags_occupancy
_atom_site_disorder_assembly
_atom_site_disorder_group
Co1 Co 1.0000 0.5000 0.5000 0.03058(12) Uani 1 2 d S . P . .
N1 N 0.5762(2) 0.1209(2) 0.3952(2) 0.0360(5) Uani 1 1 d . . . . .
C1 C 0.6369(3) 0.2165(3) 0.3668(2) 0.0304(5) Uani 1 1 d . . . . .
S1 S 0.71999(8) 0.35104(7) 0.32528(7) 0.04000(16) Uani 1 1 d . . . . .
N11 N 0.9078(3) 0.6446(2) 0.6440(2) 0.0377(5) Uani 1 1 d . . . . .
C11 C 0.9236(4) 0.6718(3) 0.7754(3) 0.0485(6) Uani 1 1 d . . . . .
H11 H 0.9784 0.6259 0.8062 0.058 Uiso 1 1 calc R U . . .
C12 C 0.8636(4) 0.7635(4) 0.8679(3) 0.0597(8) Uani 1 1 d . . . . .
H12 H 0.8774 0.7791 0.9602 0.072 Uiso 1 1 calc R U . . .
C13 C 0.7835(4) 0.8331(3) 0.8282(4) 0.0582(8) Uani 1 1 d . . . . .
C14 C 0.7675(4) 0.8051(3) 0.6922(4) 0.0562(8) Uani 1 1 d . . . . .
H14 H 0.7136 0.8501 0.6593 0.067 Uiso 1 1 calc R U . . .
C15 C 0.8295(3) 0.7123(3) 0.6053(3) 0.0475(6) Uani 1 1 d . . . . .
H15 H 0.8165 0.6947 0.5123 0.057 Uiso 1 1 calc R U . . .
C16 C 0.7085(7) 0.9329(6) 0.9086(6) 0.0510(13) Uani 0.68 1 d D . P A 1
H16 H 0.6541 0.9684 0.8637 0.061 Uiso 0.68 1 calc R U P A 1
C17 C 0.7141(8) 0.9736(7) 1.0381(6) 0.0808(19) Uani 0.68 1 d D . P A 1
H17A H 0.7680 0.9392 1.0847 0.097 Uiso 0.68 1 calc R U P A 1
H17B H 0.6645 1.0380 1.0866 0.097 Uiso 0.68 1 calc R U P A 1
C16' C 0.7503(15) 0.9360(14) 0.9660(15) 0.054(3) Uani 0.32 1 d D . P A 2
H16' H 0.7785 0.9377 1.0513 0.065 Uiso 0.32 1 calc R U P A 2
C17' C 0.6810(14) 1.0187(14) 0.9532(12) 0.068(3) Uani 0.32 1 d D . P A 2
H17C H 0.6550 1.0134 0.8658 0.081 Uiso 0.32 1 calc R U P A 2
H17D H 0.6564 1.0843 1.0312 0.081 Uiso 0.32 1 calc R U P A 2
Co2 Co 0.5000 0.0000 0.5000 0.03112(12) Uani 1 2 d S . P . .
N2 N 1.0566(3) 0.6384(2) 0.4070(2) 0.0351(4) Uani 1 1 d . . . . .
C2 C 1.1238(3) 0.7239(3) 0.3692(2) 0.0304(5) Uani 1 1 d . . . . .
S2 S 1.22319(8) 0.84533(7) 0.31649(6) 0.03835(16) Uani 1 1 d . . . . .
N21 N 0.4104(3) 0.1621(2) 0.6253(2) 0.0369(5) Uani 1 1 d . . . . .
C21 C 0.2701(3) 0.1161(3) 0.6612(3) 0.0438(6) Uani 1 1 d . . . . .
H21 H 0.2066 0.0100 0.6241 0.053 Uiso 1 1 calc R U . . .
C22 C 0.2135(4) 0.2146(4) 0.7488(3) 0.0493(7) Uani 1 1 d . . . . .
H22 H 0.1126 0.1759 0.7700 0.059 Uiso 1 1 calc R U . . .
C23 C 0.3033(4) 0.3700(3) 0.8063(3) 0.0468(7) Uani 1 1 d . . . . .
C24 C 0.4478(4) 0.4186(3) 0.7672(3) 0.0477(6) Uani 1 1 d . . . . .
H24 H 0.5124 0.5241 0.8016 0.057 Uiso 1 1 calc R U . . .
C25 C 0.4961(3) 0.3131(3) 0.6788(3) 0.0428(6) Uani 1 1 d . . . . .
H25 H 0.5952 0.3487 0.6541 0.051 Uiso 1 1 calc R U . . .
C26 C 0.2323(12) 0.4602(9) 0.8991(10) 0.049(2) Uani 0.63 1 d D . P B 1
H26 H 0.1244 0.4116 0.9038 0.059 Uiso 0.63 1 calc R U P B 1
C27 C 0.3132(9) 0.6086(8) 0.9776(6) 0.0691(16) Uani 0.63 1 d D . P B 1
H27A H 0.4212 0.6587 0.9739 0.083 Uiso 0.63 1 calc R U P B 1
H27B H 0.2634 0.6653 1.0378 0.083 Uiso 0.63 1 calc R U P B 1
C26' C 0.2830(15) 0.5097(15) 0.9197(15) 0.037(3) Uani 0.37 1 d D . P B 2
H26' H 0.3654 0.6101 0.9563 0.045 Uiso 0.37 1 calc R U P B 2
C27' C 0.1489(11) 0.4834(11) 0.9622(9) 0.061(2) Uani 0.37 1 d D . P B 2
H27C H 0.0677 0.3824 0.9245 0.073 Uiso 0.37 1 calc R U P B 2
H27D H 0.1328 0.5655 1.0307 0.073 Uiso 0.37 1 calc R U P B 2
loop_
_atom_site_aniso_label
_atom_site_aniso_U_11
_atom_site_aniso_U_22
_atom_site_aniso_U_33
_atom_site_aniso_U_23
_atom_site_aniso_U_13
_atom_site_aniso_U_12
Co1 0.0296(3) 0.0272(2) 0.0383(2) 0.0197(2) 0.0089(2) 0.0102(2)
N1 0.0315(11) 0.0363(11) 0.0430(11) 0.0251(9) 0.0084(9) 0.0098(10)
C1 0.0261(12) 0.0320(12) 0.0321(11) 0.0150(10) 0.0048(9) 0.0116(11)
S1 0.0359(4) 0.0367(4) 0.0487(4) 0.0288(3) 0.0031(3) 0.0073(3)
N11 0.0382(12) 0.0358(11) 0.0423(11) 0.0205(9) 0.0100(9) 0.0165(10)
C11 0.0547(17) 0.0498(16) 0.0468(14) 0.0242(13) 0.0165(13) 0.0261(15)
C12 0.067(2) 0.0550(19) 0.0494(16) 0.0192(14) 0.0231(15) 0.0233(17)
C13 0.0451(17) 0.0412(17) 0.078(2) 0.0196(15) 0.0264(16) 0.0168(15)
C14 0.0474(17) 0.0452(17) 0.081(2) 0.0278(15) 0.0194(15) 0.0264(15)
C15 0.0445(16) 0.0456(15) 0.0583(16) 0.0268(13) 0.0117(13) 0.0228(13)
C16 0.049(3) 0.045(3) 0.049(3) 0.011(2) 0.006(3) 0.025(3)
C17 0.102(5) 0.088(4) 0.062(3) 0.025(3) 0.032(3) 0.062(4)
C16' 0.053(7) 0.064(7) 0.044(6) 0.020(6) 0.006(5) 0.033(6)
C17' 0.079(8) 0.063(7) 0.046(5) 0.012(5) 0.009(5) 0.031(7)
Co2 0.0283(3) 0.0291(2) 0.0404(2) 0.0212(2) 0.0116(2) 0.0106(2)
N2 0.0319(11) 0.0320(11) 0.0428(11) 0.0238(9) 0.0047(9) 0.0083(9)
C2 0.0277(12) 0.0295(12) 0.0324(11) 0.0138(10) 0.0046(9) 0.0119(11)
S2 0.0343(4) 0.0387(4) 0.0446(3) 0.0278(3) 0.0084(3) 0.0084(3)
N21 0.0349(12) 0.0367(11) 0.0440(11) 0.0222(10) 0.0132(9) 0.0162(10)
C21 0.0380(14) 0.0483(15) 0.0484(14) 0.0247(12) 0.0154(11) 0.0189(13)
C22 0.0452(16) 0.068(2) 0.0500(15) 0.0329(15) 0.0207(13) 0.0331(16)
C23 0.0580(18) 0.0600(18) 0.0397(13) 0.0261(13) 0.0122(12) 0.0400(16)
C24 0.0553(18) 0.0397(15) 0.0508(15) 0.0202(12) 0.0100(13) 0.0249(14)
C25 0.0405(14) 0.0373(14) 0.0515(14) 0.0213(12) 0.0107(12) 0.0172(12)
C26 0.058(5) 0.039(5) 0.041(4) 0.014(4) 0.004(4) 0.018(4)
C27 0.096(5) 0.074(4) 0.049(3) 0.023(3) 0.028(3) 0.054(4)
C26' 0.043(7) 0.022(7) 0.029(4) -0.004(5) -0.001(5) 0.018(5)
C27' 0.059(6) 0.067(6) 0.048(4) 0.010(4) 0.017(4) 0.038(5)
loop_
_atom_type_symbol
_atom_type_description
_atom_type_scat_dispersion_real
_atom_type_scat_dispersion_imag
_atom_type_scat_source
C C 0.0033 0.0016 'International Tables Vol C Tables 4.2.6.8 and 6.1.1.4'
H H 0.0000 0.0000 'International Tables Vol C Tables 4.2.6.8 and 6.1.1.4'
Co Co 0.3494 0.9721 'International Tables Vol C Tables 4.2.6.8 and 6.1.1.4'
N N 0.0061 0.0033 'International Tables Vol C Tables 4.2.6.8 and 6.1.1.4'
S S 0.1246 0.1234 'International Tables Vol C Tables 4.2.6.8 and 6.1.1.4'
loop_
_geom_angle_atom_site_label_1
_geom_angle_atom_site_label_2
_geom_angle_atom_site_label_3
_geom_angle
_geom_angle_site_symmetry_1
_geom_angle_site_symmetry_3
N2 Co1 N2 180.0 . 2_766
N2 Co1 N11 89.78(8) . 2_766
N2 Co1 N11 90.22(8) 2_766 2_766
N2 Co1 N11 90.22(8) . .
N2 Co1 N11 89.78(8) 2_766 .
N11 Co1 N11 180.0 2_766 .
N2 Co1 S1 93.86(6) . 2_766
N2 Co1 S1 86.14(6) 2_766 2_766
N11 Co1 S1 89.73(6) 2_766 2_766
N11 Co1 S1 90.27(6) . 2_766
N2 Co1 S1 86.14(6) . .
N2 Co1 S1 93.86(6) 2_766 .
N11 Co1 S1 90.27(6) 2_766 .
N11 Co1 S1 89.73(6) . .
S1 Co1 S1 180.0 2_766 .
C1 N1 Co2 164.1(2) . .
N1 C1 S1 179.1(2) . .
C1 S1 Co1 99.80(8) . .
C11 N11 C15 116.5(2) . .
C11 N11 Co1 122.41(17) . .
C15 N11 Co1 121.10(18) . .
N11 C11 C12 122.7(3) . .
N11 C11 H11 118.7 . .
C12 C11 H11 118.7 . .
C11 C12 C13 120.8(3) . .
C11 C12 H12 119.6 . .
C13 C12 H12 119.6 . .
C12 C13 C14 116.4(3) . .
C12 C13 C16 129.8(4) . .
C14 C13 C16 113.7(4) . .
C12 C13 C16' 103.9(5) . .
C14 C13 C16' 139.4(5) . .
C15 C14 C13 119.9(3) . .
C15 C14 H14 120.1 . .
C13 C14 H14 120.1 . .
N11 C15 C14 123.7(3) . .
N11 C15 H15 118.1 . .
C14 C15 H15 118.1 . .
C17 C16 C13 122.3(6) . .
C17 C16 H16 118.8 . .
C13 C16 H16 118.8 . .
C16 C17 H17A 120.0 . .
C16 C17 H17B 120.0 . .
H17A C17 H17B 120.0 . .
C17' C16' C13 114.3(12) . .
C17' C16' H16' 122.9 . .
C13 C16' H16' 122.9 . .
C16' C17' H17C 120.0 . .
C16' C17' H17D 120.0 . .
H17C C17' H17D 120.0 . .
N1 Co2 N1 180.0 . 2_656
N1 Co2 N21 90.32(8) . 2_656
N1 Co2 N21 89.68(8) 2_656 2_656
N1 Co2 N21 89.68(8) . .
N1 Co2 N21 90.32(8) 2_656 .
N21 Co2 N21 180.0 2_656 .
N1 Co2 S2 87.54(6) . 1_445
N1 Co2 S2 92.47(6) 2_656 1_445
N21 Co2 S2 90.35(6) 2_656 1_445
N21 Co2 S2 89.65(6) . 1_445
N1 Co2 S2 92.46(6) . 2_766
N1 Co2 S2 87.53(6) 2_656 2_766
N21 Co2 S2 89.65(6) 2_656 2_766
N21 Co2 S2 90.35(6) . 2_766
S2 Co2 S2 180.00(3) 1_445 2_766
C2 N2 Co1 164.38(19) . .
N2 C2 S2 178.7(2) . .
C2 S2 Co2 101.16(8) . 1_665
C21 N21 C25 116.6(2) . .
C21 N21 Co2 120.94(18) . .
C25 N21 Co2 122.34(17) . .
N21 C21 C22 123.4(3) . .
N21 C21 H21 118.3 . .
C22 C21 H21 118.3 . .
C21 C22 C23 120.1(3) . .
C21 C22 H22 120.0 . .
C23 C22 H22 120.0 . .
C22 C23 C24 116.8(2) . .
C22 C23 C26 114.4(4) . .
C24 C23 C26 128.7(4) . .
C22 C23 C26' 132.5(5) . .
C24 C23 C26' 110.5(5) . .
C25 C24 C23 119.7(3) . .
C25 C24 H24 120.2 . .
C23 C24 H24 120.2 . .
N21 C25 C24 123.5(3) . .
N21 C25 H25 118.3 . .
C24 C25 H25 118.3 . .
C27 C26 C23 121.8(8) . .
C27 C26 H26 119.1 . .
C23 C26 H26 119.1 . .
C26 C27 H27A 120.0 . .
C26 C27 H27B 120.0 . .
H27A C27 H27B 120.0 . .
C27' C26' C23 117.9(10) . .
C27' C26' H26' 121.0 . .
C23 C26' H26' 121.0 . .
C26' C27' H27C 120.0 . .
C26' C27' H27D 120.0 . .
H27C C27' H27D 120.0 . .
loop_
_geom_bond_atom_site_label_1
_geom_bond_atom_site_label_2
_geom_bond_distance
_geom_bond_site_symmetry_2
Co1 N2 2.0757(19) .
Co1 N2 2.0758(19) 2_766
Co1 N11 2.147(2) 2_766
Co1 N11 2.147(2) .
Co1 S1 2.5862(7) 2_766
Co1 S1 2.5862(7) .
N1 C1 1.156(3) .
N1 Co2 2.0500(19) .
C1 S1 1.635(2) .
N11 C11 1.336(3) .
N11 C15 1.347(3) .
C11 C12 1.377(4) .
C11 H11 0.9500 .
C12 C13 1.382(5) .
C12 H12 0.9500 .
C13 C14 1.383(5) .
C13 C16 1.476(6) .
C13 C16' 1.573(14) .
C14 C15 1.369(4) .
C14 H14 0.9500 .
C15 H15 0.9500 .
C16 C17 1.293(7) .
C16 H16 0.9500 .
C17 H17A 0.9500 .
C17 H17B 0.9500 .
C16' C17' 1.304(12) .
C16' H16' 0.9500 .
C17' H17C 0.9500 .
C17' H17D 0.9500 .
Co2 N1 2.050(2) 2_656
Co2 N21 2.164(2) 2_656
Co2 N21 2.164(2) .
Co2 S2 2.6051(7) 1_445
Co2 S2 2.6051(7) 2_766
N2 C2 1.156(3) .
C2 S2 1.644(2) .
S2 Co2 2.6051(7) 1_665
N21 C21 1.343(3) .
N21 C25 1.345(3) .
C21 C22 1.374(4) .
C21 H21 0.9500 .
C22 C23 1.383(4) .
C22 H22 0.9500 .
C23 C24 1.397(4) .
C23 C26 1.441(11) .
C23 C26' 1.571(13) .
C24 C25 1.373(4) .
C24 H24 0.9500 .
C25 H25 0.9500 .
C26 C27 1.319(8) .
C26 H26 0.9500 .
C27 H27A 0.9500 .
C27 H27B 0.9500 .
C26' C27' 1.311(14) .
C26' H26' 0.9500 .
C27' H27C 0.9500 .
C27' H27D 0.9500 .
loop_
_geom_hbond_atom_site_label_D
_geom_hbond_atom_site_label_H
_geom_hbond_atom_site_label_A
_geom_hbond_distance_DH
_geom_hbond_distance_HA
_geom_hbond_distance_DA
_geom_hbond_angle_DHA
_geom_hbond_site_symmetry_A
C14 H14 S2 0.95 2.99 3.756(3) 138.6 2_776
C15 H15 N2 0.95 2.67 3.141(4) 111.4 .
