#------------------------------------------------------------------------------
#$Date: 2017-05-05 09:19:44 +0300 (Fri, 05 May 2017) $
#$Revision: 196238 $
#$URL: file:///home/coder/svn-repositories/cod/cif/7/22/82/7228220.cif $
#------------------------------------------------------------------------------
#
# This file is available in the Crystallography Open Database (COD),
# http://www.crystallography.net/
#
# All data on this site have been placed in the public domain by the
# contributors.
#
data_7228220
loop_
_publ_author_name
'Carter, Damien J.'
'Raiteri, Paolo'
'Barnard, Keith R.'
'Gielink, Rhian'
'Mocerino, Mauro'
'Skelton, Brian W.'
'Vaughan, Jamila G.'
'Ogden, Mark I.'
'Rohl, Andrew L.'
_publ_section_title
;
 Difference Hirshfeld fingerprint plots: a tool for studying polymorphs
;
_journal_issue                   16
_journal_name_full               CrystEngComm
_journal_page_first              2207
_journal_paper_doi               10.1039/C6CE02535H
_journal_volume                  19
_journal_year                    2017
_chemical_formula_moiety         'C18 H20 N2 Ni O4'
_chemical_formula_sum            'C18 H20 N2 Ni O4'
_chemical_formula_weight         387.07
_chemical_name_systematic
;
 ?
;
_space_group_IT_number           2
_symmetry_cell_setting           triclinic
_symmetry_space_group_name_Hall  '-P 1'
_symmetry_space_group_name_H-M   'P -1'
_atom_sites_solution_hydrogens   geom
_atom_sites_solution_primary     direct
_atom_sites_solution_secondary   difmap
_audit_creation_date             2010-07-12T21:35:35-00:00
_audit_creation_method           'WinGX routine CIF_UPDATE'
_audit_update_record
;
2016-11-25 deposited with the CCDC.
2017-03-28 downloaded from the CCDC.
;
_cell_angle_alpha                97.267(17)
_cell_angle_beta                 109.253(18)
_cell_angle_gamma                96.531(17)
_cell_formula_units_Z            1
_cell_length_a                   6.4680(13)
_cell_length_b                   7.7544(16)
_cell_length_c                   8.6026(17)
_cell_measurement_reflns_used    3385
_cell_measurement_temperature    100(2)
_cell_measurement_theta_max      37.0518
_cell_measurement_theta_min      3.3504
_cell_volume                     398.46(15)
_computing_cell_refinement
;
        CrysAlisPro, Oxford Diffraction Ltd.,
        Version 1.171.33.52 (release 06-11-2009 CrysAlis171 .NET)
        (compiled Nov  6 2009,16:24:50)
;
_computing_data_collection
;
        CrysAlisPro, Oxford Diffraction Ltd.,
        Version 1.171.33.52 (release 06-11-2009 CrysAlis171 .NET)
        (compiled Nov  6 2009,16:24:50)
;
_computing_data_reduction
;
        CrysAlisPro, Oxford Diffraction Ltd.,
        Version 1.171.33.52 (release 06-11-2009 CrysAlis171 .NET)
        (compiled Nov  6 2009,16:24:50)
;
_computing_molecular_graphics    'Diamond (Brandenburg, K., (1999)'
_computing_publication_material  'WinGX Farrugia, L. J. (1999)'
_computing_structure_refinement  'SHELXL-97 (Sheldrick, 2008)'
_computing_structure_solution    'SIR92 (Altomare et al., 1994)'
_diffrn_ambient_temperature      100(2)
_diffrn_detector_area_resol_mean 16.0009
_diffrn_measured_fraction_theta_full 0.997
_diffrn_measured_fraction_theta_max 0.965
_diffrn_measurement_device_type  'Oxford Diffraction Xcalibur, Sapphire3'
_diffrn_measurement_method       '\w scans'
_diffrn_orient_matrix_UB_11      0.0642063828
_diffrn_orient_matrix_UB_12      -0.0051130175
_diffrn_orient_matrix_UB_13      -0.0524411853
_diffrn_orient_matrix_UB_21      -0.0603262628
_diffrn_orient_matrix_UB_22      -0.0854840762
_diffrn_orient_matrix_UB_23      -0.0401692017
_diffrn_orient_matrix_UB_31      -0.0783603844
_diffrn_orient_matrix_UB_32      0.0378934698
_diffrn_orient_matrix_UB_33      -0.0589048998
_diffrn_radiation_monochromator  graphite
_diffrn_radiation_type           MoK\a
_diffrn_radiation_wavelength     0.71073
_diffrn_reflns_av_R_equivalents  0.0295
_diffrn_reflns_av_unetI/netI     0.0715
_diffrn_reflns_limit_h_max       9
_diffrn_reflns_limit_h_min       -11
_diffrn_reflns_limit_k_max       12
_diffrn_reflns_limit_k_min       -12
_diffrn_reflns_limit_l_max       14
_diffrn_reflns_limit_l_min       -14
_diffrn_reflns_number            7581
_diffrn_reflns_theta_full        36.5
_diffrn_reflns_theta_max         37.22
_diffrn_reflns_theta_min         3.36
_exptl_absorpt_coefficient_mu    1.244
_exptl_absorpt_correction_T_max  0.904
_exptl_absorpt_correction_T_min  0.728
_exptl_absorpt_correction_type   analytical
_exptl_absorpt_process_details
;
         CrysAlisPro, Oxford Diffraction Ltd.,
        Version 1.171.33.52 (release 06-11-2009 CrysAlis171 .NET)
        (compiled Nov  6 2009,16:24:50)
Analytical numeric absorption correction using a multifaceted crystal
                        model based on expressions derived by R.C. Clark & J.S.
        (Clark, R. C. & Reid, J. S. (1995). Acta Cryst. A51, 887-897)
;
_exptl_crystal_colour            green
_exptl_crystal_density_diffrn    1.613
_exptl_crystal_density_method    'not measured'
_exptl_crystal_description       prism
_exptl_crystal_F_000             202
_exptl_crystal_size_max          0.39
_exptl_crystal_size_mid          0.14
_exptl_crystal_size_min          0.1
_refine_diff_density_max         0.89
_refine_diff_density_min         -0.761
_refine_diff_density_rms         0.104
_refine_ls_extinction_method     none
_refine_ls_goodness_of_fit_ref   0.941
_refine_ls_hydrogen_treatment    constr
_refine_ls_matrix_type           full
_refine_ls_number_parameters     118
_refine_ls_number_reflns         3960
_refine_ls_number_restraints     0
_refine_ls_restrained_S_all      0.941
_refine_ls_R_factor_all          0.0572
_refine_ls_R_factor_gt           0.0401
_refine_ls_shift/su_max          0.001
_refine_ls_shift/su_mean         0
_refine_ls_structure_factor_coef Fsqd
_refine_ls_weighting_details
'calc w=1/[\s^2^(Fo^2^)+(0.0379P)^2^] where P=(Fo^2^+2Fc^2^)/3'
_refine_ls_weighting_scheme      calc
_refine_ls_wR_factor_gt          0.0809
_refine_ls_wR_factor_ref         0.0841
_reflns_number_gt                2962
_reflns_number_total             3960
_reflns_threshold_expression     I>2\s(I)
_iucr_refine_instructions_details
;
TITL mjm433b in P-1
CELL  0.71073   6.4680   7.7544   8.6026   97.267  109.253   96.531
ZERR     1.00   0.0013   0.0016   0.0017    0.017    0.018    0.017
LATT   1
SFAC  C    H    N    O    NI
UNIT  18   20   2    4    1
MERG   2
FMAP   2
PLAN   18
ACTA    73.00
htab
BOND   $H
eqiv $1 -x,-y,-z
htab O1    O2_$1
L.S.   4
TEMP  -173.00
WGHT    0.037900
FVAR       7.63919
NI1   5    0.000000    0.000000    0.000000    10.50000    0.01459    0.01323 =
         0.01413    0.00280    0.00406    0.00305
C1    1    0.486696    0.219280    0.042327    11.00000    0.01627    0.01191 =
         0.01458    0.00258    0.00511    0.00476
C11   1    0.314695    0.183242   -0.124567    11.00000    0.01761    0.01199 =
         0.01514    0.00264    0.00614    0.00510
C12   1    0.369293    0.239399   -0.269064    11.00000    0.01873    0.01842 =
         0.01808    0.00569    0.00722    0.00426
AFIX 137
H12A  2    0.252405    0.181281   -0.374129    11.00000   -1.50000
H12B  2    0.511696    0.206056   -0.267075    11.00000   -1.50000
H12C  2    0.379440    0.367541   -0.260373    11.00000   -1.50000
AFIX   0
N1    3    0.115946    0.105144   -0.146310    11.00000    0.01552    0.01405 =
         0.01222    0.00260    0.00191    0.00484
O1    4   -0.032835    0.087845   -0.309779    11.00000    0.01567    0.02278 =
         0.01367    0.00504    0.00145    0.00107
AFIX 147
H1    2   -0.155123    0.029951   -0.318201    11.00000   -1.50000
AFIX   0
C2    1    0.450886    0.164410    0.182768    11.00000    0.01627    0.01209 =
         0.01668    0.00181    0.00520    0.00369
O2    4    0.260445    0.071644    0.175850    11.00000    0.01518    0.01980 =
         0.01504    0.00448    0.00391    0.00012
C3    1    0.624395    0.206879    0.338052    11.00000    0.01749    0.01615 =
         0.01502    0.00272    0.00499    0.00326
AFIX  43
H3    2    0.599878    0.172754    0.433617    11.00000   -1.20000
AFIX   0
C4    1    0.829775    0.296937    0.355619    11.00000    0.01724    0.01436 =
         0.01594    0.00166    0.00302    0.00384
AFIX  43
H4    2    0.944435    0.322008    0.462233    11.00000   -1.20000
AFIX   0
C5    1    0.870887    0.351454    0.219000    11.00000    0.01640    0.01130 =
         0.01999    0.00136    0.00656    0.00336
C6    1    0.698246    0.311619    0.065940    11.00000    0.01750    0.01337 =
         0.01694    0.00217    0.00675    0.00333
AFIX  43
H6    2    0.724171    0.348672   -0.028103    11.00000   -1.20000
AFIX   0
C7    1    1.094449    0.452124    0.237137    11.00000    0.01733    0.01795 =
         0.02064    0.00223    0.00616    0.00161
AFIX 137
H7A   2    1.130518    0.415142    0.137232    11.00000   -1.50000
H7B   2    1.208512    0.427687    0.335825    11.00000   -1.50000
H7C   2    1.089151    0.578761    0.250103    11.00000   -1.50000
HKLF    4
 
REM  mjm433b in P-1
REM R1 =  0.0401 for   2962 Fo > 4sig(Fo)  and  0.0572 for all   3960 data
REM    118 parameters refined using      0 restraints
 
END
 
WGHT      0.0378      0.0000
REM Highest difference peak  0.890,  deepest hole -0.761,  1-sigma level  0.104
Q1    1   0.5789  0.2778  0.0468  11.00000  0.05    0.83
Q2    1   0.3564  0.1231  0.1796  11.00000  0.05    0.76
Q3    1   0.0954  0.0371 -0.0104  11.00000  0.05    0.74
Q4    1   0.7256  0.2628  0.3527  11.00000  0.05    0.71
Q5    1   0.0258  0.0316  0.1044  11.00000  0.05    0.70
Q6    1   0.1247  0.0359  0.1036  11.00000  0.05    0.68
Q7    1   0.2071  0.1588 -0.1339  11.00000  0.05    0.67
Q8    1   0.9712  0.3842  0.2242  11.00000  0.05    0.65
Q9    1   0.0238  0.0540 -0.1247  11.00000  0.05    0.59
Q10   1   0.5109  0.1881  0.2636  11.00000  0.05    0.57
Q11   1   0.1475 -0.0042  0.0239  11.00000  0.05    0.52
Q12   1   0.8488  0.3244  0.2791  11.00000  0.05    0.48
Q13   1   0.7946  0.3056  0.1434  11.00000  0.05    0.44
Q14   1   0.1268  0.1240 -0.0755  11.00000  0.05    0.42
Q15   1   0.3638  0.2096 -0.0434  11.00000  0.05    0.42
Q16   1   0.0880 -0.0824  0.0024  11.00000  0.05    0.41
Q17   1   0.2774  0.0726  0.2423  11.00000  0.05    0.41
Q18   1  -0.1485  0.0327 -0.2722  11.00000  0.05    0.40
;
_cod_data_source_file            c6ce02535h2.cif
_cod_data_source_block           mjm433b
_cod_original_cell_volume        398.46(14)
_cod_original_sg_symbol_Hall     -p_1
_cod_database_code               7228220
_iucr_refine_reflections_details
;
   0   0  -2 36019.0 429.684   3
   0   0   3 26353.6 383.150   7
   0   0  -3 27250.0 473.241   3
   0   0   4 11420.6 300.485   7
   0   0  -4 11364.4 388.381   3
   0   0  -5 12905.3 467.589   3
   0   0   5 11480.7 341.406   7
   0   0   6 35173.6 631.989   7
   0   0   6 33533.5 517.779  11
   0   0   7 5539.05 330.914   7
   0   0  -7 6925.76 523.284   3
   0   0  -8 2255.49 487.196   3
   0   0  -9 2863.61 531.245   3
   0   0 -10-77.0257 500.633   4
   0   0 -10 177.568 508.920   3
   0   0 -11 1029.62 599.793   3
   0   0 -11 548.798 521.302   4
   0   0 -12 1595.23 645.031   3
   0   0 -12 1715.81 629.085   4
   0   0 -13 53.7474 606.308   4
   0   0 -13 554.276 635.303   3
   0   1 -13 1032.26 696.216   3
   0   1 -13 578.071 673.559   4
   0   1 -12 3447.89 691.159   3
   0   1 -12 2827.01 711.033   4
   0   1 -11 383.355 566.449   3
   0   1 -11 265.218 537.762   4
   0   1 -10 2561.79 550.799   4
   0   1 -10 3160.10 587.140   3
   0   1  -9 843.387 468.655   3
   0   1  -9 434.422 430.488   4
   0  -1   8 476.745 221.404   7
   0   1  -8 917.219 405.330   4
   0   1  -8 656.236 436.119   3
   0  -1   7 65893.8 925.137   7
   0   1  -7 68605.3 1177.07   3
   0   1  -7 66839.5 1176.13   4
   0  -1   6 170461. 1343.98   7
   0   1  -6 175196. 1656.26   3
   0   1  -6 172031. 1654.26   4
   0  -1   5 11323.4 338.000   7
   0   1  -5 11260.5 430.560   4
   0   1  -5 12421.6 446.259   3
   0   1  -4 160.829 178.048   3
   0   1  -4 145.568 175.019   4
   0  -1   4 106.616 107.471   7
   0  -1   4 38.7162 108.011   0
   0   1  -3 32841.3 488.749   1
   0   1  -3 35551.7 518.975   3
   0  -1   3 31625.1 505.194   0
   0   1  -3 35851.2 530.803   4
   0  -1   3 36306.6 449.628   7
   0   1  -2 17100.0 316.190   4
   0   1  -2 17205.6 301.699   3
   0  -1   1 145547. 999.051   0
   0   1   1 22125.6 405.058   0
   0  -1  -2 13793.7 321.909   5
   0   1   3 475.987 111.574  11
   0  -1  -3 628.247 173.192   5
   0  -1  -4 1525.33 247.996   3
   0   1   4 1576.72 162.830   0
   0   1   4 1766.33 155.320  11
   0  -1  -4 1841.40 248.789   5
   0  -1  -5 5997.99 380.633   3
   0   1   5 5150.48 236.047  11
   0  -1  -6 3649.72 408.799   3
   0   1   6 2958.40 217.339  11
   0  -1  -7 7677.19 566.188   3
   0  -1  -8 7880.65 619.092   3
   0  -1  -9 2399.05 547.104   3
   0  -1 -10 6555.58 730.164   3
   0  -1 -11 5746.28 744.916   3
   0  -1 -11 6296.60 699.203   4
   0  -1 -12 895.898 582.645   4
   0  -1 -12 433.825 567.376   3
   0  -1 -13 609.030 655.954   3
   0  -1 -13 720.786 607.850   4
   0   2 -13 13056.3 972.500   3
   0   2 -13 15336.7 1052.60   4
   0   2 -12 13454.5 967.814   4
   0   2 -12 13399.2 926.843   3
   0   2 -11 1839.15 577.663   4
   0   2 -11 1160.56 576.087   3
   0   2 -10 2227.52 542.451   4
   0   2 -10 2046.55 569.074   3
   0   2  -9 2038.10 488.928   3
   0   2  -9 2120.72 487.272   4
   0  -2   8 7828.88 399.872   7
   0   2  -8 8106.73 571.197   4
   0   2  -8 8721.23 586.336   3
   0   2  -7 37764.4 918.846   4
   0   2  -7 37609.2 898.504   3
   0   2  -6 39128.6 843.887   4
   0  -2   6 37606.7 666.607   7
   0   2  -6 39320.4 819.343   3
   0   2  -5 26328.7 610.589   3
   0  -2   5 25382.8 623.545   0
   0   2  -5 24495.2 611.692   4
   0  -2   5 24041.0 497.636   7
   0   2  -5 22925.6 335.433   8
   0   2  -4 4252.70 287.647   1
   0   2  -4 4695.48 171.799   8
   0   2  -4 5188.05 298.660   4
   0   2  -4 5044.36 282.572   3
   0  -2   4 5021.01 316.152   0
   0  -2   4 5500.64 245.544   7
   0  -2   3 564.513 190.059   0
   0  -2   3 675.190 138.746   7
   0   2  -3 529.450 176.333   4
   0   2  -3 514.179 110.525   8
   0   2  -3 653.307 169.525   3
   0   2  -2 9422.90 268.051   3
   0   2  -2 9902.65 328.494  10
   0  -2   2 8666.39 385.706   0
   0   2  -2 9348.75 292.684   4
   0  -2   1 1914.30 245.424   0
   0   2  -1 2436.47 171.357   9
   0   2  -1 2350.58 245.280   0
   0   2  -1 2200.97 159.914   3
   0   2  -1 2437.85 201.957  10
   0  -2   0 1306.14 148.585   5
   0   2   0 1465.49 162.794  10
   0  -2   0 1569.71 232.738   0
   0   2   0 1442.88 133.998   9
   0   2   0 1243.93 208.916   0
   0   2   1 108458. 1234.88   0
   0  -2  -1 105668. 828.485   5
   0   2   1 103887. 695.484   9
   0   2   1 104821. 849.879  11
   0   2   2 7102.23 361.029   0
   0  -2  -2 7345.37 289.080   5
   0   2   2 6552.87 249.145  11
   0   2   3 1989.94 175.717  11
   0   2   3 2040.13 242.543   0
   0  -2  -3 2204.72 234.023   5
   0   2   4 52917.8 895.140   0
   0  -2  -4 53898.4 872.916   5
   0   2   4 51200.7 683.759  11
   0  -2  -5 19731.3 619.395   3
   0  -2  -5 19019.0 617.313   5
   0  -2  -6 3401.24 440.662   3
   0   2   6 3214.69 250.528  11
   0  -2  -7 5776.31 572.912   3
   0  -2  -8 1567.23 512.931   3
   0  -2  -9 9578.62 755.330   3
   0  -2 -10 15361.9 935.521   3
   0  -2 -11 3051.50 715.552   3
   0  -2 -12 264.600 606.901   3
   0  -2 -12 29.8518 564.363   4
   0  -2 -13 997.435 634.471   4
   0   3 -13 6794.81 841.398   3
   0   3 -13 5359.83 820.487   4
   0   3 -12 5109.28 754.692   3
   0   3 -12 5597.04 777.936   4
   0   3 -11 3903.30 628.693   4
   0   3 -11 4395.79 660.469   3
   0   3 -10 1174.17 488.973   3
   0   3 -10 776.841 518.053   4
   0   3  -9 3002.26 537.034   4
   0   3  -9 3534.24 517.625   3
   0  -3   8 3934.20 323.345   7
   0   3  -8 4760.32 493.784   3
   0   3  -8 4460.08 513.800   4
   0   3  -7 872.951 358.951   4
   0   3  -7 556.631 339.465   3
   0  -3   7 756.304 217.916   7
   0   3  -6 7893.35 474.294   1
   0   3  -6 7174.42 463.648   4
   0   3  -6 8172.46 449.020   3
   0  -3   6 7369.57 349.021   7
   0  -3   5 38449.9 941.923   0
   0  -3   5 37743.2 674.679   7
   0   3  -5 35521.4 898.531   1
   0   3  -5 38402.8 796.646   4
   0   3  -5 36945.6 732.932   3
   0  -3   4 48.0597 220.879   0
   0   3  -4 191.866 216.096   4
   0   3  -4 174.935 200.142   3
   0  -3   4 191.604 157.129   7
   0  -3   3 4683.64 391.102   0
   0   3  -3 4586.35 296.235   4
   0   3  -3 4841.64 271.611   3
   0   3  -2 106865. 917.135   3
   0  -3   2 101433. 1478.74   0
   0   3  -2 103325. 1118.98  10
   0   3  -2 105437. 1023.53   4
   0  -3   1 19542.4 440.238   5
   0   3  -1 17413.2 648.995   0
   0   3  -1 17507.8 463.567  10
   0  -3   1 17747.5 646.645   0
   0   3  -1 17551.1 385.042   9
   0   3   0 6423.95 245.447   9
   0  -3   0 6419.09 285.868   5
   0   3   0 6266.60 296.733  10
   0   3   0 7276.43 443.109   0
   0   3   1 16923.9 645.150   0
   0   3   1 16984.2 393.128  10
   0   3   1 17362.3 365.967   9
   0  -3  -1 17234.5 433.227   5
   0   3   2 9329.27 301.754   9
   0   3   2 9494.43 284.250  10
   0   3   2 10238.6 365.862  11
   0  -3  -2 9363.09 367.326   5
   0   3   2 9563.88 505.722   0
   0   3   3 76797.0 928.646  11
   0   3   3 76230.2 668.585  10
   0   3   3 78050.1 1310.91   0
   0  -3  -3 77355.9 1027.83   5
   0   3   4 79753.4 990.670  11
   0  -3  -4 83303.8 1168.36   5
   0   3   4 80644.8 1349.19   0
   0   3   5 4302.38 295.981  11
   0  -3  -5 4714.74 438.554   5
   0  -3  -6 2486.70 459.742   3
   0  -3  -6 2459.32 445.331   5
   0   3   6 2178.52 267.970  11
   0  -3  -7 7759.72 632.331   3
   0  -3  -8 2998.46 596.277   3
   0  -3  -9 3977.17 672.610   3
   0  -3 -10 6291.81 765.282   3
   0  -3 -11 1275.06 662.634   3
   0  -3 -12 111.898 663.519   3
   0   4 -13 459.375 600.708   4
   0   4 -13 579.866 604.982   3
   0   4 -12 2578.02 661.832   3
   0   4 -12 3552.00 670.541   4
   0   4 -11 3836.69 630.150   3
   0   4 -11 5070.54 692.482   4
   0   4 -10 223.148 512.121   4
   0   4 -10 170.833 482.807   3
   0   4  -9 3247.85 547.663   3
   0   4  -9 3861.45 582.176   4
   0  -4   8 7568.62 431.067   7
   0   4  -8 7848.70 616.450   4
   0   4  -8 7853.55 582.198   3
   0  -4   7 309.321 226.106   7
   0   4  -7 332.961 350.315   3
   0   4  -7 700.038 386.279   4
   0   4  -6 3629.53 480.927   1
   0   4  -6 4619.91 405.028   3
   0  -4   6 4465.34 329.547   7
   0   4  -6 4394.57 441.470   4
   0   4  -5 6324.02 392.403   3
   0   4  -5 5905.05 514.433   1
   0  -4   5 6332.11 351.647   7
   0   4  -5 6314.75 431.981   4
   0   4  -4 14224.8 467.810   3
   0  -4   4 13499.7 698.478   0
   0   4  -4 13844.7 526.074   4
   0   4  -3 105871. 1234.67   4
   0   4  -3 107957. 1100.02   3
   0  -4   3 105188. 1773.81   0
   0  -4   2 82376.3 1568.40   0
   0  -4   2 83533.4 1023.65   5
   0   4  -2 79508.2 1127.21  10
   0   4  -2 86364.8 953.049   3
   0   4  -1 10424.4 433.483  10
   0  -4   1 10991.9 412.045   5
   0   4  -1 10266.3 350.567   9
   0   4  -1 10062.2 594.689   0
   0   4   0 7028.20 368.069  10
   0   4   0 7654.08 305.187   9
   0   4   0 7065.15 515.486   0
   0  -4   0 8066.99 361.902   5
   0   4   1 12974.4 367.315   9
   0  -4  -1 12799.1 450.793   5
   0   4   1 12127.8 408.426  10
   0   4   1 12777.2 661.260   0
   0   4   2 11620.2 643.784   0
   0   4   2 11238.6 367.613   9
   0  -4  -2 10609.4 454.092   5
   0   4   2 10766.1 371.109  10
   0   4   3 26014.4 920.639   0
   0   4   3 26515.8 656.758  11
   0   4   3 25935.9 565.001   9
   0   4   3 25567.2 498.782  10
   0  -4  -3 26903.1 700.107   5
   0   4   4 29178.3 996.499   0
   0   4   4 28825.9 699.689  11
   0  -4  -4 29126.4 793.706   5
   0   4   5 6152.94 393.871  11
   0  -4  -5 6333.17 523.085   5
   0   4   6 1027.95 260.663  11
   0  -4  -6 380.025 450.783   5
   0  -4  -7 7590.57 667.309   5
   0  -4  -7 6742.01 663.600   3
   0  -4  -8 8423.26 731.522   3
   0  -4  -9 1350.64 603.529   3
   0  -4 -10 1902.63 692.965   3
   0  -4 -11 2520.70 721.784   3
   0   5 -13 197.856 627.104   3
   0   5 -13 235.595 623.635   4
   0   5 -12 309.137 531.822   3
   0   5 -12 294.302 580.046   4
   0   5 -11 1178.83 591.161   4
   0   5 -11 623.955 567.988   3
   0   5 -10 4757.08 626.590   3
   0   5 -10 4955.60 704.083   4
   0   5  -9 17209.0 888.216   4
   0   5  -9 13215.3 759.643   3
   0   5  -8 10765.3 715.681   4
   0   5  -8 9482.05 632.919   3
   0  -5   8 9288.52 497.360   7
   0  -5   7 5622.01 403.363   7
   0   5  -7 5668.56 488.326   3
   0   5  -7 5746.08 559.881   4
   0  -5   6 4224.94 366.876   7
   0   5  -6 4572.82 429.714   3
   0   5  -6 4038.03 625.501   1
   0   5  -6 4368.23 499.061   4
   0   5  -5 5881.60 423.145   3
   0   5  -5 5043.57 453.789   4
   0   5  -4 19550.1 664.487   4
   0   5  -4 18469.5 584.520   3
   0   5  -3 34988.3 731.257   3
   0  -5   3 35556.1 801.974   5
   0   5  -2 36509.0 875.746  10
   0  -5   2 37149.5 800.735   5
   0  -5   1 13550.4 516.980   5
   0   5  -1 12819.4 542.171  10
   0   5  -1 13259.4 437.635   9
   0  -5   0 5892.96 388.996   5
   0   5   0 5815.50 322.572   9
   0   5   0 5208.94 373.435  10
   0   5   0 6186.77 572.866   0
   0   5   1 17993.7 555.400  10
   0   5   1 19300.9 497.332   9
   0  -5  -1 19329.6 609.597   5
   0   5   2 10804.6 433.740  10
   0   5   2 10081.4 394.116   9
   0  -5  -2 9936.47 501.263   5
   0   5   2 10345.3 733.226   0
   0   5   3 4533.75 332.666   9
   0  -5  -3 4318.16 431.027   5
   0  -5  -4 14944.6 687.799   5
   0   5   4 14295.9 522.415   9
   0   5   5 12118.1 526.661   9
   0  -5  -5 10977.5 681.410   5
   0  -5  -6 1901.25 514.939   5
   0   5   6 2196.87 367.790   9
   0  -5  -7 3721.09 600.804   5
   0   5   7 3621.78 446.759   9
   0  -5  -7 4180.46 653.299   3
   0  -5  -8 4073.35 659.989   5
   0  -5  -8 4305.67 678.383   3
   0  -5  -9 1154.89 612.402   3
   0  -5 -10 709.149 663.918   3
   0  -5 -11 1470.44 712.289   3
   0   6 -13 477.145 650.459   4
   0   6 -13 555.408 655.548   3
   0   6 -12 164.411 564.085   3
   0   6 -12 35.9125 629.803   4
   0   6 -11 2190.26 648.344   4
   0   6 -11 1711.96 566.930   3
   0   6 -10 6201.14 724.663   4
   0   6 -10 5043.40 645.201   3
   0   6  -9 4819.96 599.074   3
   0   6  -9 6538.71 699.558   4
   0  -6   8 8035.42 530.707   7
   0   6  -8 8986.35 718.844   4
   0   6  -8 8432.54 638.803   3
   0  -6   7 5746.02 457.606   7
   0   6  -7 5147.20 512.055   3
   0   6  -7 6062.11 623.926   4
   0   6  -6 2720.64 420.554   3
   0   6  -6 3348.61 527.403   4
   0  -6   6 2950.78 380.773   7
   0   6  -5 8290.78 584.831   4
   0   6  -5 7055.57 480.446   3
   0   6  -4 3165.23 382.323   3
   0  -6   4 3405.62 439.301   5
   0  -6   3 6157.41 482.979   5
   0  -6   2 34437.7 867.562   5
   0   6  -1 14918.8 516.063   9
   0   6  -1 15030.7 646.392  10
   0  -6   1 16094.4 631.956   5
   0  -6   0 5238.43 453.384   5
   0   6   0 4640.19 413.928  10
   0   6   0 5812.09 367.022   9
   0   6   1 11843.5 533.660  10
   0  -6  -1 13031.6 599.901   5
   0   6   1 13185.5 486.898   9
   0   6   2 13308.8 495.935   9
   0  -6  -2 13537.5 638.818   5
   0   6   3 3499.31 344.436   9
   0  -6  -3 3251.88 465.594   5
   0  -6  -4 5962.30 597.134   5
   0   6   4 5576.56 411.448   9
   0   6   5 12207.2 566.688   9
   0  -6  -5 12869.2 775.029   5
   0   6   6 1143.92 374.008   9
   0  -6  -6 1529.98 542.018   5
   0   6   7 767.754 391.252   9
   0  -6  -7 489.022 576.148   3
   0  -6  -7 802.661 557.229   5
   0  -6  -8 1593.92 649.708   3
   0  -6  -8 921.137 599.322   5
   0  -6  -9 3880.49 728.215   3
   0  -6 -10 661.837 639.413   3
   0   7 -12 1160.12 624.896   3
   0   7 -12 518.394 627.739   4
   0   7 -11 748.738 603.959   4
   0   7 -11 403.671 534.164   3
   0   7 -10 443.359 569.216   4
   0   7 -10 237.142 472.360   3
   0   7  -9 2009.34 551.041   3
   0   7  -9 2178.49 659.957   4
   0  -7   8 7008.70 552.509   7
   0   7  -8 6568.49 617.848   3
   0   7  -7 4288.73 525.073   3
   0  -7   7 4588.89 485.835   7
   0   7  -7 4303.41 626.207   4
   0   7  -6 2445.61 457.601   3
   0  -7   5 8406.09 647.449   5
   0   7  -5 7121.35 531.363   3
   0  -7   4 5700.29 583.743   5
   0  -7   3 2030.79 460.749   5
   0  -7   2 15707.2 712.612   5
   0  -7   1 28125.8 886.489   5
   0   7  -1 27521.8 728.524   9
   0   7   0 157.070 273.251   9
   0  -7   0 159.176 409.951   5
   0   7   1 946.549 315.139   9
   0  -7  -1 808.583 412.698   5
   0  -7  -2 11539.0 699.895   5
   0   7   2 11390.8 520.476   9
   0  -7  -3 9033.98 670.443   5
   0   7   3 8960.09 487.610   9
   0  -7  -4 1911.38 539.053   5
   0   7   4 2164.82 375.908   9
   0  -7  -5 3548.33 603.397   5
   0   7   5 2734.84 411.695   9
   0  -7  -6 410.484 563.083   5
   0  -7  -7 380.624 582.678   5
   0  -7  -7 128.285 609.657   3
   0  -7  -8 2769.13 723.095   3
   0  -7  -8 2731.11 681.689   5
   0  -7  -9 975.084 701.293   3
   0  -7 -10 2833.17 766.686   3
   0   8 -12 735.859 633.152   4
   0   8 -11 1023.00 659.134   4
   0   8 -10 623.276 575.250   4
   0   8 -10 440.957 495.561   3
   0   8  -9 613.858 462.536   3
   0   8  -8 7150.94 662.425   3
   0  -8   8 7404.93 599.358   7
   0   8  -7 7216.68 637.858   3
   0  -8   7 7671.80 597.099   7
   0  -8   6-32.8512 514.546   5
   0   8  -6-25.7838 427.186   3
   0  -8   5 474.305 495.204   5
   0  -8   4 12504.6 771.592   5
   0  -8   3 5770.26 612.415   5
   0  -8   2 4550.87 582.546   5
   0   8  -1 4737.85 445.820   9
   0  -8   1 4378.46 582.736   5
   0   8   0 125.278 304.219   9
   0  -8   0 171.638 469.512   5
   0  -8  -1 1918.24 512.920   5
   0   8   1 1939.06 371.148   9
   0   8   2 6690.96 501.692   9
   0  -8  -2 7013.29 664.936   5
   0  -8  -3 4011.66 614.284   5
   0  -8  -4 7731.36 732.388   5
   0  -8  -5 8427.14 774.346   5
   0  -8  -6 3946.44 694.266   5
   0  -8  -7 2509.70 712.377   3
   0  -8  -7 3670.57 723.488   5
   0  -8  -8 920.687 617.710   5
   0  -8  -8 777.068 674.657   3
   0  -8  -9 1088.19 686.870   5
   0  -8  -9 1119.38 689.844   3
   0  -9  11 730.974 663.303   5
   0  -9  10 2565.68 719.713   5
   0  -9   9 1223.93 615.101   5
   0  -9   8 1606.11 467.502   7
   0  -9   8 2659.88 696.570   5
   0  -9   7 1145.58 571.891   5
   0  -9   7 1062.52 415.462   7
   0  -9   6 2.49532 538.245   5
   0  -9   5 1321.49 571.984   5
   0  -9   4 5557.75 695.591   5
   0  -9   3 5040.08 654.714   5
   0  -9   2 6360.46 696.257   5
   0   9  -1 5234.67 492.101   9
   0  -9   1 6298.96 688.012   5
   0  -9   0 10376.8 780.948   5
   0   9   0 8769.65 558.554   9
   0  -9  -1 6143.07 671.229   5
   0  -9  -2 1083.86 568.632   5
   0  -9  -3 10900.8 848.492   5
   0  -9  -4 10489.3 880.476   5
   0  -9  -5 1053.44 613.009   5
   0  -9  -6 1969.77 661.155   5
   0  -9  -7 1585.96 691.791   3
   0  -9  -7 2547.38 708.136   5
   0  -9  -8 1086.28 699.859   3
   0 -10  10 2025.15 707.743   5
   0 -10   9 978.137 673.130   5
   0 -10   8 465.413 431.439   7
   0 -10   8 978.765 608.343   5
   0 -10   7 1451.49 480.673   7
   0 -10   7 2530.48 667.374   5
   0 -10   6 5536.93 746.876   5
   0 -10   5 633.176 579.660   5
   0 -10   4 2331.89 644.975   5
   0 -10   3 16293.8 968.880   5
   0 -10   2 6631.32 771.243   5
   0 -10   1 1514.86 641.084   5
   0 -10   0 5766.69 723.345   5
   0 -10  -1 3743.61 696.334   5
   0 -10  -2 7573.23 796.489   5
   0 -10  -3 2402.09 652.181   5
   0 -10  -4 2035.97 675.001   5
   0 -10  -5 476.991 640.395   5
   0 -10  -6 4301.22 782.110   5
   0 -11   8 836.350 637.907   5
   0 -11   8 527.392 520.075   7
   0 -11   7 2502.18 689.412   5
   0 -11   7 1444.15 555.302   7
   0 -11   6 3088.55 692.381   5
   0 -11   5 3517.19 715.348   5
   0 -11   4 10371.7 911.449   5
   0 -11   3 13.8310 615.907   5
   0 -11   2 2145.75 679.957   5
   0 -11   1 782.186 612.081   5
   0 -11   0 4181.34 705.863   5
   0 -11  -1 1890.57 672.796   5
   0 -11  -2 1947.49 700.996   5
   0 -11  -3 116.722 616.264   5
   0 -11  -4 620.822 675.055   5
   0 -12   7 1449.85 669.357   5
   0 -12   7 595.064 576.199   7
   0 -12   6 1709.10 719.755   5
   0 -12   5 3449.05 746.107   5
   0 -12   4 954.939 643.319   5
   0 -12   3 739.445 623.792   5
   0 -12   2-230.928 570.578   5
   0 -12   1 354.291 596.615   5
   0 -12   0 1193.08 660.950   5
   0 -12  -1 3070.93 759.271   5
   0 -12  -2 1936.73 706.931   5
   1 -12  -3 3935.43 785.443   5
   1 -12  -2 1419.70 708.992   5
   1 -12  -1 2399.05 733.856   5
   1 -12   0 1495.94 676.193   5
   1 -12   1 1083.90 697.358   5
   1 -12   2 8746.19 913.570   5
   1 -12   3 3571.43 759.869   5
   1 -12   4 123.943 619.303   5
   1 -12   5 1720.73 695.007   5
   1 -12   6 1505.01 680.447   5
   1 -11  -5 2773.94 705.088   5
   1 -11  -4 7327.61 865.958   5
   1 -11  -3 1114.24 650.072   5
   1 -11  -2 1302.43 629.070   5
   1 -11  -1 5139.23 762.245   5
   1 -11   0 3690.68 697.035   5
   1 -11   1 2626.85 665.775   5
   1 -11   2 2959.87 692.547   5
   1 -11   3 2691.14 704.871   5
   1 -11   4 1298.65 637.069   5
   1 -11   5-274.127 591.549   5
   1 -11   6 129.687 607.637   5
   1 -11   7 1589.09 681.827   5
   1 -11   8 561.032 612.752   5
   1 -10  -7 1539.45 688.421   5
   1 -10  -6 3254.65 745.966   5
   1 -10  -5 3714.46 707.780   5
   1 -10  -4 1682.59 661.818   5
   1 -10  -3 2937.75 697.500   5
   1 -10  -2 1723.14 608.068   5
   1 -10  -1-120.764 555.349   5
   1 -10   0 882.237 568.284   5
   1 -10   1 3292.04 651.870   5
   1 -10   2 1431.62 598.260   5
   1 -10   3 5295.93 704.064   5
   1 -10   4 2389.61 608.543   5
   1 -10   5 87.4083 574.684   5
   1 -10   6 2752.25 649.395   5
   1 -10   7 6359.71 626.999   7
   1 -10   7 7980.11 831.972   5
   1 -10   8 1606.13 644.208   5
   1 -10   9-71.6671 616.393   5
   1  -9  -8 548.642 674.523   3
   1  -9  -8 118.252 636.253   5
   1  -9  -7 123.944 581.795   5
   1  -9  -6 1730.71 611.814   5
   1  -9  -5 1101.67 609.071   5
   1  -9  -4 2470.04 643.764   5
   1  -9  -3 7531.61 736.264   5
   1  -9  -2 429.594 534.047   5
   1  -9  -1 131.166 520.449   5
   1  -9   0 9481.87 754.069   5
  -1   9   0 7502.30 665.211  10
   1  -9   1 14315.2 837.777   5
   1  -9   2 2223.05 565.196   5
   1  -9   3 1000.68 521.727   5
   1  -9   4 4916.52 661.359   5
   1  -9   5 3428.71 645.760   5
   1  -9   6 2418.31 642.860   5
  -1   9  -7 4557.71 683.748   3
   1  -9   7 4387.12 508.283   7
   1  -9   7 6096.85 731.091   5
   1  -9   8 2670.86 687.609   5
  -1   9  -8 1812.40 586.470   3
  -1   9  -9 248.239 534.085   3
   1  -9   9 392.442 618.315   5
   1  -9  10 1125.64 630.279   5
  -1   9 -10 347.757 596.905   3
  -1   9 -11 141.404 699.173   3
   1  -8  -9 2126.30 693.727   5
   1  -8  -9 1428.90 685.414   3
   1  -8  -8 35.1785 579.469   5
   1  -8  -7-183.800 591.864   5
   1  -8  -6 6022.17 721.126   5
   1  -8  -5 3924.74 645.132   5
   1  -8  -4 927.166 555.287   5
   1  -8  -3 3455.47 590.302   5
   1  -8  -2 8216.16 678.573   5
  -1   8   2 7051.16 572.210  10
  -1   8   1 5183.15 536.604  10
   1  -8  -1 5424.25 603.404   5
   1  -8   0 5619.20 616.769   5
  -1   8   0 4927.94 584.735  10
  -1   8  -1 13318.8 774.076  10
   1  -8   1 14532.9 770.105   5
  -1   8  -2 6216.51 665.356  10
   1  -8   2 7798.93 640.701   5
  -1   8  -3 1805.07 576.320  10
   1  -8   3 1840.41 516.696   5
   1  -8   4 3796.40 578.145   5
   1  -8   5 2473.48 555.452   5
  -1   8  -6 2644.92 572.623   3
   1  -8   6 3683.63 614.731   5
  -1   8  -7 5205.98 637.806   3
   1  -8   7 6806.97 702.815   5
   1  -8   7 5722.33 518.721   7
  -1   8  -8 4328.39 653.464   3
  -1   8  -9 4969.52 716.925   3
  -1   8 -10 2542.46 642.200   3
  -1   8 -11 276.183 600.351   3
   1  -7 -10 501.194 682.476   3
   1  -7  -9 1871.43 715.120   3
   1  -7  -9 2325.47 650.998   5
   1  -7  -8 2618.06 653.532   5
   1  -7  -7 2064.00 633.844   5
   1  -7  -6 2934.23 629.002   5
   1  -7  -5 8137.52 704.869   5
   1  -7  -4 3767.88 592.260   5
   1  -7  -3 3897.62 538.417   5
  -1   7   3 3068.47 393.657  10
  -1   7   2 7438.45 502.381  10
   1  -7  -2 7875.51 616.311   5
  -1   7   2 7963.82 416.232   9
  -1   7   1 5380.99 357.367   9
   1  -7  -1 4843.43 522.000   5
  -1   7   1 5299.37 479.770  10
  -1   7   0 5275.47 503.150  10
  -1   7   0 5134.53 355.423   9
   1  -7   1 13741.2 671.355   5
  -1   7  -1 12342.8 678.830  10
   1  -7   2 18534.7 762.149   5
  -1   7  -2 16843.5 784.166  10
   1  -7   3 19309.4 788.870   5
  -1   7  -3 19779.9 866.754  10
  -1   7  -4 6662.08 541.157   3
  -1   7  -4 6867.91 655.744  10
   1  -7   4 7199.37 594.468   5
  -1   7  -5 1886.55 475.744   3
   1  -7   5 1838.48 487.386   5
  -1   7  -6 2814.75 508.120   3
  -1   7  -7 5989.79 636.648   3
   1  -7   7 5757.15 477.042   7
  -1   7  -7 5991.19 646.133   4
  -1   7  -8 9185.47 745.866   3
  -1   7  -8 10825.1 806.552   4
  -1   7  -9 5849.64 708.664   4
  -1   7  -9 4929.42 692.698   3
  -1   7 -10 1071.93 587.441   3
  -1   7 -10 1284.45 607.771   4
  -1   7 -11 731.297 603.131   3
  -1   7 -11 617.042 586.541   4
  -1   7 -12 53.2730 650.281   3
  -1   7 -12-115.925 643.673   4
   1  -6 -11 1750.40 712.220   3
   1  -6 -10 1143.10 691.285   3
   1  -6  -9 2589.24 723.479   3
   1  -6  -9 2609.96 662.364   5
   1  -6  -8 3970.80 688.386   5
   1  -6  -8 4461.10 718.036   3
  -1   6   7 1558.53 415.331  11
   1  -6  -7 1743.68 574.303   5
   1  -6  -6 2045.12 564.954   5
  -1   6   6 1678.20 405.196  11
  -1   6   5 8291.60 570.981  11
   1  -6  -5 9756.45 697.393   5
  -1   6   4 15319.1 502.334   9
  -1   6   4 16968.6 717.924  11
   1  -6  -4 16753.2 778.837   5
  -1   6   3 10732.4 498.172  10
   1  -6  -3 12195.0 649.313   5
  -1   6   3 10708.0 579.475  11
  -1   6   3 11457.9 422.498   9
  -1   6   2 6644.09 439.561  10
   1  -6  -2 5407.45 469.400   5
  -1   6   2 6068.68 326.424   9
  -1   6   1 3983.61 290.522   9
   1  -6  -1 3647.13 592.051   0
   1  -6  -1 3791.40 425.142   5
  -1   6   1 4081.37 394.262  10
  -1   6   0 4768.05 434.681  10
   1  -6   0 4578.04 399.623   5
  -1   6   0 5179.79 310.662   9
   1  -6   0 4275.64 631.818   0
   1  -6   1 27001.0 1203.86   0
   1  -6   1 26958.6 760.423   5
  -1   6  -1 25948.7 803.535  10
   1  -6   2 61318.5 1118.13   5
  -1   6  -2 59516.4 1203.73  10
  -1   6  -3 19604.3 772.781  10
   1  -6   3 20370.5 719.117   5
  -1   6  -3 19099.8 679.320   3
   1  -6   4 4391.03 471.308   5
  -1   6  -4 4614.79 459.320   3
  -1   6  -4 4876.89 538.458  10
  -1   6  -5 4919.32 495.915   3
  -1   6  -6 201.191 409.335   3
  -1   6  -6 58.1427 396.787   4
   1  -6   6 133.210 258.523   7
  -1   6  -7 1648.72 487.684   4
  -1   6  -7 1877.18 488.439   3
   1  -6   7 1653.96 326.521   7
  -1   6  -8 6079.59 655.841   4
  -1   6  -8 4921.54 602.915   3
  -1   6  -9 277.116 497.428   4
  -1   6  -9 54.9823 532.256   3
  -1   6 -10 1086.61 591.932   4
  -1   6 -10 647.399 588.336   3
  -1   6 -11 5250.62 747.130   3
  -1   6 -11 6795.43 812.927   4
  -1   6 -12 480.827 601.141   3
  -1   6 -12 112.724 616.670   4
   1  -5 -11 3072.77 773.573   3
   1  -5 -10 3835.33 746.519   3
   1  -5  -9 2002.55 656.241   3
   1  -5  -8 2540.52 619.728   5
   1  -5  -8 2039.44 617.671   3
  -1   5   7 1645.90 378.043  11
   1  -5  -7 2057.69 549.711   5
  -1   5   6 1363.10 369.878  11
  -1   5   6 1297.10 303.695   9
   1  -5  -6 1721.93 496.178   5
  -1   5   5 21099.3 719.281  11
   1  -5  -5 20974.5 818.973   5
  -1   5   5 20127.8 567.466   9
  -1   5   4 50218.1 1026.98  11
  -1   5   4 47081.8 756.191   9
   1  -5  -4 48827.6 1067.51   5
  -1   5   4 46610.2 784.640  10
  -1   5   3 11970.9 540.204  11
  -1   5   3 11143.8 377.181   9
  -1   5   3 11540.6 442.952  10
   1  -5  -3 12191.5 554.960   5
  -1   5   2 8891.08 323.184   9
  -1   5   2 9752.56 483.110  11
  -1   5   2 8470.45 409.703  10
   1  -5  -2 8917.41 459.110   5
   1  -5  -2 8199.41 675.753   0
  -1   5   1 9395.12 443.410  10
   1  -5  -1 9704.45 710.023   0
  -1   5   1 10312.7 343.025   9
   1  -5  -1 9797.62 464.479   5
  -1   5   1 9909.14 476.536  11
   1  -5   0 1485.66 272.759   5
  -1   5   0 1420.29 305.365  10
   1  -5   0 1305.17 385.024   0
  -1   5   0 1372.45 200.019   9
   1  -5   1 35629.2 765.455   5
   1  -5   1 36115.4 1199.40   0
  -1   5  -1 33252.6 802.619  10
   1  -5   2 18138.4 585.217   5
   1  -5   2 16902.1 877.975   0
  -1   5  -2 18322.1 636.904  10
  -1   5  -2 18392.4 583.514   3
  -1   5  -3 553.379 315.705  10
  -1   5  -3 429.185 350.695   1
  -1   5  -3 604.146 293.463   3
   1  -5   3 384.889 385.996   0
   1  -5   3 425.493 281.900   5
  -1   5  -4 16548.4 626.469   4
   1  -5   4 16328.7 880.912   0
  -1   5  -4 17963.6 693.389  10
  -1   5  -4 16708.0 608.599   3
  -1   5  -4 17007.3 871.404   1
  -1   5  -5 19589.5 718.480   4
  -1   5  -5 21483.5 786.827  10
  -1   5  -5 21535.1 993.492   1
   1  -5   5 20272.1 992.006   0
  -1   5  -5 20939.0 713.535   3
   1  -5   6 6.67097 620.486   0
  -1   5  -6 201.069 621.067   1
  -1   5  -6 622.910 376.208   4
   1  -5   6 419.904 224.099   7
  -1   5  -6 402.583 372.661   3
  -1   5  -7 915.924 419.877   4
  -1   5  -7 705.608 446.935   3
  -1   5  -8 5593.99 600.227   4
  -1   5  -8 5432.20 602.612   3
  -1   5  -9 677.940 510.327   3
  -1   5  -9 1125.61 520.910   4
  -1   5 -10 2069.26 639.241   3
  -1   5 -10 2521.70 595.635   4
  -1   5 -11 4364.68 756.768   3
  -1   5 -11 4398.55 712.566   4
  -1   5 -12 6546.82 805.157   4
  -1   5 -12 6009.77 838.611   3
  -1   5 -13 4035.71 774.675   4
   1  -4 -12-127.031 655.044   3
   1  -4 -11 7142.78 845.919   3
   1  -4 -10 9029.10 853.642   3
   1  -4  -9 2255.72 615.922   3
   1  -4  -8 2653.99 569.178   5
   1  -4  -8 3489.71 608.851   3
  -1   4   7 1224.57 318.049  11
   1  -4  -7 1937.88 514.556   5
   1  -4  -6 4258.94 521.977   5
  -1   4   6 4468.28 386.693  11
   1  -4  -5 29405.7 841.360   5
  -1   4   5 27487.9 716.782  11
  -1   4   4 6218.31 294.179  10
   1  -4  -4 6722.92 449.381   5
  -1   4   4 6788.11 398.093  11
   1  -4  -3 388.347 261.118   5
  -1   4   3 213.860 153.652   9
  -1   4   3 547.663 224.671  11
  -1   4   3 327.387 169.084  10
   1  -4  -2 46399.5 802.896   5
  -1   4   2 43746.6 564.778   9
  -1   4   2 47425.3 829.694  11
  -1   4   2 44639.9 723.219  10
  -1   4   1 11451.5 431.295  11
   1  -4  -1 11228.1 415.980   5
  -1   4   1 10967.6 402.613  10
   1  -4  -1 12325.1 660.523   0
  -1   4   1 10897.4 297.463   9
   1  -4   0 5165.92 467.535   0
  -1   4   0 4656.82 311.934  11
  -1   4   0 4258.98 220.436   9
  -1   4   0 4835.69 323.628  10
   1  -4   0 4757.80 301.591   5
  -1   4  -1 5799.08 355.092  10
   1  -4   1 6083.64 322.465   5
   1  -4   1 5936.05 501.431   0
   1  -4   2 7590.30 366.515   5
  -1   4  -2 6612.97 507.100   1
   1  -4   2 7502.68 547.646   0
  -1   4  -2 7180.17 395.326  10
  -1   4  -2 7296.76 372.319   3
  -1   4  -3 3392.33 424.783   1
   1  -4   3 3706.14 455.244   0
  -1   4  -3 3528.77 316.080   4
  -1   4  -3 3655.23 326.431   3
  -1   4  -3 3540.24 337.751  10
  -1   4  -4 11921.3 527.310  10
   1  -4   4 11583.2 661.408   0
  -1   4  -4 10365.6 388.200   8
  -1   4  -4 11552.4 490.492   4
  -1   4  -4 12401.6 674.882   1
  -1   4  -4 11468.8 485.425   3
  -1   4  -5 29560.3 795.955  10
   1  -4   5 27877.0 606.679   7
   1  -4   5 26925.5 972.236   0
  -1   4  -5 28155.2 980.482   1
  -1   4  -5 28578.8 763.362   3
  -1   4  -5 26930.1 744.191   4
  -1   4  -5 27230.4 588.901   8
  -1   4  -6 46251.3 1023.93   4
  -1   4  -6 44567.3 997.673   3
   1  -4   6 43479.5 770.270   7
   1  -4   6 45779.2 1256.20   0
  -1   4  -7 17414.1 752.164   3
  -1   4  -7 18103.3 738.542   4
  -1   4  -8 1206.18 431.580   4
  -1   4  -8 1499.60 491.173   3
  -1   4  -9 2243.58 533.001   4
  -1   4  -9 2348.81 538.351   3
  -1   4 -10 1195.99 526.301   4
  -1   4 -10 1163.62 576.948   3
  -1   4 -11 6130.25 765.018   3
  -1   4 -11 6868.90 739.361   4
  -1   4 -12 16791.0 1077.79   3
  -1   4 -12 17592.0 1056.95   4
  -1   4 -13 1950.02 655.514   4
  -1   4 -13 1835.96 726.616   3
   1  -3 -12 2316.77 706.014   3
   1  -3 -11 5109.79 745.532   3
   1  -3 -10 1200.94 593.597   3
   1  -3  -9 3463.13 628.299   3
   1  -3  -8 9103.78 689.491   3
  -1   3   7 1101.44 268.076  11
   1  -3  -7 1629.62 481.803   5
   1  -3  -7 1507.82 485.781   3
   1  -3  -6 1581.98 391.634   5
  -1   3   6 1658.74 269.496  11
  -1   3   5 2632.09 283.895  11
   1  -3  -5 2655.06 352.868   5
  -1   3   5 2185.48 289.953   1
  -1   3   4 1781.01 240.228  11
   1  -3  -4 1563.67 277.905   5
   1  -3  -3 4872.41 315.998   5
   1  -3  -3 4965.60 402.344   0
  -1   3   3 4876.78 291.252  11
  -1   3   2 6113.80 257.534  10
   1  -3  -2 5479.59 295.455   5
  -1   3   2 5579.00 203.724   9
   1  -3  -2 5426.39 417.140   0
  -1   3   2 5991.31 295.186  11
  -1   3   1 74604.7 562.975   9
  -1   3   1 74902.2 824.244  10
   1  -3  -1 77065.1 842.179   5
   1  -3  -1 76222.9 1322.05   0
  -1   3   1 76869.0 875.493  11
  -1   3   0 219438. 1411.45  11
  -1   3   0 212921. 1007.61   9
   1  -3   0 215899. 1343.10   5
  -1   3   0 217196. 1416.08  10
  -1   3  -1 18406.8 474.838  10
  -1   3  -1 19362.2 455.014   3
   1  -3   1 18912.9 433.586   5
  -1   3  -1 19281.2 440.644   8
  -1   3  -1 18825.7 664.486   1
  -1   3  -2 14929.5 392.597   8
  -1   3  -2 15720.4 425.508   4
  -1   3  -2 15074.3 459.435  10
  -1   3  -2 14172.6 593.954   1
  -1   3  -2 15870.2 439.122   3
  -1   3  -3 6904.28 446.015   1
  -1   3  -3 7743.97 349.482   4
  -1   3  -3 7153.87 361.509  10
  -1   3  -3 7644.76 294.546   8
  -1   3  -3 7421.31 348.212   3
   1  -3   4 1224.21 161.398   7
  -1   3  -4 873.063 174.574   8
  -1   3  -4 1180.66 264.321   3
  -1   3  -4 1168.18 278.373   1
  -1   3  -4 1126.35 260.126  10
  -1   3  -4 1219.44 251.581   4
  -1   3  -5 91687.7 930.761   8
   1  -3   5 94112.8 949.561   7
  -1   3  -5 94874.1 1229.03   4
  -1   3  -5 96720.2 1264.38   3
  -1   3  -6 124842. 1547.10   3
  -1   3  -6 120505. 1504.42   4
   1  -3   6 129896. 1810.35   0
  -1   3  -7 1798.55 389.780   4
  -1   3  -7 1488.29 426.750   3
  -1   3  -8 271.393 441.413   3
  -1   3  -8 83.4466 392.320   4
  -1   3  -9 3497.25 600.500   3
  -1   3  -9 3787.81 543.390   4
  -1   3 -10 208.878 560.009   3
  -1   3 -10 653.093 509.996   4
  -1   3 -11 2155.42 576.508   4
  -1   3 -11 2382.28 657.514   3
  -1   3 -12 2311.78 725.946   3
  -1   3 -12 2312.82 624.246   4
  -1   3 -13 55.9363 655.756   4
  -1   3 -13 160.570 655.771   3
   1  -2 -13 660.608 635.803   3
   1  -2 -13 195.929 622.845   4
   1  -2 -12 1335.67 633.085   3
   1  -2 -11 210.192 572.448   3
   1  -2 -10 1107.75 555.028   3
   1  -2  -9 1500.55 505.679   3
   1  -2  -8 1720.15 513.413   3
  -1   2   7 24127.5 629.708  11
   1  -2  -7 25246.7 821.065   3
  -1   2   6 22090.2 570.574  11
   1  -2  -6 22149.1 714.414   5
   1  -2  -5 4256.32 357.249   5
  -1   2   5 4367.85 279.820  11
   1  -2  -4 19973.0 542.872   5
  -1   2   4 19760.0 473.545  11
  -1   2   3 380.160 155.546   1
   1  -2  -3 238.974 200.401   0
  -1   2   3 213.217 148.689  11
   1  -2  -3 448.572 183.556   5
  -1   2   2 3274.49 216.173  11
  -1   2   2 3521.54 260.119   1
   1  -2  -2 3639.69 218.118   5
  -1   2   1 999999. 10415.8  11
   1  -2  -1 995106. 9675.56   5
  -1   2   1 981489. 14700.7   1
  -1   2   0 627862. 7906.51   8
  -1   2   0 625043. 11975.3   1
  -1   2   0 613978. 7601.15  11
   1  -2   0 616990. 7251.67   5
  -1   2  -1 14955.0 317.026  11
  -1   2  -1 15667.6 341.678   8
  -1   2  -1 14912.7 493.481   1
  -1   2  -1 15297.9 352.960   3
  -1   2  -1 15389.8 368.584  10
  -1   2  -2 3374.95 207.240   4
  -1   2  -2 3195.04 234.283  10
  -1   2  -2 2951.72 220.261   3
  -1   2  -2 3416.10 275.490   1
  -1   2  -2 3135.16 186.013   8
  -1   2  -3 18100.2 368.613   8
  -1   2  -3 18734.2 451.892  10
  -1   2  -3 18375.1 461.942   3
  -1   2  -3 17146.6 423.326   4
   1  -2   3 18857.3 331.988   7
  -1   2  -4 6867.53 324.029  10
  -1   2  -4 7501.45 370.995   3
   1  -2   4 6741.15 231.688   7
  -1   2  -4 6522.97 251.911   8
  -1   2  -4 7219.27 341.529   4
  -1   2  -5 30261.0 508.518   8
   1  -2   5 31782.7 499.571   7
  -1   2  -5 32813.8 746.363   3
  -1   2  -5 33542.6 715.870   4
  -1   2  -6 11710.9 351.441   8
   1  -2   6 11139.0 345.397   7
  -1   2  -6 13315.2 553.468   4
  -1   2  -6 12964.0 576.231   3
  -1   2  -7 1350.92 418.808   3
  -1   2  -7 1501.40 360.508   4
  -1   2  -8 4643.89 495.683   4
  -1   2  -8 5309.18 571.432   3
  -1   2  -9 367.425 439.533   4
  -1   2  -9 304.929 511.418   3
  -1   2 -10 235.692 493.851   4
  -1   2 -10 766.077 564.134   3
  -1   2 -11 2792.42 606.435   4
  -1   2 -11 3207.57 677.956   3
  -1   2 -12 699.757 582.952   4
  -1   2 -12 1324.79 649.977   3
  -1   2 -13 440.751 645.854   4
  -1   2 -13 714.435 660.771   3
   1  -1 -13 3586.50 700.962   4
   1  -1 -13 3944.42 781.415   3
   1  -1 -12 746.684 639.404   3
   1  -1 -12 1316.95 586.390   4
   1  -1 -11 787.117 567.180   3
   1  -1 -10 2578.97 588.270   3
   1  -1  -9 831.860 503.678   3
   1  -1  -8 14438.4 718.452   3
   1  -1  -7 149885. 1709.40   3
  -1   1   7 142582. 1355.06  11
  -1   1   6 45562.2 786.182   7
  -1   1   6 44781.1 720.087  11
   1  -1  -6 47982.2 907.440   3
   1  -1  -5 199.681 227.820   3
  -1   1   5 23.0098 81.4899   6
   1  -1  -5 15.6753 79.8394   2
  -1   1   5 33.8044 164.517   7
  -1   1   5 92.4244 142.561  11
   1  -1  -4 10667.6 395.630   5
  -1   1   4 10969.1 241.932   6
  -1   1   4 10971.7 352.876   7
  -1   1   3 16231.7 275.135   6
  -1   1   3 16480.5 370.286   7
   1  -1  -3 16447.9 394.521   5
  -1   1   2 43431.5 580.235   1
   1  -1  -2 45701.0 508.072   5
  -1   1   2 45915.4 521.116   7
  -1   1   1 141811. 1087.98   1
  -1   1   1 140368. 780.508  11
   1  -1  -1 140280. 1084.79   1
   1  -1   0 24868.4 489.044   1
   1  -1   1 27922.3 551.051   1
  -1   1  -1 28979.0 366.721   8
  -1   1  -1 28748.5 390.723   3
   1  -1   2 4548.19 263.268   1
  -1   1  -2 4860.47 229.510   3
  -1   1  -2 4800.16 190.092   8
  -1   1  -2 4637.50 197.541  10
  -1   1  -2 4825.02 195.365   4
  -1   1  -3 143.394 174.751   3
   1  -1   3 55.4837 140.608   1
  -1   1  -3 162.048 146.452   4
  -1   1  -3 114.090 130.467  10
  -1   1  -4 3741.99 217.299  10
  -1   1  -4 3786.65 301.801   3
  -1   1  -4 3634.99 257.715   4
   1  -1   4 3488.87 154.968   7
   1  -1   4 3481.35 265.466   1
   1  -1   5 6803.60 346.360   1
  -1   1  -5 7037.24 412.641   3
   1  -1   5 5979.42 229.823   7
  -1   1  -5 7009.01 370.607   4
   1  -1   6 6502.95 267.034   7
  -1   1  -6 6393.98 279.550   8
  -1   1  -6 7026.33 428.160   4
  -1   1  -7 7601.58 496.892   4
  -1   1  -7 7633.18 567.309   3
  -1   1  -8 3175.86 548.735   3
  -1   1  -8 2727.72 439.613   4
  -1   1  -9 7544.52 617.076   4
  -1   1  -9 6831.39 668.938   3
  -1   1 -10 9966.20 808.671   3
  -1   1 -10 9796.65 728.615   4
  -1   1 -11 1851.74 647.208   3
  -1   1 -11 2027.50 566.923   4
  -1   1 -12 602.691 542.507   4
  -1   1 -12 910.830 595.715   3
  -1   1 -13 456.838 642.718   4
   1   0 -13 17550.2 1051.37   3
   1   0 -13 17932.0 1079.54   4
   1   0 -12 1953.05 656.175   3
   1   0 -12 2993.39 667.312   4
   1   0 -11 810.556 566.502   3
   1   0 -11 1257.05 572.065   4
   1   0 -10 2729.55 555.680   3
   1   0 -10 3274.99 590.258   4
  -1   0   9 3113.23 368.874   7
   1   0  -9 5057.38 549.911   3
  -1   0   8 18727.2 601.531   7
   1   0  -8 19440.8 743.019   3
   1   0  -7 28217.4 777.797   3
  -1   0   7 27258.2 662.438   7
  -1   0   6 23080.1 564.520   7
   1   0  -6 22925.4 622.777   3
   1   0  -5 13201.9 434.461   3
  -1   0   5 12512.5 393.786   7
   1   0  -4 791.613 185.473   3
  -1   0   4 766.380 160.757   7
   1   0  -3 1042.36 150.949   3
  -1   0   3 1059.26 150.016   7
   1   0  -3 916.401 120.611   2
   1   0  -2 5178.50 201.631   2
  -1   0   2 5644.78 194.313   7
   1   0  -1 5395.68 199.251   2
   1   0   0 52005.2 579.189   2
   1   0   1 44260.5 541.287   2
  -1   0  -1 43247.4 429.386   3
   1   0   2 103.074 90.4448   2
  -1   0  -2 181.662 148.730   3
  -1   0  -3 62717.5 775.018   3
  -1   0  -4 50862.1 804.216   3
  -1   0  -5 6527.87 402.585   3
  -1   0  -6 9533.09 528.694   3
  -1   0  -7 2926.91 485.486   3
  -1   0  -8 4219.83 578.867   3
  -1   0  -9 21299.5 872.578   4
  -1   0  -9 22025.7 972.641   3
  -1   0 -10 7269.98 668.331   4
  -1   0 -10 7699.74 764.951   3
  -1   0 -11 268.291 494.991   4
  -1   0 -11-101.657 616.631   3
  -1   0 -12 753.268 629.824   3
  -1   0 -12 771.756 546.840   4
  -1   0 -13 1344.86 659.571   4
   1   1 -14 3736.36 751.294   4
   1   1 -13 3073.12 734.265   4
   1   1 -13 3196.04 724.940   3
   1   1 -12 5522.18 738.089   4
   1   1 -12 4891.84 706.154   3
   1   1 -11 1183.64 551.207   3
   1   1 -11 1705.72 586.405   4
   1   1 -10 909.327 499.209   3
   1   1 -10 721.322 515.196   4
   1   1  -9 4655.97 534.602   3
  -1  -1   9 4302.57 403.340   7
   1   1  -9 4877.36 570.393   4
   1   1  -8 59.4503 377.825   4
  -1  -1   8-201.107 250.302   7
   1   1  -8 55.3107 347.740   3
   1   1  -7 300.313 291.453   3
  -1  -1   7 195.701 228.959   7
   1   1  -7 318.186 311.653   4
   1   1  -6 32972.6 700.153   3
   1   1  -6 33973.3 756.480   4
  -1  -1   6 33597.6 663.774   7
  -1  -1   5 6579.44 252.856   2
   1   1  -5 7404.28 363.499   4
   1   1  -5 7584.40 333.764   3
  -1  -1   5 7212.81 314.799   7
  -1  -1   4 156.660 120.201   2
   1   1  -4 124.998 156.320   3
   1   1  -4 155.634 125.283   0
  -1  -1   4 183.507 146.113   7
   1   1  -4 111.887 178.106   4
   1   1  -3 91839.2 696.485   3
   1   1  -3 92132.5 826.548   4
  -1  -1   3 93304.0 813.498   7
   1   1  -2 80122.4 645.362   4
  -1  -1   2 81127.8 678.509   7
   1   1  -1 7782.33 212.364   9
   1   1   0 18628.9 298.596   9
  -1  -1  -1 5851.23 200.272   5
  -1  -1  -1 6049.15 203.409   3
  -1  -1  -2 78213.6 756.055   5
  -1  -1  -2 77174.7 755.576   3
  -1  -1  -3 205972. 1431.02   3
  -1  -1  -3 205082. 1425.28   5
   1   1   4 23715.2 362.070  11
  -1  -1  -4 25865.8 621.957   3
  -1  -1  -5 396.955 301.086   3
   1   1   5 218.768 108.237  11
  -1  -1  -6 10491.9 570.092   3
  -1  -1  -7 6888.60 586.661   3
  -1  -1  -8 2598.60 550.527   3
  -1  -1  -9 6976.84 710.642   3
  -1  -1 -10 5544.02 715.332   3
  -1  -1 -11 376.265 524.505   4
  -1  -1 -11 163.128 579.773   3
  -1  -1 -12 628.343 662.714   3
  -1  -1 -12 360.886 566.319   4
   1   2 -14 53.0298 645.161   3
   1   2 -14 142.666 634.797   4
   1   2 -13 847.329 596.170   3
   1   2 -13 266.050 620.812   4
   1   2 -12 6992.99 766.826   4
   1   2 -12 5539.56 702.103   3
   1   2 -11-115.735 558.061   4
   1   2 -11-86.3979 487.689   3
   1   2 -10 465.886 462.627   3
   1   2 -10 758.187 521.963   4
   1   2  -9 10900.3 707.927   4
   1   2  -9 11355.3 658.322   3
  -1  -2   9 10648.2 532.050   7
   1   2  -8 2940.30 454.337   4
  -1  -2   8 2767.39 324.796   7
   1   2  -8 2729.34 411.221   3
   1   2  -7 3923.19 427.523   4
   1   2  -7 3900.23 381.143   3
  -1  -2   7 3163.62 307.758   7
   1   2  -6 6554.63 338.895   1
   1   2  -6 7146.00 375.497   3
  -1  -2   6 7111.63 360.129   7
   1   2  -6 7622.06 431.273   4
   1   2  -5 4786.01 335.748   4
   1   2  -5 4135.44 273.993   3
  -1  -2   5 4521.00 275.547   7
   1   2  -4 107016. 1274.42   0
   1   2  -4 106997. 1094.82   4
   1   2  -4 103479. 906.655   3
  -1  -2   4 106827. 1044.31   7
   1   2  -3 193111. 1727.68   0
   1   2  -3 186339. 1013.20   3
  -1  -2   3 189992. 1292.11   7
   1   2  -3 191573. 1302.60   4
   1   2  -2 12863.3 349.420   9
   1   2  -2 13020.1 333.912   4
   1   2  -1 10819.4 302.595   9
  -1  -2   1 10677.5 278.157   5
   1   2   0 43111.2 536.713   9
  -1  -2   0 44666.6 527.908   5
   1   2   1 10424.9 307.708   9
  -1  -2  -1 10677.7 307.555   5
  -1  -2  -2 14356.6 397.310   5
  -1  -2  -3 61322.2 868.483   5
  -1  -2  -3 62909.6 867.925   3
  -1  -2  -4 27385.6 672.415   5
  -1  -2  -4 27133.4 666.857   3
  -1  -2  -5 1077.82 351.490   3
  -1  -2  -5 838.195 310.739   5
  -1  -2  -5 702.344 195.949   2
  -1  -2  -6 3323.26 478.742   3
  -1  -2  -7 17788.8 799.665   3
  -1  -2  -8 5236.21 622.539   3
  -1  -2  -9 1887.38 637.784   3
  -1  -2 -10 3283.01 688.169   3
  -1  -2 -11 1171.97 660.671   3
  -1  -2 -12 100.504 593.796   4
  -1  -2 -12 290.963 652.659   3
   1   3 -14 48.5939 643.693   3
   1   3 -14 202.592 618.700   4
   1   3 -13-33.8516 548.037   3
   1   3 -13 205.114 599.506   4
   1   3 -12 842.681 595.546   4
   1   3 -12 534.745 549.819   3
   1   3 -11 2903.66 557.671   3
   1   3 -11 3079.44 644.134   4
   1   3 -10 14179.7 757.565   3
   1   3 -10 17888.7 903.743   4
   1   3  -9 14279.5 693.109   3
  -1  -3   9 14227.8 605.538   7
  -1  -3   8 6456.93 417.614   7
   1   3  -8 6320.33 475.319   3
   1   3  -8 6936.81 575.689   4
   1   3  -7 7292.92 445.690   3
   1   3  -7 7891.60 531.131   4
  -1  -3   7 6930.47 404.274   7
  -1  -3   6 8828.77 412.801   7
   1   3  -6 8489.69 405.284   3
   1   3  -6 9185.48 498.428   4
   1   3  -5 10971.4 393.805   3
  -1  -3   5 12154.8 440.016   7
   1   3  -5 12593.9 491.565   4
   1   3  -4 31587.6 543.037   3
  -1  -3   4 32477.5 650.079   7
   1   3  -4 33127.5 895.728   0
   1   3  -4 32901.7 682.366   4
   1   3  -3 82239.2 1383.05   0
   1   3  -3 85326.3 986.869   4
   1   3  -3 82971.9 767.885   3
   1   3  -2 49125.9 704.137   9
   1   3  -2 48640.9 708.185   4
   1   3  -2 49165.4 1075.83   0
  -1  -3   2 49060.9 695.830   5
   1   3  -2 48302.7 550.985   3
   1   3  -1 418.779 176.902   9
  -1  -3   1 315.927 167.075   5
  -1  -3   0 23454.0 486.203   5
   1   3   0 24098.1 471.334   9
  -1  -3  -1 42711.8 668.378   5
   1   3   1 41693.6 636.490   9
  -1  -3  -2 8715.58 378.163   5
   1   3   2 8551.13 351.528   9
  -1  -3  -3 13515.8 490.071   5
  -1  -3  -4 30470.4 755.390   3
  -1  -3  -4 29276.0 754.833   5
  -1  -3  -5 5936.05 482.995   5
   1   3   5 5439.64 516.176   0
  -1  -3  -5 5946.76 484.378   3
  -1  -3  -6 2757.07 485.348   3
  -1  -3  -6 2486.79 457.266   5
  -1  -3  -7 5792.49 619.353   3
  -1  -3  -8 3771.01 611.869   3
  -1  -3  -9 1985.37 604.879   3
  -1  -3 -10 1786.59 649.530   3
  -1  -3 -11 1273.41 690.497   3
  -1  -3 -12 89.3910 648.630   4
   1   4 -14 1027.68 667.317   3
   1   4 -13 492.850 581.071   4
   1   4 -13-183.902 576.494   3
   1   4 -12 1003.99 539.616   3
   1   4 -12 1608.17 616.641   4
   1   4 -11 3570.06 567.933   3
   1   4 -11 4382.37 666.566   4
   1   4 -10 6940.99 693.027   4
   1   4 -10 5679.97 591.571   3
   1   4  -9 11154.6 745.230   4
  -1  -4   9 10547.2 554.755   7
   1   4  -9 10974.1 646.056   3
   1   4  -8 9259.00 644.189   4
  -1  -4   8 8539.08 501.267   7
  -1  -4   7 2155.73 308.813   7
   1   4  -7 2215.02 351.838   3
   1   4  -7 2485.53 450.403   4
   1   4  -6 9470.53 437.736   3
  -1  -4   6 9743.31 463.112   7
   1   4  -6 9936.20 547.539   4
   1   4  -5 11517.3 425.377   3
   1   4  -5 11803.7 527.116   4
  -1  -4   5 12186.4 491.555   7
   1   4  -4 1545.76 297.236   4
   1   4  -4 1564.92 373.315   0
   1   4  -4 1727.81 227.903   3
   1   4  -3 37420.6 1096.43   0
   1   4  -3 38565.2 761.211   4
   1   4  -3 37857.3 612.646   3
   1   4  -2 53860.2 1301.36   0
  -1  -4   2 53553.2 843.715   5
   1   4  -2 55582.0 829.571   9
   1   4  -1 9385.17 589.549   0
  -1  -4   1 8991.04 394.688   5
   1   4  -1 9949.75 387.648   9
  -1  -4   0 10883.0 416.565   5
   1   4   0 11570.7 652.571   0
   1   4   0 11937.5 402.568   9
   1   4   1 27346.8 585.013   9
  -1  -4  -1 26795.3 621.782   5
   1   4   1 28893.8 997.368   0
  -1  -4  -2 15466.6 535.434   5
   1   4   2 16474.6 793.284   0
   1   4   2 15442.3 484.322   9
   1   4   3 7514.26 605.591   0
  -1  -4  -3 6812.47 443.923   5
   1   4   3 6627.07 390.066   9
   1   4   4 17488.5 858.900   0
  -1  -4  -4 18093.9 680.283   5
   1   4   4 18056.9 594.371   9
  -1  -4  -5 7831.00 552.057   5
  -1  -4  -5 6424.96 525.179   3
  -1  -4  -6 762.126 457.448   5
  -1  -4  -6 630.996 455.506   3
  -1  -4  -7 217.078 507.978   3
  -1  -4  -7-78.0405 481.891   5
  -1  -4  -8 7978.01 766.083   3
  -1  -4  -9 1974.17 662.346   3
  -1  -4 -10 1116.79 657.030   3
  -1  -4 -11 1671.72 675.315   3
   1   5 -13 949.684 590.987   3
   1   5 -13 878.827 636.877   4
   1   5 -12 1665.34 677.932   4
   1   5 -12 1915.06 580.065   3
   1   5 -11 684.782 469.165   3
   1   5 -11 641.519 562.732   4
   1   5 -10 265.687 438.103   3
   1   5 -10 635.286 560.816   4
  -1  -5  10 558.833 333.738   7
   1   5  -9 7475.57 590.635   3
   1   5  -9 9182.20 744.567   4
  -1  -5   9 8281.66 540.293   7
   1   5  -8 9124.81 559.082   3
  -1  -5   8 9509.69 543.342   7
   1   5  -7 2365.04 490.057   4
   1   5  -7 1955.61 356.272   3
  -1  -5   7 2604.59 360.197   7
   1   5  -6 6227.72 533.982   4
   1   5  -6 5919.15 402.948   3
  -1  -5   6 6102.21 441.492   7
   1   5  -5 15069.7 638.800   4
   1   5  -5 13700.6 494.095   3
   1   5  -4 4093.09 549.157   0
   1   5  -4 4352.96 317.057   3
   1   5  -4 4706.41 413.044   4
   1   5  -3 12159.4 762.013   0
  -1  -5   3 12180.9 521.883   5
  -1  -5   2 57879.4 982.353   5
   1   5  -2 57783.1 932.740   9
   1   5  -2 57510.9 1510.54   0
  -1  -5   1 8215.01 432.730   5
   1   5  -1 8671.63 414.287   9
   1   5  -1 8381.85 662.812   0
   1   5   0 10441.4 433.908   9
  -1  -5   0 10210.9 468.804   5
   1   5   0 9067.40 687.872   0
  -1  -5  -1 7029.83 432.697   5
   1   5   1 7121.08 388.514   9
   1   5   1 6697.00 631.196   0
   1   5   2 26990.1 682.708   9
   1   5   2 28148.9 1136.01   0
  -1  -5  -2 28152.8 770.547   5
  -1  -5  -3 5619.25 489.500   5
   1   5   3 5003.15 404.481   9
   1   5   3 6592.06 681.804   0
   1   5   4 5184.50 688.473   0
   1   5   4 5800.99 453.183   9
  -1  -5  -4 5911.92 519.870   5
  -1  -5  -5 2546.40 495.339   5
   1   5   5 2205.12 412.302   9
   1   5   6 613.654 407.481   9
  -1  -5  -6 384.704 499.140   5
  -1  -5  -6 398.392 490.707   3
  -1  -5  -7 5513.30 680.636   5
   1   5   7 5479.30 559.917   9
  -1  -5  -7 5216.25 677.776   3
  -1  -5  -8 2398.83 650.948   3
   1   5   8 3056.65 547.838   9
   1   5   9 1514.44 502.997   9
  -1  -5  -9 2024.25 673.355   3
   1   5  10 6749.44 715.952   9
  -1  -5 -10 8059.81 887.280   3
   1   5  11 3365.93 636.410   9
   1   6 -13 775.934 638.693   4
   1   6 -12 1549.36 641.324   4
   1   6 -11 1665.82 634.736   4
   1   6 -11 1049.79 535.733   3
  -1  -6  10 147.162 335.111   7
   1   6 -10 378.517 556.864   4
   1   6 -10 177.164 421.271   3
  -1  -6   9 5935.36 510.757   7
   1   6  -9 5036.09 538.240   3
   1   6  -9 6433.16 707.609   4
   1   6  -8 17709.2 893.658   4
   1   6  -8 16464.6 715.282   3
  -1  -6   8 17275.7 742.265   7
   1   6  -7 747.643 343.570   3
  -1  -6   7 478.267 337.405   7
   1   6  -7 774.146 493.295   4
   1   6  -6 556.611 309.438   3
   1   6  -6 358.066 428.278   4
  -1  -6   6 474.434 312.588   7
  -1  -6   5 15075.7 694.122   5
   1   6  -5 13677.1 542.540   3
  -1  -6   4 19505.1 726.786   5
  -1  -6   3 5605.85 468.602   5
   1   6  -3 5014.80 424.860   9
   1   6  -2 11212.5 516.249   9
  -1  -6   2 11469.5 570.720   5
  -1  -6   1 623.412 337.156   5
   1   6  -1 709.423 298.954   9
   1   6   0 963.807 312.030   9
  -1  -6   0 641.599 343.245   5
  -1  -6  -1 13100.2 612.831   5
   1   6   1 14022.1 551.513   9
  -1  -6  -2 6200.33 517.632   5
   1   6   2 6863.68 452.816   9
  -1  -6  -3 11382.3 663.533   5
   1   6   3 10476.9 536.985   9
  -1  -6  -4 22977.1 890.552   5
   1   6   4 21166.4 735.221   9
  -1  -6  -5 8592.53 699.859   5
   1   6   5 9084.72 579.160   9
  -1  -6  -6 5802.35 674.939   3
   1   6   6 4832.16 516.302   9
  -1  -6  -6 4993.71 665.229   5
   1   6   7 2859.34 522.135   9
  -1  -6  -7 2607.18 609.953   5
  -1  -6  -7 2948.63 632.492   3
  -1  -6  -8 1340.10 653.605   3
   1   6   8 1447.63 482.322   9
  -1  -6  -8 1834.56 656.638   5
   1   6   9 3028.76 594.686   9
  -1  -6  -9 3411.71 762.591   3
  -1  -6 -10 1536.22 675.243   3
   1   7 -12 836.666 653.095   4
   1   7 -11 4095.07 723.078   4
  -1  -7  10 2370.52 445.453   7
   1   7 -10 1849.36 631.017   4
  -1  -7   9 1535.49 433.822   7
   1   7  -9 1586.92 590.461   4
   1   7  -8 2572.51 602.743   4
  -1  -7   8 2021.55 467.825   7
   1   7  -8 1891.36 429.620   3
  -1  -7   7 159.897 387.069   7
   1   7  -7-7.65834 342.865   3
   1   7  -7 97.8050 496.614   4
   1   7  -6 732.669 339.060   3
  -1  -7   6 750.869 402.767   7
  -1  -7   6 1012.26 497.618   5
  -1  -7   5 5995.25 599.010   5
  -1  -7   4 9569.15 643.621   5
  -1  -7   3 14429.7 709.992   5
  -1  -7   2 12880.3 668.312   5
   1   7  -2 12452.7 595.832   9
   1   7  -1 14643.0 623.990   9
  -1  -7   1 15705.4 723.193   5
  -1  -7   0 16608.7 753.386   5
   1   7   0 16283.0 645.726   9
   1   7   1 2820.01 412.661   9
  -1  -7  -1 3738.32 496.906   5
   1   7   2 9289.76 542.747   9
  -1  -7  -2 9727.65 675.487   5
   1   7   3 19490.4 728.792   9
  -1  -7  -3 19900.9 886.107   5
   1   7   4 2789.27 450.625   9
  -1  -7  -4 2487.49 562.913   5
  -1  -7  -5 1184.90 563.378   5
   1   7   5 1740.98 440.496   9
  -1  -7  -6 3710.53 663.106   3
   1   7   6 3459.43 527.568   9
  -1  -7  -6 5096.75 686.625   5
   1   7   7 1911.61 498.777   9
  -1  -7  -7 2197.25 657.537   5
  -1  -7  -7 1894.75 641.655   3
  -1  -7  -8 2133.05 690.781   3
  -1  -7  -8 2696.76 684.003   5
  -1  -7  -9 12.7519 662.698   3
   1   8 -12 758.179 640.773   4
   1   8 -11 1584.64 643.878   4
   1   8 -10 3141.68 688.589   4
  -1  -8  10 2453.95 484.859   7
  -1  -8   9 1938.06 461.105   7
  -1  -8   8 2212.47 608.517   5
  -1  -8   8 1695.87 454.288   7
  -1  -8   7 9999.66 773.845   5
  -1  -8   7 7448.14 628.608   7
  -1  -8   6 4194.52 619.868   5
  -1  -8   5 1374.29 542.346   5
  -1  -8   4 20846.3 903.991   5
  -1  -8   3 20721.0 881.544   5
  -1  -8   2 2965.41 538.966   5
   1   8  -2 2231.93 443.741   9
   1   8  -1 7305.76 545.349   9
  -1  -8   1 7548.21 652.057   5
  -1  -8   0 7702.29 652.442   5
   1   8   0 7717.17 552.917   9
  -1  -8  -1 10054.9 719.315   5
   1   8   1 9989.85 612.793   9
   1   8   2 10081.1 619.895   9
  -1  -8  -2 10178.3 750.316   5
   1   8   3 2141.06 464.453   9
  -1  -8  -3 2584.29 593.487   5
   1   8   4 3753.21 491.839   9
  -1  -8  -4 3732.94 670.514   5
   1   8   5 5187.63 553.101   9
  -1  -8  -5 4859.99 726.848   5
  -1  -8  -6 4124.10 705.676   5
  -1  -8  -6 3563.20 675.526   3
  -1  -8  -7 850.937 634.964   5
  -1  -8  -7 525.628 625.147   3
  -1  -8  -8 1125.25 656.645   3
  -1  -8  -8 1269.50 662.585   5
  -1  -9  11 1628.06 651.704   5
  -1  -9  10 5688.61 631.598   7
  -1  -9  10 9549.41 891.839   5
  -1  -9   9 2148.16 529.846   7
  -1  -9   9 2893.98 681.821   5
  -1  -9   8 1574.29 492.115   7
  -1  -9   8 1672.42 633.906   5
  -1  -9   7 5404.53 710.777   5
  -1  -9   7 4376.83 605.106   7
  -1  -9   6 4853.47 676.774   5
  -1  -9   5 14214.6 875.783   5
  -1  -9   4 6275.55 679.123   5
  -1  -9   3 4099.47 633.650   5
  -1  -9   2-324.951 530.204   5
   1   9  -2 66.0214 419.460   9
  -1  -9   1 9875.35 759.571   5
   1   9  -1 10743.9 646.982   9
   1   9   0 4820.97 547.307   9
  -1  -9   0 4816.76 648.506   5
   1   9   1 4093.56 519.086   9
  -1  -9  -1 3499.25 615.230   5
   1   9   2 717.912 434.366   9
  -1  -9  -2 411.464 587.101   5
  -1  -9  -3 852.615 571.326   5
   1   9   3 784.984 443.513   9
  -1  -9  -4-177.097 586.297   5
  -1  -9  -5 2530.10 669.751   5
  -1  -9  -6 1775.49 651.719   3
  -1  -9  -6 2191.39 718.750   5
  -1  -9  -7 3863.33 730.986   5
  -1  -9  -7 3124.40 750.469   3
  -1 -10  10 337.542 615.780   5
  -1 -10   9 629.489 504.584   7
  -1 -10   9 797.144 636.202   5
  -1 -10   8 959.222 494.328   7
  -1 -10   8 486.705 623.757   5
  -1 -10   7 2519.36 583.730   7
  -1 -10   7 3702.90 688.540   5
  -1 -10   6 3451.26 696.284   5
  -1 -10   5 3679.33 685.140   5
  -1 -10   4 144.582 540.902   5
  -1 -10   3 867.813 598.512   5
  -1 -10   2 318.193 590.164   5
   1  10  -1 1532.37 500.817   9
  -1 -10   1 1688.35 599.530   5
  -1 -10   0 5557.42 705.583   5
   1  10   0 4308.94 554.646   9
  -1 -10  -1 5082.50 729.605   5
  -1 -10  -2 2777.49 700.282   5
  -1 -10  -3 4063.49 725.298   5
  -1 -10  -4 796.371 591.305   5
  -1 -10  -5-148.823 631.124   5
  -1 -11   9-528.785 564.254   7
  -1 -11   9 529.161 614.063   5
  -1 -11   8 267.870 510.781   7
  -1 -11   8-94.4360 626.953   5
  -1 -11   7 741.699 526.177   7
  -1 -11   7 1269.86 643.141   5
  -1 -11   6 3803.39 703.584   5
  -1 -11   5 2027.98 672.851   5
  -1 -11   4 3475.45 710.083   5
  -1 -11   3 4196.99 727.522   5
  -1 -11   2-377.274 614.187   5
  -1 -11   1 1730.69 598.520   5
  -1 -11   0 10148.9 879.268   5
  -1 -11  -1 2640.66 681.289   5
  -1 -11  -2 1050.23 622.399   5
  -1 -11  -3 3935.13 753.830   5
  -1 -11  -4 975.618 658.162   5
  -1 -12   7 1751.32 631.350   7
  -1 -12   7 1898.52 728.606   5
  -1 -12   6 5158.60 807.388   5
  -1 -12   5 475.868 630.330   5
  -1 -12   4 2955.66 779.561   5
  -1 -12   3 5957.26 837.004   5
  -1 -12   2 596.237 660.324   5
  -1 -12   1 851.837 604.356   5
  -1 -12   0-200.789 616.661   5
  -1 -12  -1 11.8167 619.072   5
   2 -12  -3 1863.77 672.009   5
   2 -12  -2-164.177 589.713   5
   2 -12  -1 33.0989 551.732   5
   2 -12   0 1413.21 629.274   5
   2 -12   1 517.711 646.237   5
   2 -12   2 1470.57 665.614   5
   2 -12   3 2292.13 689.587   5
   2 -12   4-257.140 599.921   5
   2 -12   5 185.892 618.233   5
   2 -12   6 3451.17 735.674   5
   2 -11  -5 711.245 633.251   5
   2 -11  -4 2322.97 684.256   5
   2 -11  -3 1417.01 597.636   5
   2 -11  -2 138.985 540.943   5
   2 -11  -1 1684.56 632.378   5
   2 -11   0 8265.41 810.154   5
   2 -11   1 2597.02 664.942   5
   2 -11   2 120.278 578.960   5
   2 -11   3 1193.20 604.766   5
   2 -11   4 2397.61 653.616   5
   2 -11   5 1046.87 651.983   5
   2 -11   6 2887.63 705.729   5
   2 -11   7 2154.08 658.408   5
   2 -11   8 337.284 626.501   5
   2 -10  -7 1531.62 624.716   5
   2 -10  -6 3977.21 725.239   5
   2 -10  -5 1220.97 615.057   5
   2 -10  -4 389.414 583.748   5
   2 -10  -3 2374.56 605.851   5
   2 -10  -2 4312.65 662.376   5
  -2  10   2 3771.21 593.386  10
   2 -10  -1 2589.82 606.706   5
  -2  10   1 1647.53 555.373  10
   2 -10   0 4058.63 675.237   5
  -2  10   0 4607.04 673.213  10
   2 -10   1 4867.40 683.281   5
  -2  10  -1 4103.54 690.582  10
  -2  10  -2 1039.21 613.791  10
   2 -10   2 1243.45 588.466   5
   2 -10   3 1365.09 600.011   5
  -2  10  -3 1640.20 656.898  10
   2 -10   4 969.381 557.352   5
   2 -10   5 1212.84 580.220   5
   2 -10   6 3337.77 681.769   5
   2 -10   7 3508.75 716.287   5
   2 -10   8 2756.42 684.549   5
  -2  10  -9 3183.90 703.274   3
   2 -10   9 3371.95 724.426   5
   2  -9  -8 1585.50 627.005   5
   2  -9  -7 1385.30 622.250   5
   2  -9  -6 3466.02 671.716   5
   2  -9  -5 2888.40 651.586   5
   2  -9  -4 1112.44 567.662   5
   2  -9  -3 2979.17 581.015   5
   2  -9  -2 2323.18 563.654   5
  -2   9   2 2248.59 495.148  10
   2  -9  -1 2099.12 554.368   5
  -2   9   1 2227.75 516.898  10
   2  -9   0 6106.24 680.029   5
  -2   9   0 5393.75 635.224  10
   2  -9   1 7571.95 707.630   5
  -2   9  -1 7388.04 716.875  10
  -2   9  -2 12645.8 856.204  10
   2  -9   2 12116.0 789.562   5
  -2   9  -3 8207.69 786.246  10
   2  -9   3 8500.51 684.653   5
  -2   9  -4 443.964 604.448  10
   2  -9   4 1049.77 521.788   5
   2  -9   5 1053.42 543.882   5
   2  -9   6 3339.90 620.488   5
   2  -9   7 5709.57 709.530   5
  -2   9  -7 4187.51 712.963   3
   2  -9   8 6076.53 746.258   5
  -2   9  -8 4073.62 720.226   3
  -2   9  -9 1004.21 606.133   3
   2  -9   9 1254.65 569.597   5
   2  -9  10 586.507 616.492   5
  -2   9 -10 158.660 647.682   3
   2  -8  -9 1502.28 623.815   5
   2  -8  -9 2415.11 717.199   3
   2  -8  -8 1356.93 638.889   5
   2  -8  -7 761.427 584.050   5
   2  -8  -6 2773.93 625.077   5
   2  -8  -5 6608.19 703.967   5
   2  -8  -4 9191.45 727.958   5
  -2   8   3 4225.38 496.434  10
   2  -8  -3 4018.77 587.206   5
   2  -8  -2 2120.04 512.174   5
  -2   8   2 1821.59 451.334  10
  -2   8   1 2029.42 494.115  10
   2  -8  -1 2670.13 513.074   5
  -2   8   0 7817.55 647.525  10
   2  -8   0 6884.30 613.851   5
   2  -8   1 24957.8 908.979   5
  -2   8  -1 25217.9 998.565  10
  -2   8  -2 18375.9 920.303  10
   2  -8   2 18705.3 816.887   5
  -2   8  -3 3978.59 651.171  10
   2  -8   3 3523.78 535.439   5
   2  -8   4 3412.47 546.659   5
  -2   8  -4 3563.09 654.420  10
  -2   8  -5 173.523 571.787  10
   2  -8   5 384.839 480.447   5
  -2   8  -5 224.388 509.671   3
  -2   8  -6-214.827 518.431   3
   2  -8   6 190.053 484.185   5
  -2   8  -7 2838.54 651.683   3
   2  -8   7 4289.96 646.944   5
  -2   8  -8 428.343 617.025   3
  -2   8  -9 236.783 622.805   3
  -2   8 -10 5171.51 784.357   3
  -2   8 -11 1412.55 665.592   3
   2  -7 -10 1588.43 697.888   3
   2  -7  -9 706.670 607.632   5
   2  -7  -9 881.521 672.485   3
  -2   7   8 729.818 442.201  11
   2  -7  -8 636.800 594.670   5
   2  -7  -7 547.616 557.368   5
  -2   7   7 363.291 444.691  11
  -2   7   6 4732.65 569.351  11
   2  -7  -6 4576.03 637.026   5
  -2   7   5 23521.7 931.046  11
   2  -7  -5 22514.9 939.880   5
  -2   7   4 11688.6 568.158  10
   2  -7  -4 12598.7 720.474   5
  -2   7   4 10889.6 681.167  11
  -2   7   3 4096.82 519.050  11
   2  -7  -3 3981.35 512.784   5
  -2   7   3 3958.87 430.913  10
  -2   7   2 5589.33 496.565  10
   2  -7  -2 5881.73 519.496   5
   2  -7  -1 638.222 386.258   5
  -2   7   1 279.319 347.004  10
  -2   7   0 4480.17 498.918  10
   2  -7   0 4696.27 480.150   5
   2  -7   1 15400.8 673.295   5
  -2   7  -1 14860.2 736.671  10
  -2   7  -2-55.7944 444.688  10
   2  -7   2-43.3013 378.640   5
  -2   7  -3 3078.58 551.134  10
   2  -7   3 2915.49 474.984   5
   2  -7   4 19833.2 824.644   5
  -2   7  -4 21009.1 860.502   3
  -2   7  -5 80.6158 470.818   3
  -2   7  -5 358.419 506.684  10
   2  -7   5 273.995 436.316   5
  -2   7  -6 94.5059 478.181   3
  -2   7  -7 3583.34 610.143   3
  -2   7  -8 1422.63 584.702   3
  -2   7  -8 1882.07 529.963   4
  -2   7  -9 1043.39 627.239   3
  -2   7  -9 1138.04 532.098   4
  -2   7 -10 3640.18 710.604   3
  -2   7 -10 2768.54 662.221   4
  -2   7 -11 4033.07 735.736   4
  -2   7 -11 4117.24 784.918   3
   2  -6 -11 5624.24 846.884   3
   2  -6 -10 1743.19 710.516   3
   2  -6  -9 1272.40 624.499   5
   2  -6  -9 1060.34 686.832   3
  -2   6   8 1098.62 426.708  11
   2  -6  -8 1735.93 573.417   5
   2  -6  -7 372.200 522.276   5
  -2   6   7 259.624 399.865  11
  -2   6   6 11221.7 660.561  11
   2  -6  -6 9414.94 693.859   5
  -2   6   5 7202.31 560.720  11
   2  -6  -5 6468.63 591.678   5
   2  -6  -4 93.8726 374.329   5
  -2   6   4 106.261 339.857  11
  -2   6   4 44.4994 250.664  10
  -2   6   3 12549.6 627.782  11
   2  -6  -3 12891.4 621.215   5
  -2   6   3 11517.0 535.226  10
  -2   6   2 16935.7 644.830  10
   2  -6  -2 17142.5 649.511   5
  -2   6   2 17941.3 706.862  11
  -2   6   1 728.418 327.122  11
  -2   6   1 414.402 307.812  10
   2  -6  -1 568.773 319.055   5
   2  -6   0 770.414 318.520   5
  -2   6   0 475.451 346.183  10
  -2   6  -1 7947.54 529.250  10
   2  -6   1 7831.78 477.596   5
  -2   6  -2 3321.07 449.052  10
   2  -6   2 3792.54 408.212   5
   2  -6   3 4986.88 451.475   5
  -2   6  -3 4835.18 496.784   3
  -2   6  -3 4876.25 529.784  10
  -2   6  -4 11588.6 654.061   3
  -2   6  -4 11311.8 682.895  10
   2  -6   4 10825.8 596.397   5
  -2   6  -5 33169.0 998.552   3
  -2   6  -5 34591.7 1054.00  10
  -2   6  -6 30494.9 1031.14  10
  -2   6  -6 27705.9 930.136   4
  -2   6  -6 28511.8 980.463   3
  -2   6  -7 2569.27 521.359   4
  -2   6  -7 2133.02 545.735   3
  -2   6  -8 800.630 460.112   4
  -2   6  -8 992.467 562.113   3
  -2   6  -9 1314.43 543.432   4
  -2   6  -9 2220.07 636.640   3
  -2   6 -10 2486.28 624.447   4
  -2   6 -10 1826.16 673.814   3
  -2   6 -11 11915.0 915.395   4
  -2   6 -11 10740.5 938.585   3
   2  -5 -12 3585.01 745.769   3
   2  -5 -11 1451.87 598.666   3
   2  -5 -10 814.582 644.084   3
   2  -5  -9 6025.85 725.131   3
   2  -5  -8 1962.54 582.266   5
  -2   5   8 1640.00 392.623  11
  -2   5   7 261.938 313.408  11
   2  -5  -7 118.432 467.833   5
   2  -5  -6 1578.69 464.639   5
  -2   5   6 1571.09 361.500  11
  -2   5   5 1889.47 353.018  11
  -2   5   5 1658.93 267.988  10
   2  -5  -5 1676.72 407.511   5
  -2   5   5 1613.94 528.134   1
  -2   5   4 3315.78 525.431   1
  -2   5   4 3165.43 306.279  10
   2  -5  -4 3352.07 410.359   5
  -2   5   4 3540.25 384.549  11
   2  -5  -4 3390.19 574.812   0
  -2   5   3 2624.74 301.845  10
   2  -5  -3 3010.91 358.110   5
  -2   5   3 3441.39 373.161  11
   2  -5  -3 3465.42 554.639   0
  -2   5   3 2692.66 480.555   1
  -2   5   2 13228.4 784.687   1
  -2   5   2 13748.3 517.560  10
   2  -5  -2 14211.6 535.999   5
  -2   5   2 13317.1 309.730   9
   2  -5  -2 14426.1 853.879   0
  -2   5   2 15239.0 582.162  11
   2  -5  -1 107929. 2078.91   0
   2  -5  -1 104711. 1272.83   5
  -2   5   1 104031. 1335.41  10
  -2   5   1 100077. 1951.67   1
  -2   5   1 102583. 1348.29  11
  -2   5   0 40668.5 849.708  11
   2  -5   0 42094.6 820.562   5
   2  -5   0 43172.6 1340.58   0
  -2   5   0 42229.7 883.119  10
  -2   5  -1 2482.47 358.893  10
   2  -5   1 2801.28 309.283   5
  -2   5  -1 2275.95 436.945   1
  -2   5  -2 8834.20 507.208  10
   2  -5   2 8584.95 441.373   5
  -2   5  -2 8094.69 655.925   1
  -2   5  -2 8799.57 499.905   3
  -2   5  -3 1765.16 355.841   3
  -2   5  -3 1525.66 364.068  10
  -2   5  -3 1095.68 439.055   1
  -2   5  -3 1733.09 287.608   8
  -2   5  -4 28594.4 721.201   8
  -2   5  -4 29144.8 870.881  10
  -2   5  -4 29475.6 1166.69   1
  -2   5  -4 27734.3 822.596   3
  -2   5  -5 101152. 1472.55   4
   2  -5   5 102635. 2170.24   0
  -2   5  -5 102610. 1540.57   3
  -2   5  -5 101255. 1318.81   8
  -2   5  -6 13623.2 725.575   3
  -2   5  -6 13317.4 661.921   4
  -2   5  -6 15176.5 719.732  10
  -2   5  -7 710.344 390.926   4
  -2   5  -7 874.272 497.131   3
  -2   5  -8 1384.70 463.040   4
  -2   5  -8 1764.86 566.901   3
  -2   5  -9 525.280 456.043   4
  -2   5  -9 701.957 569.089   3
  -2   5 -10 860.941 609.823   3
  -2   5 -10 842.888 510.358   4
  -2   5 -11 2596.07 643.780   4
  -2   5 -11 2887.40 741.259   3
  -2   5 -12-294.724 636.118   3
   2  -4 -12 314.201 619.369   3
   2  -4 -11-89.9845 608.797   3
   2  -4 -10 1301.79 602.269   3
   2  -4  -9 685.924 552.412   3
   2  -4  -8 7935.21 677.182   5
  -2   4   8 7277.80 518.540  11
  -2   4   7 23296.3 762.698  11
   2  -4  -7 24571.5 901.698   5
  -2   4   6 5278.74 439.505  11
   2  -4  -6 5303.06 513.471   5
   2  -4  -5 5646.19 555.213   0
  -2   4   5 4914.10 499.919   1
   2  -4  -5 5464.03 453.922   5
  -2   4   5 5280.08 397.090  11
  -2   4   4 4657.46 226.720   9
   2  -4  -4 5221.45 395.399   5
  -2   4   4 4710.34 456.649   1
  -2   4   4 5773.68 389.661  11
   2  -4  -4 5284.36 540.776   0
  -2   4   3 280.794 109.953   9
   2  -4  -3 383.054 313.202   0
  -2   4   3 276.438 231.913  11
  -2   4   3 482.108 289.178   1
   2  -4  -3 317.188 229.568   5
   2  -4  -2 143109. 1344.56   5
  -2   4   2 143850. 2048.40   1
  -2   4   2 147354. 1464.65  11
  -2   4   1 335195. 2102.42  11
  -2   4   1 326706. 3095.86   1
  -2   4   1 328622. 2071.35  10
   2  -4  -1 330686. 1961.77   5
  -2   4   0 7634.75 371.394   8
   2  -4   0 7095.26 332.417   5
  -2   4   0 7070.88 353.320  11
  -2   4   0 7662.03 532.575   1
  -2   4   0 7069.29 378.388  10
  -2   4  -1 164.846 181.137  11
   2  -4   1 50.9414 188.783   5
  -2   4  -1 116.856 248.033   3
  -2   4  -1 79.8750 208.498   8
  -2   4  -1 160.843 241.136  10
  -2   4  -1 158.085 247.340   1
  -2   4  -2 14369.0 533.153  10
  -2   4  -2 14698.9 488.915   8
  -2   4  -2 13638.5 710.358   1
  -2   4  -2 14202.8 513.652   3
  -2   4  -3 3578.26 308.785   4
  -2   4  -3 3530.16 352.583  10
  -2   4  -3 3466.03 302.643   8
  -2   4  -3 3290.31 353.817   3
  -2   4  -3 3777.21 458.635   1
  -2   4  -4 15214.8 547.919   4
  -2   4  -4 14786.6 586.399  10
  -2   4  -4 14467.9 492.221   8
  -2   4  -4 15350.2 598.273   3
  -2   4  -5 17049.8 648.988  10
  -2   4  -5 15334.1 519.942   8
  -2   4  -5 16230.3 668.889   3
  -2   4  -5 15591.1 600.339   4
  -2   4  -6 1200.93 348.421  10
  -2   4  -6 1209.65 359.905   4
  -2   4  -6 1247.16 267.120   8
  -2   4  -6 1454.28 454.021   3
  -2   4  -7 4391.32 573.174   3
  -2   4  -7 3860.36 461.321   4
  -2   4  -8 2420.19 474.352   4
  -2   4  -8 2453.16 575.997   3
  -2   4  -9 322.418 432.349   4
  -2   4  -9 156.807 545.612   3
  -2   4 -10 2185.35 664.829   3
  -2   4 -10 1904.30 537.269   4
  -2   4 -11 3365.00 747.470   3
  -2   4 -11 3829.32 654.644   4
  -2   4 -12 662.993 614.370   3
   2  -3 -13 2041.23 688.945   3
   2  -3 -12 171.386 581.877   3
   2  -3 -11 1813.33 642.902   3
   2  -3 -10 83.0767 550.397   3
   2  -3  -9 588.891 523.836   3
   2  -3  -8 71101.2 1408.62   3
  -2   3   8 67766.4 1208.22  11
   2  -3  -7 61345.7 1232.98   5
  -2   3   7 61124.1 1098.10  11
  -2   3   6 1570.74 292.247  11
   2  -3  -6 1057.45 342.416   5
   2  -3  -5 3363.80 403.920   0
   2  -3  -5 2760.09 336.677   5
  -2   3   5 3203.93 313.802  11
   2  -3  -4 9148.12 416.243   5
  -2   3   4 9961.19 424.013  11
  -2   3   4 8703.13 480.688   1
   2  -3  -4 9615.03 537.607   0
  -2   3   3 8568.44 378.841  11
   2  -3  -3 8092.52 356.570   5
  -2   3   3 8148.20 474.038   1
   2  -3  -2 56174.5 740.194   5
  -2   3   2 57537.2 833.419  11
  -2   3   2 57079.2 1146.92   1
  -2   3   1 26440.2 799.086   1
  -2   3   1 24590.3 527.086  11
   2  -3  -1 25099.2 477.652   5
  -2   3   1 24659.9 546.002   8
   2  -3   0 10799.0 326.071   5
  -2   3   0 11276.0 549.625   1
  -2   3   0 10676.3 380.674   8
  -2   3   0 10785.6 350.495  11
  -2   3  -1 13513.4 432.844  10
  -2   3  -1 13310.5 413.480   8
   2  -3   1 13060.9 363.923   5
  -2   3  -1 12295.0 354.092  11
   2  -3   1 13421.0 619.578   1
  -2   3  -1 12717.5 424.513   3
  -2   3  -1 13377.9 612.626   1
   2  -3   2 540.212 241.640   1
  -2   3  -2 801.896 180.822   4
  -2   3  -2 732.250 242.488   3
  -2   3  -2 809.796 195.380   8
  -2   3  -2 628.178 221.587  10
  -2   3  -3 1348.75 219.513   4
  -2   3  -3 1326.89 222.650   8
  -2   3  -3 1452.71 249.243  10
  -2   3  -3 1520.11 293.620   3
   2  -3   4 6844.70 242.476   7
  -2   3  -4 6797.44 333.997   8
  -2   3  -4 6832.13 404.992  10
  -2   3  -4 7569.04 439.667   3
  -2   3  -4 6730.35 361.609   4
  -2   3  -5 9007.41 455.785  10
  -2   3  -5 8652.24 520.623   3
  -2   3  -5 8036.79 371.894   8
  -2   3  -5 8181.65 426.249   4
  -2   3  -6 6306.82 351.791   8
  -2   3  -6 6976.67 435.352  10
  -2   3  -6 6830.91 565.424   3
  -2   3  -6 6248.56 438.551   4
  -2   3  -7 3675.86 550.746   3
  -2   3  -7 3450.80 421.536   4
  -2   3  -8 5683.81 632.902   3
  -2   3  -8 5195.49 523.504   4
  -2   3  -9 12550.6 861.407   3
  -2   3  -9 11954.1 732.795   4
  -2   3 -10 3664.10 691.813   3
  -2   3 -10 4041.94 574.602   4
  -2   3 -11 1447.03 541.210   4
  -2   3 -11 391.197 633.289   3
  -2   3 -12 1120.13 678.422   3
   2  -2 -13 5651.56 794.237   4
   2  -2 -13 5039.38 777.689   3
   2  -2 -12 480.181 582.277   3
   2  -2 -11 2112.18 615.803   3
   2  -2 -10 2213.27 575.359   3
  -2   2   9 8523.92 490.130  11
   2  -2  -9 8942.78 655.558   3
   2  -2  -8 15028.3 711.898   3
  -2   2   8 14567.7 581.584  11
  -2   2   7 10972.4 490.963  11
  -2   2   6 12560.2 478.560  11
  -2   2   6 11301.0 335.738   6
   2  -2  -6 12006.1 531.994   5
   2  -2  -5 4753.69 355.132   5
  -2   2   5 5219.55 241.540   6
  -2   2   5 5222.24 322.709  11
   2  -2  -5 5397.30 359.300   0
  -2   2   4 647.424 137.351   6
  -2   2   4 727.613 187.483  11
   2  -2  -4 600.546 204.441   5
  -2   2   3 4711.06 231.646   6
   2  -2  -3 4520.71 248.025   5
  -2   2   3 4848.96 275.859  11
   2  -2  -2 1290.42 220.813   1
   2  -2  -2 1424.97 157.776   5
  -2   2   2 1491.03 184.299   8
  -2   2   2 1328.44 190.209  11
   2  -2  -1 9903.15 252.371   5
  -2   2   1 9816.48 309.131  11
   2  -2  -1 9664.56 452.535   1
  -2   2   1 10484.8 327.348   8
  -2   2   0 43146.8 608.864   8
   2  -2   0 40140.7 898.878   1
  -2   2   0 41226.8 545.291  11
   2  -2   0 41532.0 476.527   5
  -2   2   0 41664.9 600.526   3
  -2   2  -1 1393.49 137.286  11
  -2   2  -1 1483.72 184.071   8
  -2   2  -1 1423.20 209.067   3
   2  -2   1 1627.05 258.013   1
  -2   2  -2 31408.4 495.759   4
  -2   2  -2 31764.0 566.592  10
   2  -2   2 31958.2 843.327   1
  -2   2  -2 32091.1 557.927   8
  -2   2  -2 31757.7 601.068   3
  -2   2  -3 78631.8 921.134  10
   2  -2   3 83738.2 1389.86   1
  -2   2  -3 82301.0 1028.11   3
  -2   2  -3 79953.2 893.303   8
  -2   2  -3 79326.5 872.790   4
  -2   2  -4 12236.2 421.980  10
   2  -2   4 12414.3 591.841   1
  -2   2  -4 11927.1 412.743   4
  -2   2  -4 11884.9 392.001   8
  -2   2  -4 11881.4 498.386   3
  -2   2  -5 7178.74 361.199  10
  -2   2  -5 6620.58 376.214   4
   2  -2   5 8240.28 539.766   1
  -2   2  -5 6943.17 336.950   8
  -2   2  -5 7945.63 487.026   3
  -2   2  -6 6771.33 528.596   3
  -2   2  -6 6119.05 343.185   8
  -2   2  -6 5615.33 413.462   4
  -2   2  -7 1604.18 473.156   3
  -2   2  -7 1355.62 359.003   4
  -2   2  -8 15855.8 823.468   3
  -2   2  -8 15095.7 708.149   4
  -2   2  -9 17673.4 929.391   3
  -2   2  -9 16133.4 813.538   4
  -2   2 -10 449.268 610.979   3
  -2   2 -10 82.5327 456.526   4
  -2   2 -11-91.7419 490.046   4
  -2   2 -11 17.8885 606.328   3
  -2   2 -12 2916.03 750.985   3
   2  -1 -13 3098.51 705.864   4
   2  -1 -13 2434.93 712.267   3
   2  -1 -12 2380.59 671.772   3
   2  -1 -12 3032.42 656.703   4
   2  -1 -11 0.00000 520.115   3
   2  -1 -10 2056.88 529.975   3
  -2   1   9 1055.38 291.485  11
   2  -1  -9 1231.00 463.798   3
   2  -1  -8 259.735 376.706   3
  -2   1   8 96.7933 239.636  11
  -2   1   8 229.206 277.444   7
  -2   1   7 10414.8 338.881   6
  -2   1   7 11317.5 502.910   7
   2  -1  -7 11594.6 542.228   3
  -2   1   6 13673.3 367.720   6
   2  -1  -6 14199.7 512.400   3
   2  -1  -6 14730.7 475.634   2
  -2   1   6 14859.8 518.139   7
  -2   1   5 511.863 149.696   6
   2  -1  -5 425.550 186.157   2
  -2   1   5 690.040 217.470   7
   2  -1  -4 36747.9 626.953   5
   2  -1  -4 38292.8 671.967   1
  -2   1   4 38112.0 548.652   6
  -2   1   4 38063.6 664.368   7
   2  -1  -3 80176.0 767.431   5
  -2   1   3 83657.3 775.302   6
  -2   1   3 82757.2 700.717   8
   2  -1  -3 80959.2 1034.11   1
  -2   1   3 84273.5 872.760   7
  -2   1   2 12238.8 316.860   7
   2  -1  -2 11729.8 248.685   5
  -2   1   2 11702.1 281.757   8
  -2   1   2 11938.3 308.422   6
  -2   1   1 25061.4 377.822   7
  -2   1   1 25499.4 419.041   6
  -2   1   1 26124.2 416.055   8
  -2   1   0 9588.79 270.708   6
  -2   1   0 9896.17 290.153   8
  -2   1   0 9410.01 265.962   3
  -2   1  -1 21342.1 415.968   3
  -2   1  -1 22202.7 426.372   8
  -2   1  -2 194597. 1327.63   3
  -2   1  -2 190804. 1029.31   4
  -2   1  -3 81190.8 794.741  10
  -2   1  -3 82857.6 989.550   3
  -2   1  -3 80065.8 812.101   4
   2  -1   4 78.6963 157.803   2
  -2   1  -4 88.5866 138.037  10
  -2   1  -4 62.4209 178.566   4
  -2   1  -4 0.72898 239.711   3
   2  -1   5 4883.94 427.689   1
  -2   1  -5 5323.26 423.369   3
  -2   1  -5 4797.51 333.853   4
  -2   1  -6 13360.7 530.603   4
  -2   1  -6 14803.5 664.124   3
  -2   1  -6 13248.3 454.533   8
  -2   1  -7 3715.25 520.064   3
  -2   1  -7 3559.68 412.297   4
  -2   1  -8 4850.13 492.142   4
  -2   1  -8 5014.75 625.238   3
  -2   1  -9 9426.03 770.668   3
  -2   1  -9 8882.24 665.808   4
  -2   1 -10 1780.62 624.835   3
  -2   1 -10 1303.03 505.568   4
  -2   1 -11-78.3413 618.445   3
  -2   1 -12 2393.41 720.134   3
   2   0 -14 567.043 606.940   4
   2   0 -14 245.859 628.778   3
   2   0 -13 3629.53 687.936   4
   2   0 -13 3056.10 678.250   3
   2   0 -12 1291.74 612.681   4
   2   0 -12 808.895 611.741   3
   2   0 -11 157.730 532.908   4
   2   0 -11 51.6819 491.419   3
  -2   0  10 7197.83 532.363   7
   2   0 -10 7464.71 626.439   3
   2   0  -9 5495.60 519.680   3
  -2   0   9 5554.55 465.624   7
   2   0  -8 2898.63 412.263   3
  -2   0   8 2254.72 335.478   7
   2   0  -7 6931.62 427.131   3
  -2   0   7 6830.98 411.374   7
   2   0  -6 2008.46 270.105   3
  -2   0   6 1987.11 264.169   7
   2   0  -5 34413.3 613.364   3
  -2   0   5 36289.3 690.339   7
  -2   0   4 198512. 1429.49   7
   2   0  -4 193400. 1624.92   2
   2   0  -3 42987.7 769.804   2
  -2   0   3 44719.8 619.346   7
   2   0  -2 1133.23 185.567   2
   2   0  -2 1277.16 133.903   9
  -2   0   2 1118.59 118.408   8
  -2   0   2 989.991 147.259   7
   2   0  -1 43317.3 429.610   9
   2   0  -1 44491.3 773.804   2
  -2   0   1 45070.3 470.462   7
  -2   0   0 31745.9 433.016   6
  -2   0   0 30332.4 365.152   3
   2   0   0 29971.7 643.917   2
  -2   0  -1 2691.54 151.580   6
  -2   0  -1 2726.37 185.967   3
   2   0   1 2553.46 235.873   2
   2   0   2 44620.9 796.589   2
  -2   0  -2 45290.2 642.182   3
  -2   0  -3 60516.0 846.585   3
  -2   0  -4 5466.85 197.324  10
  -2   0  -4 6533.71 390.170   3
  -2   0  -5 437.270 318.521   3
  -2   0  -6 17211.4 705.886   3
  -2   0  -7 14305.4 738.769   3
  -2   0  -7 12915.7 594.958   4
  -2   0  -8 2414.92 562.407   3
  -2   0  -8 2330.36 427.551   4
  -2   0  -9 3900.27 532.274   4
  -2   0  -9 4298.62 701.484   3
  -2   0 -10 2017.94 506.671   4
  -2   0 -10 1991.24 653.314   3
  -2   0 -11 835.955 634.081   3
  -2   0 -12 621.091 638.161   3
   2   1 -14-53.4318 622.904   4
   2   1 -14 308.142 611.529   3
   2   1 -13 436.699 523.566   3
   2   1 -13 679.996 619.455   4
   2   1 -12 818.639 599.401   4
   2   1 -12 738.456 525.810   3
   2   1 -11 9733.24 721.332   3
   2   1 -11 12089.8 834.450   4
  -2  -1  11 10639.1 631.532   7
  -2  -1  10 17313.6 724.173   7
   2   1 -10 16196.8 773.029   3
   2   1  -9 6259.59 514.002   3
  -2  -1   9 6337.00 479.273   7
   2   1  -9 6864.25 624.078   4
   2   1  -8 5327.31 436.371   3
  -2  -1   8 4710.10 401.186   7
   2   1  -8 5343.51 506.103   4
  -2  -1   7 11363.9 484.520   7
   2   1  -7 11146.8 470.266   3
   2   1  -7 11748.5 555.538   4
   2   1  -6 11015.4 408.815   3
   2   1  -6 9809.69 349.841   0
  -2  -1   6 11470.1 446.720   7
   2   1  -6 11557.4 481.773   4
  -2  -1   5 11852.2 443.342   2
   2   1  -5 12961.6 368.407   3
  -2  -1   5 13016.1 438.627   7
   2   1  -5 12873.4 445.809   4
   2   1  -4 56746.7 754.034   4
   2   1  -4 56216.3 603.957   3
  -2  -1   4 59400.1 945.720   2
  -2  -1   4 57706.9 793.289   7
   2   1  -3 109057. 892.711   4
  -2  -1   3 113452. 1314.83   2
  -2  -1   3 111364. 993.327   7
  -2  -1   2 888.090 194.544   2
   2   1  -2 793.012 125.138   4
   2   1  -2 789.431 160.763   9
  -2  -1   2 787.402 151.379   7
   2   1  -1 2319.13 182.437   9
  -2  -1   1 2156.58 161.864   7
  -2  -1   1 2311.07 240.818   2
   2   1   0 84781.2 770.074   9
  -2  -1   0 86322.9 1157.91   2
  -2  -1  -1 30922.3 707.620   2
  -2  -1  -1 32578.2 461.266   3
  -2  -1  -1 32501.2 442.159   5
  -2  -1  -2 10983.4 438.319   2
  -2  -1  -2 10080.1 219.276   6
  -2  -1  -2 11218.3 332.914   5
  -2  -1  -2 11157.6 353.445   3
  -2  -1  -3 36303.1 679.341   3
  -2  -1  -4 18510.9 581.773   3
  -2  -1  -5 1944.18 370.944   3
  -2  -1  -6 5345.37 516.141   3
  -2  -1  -7 5467.25 578.670   3
  -2  -1  -8 4300.70 632.163   3
  -2  -1  -9 2252.33 613.626   3
  -2  -1  -9 2043.67 493.258   4
  -2  -1 -10 1492.65 497.357   4
  -2  -1 -10 2291.17 669.682   3
  -2  -1 -11 442.166 626.424   3
   2   2 -14 1277.75 660.933   4
   2   2 -14 849.239 626.308   3
   2   2 -13 1334.29 643.803   4
   2   2 -13 1048.85 533.296   3
   2   2 -12 1556.59 575.558   3
   2   2 -12 2152.85 646.075   4
   2   2 -11 3814.01 649.794   4
   2   2 -11 3264.72 548.723   3
  -2  -2  11 3918.35 481.989   7
  -2  -2  10 9174.54 587.057   7
   2   2 -10 8507.82 620.571   3
   2   2 -10 9205.88 739.441   4
   2   2  -9 12104.1 739.276   4
   2   2  -9 10174.0 572.145   3
  -2  -2   9 11172.9 570.810   7
   2   2  -8 2718.41 447.729   4
   2   2  -8 2123.88 355.940   3
  -2  -2   8 2440.94 340.940   7
   2   2  -7 4107.23 333.795   3
  -2  -2   7 4513.46 368.201   7
   2   2  -7 4542.74 425.745   4
   2   2  -6 18987.1 627.281   0
  -2  -2   6 21241.4 660.373   2
  -2  -2   6 20565.9 593.222   7
   2   2  -6 18896.4 494.789   3
   2   2  -6 21691.4 642.553   4
   2   2  -5 3102.04 220.761   3
  -2  -2   5 3484.87 287.151   7
   2   2  -5 3717.71 309.026   4
  -2  -2   5 3377.85 315.016   2
  -2  -2   4 10102.2 386.145   7
   2   2  -4 10376.2 268.086   3
   2   2  -4 11063.6 387.195   4
   2   2  -3 86238.7 944.697   9
   2   2  -3 86214.1 887.931   4
  -2  -2   3 85896.9 960.470   7
   2   2  -2 33409.7 572.444   9
   2   2  -2 33415.4 507.205   4
  -2  -2   2 33257.3 567.051   7
  -2  -2   1 10308.0 270.665   5
   2   2  -1 9944.10 328.743   9
  -2  -2   0 17534.9 303.353   3
   2   2   0 18196.5 433.473   9
  -2  -2   0 18009.8 355.715   5
  -2  -2  -1 31880.8 520.428   5
   2   2   1 32374.5 590.593   9
  -2  -2  -1 31580.7 497.890   3
  -2  -2  -2 13516.0 407.200   3
  -2  -2  -2 14275.8 417.512   5
  -2  -2  -3 20137.1 540.188   5
  -2  -2  -3 18501.1 636.978   2
  -2  -2  -3 20674.3 564.963   3
  -2  -2  -4 13829.0 559.979   2
  -2  -2  -4 15658.6 547.964   5
  -2  -2  -4 15770.3 578.990   3
  -2  -2  -5 40.0951 342.118   3
  -2  -2  -6 524.439 406.910   3
  -2  -2  -7 7515.48 628.425   3
  -2  -2  -8 7034.57 707.610   3
  -2  -2  -9 1897.30 624.654   3
  -2  -2 -10 3957.62 722.810   3
  -2  -2 -11 701.501 659.141   3
   2   3 -14 651.725 643.845   4
   2   3 -13 1350.30 650.191   4
   2   3 -13 1152.35 548.747   3
   2   3 -12 1360.79 618.479   4
   2   3 -12 1529.59 505.498   3
   2   3 -11 46.2719 412.763   3
   2   3 -11 422.608 541.362   4
  -2  -3  11 241.602 329.776   7
   2   3 -10 4236.31 620.378   4
   2   3 -10 3228.68 472.540   3
  -2  -3  10 4184.39 457.609   7
  -2  -3   9 14162.5 643.415   7
   2   3  -9 13530.3 623.736   3
   2   3  -9 15286.2 801.451   4
   2   3  -8 5688.36 413.489   3
  -2  -3   8 6071.20 446.767   7
   2   3  -8 6496.35 554.613   4
  -2  -3   7 2258.15 344.700   2
   2   3  -7 1902.82 394.054   4
   2   3  -7 1801.53 286.179   3
  -2  -3   7 2002.29 318.728   7
   2   3  -6 15438.8 452.601   3
  -2  -3   6 16783.1 569.291   7
   2   3  -6 16147.4 599.257   4
   2   3  -6 15892.3 701.794   0
   2   3  -5 13629.8 666.795   0
   2   3  -5 13939.3 382.940   3
  -2  -3   5 16240.2 536.123   7
   2   3  -5 15457.6 537.545   4
   2   3  -4 9053.64 265.675   3
  -2  -3   4 9562.71 411.704   7
   2   3  -4 9781.50 409.003   4
   2   3  -3 54695.9 838.829   9
   2   3  -3 55363.8 809.711   4
  -2  -3   3 53429.6 839.545   7
   2   3  -2 46174.2 747.039   9
  -2  -3   2 45181.6 672.622   5
   2   3  -1 21256.6 510.362   9
  -2  -3   1 21348.9 460.349   5
  -2  -3   0 771.864 182.093   5
   2   3   0 818.927 216.361   9
  -2  -3  -1 49778.1 745.102   5
   2   3   1 49253.9 788.658   9
   2   3   2 17379.3 533.064   9
  -2  -3  -2 15708.0 471.748   3
  -2  -3  -2 16032.8 486.978   5
  -2  -3  -3 9839.23 456.249   5
  -2  -3  -3 10388.1 452.510   3
  -2  -3  -4 8109.91 475.721   3
  -2  -3  -4 8124.02 470.233   5
  -2  -3  -4 7575.92 530.902   2
  -2  -3  -5 889.055 385.400   3
  -2  -3  -5 749.875 370.513   5
  -2  -3  -6 6509.08 572.645   3
  -2  -3  -7 6922.18 661.541   3
  -2  -3  -8 1149.17 575.963   3
  -2  -3  -9 8233.67 802.867   3
  -2  -3 -10 9735.38 902.801   3
  -2  -3 -11 1478.89 712.259   3
   2   4 -14 1019.60 667.609   4
   2   4 -13 973.828 656.259   4
   2   4 -12 1981.67 667.824   4
   2   4 -11 699.885 576.952   4
   2   4 -11 798.841 437.719   3
  -2  -4  11 813.925 379.178   7
   2   4 -10 1248.12 405.520   3
   2   4 -10 1988.66 580.361   4
  -2  -4  10 1561.36 384.151   7
   2   4  -9 16245.0 677.009   3
  -2  -4   9 18668.7 742.116   7
   2   4  -8 5688.90 430.094   3
  -2  -4   8 6999.74 495.266   7
   2   4  -8 6677.72 595.327   4
  -2  -4   7 1166.67 330.251   7
   2   4  -7 1024.01 261.598   3
   2   4  -7 1245.94 398.670   4
   2   4  -6 5058.12 305.095   3
  -2  -4   6 5589.58 422.412   7
   2   4  -6 5932.52 470.470   4
   2   4  -5 34835.2 1141.14   0
   2   4  -5 34688.2 826.576   4
  -2  -4   5 35766.0 828.209   7
   2   4  -4 12172.8 497.219   4
   2   4  -4 11001.7 337.616   3
  -2  -4   4 12773.5 509.842   7
   2   4  -4 12613.0 736.821   0
  -2  -4   3 14225.7 488.937   5
   2   4  -3 13907.1 512.123   9
  -2  -4   2 5030.72 323.471   5
   2   4  -2 5473.90 361.249   9
   2   4  -1 102.760 229.618   9
  -2  -4   1 59.7541 201.736   5
   2   4   0 22813.0 590.449   9
  -2  -4   0 23465.8 574.719   5
  -2  -4  -1 15069.0 507.592   5
   2   4   1 15992.4 527.864   9
   2   4   2 9518.11 474.818   9
  -2  -4  -2 10141.7 477.004   5
  -2  -4  -3 37363.4 832.024   3
   2   4   3 37864.3 873.009   9
  -2  -4  -4 21197.1 726.384   3
   2   4   4 21950.4 736.806   9
  -2  -4  -4 21982.9 750.866   5
  -2  -4  -5 5649.06 535.017   3
   2   4   5 6244.18 515.493   9
  -2  -4  -5 6526.83 562.505   5
  -2  -4  -6 5842.66 608.503   5
  -2  -4  -6 5978.07 606.812   3
  -2  -4  -7 2721.58 599.212   3
  -2  -4  -8 3890.97 655.363   3
  -2  -4  -9 2503.29 694.510   3
   2   4  10-7.53475 490.028   9
  -2  -4 -10 171.364 633.563   3
   2   5 -13 272.098 618.704   4
   2   5 -12 2484.04 696.526   4
   2   5 -11 4434.16 698.358   4
  -2  -5  11 4542.41 517.433   7
   2   5 -10 2164.10 584.727   4
  -2  -5  10 2068.00 426.751   7
  -2  -5   9 2771.03 448.903   7
   2   5  -9 3739.21 596.219   4
  -2  -5   8 826.074 349.263   7
   2   5  -8 612.434 473.245   4
   2   5  -8 587.390 299.189   3
  -2  -5   7 1161.80 367.720   7
   2   5  -7 1327.95 444.580   4
   2   5  -7 898.019 275.065   3
   2   5  -6 6711.77 538.036   4
   2   5  -6 4720.52 637.593   0
   2   5  -6 5151.13 351.128   3
  -2  -5   6 6426.84 482.233   7
   2   5  -5 8938.45 544.563   4
   2   5  -5 8775.58 787.065   0
   2   5  -5 7683.57 360.553   3
  -2  -5   5 8857.27 516.258   7
  -2  -5   4 20196.1 656.239   5
   2   5  -4 18366.7 967.845   0
  -2  -5   3 31324.9 764.909   5
   2   5  -3 30637.0 778.766   9
   2   5  -3 29230.2 1158.46   0
  -2  -5   2 23627.6 666.561   5
   2   5  -2 23530.0 673.708   9
   2   5  -2 22344.6 1037.79   0
   2   5  -1 26253.4 695.570   9
   2   5  -1 27196.2 1130.54   0
  -2  -5   1 27950.2 709.559   5
  -2  -5   0 11944.4 515.138   5
   2   5   0 12203.1 527.048   9
  -2  -5  -1 13002.4 556.634   5
   2   5   1 12469.5 536.811   9
  -2  -5  -2 28389.6 794.982   5
   2   5   2 28657.4 778.471   9
   2   5   3 7123.10 516.080   9
  -2  -5  -3 6225.59 508.381   5
   2   5   4 1907.63 434.043   9
  -2  -5  -4 1427.60 409.348   3
  -2  -5  -4 1363.35 436.824   5
  -2  -5  -5 6686.11 624.744   5
   2   5   5 6400.40 558.173   9
  -2  -5  -5 7245.43 616.124   3
  -2  -5  -6 4186.56 602.103   5
   2   5   6 3524.33 537.381   9
  -2  -5  -6 3922.31 590.392   3
  -2  -5  -7 4063.69 664.087   3
   2   5   7 4336.75 585.098   9
   2   5   8 1025.69 530.738   9
  -2  -5  -8 947.517 630.124   3
   2   5   9 4451.39 660.941   9
  -2  -5  -9 3796.60 731.496   3
  -2  -5 -10 404.839 652.159   3
   2   5  10 265.992 560.419   9
   2   6 -13 317.412 658.544   4
   2   6 -12 1460.70 638.884   4
   2   6 -11 2511.08 670.019   4
  -2  -6  11 2694.28 485.945   7
   2   6 -10 4346.09 696.429   4
  -2  -6  10 3918.55 519.827   7
   2   6  -9 2959.94 622.797   4
  -2  -6   9 3343.32 481.009   7
   2   6  -8 7059.12 668.578   4
  -2  -6   8 7271.18 576.152   7
   2   6  -7 9284.10 688.002   4
  -2  -6   7 9658.12 608.683   7
  -2  -6   6 2506.37 447.598   7
   2   6  -6 2803.38 509.123   4
  -2  -6   5 18034.0 736.190   5
  -2  -6   4 35945.5 938.818   5
  -2  -6   3 5580.96 482.916   5
   2   6  -3 5501.45 480.440   9
  -2  -6   2 7660.30 511.354   5
   2   6  -2 7530.21 510.844   9
  -2  -6   1 15206.5 637.263   5
   2   6  -1 15782.2 642.165   9
  -2  -6   0 12247.2 592.624   5
   2   6   0 12302.3 593.106   9
  -2  -6  -1 23971.7 783.182   5
   2   6   1 24968.3 764.803   9
   2   6   2 99.4598 378.666   9
  -2  -6  -2 91.5894 370.083   5
  -2  -6  -3 14762.9 728.526   5
   2   6   3 16150.3 705.979   9
  -2  -6  -4 2247.80 480.117   3
  -2  -6  -4 1562.45 499.088   5
   2   6   4 2035.99 479.938   9
  -2  -6  -5 13291.9 774.753   3
  -2  -6  -5 14431.7 832.534   5
   2   6   5 13985.7 744.059   9
  -2  -6  -6 1529.12 544.665   3
  -2  -6  -6 957.701 559.923   5
   2   6   6 1858.03 508.166   9
  -2  -6  -7 1752.14 601.238   3
  -2  -6  -7 2238.89 632.076   5
   2   6   7 2053.38 547.376   9
  -2  -6  -8 1030.53 597.202   3
   2   6   8 659.848 506.187   9
   2   6   9 77.3601 544.939   9
  -2  -6  -9 208.084 637.399   3
   2   7 -12 290.554 653.262   4
   2   7 -11 9051.73 878.134   4
  -2  -7  11 5618.71 612.681   7
   2   7 -10 5384.72 753.765   4
  -2  -7  10 6283.36 614.792   7
  -2  -7   9 1656.15 466.928   7
   2   7  -9 953.362 593.641   4
   2   7  -8 5315.41 672.983   4
  -2  -7   8 6352.23 595.417   7
  -2  -7   7 6170.33 643.165   5
  -2  -7   7 6304.43 604.364   7
  -2  -7   6 14813.7 764.923   5
  -2  -7   6 13018.9 718.287   7
  -2  -7   5 22237.7 874.107   5
  -2  -7   4 2490.23 491.144   5
   2   7  -3 6697.81 557.279   9
  -2  -7   3 7134.11 577.320   5
  -2  -7   2 13729.7 693.605   5
   2   7  -2 14040.3 672.584   9
  -2  -7   1 14755.9 712.793   5
   2   7  -1 14573.3 685.543   9
  -2  -7   0 5179.08 523.268   5
   2   7   0 4952.09 515.643   9
   2   7   1 6138.90 528.321   9
  -2  -7  -1 5420.22 559.515   5
   2   7   2-120.350 400.057   9
  -2  -7  -2 47.0821 443.737   5
   2   7   3 161.345 427.144   9
  -2  -7  -3-4.59820 487.834   5
  -2  -7  -4 2005.51 524.587   3
   2   7   4 2677.07 492.129   9
  -2  -7  -4 2428.46 548.910   5
   2   7   5 3722.63 580.831   9
  -2  -7  -5 3828.87 621.909   5
  -2  -7  -5 2913.78 583.368   3
  -2  -7  -6 6623.26 749.845   5
   2   7   6 7171.80 693.396   9
  -2  -7  -6 6336.77 721.444   3
  -2  -7  -7 3677.50 722.619   3
   2   7   7 4794.23 651.565   9
  -2  -7  -7 4228.25 723.498   5
  -2  -7  -8 1159.73 650.725   3
   2   7   8 750.406 544.587   9
   2   8 -12 5943.22 870.253   4
   2   8 -11 3388.21 745.910   4
  -2  -8  11 2959.87 578.212   7
  -2  -8  10 1862.81 494.771   7
   2   8 -10 1373.71 632.015   4
  -2  -8   9 195.693 435.282   7
  -2  -8   9 131.465 580.987   5
  -2  -8   8 6025.61 720.379   5
  -2  -8   8 6161.19 624.442   7
  -2  -8   7 4304.10 593.808   7
  -2  -8   7 4459.14 633.485   5
  -2  -8   6 5694.90 649.397   5
  -2  -8   6 5539.94 606.543   7
  -2  -8   5 1386.81 520.027   5
  -2  -8   4 923.115 480.017   5
  -2  -8   3-87.8456 466.348   5
   2   8  -3 186.220 412.614   9
   2   8  -2 2386.43 495.775   9
  -2  -8   2 2345.98 534.709   5
   2   8  -1 8359.58 619.999   9
  -2  -8   1 8775.43 668.103   5
   2   8   0 14243.6 738.528   9
  -2  -8   0 14403.4 762.011   5
  -2  -8  -1 5971.62 651.337   5
   2   8   1 5865.14 599.572   9
  -2  -8  -2 6310.77 666.711   5
   2   8   2 7220.00 625.465   9
   2   8   3 3943.40 552.052   9
  -2  -8  -3 4045.80 633.760   5
  -2  -8  -4 134.765 465.939   3
   2   8   4 615.756 444.385   9
  -2  -8  -4 11.2357 514.110   5
   2   8   5 3756.69 607.024   9
  -2  -8  -5 4004.77 696.779   5
  -2  -8  -5 3923.74 659.487   3
  -2  -8  -6 4677.96 727.575   3
   2   8   6 5212.38 651.370   9
  -2  -8  -6 4923.42 777.730   5
  -2  -8  -7 53.6117 631.713   5
  -2  -8  -7 307.856 654.867   3
   2   8   7 171.484 543.396   9
  -2  -9  11 488.338 634.030   5
  -2  -9  11 252.963 523.826   7
  -2  -9  10 507.958 499.005   7
  -2  -9  10-49.1402 607.067   5
  -2  -9   9 116.960 474.989   7
  -2  -9   9-359.041 573.862   5
  -2  -9   8 422.456 479.552   7
  -2  -9   8 680.205 596.041   5
  -2  -9   7 6047.45 714.552   5
  -2  -9   7 5294.04 670.046   7
  -2  -9   6 5377.34 695.174   5
  -2  -9   6 5034.95 656.640   7
  -2  -9   5 4069.57 646.518   5
  -2  -9   4 10186.9 777.716   5
   2   9  -3 1198.13 513.636   9
  -2  -9   3 1088.83 561.366   5
   2   9  -2-126.159 462.200   9
  -2  -9   2-140.460 546.223   5
  -2  -9   1 15349.8 863.747   5
   2   9  -1 14308.7 782.459   9
  -2  -9   0 8706.88 736.910   5
   2   9   0 8589.47 673.793   9
   2   9   1 297.486 480.321   9
  -2  -9  -1 666.555 548.568   5
  -2  -9  -2 4978.67 658.851   5
   2   9   2 4723.56 613.455   9
   2   9   3 4693.78 637.213   9
  -2  -9  -3 4517.04 675.016   5
   2   9   4 1231.67 546.359   9
  -2  -9  -4 1335.49 577.514   5
   2   9   5 614.169 524.452   9
  -2  -9  -5 903.472 603.989   5
  -2  -9  -6 310.668 614.130   5
  -2 -10  10 1839.41 566.895   7
  -2 -10  10 2372.85 726.303   5
  -2 -10   9-79.7766 512.512   7
  -2 -10   9 540.227 626.674   5
  -2 -10   8 919.188 532.653   7
  -2 -10   8 604.027 607.120   5
  -2 -10   7 11665.0 925.412   5
  -2 -10   7 9334.39 802.317   7
  -2 -10   6 2512.05 595.107   7
  -2 -10   6 3678.31 696.739   5
  -2 -10   5 1818.86 607.871   5
  -2 -10   4 9381.43 811.788   5
  -2 -10   3 4689.43 722.863   5
   2  10  -2 1598.39 538.837   9
  -2 -10   2 1053.98 624.419   5
  -2 -10   1 1555.74 601.365   5
   2  10  -1 859.532 468.932   9
   2  10   0 309.992 479.226   9
  -2 -10   0-43.7209 560.940   5
   2  10   1 746.150 458.220   9
  -2 -10  -1 588.408 577.908   5
   2  10   2 1851.19 552.840   9
  -2 -10  -2 2429.24 629.482   5
  -2 -10  -3 2825.57 660.504   5
  -2 -10  -4 1708.93 660.979   5
  -2 -10  -5 433.452 657.665   5
  -2 -11   9 927.395 571.754   7
  -2 -11   9 877.682 651.477   5
  -2 -11   8 583.146 566.438   7
  -2 -11   8 914.042 671.933   5
  -2 -11   7 274.054 500.414   7
  -2 -11   7 708.768 629.557   5
  -2 -11   6 43.5805 544.803   7
  -2 -11   6 180.704 604.535   5
  -2 -11   5 883.357 587.475   5
  -2 -11   4 1877.69 685.815   5
  -2 -11   3 4083.04 744.114   5
   2  11  -2 1553.90 564.295   9
  -2 -11   2 1396.65 650.734   5
  -2 -11   1 287.305 576.776   5
   2  11  -1 24.3885 520.231   9
   2  11   0 286.755 521.899   9
  -2 -11   0-56.6137 588.349   5
  -2 -11  -1 419.804 574.530   5
  -2 -11  -2 1222.88 632.884   5
  -2 -11  -3 2503.06 662.747   5
  -2 -12   6 241.104 574.471   7
  -2 -12   6 82.2621 626.517   5
  -2 -12   5 479.996 657.959   5
  -2 -12   4 907.023 661.931   5
  -2 -12   3 2037.21 682.425   5
  -2 -12   2 963.534 631.121   5
  -2 -12   1 899.937 638.318   5
  -2 -12   0 434.747 651.373   5
   3 -12  -3 1908.05 640.251   5
   3 -12  -2 1866.06 577.758   5
   3 -12  -1 1802.64 643.665   5
   3 -12   0 2210.27 634.957   5
   3 -12   1 1029.89 583.733   5
   3 -12   2 639.921 607.287   5
   3 -12   3 1354.18 637.892   5
   3 -12   4 377.319 580.629   5
   3 -12   5 1641.35 655.343   5
   3 -11  -6 1360.42 653.499   5
   3 -11  -5 642.521 570.295   5
   3 -11  -4 1256.34 590.338   5
   3 -11  -3 687.717 554.327   5
   3 -11  -2 473.728 563.885   5
  -3  11   2 1151.50 596.185  10
  -3  11   1 2129.12 643.175  10
   3 -11  -1 2033.52 616.157   5
  -3  11   0 2115.53 701.380  10
   3 -11   0 2789.41 689.263   5
   3 -11   1 4268.50 733.201   5
  -3  11  -1 4454.18 773.890  10
  -3  11  -2 6958.62 885.452  10
   3 -11   2 6720.02 788.427   5
  -3  11  -3 1466.96 695.006  10
   3 -11   3 1433.15 610.122   5
   3 -11   4-278.848 512.653   5
   3 -11   5 894.101 607.945   5
   3 -11   6 2898.60 682.042   5
   3 -11   7 2995.60 690.978   5
   3 -10  -7 834.411 585.142   5
   3 -10  -6 1585.04 630.171   5
   3 -10  -5 5448.88 749.908   5
   3 -10  -4 4400.47 689.085   5
   3 -10  -3 576.299 567.911   5
  -3  10   2 548.846 495.182  10
   3 -10  -2 534.815 562.124   5
  -3  10   1 1960.46 588.736  10
   3 -10  -1 2770.70 590.863   5
  -3  10   0 8723.96 811.899  10
   3 -10   0 8452.03 759.941   5
  -3  10  -1 10834.9 908.388  10
   3 -10   1 9989.44 804.217   5
  -3  10  -2 2527.04 700.421  10
   3 -10   2 2578.62 641.953   5
  -3  10  -3 2760.62 710.754  10
   3 -10   3 1708.05 587.199   5
  -3  10  -4 970.871 689.640  10
   3 -10   4 1450.78 572.948   5
  -3  10  -5 161.980 669.622  10
   3 -10   5 306.041 496.157   5
   3 -10   6 615.723 550.875   5
   3 -10   7 1028.87 580.154   5
   3 -10   8 682.951 575.731   5
   3  -9  -8 557.856 596.461   5
   3  -9  -7 735.109 580.874   5
   3  -9  -6 8446.59 816.603   5
   3  -9  -5 8202.66 754.577   5
   3  -9  -4 2282.31 574.499   5
  -3   9   3 3142.05 514.907  10
   3  -9  -3 3000.65 576.179   5
   3  -9  -2 492.330 471.376   5
  -3   9   2 557.557 479.909  10
  -3   9   1 12.2701 483.148  10
   3  -9  -1 245.254 468.367   5
  -3   9   0 5650.49 687.549  10
   3  -9   0 6034.39 632.891   5
  -3   9  -1 1038.35 543.304  10
   3  -9   1 337.576 465.316   5
  -3   9  -2 120.290 566.650  10
   3  -9   2 166.221 464.164   5
  -3   9  -3 11849.4 897.720  10
   3  -9   3 11422.8 767.878   5
   3  -9   4 2544.36 578.533   5
  -3   9  -4 2265.24 676.153  10
  -3   9  -5 297.972 592.929  10
   3  -9   5 62.9941 492.950   5
  -3   9  -6 1758.10 622.566   3
   3  -9   6 1728.32 572.808   5
   3  -9   7 2316.67 608.181   5
  -3   9  -7 1742.73 662.215   3
  -3   9  -8 842.132 658.404   3
   3  -9   8 206.453 565.134   5
  -3   9  -9 1034.82 659.851   3
   3  -9   9 1415.69 594.723   5
   3  -8 -10 1209.16 685.113   3
   3  -8  -9 957.831 595.988   5
   3  -8  -8-209.409 585.313   5
  -3   8   8-168.115 502.106  11
  -3   8   7 1777.10 549.554  11
   3  -8  -7 1832.59 594.848   5
  -3   8   6 5124.35 636.978  11
   3  -8  -6 4972.68 668.252   5
  -3   8   5 320.952 480.287  11
   3  -8  -5-20.8325 483.310   5
  -3   8   4 1480.65 432.473  10
  -3   8   4 1926.65 523.174  11
   3  -8  -4 1443.67 504.076   5
   3  -8  -3 12033.0 739.016   5
  -3   8   3 11405.9 702.916  10
  -3   8   3 12599.3 785.016  11
  -3   8   2 164.755 449.079  10
   3  -8  -2 497.203 411.019   5
  -3   8   1 28.2933 451.934  10
   3  -8  -1 272.363 419.340   5
  -3   8   0 3729.09 588.661  10
   3  -8   0 3284.08 510.466   5
  -3   8  -1 3733.31 607.331  10
   3  -8   1 3054.81 494.855   5
   3  -8   2 2392.05 473.292   5
  -3   8  -2 2518.94 591.873  10
  -3   8  -3 3711.00 657.454  10
   3  -8   3 3438.65 546.988   5
   3  -8   4 14416.4 792.888   5
  -3   8  -4 14467.3 926.846  10
  -3   8  -5 30812.5 1197.37  10
   3  -8   5 26620.6 1028.22   5
  -3   8  -5 28840.6 1126.20   3
  -3   8  -6 5511.32 726.083  10
   3  -8   6 5893.05 639.853   5
  -3   8  -6 5582.57 744.655   3
  -3   8  -7-41.3700 601.507   3
   3  -8   7 137.680 493.951   5
  -3   8  -8 925.107 652.973   3
   3  -8   8 1254.73 539.456   5
  -3   8  -9 1485.51 698.285   3
  -3   8 -10 4275.23 794.376   3
   3  -7 -10 2633.35 742.177   3
  -3   7   9 2025.60 531.176  11
   3  -7  -9 2113.53 646.572   5
  -3   7   8 205.106 450.500  11
   3  -7  -8-206.091 550.616   5
  -3   7   7 156.198 452.318  11
   3  -7  -7-29.4489 538.968   5
  -3   7   6 1013.90 463.415  11
   3  -7  -6 649.882 518.562   5
  -3   7   5 1808.29 503.019  11
   3  -7  -5 1334.99 505.756   5
  -3   7   4 2467.54 488.936  11
  -3   7   4 1925.31 398.246  10
   3  -7  -4 2099.26 468.992   5
  -3   7   3 3282.39 511.238  11
  -3   7   3 2351.78 418.669  10
   3  -7  -3 2372.20 451.062   5
   3  -7  -2 31593.7 906.740   5
  -3   7   2 30529.6 957.176  10
  -3   7   2 32025.5 1004.67  11
   3  -7  -1 43264.8 1027.93   5
  -3   7   1 42937.7 1132.62  10
  -3   7   1 42746.2 1106.89  11
  -3   7   0 3030.12 495.981  10
   3  -7   0 2793.47 429.107   5
   3  -7   1 2714.13 415.835   5
  -3   7  -1 2880.15 519.706  10
  -3   7  -2 3465.35 556.805  10
   3  -7   2 3059.69 449.250   5
  -3   7  -3 6467.82 656.586  10
   3  -7   3 4966.92 519.957   5
  -3   7  -3 6098.63 633.662   3
   3  -7   4 46460.3 1155.37   5
  -3   7  -4 48798.7 1290.28   3
   3  -7   5 23913.8 914.160   5
  -3   7  -5 25339.9 1038.13   3
  -3   7  -6-202.732 544.548   3
  -3   7  -6 602.785 488.279  10
  -3   7  -7 149.119 593.043   3
  -3   7  -8 1014.60 625.581   3
  -3   7  -9 332.384 608.281   3
  -3   7 -10 2615.94 734.658   3
   3  -6 -11 700.364 631.700   3
   3  -6 -10 68.1919 585.332   3
   3  -6  -9 1316.23 580.318   5
  -3   6   9 1252.21 443.989  11
   3  -6  -8 15749.2 905.508   5
  -3   6   8 16286.6 829.172  11
  -3   6   7 8507.62 643.891  11
   3  -6  -7 8658.14 704.656   5
  -3   6   6 1622.69 443.707  11
   3  -6  -6 1285.84 455.777   5
  -3   6   5 4757.20 516.234  11
   3  -6  -5 3671.49 500.022   5
  -3   6   5 4125.89 396.541  10
   3  -6  -4 443.355 361.948   5
  -3   6   4 436.809 297.258  10
  -3   6   4 262.067 381.871  11
   3  -6  -3 19117.8 704.379   5
  -3   6   3 19022.2 765.831  11
  -3   6   3 18007.6 686.000  10
  -3   6   2 127107. 1657.18  10
   3  -6  -2 125772. 1538.65   5
  -3   6   2 130290. 1727.26  11
  -3   6   1 27490.7 842.587  10
   3  -6  -1 27919.7 766.474   5
  -3   6   1 26571.9 814.625  11
  -3   6   0 94.8243 344.077  10
   3  -6   0-25.1472 288.069   5
  -3   6   0 136.244 296.308  11
   3  -6   1 5955.41 432.136   5
  -3   6  -1 5948.91 519.177  10
   3  -6   2 3341.39 388.638   5
  -3   6  -2 3420.63 499.183  10
  -3   6  -2 3165.40 498.902   3
  -3   6  -3 3774.24 522.343  10
   3  -6   3 3713.79 419.729   5
  -3   6  -3 4212.21 564.595   3
  -3   6  -3 3982.63 452.473   8
   3  -6   4 9638.79 567.620   5
  -3   6  -4 10015.1 688.911  10
  -3   6  -4 10843.1 715.248   3
  -3   6  -4 9640.98 568.158   8
  -3   6  -5 979.502 528.079   3
  -3   6  -5 943.941 490.392  10
  -3   6  -5 1284.33 372.687   8
  -3   6  -6 1319.85 577.486   3
  -3   6  -6 2787.77 509.195  10
  -3   6  -6 1579.01 374.611   8
  -3   6  -7 3596.44 521.042   4
  -3   6  -7 3863.19 661.494   3
  -3   6  -8-98.3973 454.290   4
  -3   6  -8 311.759 548.206   3
  -3   6  -9 775.532 604.850   3
  -3   6 -10 2811.47 718.654   3
  -3   6 -11 1221.38 686.089   3
   3  -5 -12 432.187 685.932   3
   3  -5 -11 581.613 610.897   3
   3  -5 -10 252.687 593.820   3
  -3   5   9 17481.0 811.339  11
   3  -5  -8 45736.1 1285.82   5
  -3   5   8 47500.8 1206.74  11
   3  -5  -7 4298.61 541.808   5
  -3   5   7 4528.77 497.373  11
   3  -5  -6 270.758 390.153   5
  -3   5   6 838.106 382.078  11
   3  -5  -5 5243.79 707.849   0
  -3   5   5 6073.44 494.938  11
   3  -5  -5 5518.35 485.827   5
  -3   5   4 3333.67 512.039   1
   3  -5  -4 3077.24 618.073   0
   3  -5  -4 2747.57 375.661   5
  -3   5   4 3767.92 415.595  11
   3  -5  -3 14215.9 547.920   5
  -3   5   3 14082.8 597.305  11
  -3   5   3 14248.8 834.213   1
  -3   5   2 13421.7 563.728  11
  -3   5   2 13310.2 816.491   1
   3  -5  -2 14221.6 513.971   5
  -3   5   1 3705.01 510.875   1
   3  -5  -1 3218.64 325.973   5
  -3   5   1 3539.82 343.832  11
  -3   5   1 3882.53 388.634  10
  -3   5   0 11925.1 560.693  10
   3  -5   0 11469.2 461.857   5
  -3   5   0 12270.4 545.498   8
  -3   5   0 12343.6 508.512  11
  -3   5   0 10731.8 770.987   1
  -3   5  -1 2195.89 296.237  11
   3  -5   1 2592.47 300.122   5
  -3   5  -1 3078.00 387.617  10
  -3   5  -1 2617.28 359.634   8
   3  -5   2 230.996 229.055   5
  -3   5  -2 93.5444 330.444  10
  -3   5  -2 197.537 353.653   3
  -3   5  -2 320.648 296.867   8
  -3   5  -3 6271.58 508.862  10
  -3   5  -3 6030.45 441.127   8
  -3   5  -3 5786.82 510.952   3
  -3   5  -4 8840.28 583.106  10
  -3   5  -4 8661.36 612.890   3
  -3   5  -4 8188.02 492.674   8
  -3   5  -5 4390.01 424.910   4
  -3   5  -5 4381.04 509.977  10
  -3   5  -5 3966.28 408.306   8
  -3   5  -5 5274.94 580.385   3
  -3   5  -6 2123.91 368.824   8
  -3   5  -6 1833.29 427.768  10
  -3   5  -6 1987.57 398.532   4
  -3   5  -6 2152.91 555.227   3
  -3   5  -7 2944.69 478.730   4
  -3   5  -7 3482.98 642.963   3
  -3   5  -8 9413.05 676.563   4
  -3   5  -8 11212.6 842.723   3
  -3   5  -9 5056.90 767.334   3
  -3   5 -10 1255.16 688.558   3
  -3   5 -11 1100.58 653.624   3
   3  -4 -12 641.119 565.534   3
   3  -4 -11 1381.01 609.115   3
   3  -4 -10 2737.12 629.568   3
  -3   4   9 5544.82 519.774  11
  -3   4   8 4046.28 469.164  11
   3  -4  -8 3054.46 518.041   5
   3  -4  -7 7170.26 564.756   5
  -3   4   7 6296.16 514.566  11
   3  -4  -6 6707.55 514.413   5
  -3   4   6 7713.30 507.907  11
  -3   4   5 515.186 305.097  11
   3  -4  -5 395.891 489.914   0
   3  -4  -5 382.555 295.957   5
  -3   4   4 1080.12 299.271  11
   3  -4  -4 1304.34 280.188   5
   3  -4  -3 4272.35 315.922   5
  -3   4   3 4598.97 371.522  11
  -3   4   2 3616.22 330.834  11
   3  -4  -2 3900.30 281.019   5
  -3   4   2 4163.93 343.537   8
  -3   4   1 15576.9 510.660  11
   3  -4  -1 15421.9 449.721   5
  -3   4   1 15751.9 535.247   8
   3  -4   0 5678.99 301.680   5
  -3   4   0 5378.36 371.887   8
  -3   4   0 5197.71 324.788  11
  -3   4  -1 11210.9 409.209  11
   3  -4   1 11130.5 398.975   5
  -3   4  -1 11590.3 506.930  10
  -3   4  -1 11982.7 521.273   3
  -3   4  -1 10827.9 478.675   8
  -3   4  -2 54807.8 1011.29  10
  -3   4  -2 54487.1 962.243   8
  -3   4  -2 55598.6 1009.47   3
  -3   4  -3 20110.4 677.625  10
  -3   4  -3 20366.1 696.309   3
  -3   4  -3 18959.8 611.173   8
  -3   4  -4 4573.22 485.348   3
  -3   4  -4 4085.84 357.119   4
  -3   4  -4 3985.36 406.749  10
  -3   4  -4 3907.10 365.100   8
  -3   4  -5 7190.37 463.591   4
  -3   4  -5 8025.23 463.386   8
  -3   4  -5 8875.04 534.504  10
  -3   4  -5 8536.20 617.033   3
  -3   4  -6 1814.92 373.406  10
  -3   4  -6 1128.30 332.742   4
  -3   4  -6 1431.19 305.940   8
  -3   4  -6 2251.68 533.765   3
  -3   4  -7 5560.57 657.898   3
  -3   4  -7 4972.76 490.592   4
  -3   4  -8 18035.9 974.993   3
  -3   4  -8 16934.5 784.562   4
  -3   4  -9 2770.44 678.449   3
  -3   4 -10 120.951 611.447   3
  -3   4 -11 1917.07 678.028   3
   3  -3 -13 2373.83 667.292   3
   3  -3 -12 506.419 583.277   3
   3  -3 -11 71.9507 570.770   3
  -3   3  10 1084.41 387.935  11
   3  -3 -10 1668.21 568.863   3
  -3   3   9 97.9728 318.798  11
   3  -3  -9-90.6270 468.909   3
  -3   3   8 1473.95 356.166  11
  -3   3   7 9701.33 538.846  11
   3  -3  -7 9044.20 564.197   5
  -3   3   6 952.633 301.282  11
   3  -3  -6 949.927 318.801   5
   3  -3  -5 10732.2 468.972   5
  -3   3   5 10511.9 495.210  11
   3  -3  -4 51342.0 824.679   5
  -3   3   4 51905.9 936.284  11
  -3   3   3 12399.3 468.129  11
   3  -3  -3 13332.4 657.027   1
   3  -3  -3 12573.6 397.467   5
  -3   3   3 12581.0 449.769   8
   3  -3  -2 15079.5 693.797   1
  -3   3   2 13878.6 463.818   8
  -3   3   2 13324.5 457.724  11
   3  -3  -2 13327.3 368.584   5
  -3   3   1 16471.5 473.784  11
   3  -3  -1 17439.1 388.307   5
  -3   3   1 17276.1 506.371   8
   3  -3  -1 17989.2 756.352   1
   3  -3   0 4238.34 225.018   5
   3  -3   0 4711.18 444.232   1
  -3   3   0 4193.59 307.322   8
  -3   3   0 3843.20 250.757  11
  -3   3   0 3749.80 310.337   3
   3  -3   1 64776.6 1433.85   1
   3  -3   1 60528.6 748.677   5
  -3   3  -1 63482.9 924.849   8
  -3   3  -1 61182.4 926.214   3
  -3   3  -1 59919.4 750.298  11
  -3   3  -2 97053.3 1185.81  10
   3  -3   2 96566.0 1781.62   1
  -3   3  -2 92551.6 1145.78   8
  -3   3  -2 95473.9 1197.28   3
  -3   3  -3 3966.38 282.514   4
  -3   3  -3 4194.57 390.893   3
  -3   3  -3 4346.14 339.713   8
   3  -3   3 3475.22 438.491   1
  -3   3  -3 4230.33 340.535  10
   3  -3   4 834.741 421.875   1
  -3   3  -4 842.474 231.160   4
  -3   3  -4 1054.55 269.588  10
  -3   3  -4 843.135 257.995   8
  -3   3  -4 1165.66 359.006   3
   3  -3   5 12872.0 814.271   1
  -3   3  -5 14228.4 555.722  10
  -3   3  -5 13075.8 526.270   8
  -3   3  -5 13460.2 661.370   3
  -3   3  -5 12556.3 512.496   4
  -3   3  -6 6575.55 431.956   8
  -3   3  -6 7131.27 611.416   3
  -3   3  -6 6189.83 456.419   4
  -3   3  -7 2704.50 406.547   4
  -3   3  -7 3284.16 599.966   3
  -3   3  -8 8258.73 757.332   3
  -3   3  -9 3680.37 692.804   3
  -3   3 -10 374.279 612.553   3
  -3   3 -11 1379.57 682.944   3
   3  -2 -13 1852.27 634.551   3
   3  -2 -13 1844.31 676.115   4
   3  -2 -12-301.151 556.336   3
   3  -2 -11 2904.41 610.592   3
   3  -2 -10 5975.37 635.302   3
  -3   2  10 6715.57 531.917  11
  -3   2   9 1618.98 359.510  11
   3  -2  -9 1381.44 463.396   3
  -3   2   8 3865.31 414.639  11
   3  -2  -8 4147.94 481.281   3
  -3   2   7 2941.43 260.130   6
  -3   2   7 2647.06 341.488  11
  -3   2   6 6554.10 327.394   6
  -3   2   6 6826.11 413.878  11
  -3   2   6 7261.28 434.050   7
  -3   2   5 73846.6 936.121   6
  -3   2   5 78396.9 1109.26  11
   3  -2  -5 72582.2 1001.82   5
  -3   2   5 77664.0 1102.63   7
  -3   2   4 64281.2 863.441   6
   3  -2  -4 67144.7 1236.05   1
   3  -2  -4 64039.6 829.625   5
  -3   2   4 64298.1 834.416   8
  -3   2   4 62968.0 929.656   7
  -3   2   3 3325.88 250.396   6
   3  -2  -3 2994.41 200.345   5
   3  -2  -3 3701.73 359.908   1
  -3   2   3 3375.70 251.355   8
  -3   2   3 3688.32 265.162   7
  -3   2   2 8509.61 340.712   6
  -3   2   2 8821.64 351.610  11
   3  -2  -2 8517.26 249.729   5
  -3   2   2 8273.35 337.247   8
   3  -2  -2 8443.84 493.723   1
  -3   2   1 31779.0 601.061   8
   3  -2  -1 30218.0 393.948   5
  -3   2   1 30378.3 559.145  11
   3  -2  -1 32479.6 915.939   1
  -3   2   0 7925.59 342.623   8
   3  -2   0 7253.46 221.671   5
  -3   2   0 7464.70 278.395  11
  -3   2   0 7424.03 334.253   3
  -3   2  -1 14732.9 335.083  11
  -3   2  -1 15583.6 457.580   8
  -3   2  -1 15443.9 457.468   3
  -3   2  -2 47177.8 599.558   4
  -3   2  -2 45627.2 496.072  11
  -3   2  -2 48562.5 799.363   8
  -3   2  -2 49172.4 824.227   3
  -3   2  -3 17107.9 495.558  10
  -3   2  -3 16191.9 512.136   8
   3  -2   3 17220.9 756.968   1
  -3   2  -3 17634.5 575.525   3
  -3   2  -3 15429.1 411.319   4
  -3   2  -4 491.190 226.645  10
  -3   2  -4 727.295 239.603   8
  -3   2  -4 298.875 324.381   3
  -3   2  -4 405.374 197.871   4
   3  -2   4 459.527 364.829   1
  -3   2  -5 7929.88 546.600   3
  -3   2  -5 7486.65 416.699   8
   3  -2   5 8488.58 666.579   1
  -3   2  -5 7609.53 407.644   4
  -3   2  -6 18594.0 615.769   8
  -3   2  -6 20269.6 823.162   3
  -3   2  -6 18572.2 633.976   4
  -3   2  -7 4276.54 594.362   3
  -3   2  -7 4216.26 430.129   4
  -3   2  -8 2914.30 598.933   3
  -3   2  -9 3039.35 691.268   3
  -3   2 -10 493.627 634.288   3
  -3   2 -11 400.703 618.411   3
   3  -1 -14 1196.31 691.340   4
   3  -1 -14 363.927 636.212   3
   3  -1 -13 123.113 587.592   4
   3  -1 -13 264.037 530.119   3
   3  -1 -12 3599.63 608.632   3
   3  -1 -12 4124.87 675.223   4
   3  -1 -11 13352.9 790.351   3
  -3   1  10 6679.21 500.388  11
   3  -1 -10 6566.27 620.681   3
  -3   1  10 7190.77 563.465   7
   3  -1  -9 2527.56 464.415   3
  -3   1   9 2517.86 377.554  11
  -3   1   9 2218.61 410.774   7
  -3   1   8 6247.87 342.890   6
   3  -1  -8 7390.68 504.884   3
  -3   1   8 7108.44 498.343   7
   3  -1  -7 9878.42 490.400   3
  -3   1   7 9909.43 393.940   6
  -3   1   7 9973.77 517.116   7
  -3   1   6 7353.56 345.401   6
   3  -1  -6 7292.19 477.386   2
  -3   1   6 6672.10 416.811   7
   3  -1  -6 7175.63 397.528   1
   3  -1  -5 16478.9 581.853   1
   3  -1  -5 15459.3 613.494   2
  -3   1   5 16368.0 464.404   6
  -3   1   5 16516.7 527.356   7
  -3   1   4 61023.6 824.319   6
   3  -1  -4 61305.3 1140.91   2
  -3   1   4 61802.3 719.788   8
  -3   1   4 62022.0 891.778   7
  -3   1   3 17305.6 446.932   6
  -3   1   3 17001.4 446.278   7
  -3   1   3 15757.1 382.829   8
  -3   1   2 94.6608 149.503   6
  -3   1   2 113.521 143.151   8
  -3   1   2 135.839 140.135   7
  -3   1   1 58387.1 749.870   6
   3  -1  -1 53861.1 507.735   9
  -3   1   1 55139.8 615.739   7
  -3   1   1 57946.6 746.565   8
  -3   1   0 46924.9 668.577   6
  -3   1   0 46991.2 709.472   8
  -3   1   0 47923.1 626.816   3
  -3   1  -1 12343.3 383.312   3
   3  -1   2 26177.4 763.458   2
  -3   1  -2 26370.7 586.103   3
  -3   1  -2 24529.2 380.134   4
   3  -1   3 25953.1 762.648   2
  -3   1  -3 24213.8 620.730   3
  -3   1  -4 3421.50 253.085  10
  -3   1  -4 3477.52 366.759   3
   3  -1   4 3275.97 352.474   2
  -3   1  -4 3270.91 261.209   4
  -3   1  -5 3417.31 445.068   3
  -3   1  -5 3087.68 308.686   4
  -3   1  -6 5060.63 550.978   3
  -3   1  -6 4184.77 380.742   8
  -3   1  -6 4250.65 375.597   4
  -3   1  -7 5006.19 604.595   3
  -3   1  -7 4248.00 429.160   4
  -3   1  -8 3817.31 615.484   3
  -3   1  -9 1477.59 596.927   3
  -3   1 -10 489.268 598.359   3
  -3   1 -11 1.21182 657.064   3
   3   0 -14 1176.03 631.257   4
   3   0 -14 1175.27 620.700   3
   3   0 -13 1107.30 623.667   4
   3   0 -13 1076.83 533.380   3
   3   0 -12 2900.15 673.669   4
   3   0 -12 2183.53 578.562   3
   3   0 -11 4245.36 666.505   4
   3   0 -11 4054.05 572.971   3
  -3   0  11 4729.54 523.389   7
   3   0 -10 8282.83 605.887   3
  -3   0  10 9494.51 622.436   7
   3   0 -10 9964.70 735.738   4
   3   0  -9 2944.71 425.408   3
  -3   0   9 2802.83 430.556   7
   3   0  -8 1732.50 355.853   3
  -3   0   8 1827.17 359.683   7
   3   0  -7 13396.6 502.380   3
  -3   0   7 13770.1 574.777   7
   3   0  -6 9771.00 389.458   3
  -3   0   6 10184.5 465.800   7
  -3   0   5 3521.07 294.396   7
  -3   0   5 3444.14 176.336   8
  -3   0   4 44339.3 542.911   8
  -3   0   4 45187.7 747.857   7
   3   0  -4 44643.9 1000.79   2
   3   0  -3 45729.8 587.386   9
  -3   0   3 43718.0 568.056   8
   3   0  -3 47109.9 1007.12   2
  -3   0   3 47556.1 698.252   7
   3   0  -2 10463.0 295.409   9
   3   0  -2 11373.2 520.492   2
  -3   0   2 11371.1 331.038   7
   3   0  -1 6225.34 239.388   9
  -3   0   1 6459.89 277.675   6
   3   0  -1 6871.15 417.231   2
  -3   0   1 6302.62 229.657   7
  -3   0   1 6272.44 205.967   3
  -3   0   0 26465.1 492.584   6
   3   0   0 25336.8 459.814   9
  -3   0   0 25481.0 416.163   3
   3   0   0 26625.3 770.149   2
  -3   0   0 23562.2 337.991   7
  -3   0  -1 20217.3 422.113   6
  -3   0  -1 21615.9 450.296   3
   3   0   1 21321.2 698.982   2
  -3   0  -2 19095.7 489.825   3
   3   0   2 19422.7 672.319   2
  -3   0  -3 23297.5 607.977   3
  -3   0  -4 2069.14 347.372   3
  -3   0  -5 682.985 375.244   3
  -3   0  -5 955.016 237.469   4
  -3   0  -6 2677.08 330.752   4
  -3   0  -6 2943.29 489.180   3
  -3   0  -7 11272.8 748.956   3
  -3   0  -8 2545.77 585.878   3
  -3   0  -9 4876.88 719.568   3
  -3   0 -10 2108.92 684.173   3
  -3   0 -11 787.929 621.837   3
   3   1 -14 1136.24 681.810   4
   3   1 -13 2076.92 677.785   4
   3   1 -13 1744.68 530.420   3
   3   1 -12 94.4485 578.342   4
   3   1 -12 669.850 459.801   3
  -3  -1  12 549.268 404.752   7
   3   1 -11 1081.52 555.431   4
   3   1 -11 895.925 438.606   3
  -3  -1  11 710.588 405.973   7
   3   1 -10 8146.87 569.927   3
  -3  -1  10 9428.52 621.552   7
   3   1 -10 9567.39 719.294   4
   3   1  -9 8500.18 527.220   3
  -3  -1   9 10066.7 594.252   7
   3   1  -9 9975.39 654.669   4
   3   1  -8 2085.34 405.286   4
   3   1  -8 1774.40 303.979   3
  -3  -1   8 1914.84 348.824   7
   3   1  -7 6641.89 367.717   3
  -3  -1   7 7627.69 450.842   7
   3   1  -7 7210.85 472.045   4
   3   1  -6 18147.9 457.586   3
  -3  -1   6 19801.0 610.496   7
   3   1  -6 18279.9 577.113   4
   3   1  -5 10260.3 311.029   3
  -3  -1   5 9323.65 228.898   8
  -3  -1   5 10399.4 431.723   7
   3   1  -5 10272.0 403.454   4
  -3  -1   4 25683.4 767.737   2
   3   1  -4 23765.5 350.771   3
  -3  -1   4 25978.9 593.171   7
   3   1  -4 24977.0 513.978   4
   3   1  -3 61986.9 774.405   9
  -3  -1   3 61993.8 825.292   7
  -3  -1   3 61057.4 1157.84   2
   3   1  -3 62397.8 683.722   4
  -3  -1   2 2483.15 303.434   2
   3   1  -2 2700.10 225.251   9
  -3  -1   2 2967.40 208.809   7
   3   1  -2 2766.42 158.636   4
   3   1  -1 24784.6 484.527   9
  -3  -1   1 23917.4 741.363   2
  -3  -1   1 23685.5 438.743   7
   3   1   0 38071.9 629.261   9
  -3  -1   0 37613.4 399.501   5
  -3  -1   0 38189.9 465.283   3
  -3  -1   0 37393.2 925.019   2
  -3  -1   0 36448.9 482.003   7
   3   1   1 35172.7 644.901   9
  -3  -1  -1 31763.3 514.494   6
  -3  -1  -1 34102.4 542.312   3
  -3  -1  -1 33503.8 879.482   2
  -3  -1  -1 33416.7 475.229   5
  -3  -1  -1 31167.4 397.728   7
  -3  -1  -2 10337.7 292.902   6
  -3  -1  -2 12178.3 405.949   3
  -3  -1  -3 17010.5 542.694   3
  -3  -1  -4 2310.39 355.373   3
  -3  -1  -5 3753.92 452.016   3
  -3  -1  -6 14234.3 712.429   3
  -3  -1  -7 1531.76 512.917   3
  -3  -1  -8 4406.37 657.977   3
  -3  -1  -9 17684.0 991.506   3
  -3  -1 -10 3946.63 758.142   3
  -3  -1 -11 312.771 665.874   3
   3   2 -14 584.761 638.815   4
   3   2 -13 1335.24 653.228   4
  -3  -2  12 1816.82 462.836   7
   3   2 -12 2198.16 622.652   4
   3   2 -11 740.052 532.876   4
   3   2 -11 357.466 377.085   3
  -3  -2  11 536.272 400.487   7
   3   2 -10 8439.36 553.347   3
  -3  -2  10 10059.1 635.066   7
   3   2 -10 10024.8 728.713   4
   3   2  -9 13006.5 574.021   3
  -3  -2   9 14249.9 657.391   7
   3   2  -9 14423.5 752.472   4
   3   2  -8 306.746 360.842   4
   3   2  -8 138.427 235.386   3
  -3  -2   8 200.665 297.778   7
   3   2  -7 57.1823 302.409   4
   3   2  -7 147.726 194.005   3
  -3  -2   7 99.6348 267.563   7
  -3  -2   7 154.627 340.789   2
  -3  -2   6 24645.6 827.259   2
  -3  -2   6 25213.8 698.164   7
   3   2  -6 25658.0 688.225   4
  -3  -2   5 23636.6 815.582   2
  -3  -2   5 25640.7 658.337   7
   3   2  -5 24783.7 613.830   4
   3   2  -4 14804.5 486.249   9
  -3  -2   4 14110.8 644.775   2
  -3  -2   4 13189.3 464.610   7
   3   2  -4 14315.6 435.526   4
   3   2  -3 13042.3 441.226   9
  -3  -2   3 12697.5 427.117   7
  -3  -2   3 12610.2 608.724   2
   3   2  -3 13130.7 372.594   4
  -3  -2   2 437.987 174.220   7
  -3  -2   2 106.579 233.558   2
  -3  -2   2 253.935 120.115   5
   3   2  -2 320.609 203.059   9
   3   2  -1 19945.0 496.248   9
  -3  -2   1 19347.0 352.745   5
  -3  -2   1 19372.4 454.894   7
  -3  -2   1 19728.9 742.954   2
   3   2   0 32080.3 637.358   9
  -3  -2   0 30369.2 469.696   5
  -3  -2   0 29391.1 423.603   3
  -3  -2   0 30560.4 927.795   2
  -3  -2  -1 6313.55 278.700   5
  -3  -2  -1 5562.58 270.064   3
   3   2   1 5998.51 361.279   9
  -3  -2  -1 6482.32 483.044   2
  -3  -2  -2 37589.1 663.385   5
  -3  -2  -2 35286.0 665.232   3
  -3  -2  -2 33183.4 957.621   2
  -3  -2  -2 31534.6 491.129   6
   3   2   2 37065.8 769.713   9
  -3  -2  -3 51568.3 872.573   5
  -3  -2  -3 52004.0 900.774   3
  -3  -2  -3 49785.8 1175.76   2
  -3  -2  -4 10164.3 528.874   3
  -3  -2  -5 6534.29 524.755   3
  -3  -2  -6 7137.93 606.541   3
  -3  -2  -7 5201.75 630.454   3
  -3  -2  -8 3017.81 633.613   3
  -3  -2  -9 221.573 582.464   3
  -3  -2 -10 120.423 675.214   3
   3   3 -14 179.064 623.661   4
   3   3 -13 404.299 641.589   4
  -3  -3  12 4747.72 561.611   7
   3   3 -12 5557.55 744.970   4
   3   3 -11 2600.03 628.483   4
  -3  -3  11 3284.05 487.197   7
   3   3 -10 2888.64 577.314   4
  -3  -3  10 2673.99 458.805   7
   3   3  -9 1328.88 477.868   4
  -3  -3   9 1426.72 382.797   7
   3   3  -8 1016.79 409.295   4
  -3  -3   8 785.865 336.360   7
  -3  -3   7 7124.75 481.081   7
  -3  -3   7 5885.37 565.104   2
   3   3  -7 6699.44 502.930   4
  -3  -3   6 7828.06 461.889   7
  -3  -3   6 7554.96 575.628   2
   3   3  -6 7600.29 456.556   4
  -3  -3   5 12814.4 523.412   7
   3   3  -5 12021.0 488.363   4
   3   3  -4 48026.7 887.016   9
  -3  -3   4 46013.4 881.985   7
   3   3  -4 45163.2 800.849   4
   3   3  -3 39903.6 699.178   4
  -3  -3   3 40986.4 663.936   5
   3   3  -3 41396.5 797.065   9
  -3  -3   3 39890.6 788.428   7
  -3  -3   2 24409.0 498.894   5
   3   3  -2 26480.2 636.988   9
  -3  -3   2 24242.6 599.040   7
  -3  -3   1 18607.4 438.521   5
   3   3  -1 18590.8 540.687   9
   3   3   0 20973.3 584.544   9
  -3  -3   0 19932.5 471.461   5
  -3  -3  -1 37532.4 678.124   5
  -3  -3  -1 36139.2 621.624   3
  -3  -3  -2 11313.0 457.694   5
  -3  -3  -2 11455.9 448.386   3
   3   3   2 11417.5 530.331   9
  -3  -3  -2 11633.3 690.611   2
  -3  -3  -3 208.626 436.266   2
  -3  -3  -3 693.173 300.993   3
   3   3   3 758.369 362.032   9
  -3  -3  -3 619.695 276.322   5
  -3  -3  -4 8960.46 513.032   5
  -3  -3  -4 7796.19 513.399   3
   3   3   4 8499.46 568.895   9
  -3  -3  -5 7552.59 566.318   3
  -3  -3  -6 4120.68 559.768   3
  -3  -3  -7 3765.95 626.321   3
  -3  -3  -8 1508.06 635.076   3
  -3  -3  -9 3071.75 698.140   3
  -3  -3 -10 4239.91 788.402   3
   3   4 -14 226.788 629.033   4
   3   4 -13 734.343 628.245   4
   3   4 -12 1550.18 621.586   4
  -3  -4  12 1407.25 422.703   7
  -3  -4  11 4982.68 559.872   7
   3   4 -11 5762.49 717.196   4
  -3  -4  10 5893.30 555.054   7
   3   4 -10 6313.69 680.129   4
  -3  -4   9 5890.47 533.912   7
   3   4  -9 6480.04 617.164   4
  -3  -4   8 11534.8 633.197   7
   3   4  -8 11586.9 674.525   4
  -3  -4   7 5766.83 491.539   7
   3   4  -7 5413.97 507.206   4
   3   4  -6 12764.4 863.606   0
   3   4  -6 13899.1 620.404   4
   3   4  -5 43418.0 921.706   4
  -3  -4   5 43356.2 970.036   7
   3   4  -4 7196.07 412.950   4
  -3  -4   4 8673.71 416.406   5
   3   4  -4 8530.38 497.408   9
  -3  -4   4 8235.59 465.845   7
  -3  -4   3 3438.52 309.901   5
   3   4  -3 3826.15 398.315   9
  -3  -4   3 3851.92 340.727   7
   3   4  -2 28997.0 739.621   9
  -3  -4   2 28299.0 626.674   5
  -3  -4   1 17848.2 521.418   5
   3   4  -1 17511.8 590.694   9
  -3  -4   0 28613.9 642.652   5
   3   4   0 30492.9 753.633   9
  -3  -4  -1 10518.0 453.021   5
  -3  -4  -1 9514.91 385.870   3
   3   4   1 10124.7 527.593   9
  -3  -4  -2 21711.2 650.083   5
   3   4   2 20943.0 718.032   9
  -3  -4  -3 1286.87 326.923   3
  -3  -4  -3 1553.69 644.528   2
   3   4   3 1518.82 419.989   9
  -3  -4  -3 1242.23 341.423   5
  -3  -4  -4 24980.5 814.829   5
   3   4   4 25142.0 872.001   9
  -3  -4  -4 23407.3 785.171   3
   3   4   5 6803.76 616.576   9
  -3  -4  -5 5444.44 555.779   3
  -3  -4  -5 5646.51 539.844   5
   3   4   6 2305.03 530.247   9
  -3  -4  -6 2587.49 533.003   3
  -3  -4  -7 3576.68 615.219   3
   3   4   7 4485.65 625.197   9
  -3  -4  -8 19.1922 539.166   3
   3   4   8 93.1352 498.249   9
   3   4   9 275.000 535.519   9
  -3  -4  -9-6.34902 626.510   3
  -3  -4 -10 1470.26 719.402   3
   3   5 -13 378.660 612.432   4
   3   5 -12 4623.14 753.225   4
  -3  -5  12 4499.38 593.857   7
  -3  -5  11 9306.30 684.131   7
   3   5 -11 11087.9 871.916   4
   3   5 -10 1485.13 573.031   4
  -3  -5  10 1373.25 459.901   7
  -3  -5   9 4521.71 537.280   7
   3   5  -9 4591.22 616.508   4
  -3  -5   8 8032.75 588.958   7
   3   5  -8 8269.51 653.812   4
  -3  -5   7 9751.54 623.642   7
   3   5  -7 8915.70 630.995   4
   3   5  -6 32054.1 928.964   4
  -3  -5   6 35658.1 981.983   7
  -3  -5   5 1263.83 369.325   7
  -3  -5   5 1140.90 339.787   5
   3   5  -5 1080.53 356.161   4
  -3  -5   4 24429.2 705.008   5
   3   5  -4 24018.9 781.421   9
  -3  -5   4 23319.8 768.358   7
  -3  -5   3 3248.11 362.334   5
   3   5  -3 3388.52 436.060   9
   3   5  -2 35706.6 905.920   9
  -3  -5   2 36933.2 812.983   5
  -3  -5   1 8858.05 473.164   5
   3   5  -1 10122.7 563.237   9
  -3  -5   0 8995.32 468.616   5
   3   5   0 9293.73 540.973   9
  -3  -5  -1 3093.40 376.243   5
   3   5   1 3149.94 446.134   9
  -3  -5  -1 3050.61 313.889   3
   3   5   2 146.222 380.141   9
  -3  -5  -2-70.5761 329.620   5
  -3  -5  -2 195.799 266.943   3
  -3  -5  -3 1343.52 355.164   3
   3   5   3 1524.08 440.096   9
  -3  -5  -3 1558.34 400.742   5
  -3  -5  -4 5184.32 532.252   5
  -3  -5  -4 4676.24 491.531   3
   3   5   4 4950.31 562.416   9
  -3  -5  -5 10736.6 710.012   5
   3   5   5 11244.9 740.082   9
  -3  -5  -5 9677.52 666.889   3
   3   5   6 10725.6 760.092   9
  -3  -5  -6 10111.0 745.397   5
  -3  -5  -6 9609.63 731.757   3
  -3  -5  -7 2492.03 604.478   3
   3   5   7 2670.03 581.267   9
  -3  -5  -8 1043.11 586.402   3
   3   5   8 1454.51 578.960   9
  -3  -5  -9 939.290 654.021   3
   3   5   9 1352.91 609.765   9
   3   6 -13 4379.29 778.325   4
  -3  -6  12 6835.25 681.536   7
   3   6 -12 7845.90 861.536   4
   3   6 -11 315.923 613.458   4
  -3  -6  11 202.017 424.964   7
   3   6 -10 2475.12 633.882   4
  -3  -6  10 2194.61 518.574   7
   3   6  -9 4130.43 630.323   4
  -3  -6   9 4171.69 530.794   7
   3   6  -8 6642.17 666.966   4
  -3  -6   8 6647.72 603.964   7
   3   6  -7 4534.82 545.872   4
  -3  -6   7 4896.21 537.990   7
  -3  -6   6 5839.64 536.711   5
  -3  -6   6 5623.59 563.920   7
  -3  -6   5 236.843 397.892   7
  -3  -6   5 79.2019 352.955   5
   3   6  -4-23.3379 428.238   9
  -3  -6   4 416.995 334.573   5
   3   6  -3 1290.05 434.602   9
  -3  -6   3 990.967 345.519   5
  -3  -6   2 9330.30 543.615   5
   3   6  -2 9982.11 610.838   9
   3   6  -1 27010.4 861.727   9
  -3  -6   1 27906.6 810.144   5
  -3  -6   0 15585.9 648.940   5
   3   6   0 15595.3 716.677   9
  -3  -6  -1 8052.61 543.260   5
   3   6   1 8030.73 594.869   9
  -3  -6  -2 9977.20 601.823   5
   3   6   2 9843.87 660.497   9
   3   6   3 1395.43 494.349   9
  -3  -6  -3 905.696 436.470   5
  -3  -6  -3 974.927 382.856   3
  -3  -6  -4 1831.38 456.320   3
   3   6   4 2153.69 554.850   9
  -3  -6  -4 2376.66 523.177   5
  -3  -6  -5 9405.32 731.026   5
   3   6   5 10896.6 759.693   9
  -3  -6  -5 8401.37 690.943   3
  -3  -6  -6 1219.85 545.720   3
   3   6   6 1214.85 526.706   9
  -3  -6  -6 1487.31 550.121   5
   3   6   7 169.439 525.457   9
  -3  -6  -7-19.3909 580.260   3
  -3  -6  -8 1961.60 644.825   3
   3   6   8 1943.41 573.368   9
   3   7 -12 453.723 598.065   4
  -3  -7  12 473.172 466.586   7
   3   7 -11-195.796 603.790   4
  -3  -7  11 2.67038 416.761   7
   3   7 -10 399.497 568.290   4
  -3  -7  10 467.261 446.115   7
  -3  -7   9-39.8370 429.443   7
   3   7  -9 294.614 540.679   4
   3   7  -8 5229.11 648.088   4
  -3  -7   8 5201.97 635.126   5
  -3  -7   8 5186.78 590.853   7
  -3  -7   7 10702.3 710.123   5
  -3  -7   7 10221.9 713.902   7
  -3  -7   6 4855.57 557.254   5
  -3  -7   6 4565.18 560.541   7
  -3  -7   5 13466.3 715.112   5
  -3  -7   5 12356.9 731.868   7
  -3  -7   4 9236.63 610.535   5
   3   7  -4 9019.64 663.839   9
  -3  -7   3 15.8334 387.800   5
   3   7  -3 222.409 449.476   9
   3   7  -2 12589.7 712.039   9
  -3  -7   2 13478.9 689.667   5
  -3  -7   1 22563.1 826.950   5
   3   7  -1 23373.6 897.495   9
   3   7   0 1323.67 494.500   9
  -3  -7   0 1208.08 409.812   5
  -3  -7  -1 3366.69 495.080   5
   3   7   1 2792.57 546.368   9
  -3  -7  -2 9429.39 662.999   5
   3   7   2 9272.25 673.826   9
   3   7   3 2968.32 567.776   9
  -3  -7  -3 2898.87 537.368   5
   3   7   4 2040.38 535.651   9
  -3  -7  -4 1819.57 549.250   5
   3   7   5 487.202 513.272   9
  -3  -7  -5 562.455 539.861   5
   3   7   6 269.383 513.812   9
  -3  -7  -6-126.220 507.079   5
   3   7   7 820.536 568.270   9
   3   8 -12 818.678 666.040   4
  -3  -8  12 886.434 512.520   7
   3   8 -11 5154.67 764.451   4
  -3  -8  11 3667.57 723.931   5
  -3  -8  11 4150.92 649.597   7
  -3  -8  10 534.361 539.416   5
  -3  -8  10 553.615 500.569   7
  -3  -8   9 70.8367 475.846   7
  -3  -8   9 440.341 537.017   5
  -3  -8   8 10697.9 795.834   5
  -3  -8   8 10792.4 797.260   7
  -3  -8   7 9994.40 757.846   5
  -3  -8   7 8705.70 722.522   7
  -3  -8   6 1515.27 509.118   7
  -3  -8   6 1068.91 511.118   5
  -3  -8   5 8871.89 687.654   5
  -3  -8   4 9624.06 691.370   5
   3   8  -4 10537.8 759.481   9
   3   8  -3 3946.00 597.829   9
  -3  -8   3 2995.01 537.394   5
  -3  -8   2 2571.31 511.120   5
   3   8  -2 2513.10 563.624   9
   3   8  -1 670.042 486.115   9
  -3  -8   1 166.233 419.427   5
   3   8   0 337.932 510.778   9
  -3  -8   0 204.030 448.038   5
   3   8   1 2638.66 573.184   9
  -3  -8  -1 2770.90 535.995   5
  -3  -8  -2 4534.01 607.737   5
   3   8   2 3659.54 599.087   9
   3   8   3 3711.25 632.668   9
  -3  -8  -3 3640.93 603.341   5
   3   8   4 2899.23 597.965   9
  -3  -8  -4 2116.68 599.994   5
   3   8   5 588.856 546.945   9
  -3  -8  -5 119.980 545.060   5
   3   8   6 586.014 558.998   9
  -3  -8  -6-1.95574 608.200   5
  -3  -9  11 3627.90 786.256   5
  -3  -9  11 3912.17 680.584   7
  -3  -9  10 2019.53 561.968   7
  -3  -9  10 2610.47 695.022   5
  -3  -9   9 1200.00 524.725   7
  -3  -9   9 1821.87 632.012   5
  -3  -9   8 1070.21 519.813   7
  -3  -9   8 651.304 562.877   5
  -3  -9   7 345.795 514.583   7
  -3  -9   7 167.083 511.382   5
  -3  -9   6 701.491 554.872   7
  -3  -9   6 810.253 528.220   5
  -3  -9   5 2499.44 570.443   5
   3   9  -4 4256.72 661.593   9
  -3  -9   4 4155.67 639.640   5
   3   9  -3 4757.77 640.769   9
  -3  -9   3 4067.90 646.867   5
  -3  -9   2 962.463 539.910   5
   3   9  -2 1397.68 539.423   9
   3   9  -1 370.159 487.435   9
  -3  -9   1 474.989 463.170   5
   3   9   0 501.553 512.681   9
  -3  -9   0 254.279 480.629   5
   3   9   1 2005.24 626.471   9
  -3  -9  -1 1642.75 541.955   5
   3   9   2 5038.58 683.088   9
  -3  -9  -2 4513.81 693.171   5
   3   9   3 1756.11 578.229   9
  -3  -9  -3 1553.46 578.779   5
   3   9   4 37.9898 553.904   9
  -3  -9  -4 525.263 560.111   5
   3   9   5 56.5390 590.787   9
  -3  -9  -5 660.028 640.202   5
  -3 -10  10 2958.32 670.297   7
  -3 -10  10 2360.08 698.406   5
  -3 -10   9 1193.49 509.013   7
  -3 -10   9 1798.58 659.399   5
  -3 -10   8-259.806 520.434   7
  -3 -10   8 104.510 567.930   5
  -3 -10   7 477.636 530.105   7
  -3 -10   7-54.7819 551.553   5
  -3 -10   6 737.820 561.530   7
  -3 -10   6 99.3148 539.543   5
  -3 -10   5 1468.45 606.078   5
  -3 -10   4 3545.60 676.105   5
   3  10  -3 1860.58 572.982   9
  -3 -10   3 2056.50 607.014   5
   3  10  -2 1498.58 585.682   9
  -3 -10   2 1003.84 534.734   5
   3  10  -1 2256.24 611.096   9
  -3 -10   1 2059.23 572.534   5
   3  10   0 1322.85 571.001   9
  -3 -10   0 726.675 555.821   5
   3  10   1 449.830 508.707   9
  -3 -10  -1 642.219 579.623   5
   3  10   2 333.678 574.874   9
  -3 -10  -2 75.9330 563.447   5
   3  10   3 721.273 577.486   9
  -3 -10  -3 539.206 617.879   5
   3  10   4 500.896 640.978   9
  -3 -10  -4 913.845 694.615   5
  -3 -11   8 626.593 554.233   7
  -3 -11   8 989.066 614.381   5
  -3 -11   7 1215.88 592.727   7
  -3 -11   7 943.340 601.395   5
  -3 -11   6 620.393 553.841   7
  -3 -11   6 255.068 577.312   5
  -3 -11   5 879.050 571.169   7
  -3 -11   5 533.333 582.387   5
  -3 -11   4 638.757 571.949   5
  -3 -11   3 820.239 569.291   5
   3  11  -2 1865.56 659.728   9
  -3 -11   2 1188.75 585.170   5
   3  11  -1 1708.38 628.967   9
  -3 -11   1 1626.84 651.321   5
   3  11   0 484.573 561.504   9
  -3 -11   0 349.548 600.988   5
   3  11   1 254.956 611.534   9
  -3 -11  -1 331.954 648.899   5
   3  11   2 660.999 662.088   9
  -3 -11  -2 679.195 688.815   5
  -3 -12   5-593.055 670.460   5
  -3 -12   4 1964.75 685.302   5
  -3 -12   3 3519.42 713.121   5
  -3 -12   2 212.678 667.720   5
   4 -12  -3 246.135 601.974   5
  -4  12   2 507.003 693.313  10
   4 -12  -2 485.055 580.257   5
  -4  12   1 2962.75 745.630  10
   4 -12  -1 1916.39 607.839   5
  -4  12   0 5125.60 857.501  10
   4 -12   0 5247.19 732.524   5
  -4  12  -1 1534.93 686.277  10
   4 -12   1 1269.64 611.348   5
   4 -12   2 591.151 594.691   5
  -4  12  -2 1384.44 724.202  10
  -4  12  -3 1267.70 745.929  10
   4 -12   3 1879.13 606.280   5
   4 -12   4-287.493 609.619   5
   4 -11  -6 3958.91 712.857   5
   4 -11  -5 778.540 568.896   5
   4 -11  -4 1368.30 585.385   5
   4 -11  -3 1094.83 593.749   5
  -4  11   2 144.670 570.384  10
   4 -11  -2-38.2499 484.973   5
  -4  11   1 787.068 624.049  10
   4 -11  -1 886.531 522.693   5
  -4  11   0 1747.23 680.274  10
   4 -11   0 1507.20 538.192   5
   4 -11   1 22.0212 510.253   5
  -4  11  -1 340.550 633.885  10
  -4  11  -2 2530.86 745.226  10
   4 -11   2 2548.87 622.130   5
  -4  11  -3 3834.80 803.539  10
   4 -11   3 3549.45 642.796   5
  -4  11  -4-601.262 712.468  10
   4 -11   4-62.9828 551.997   5
   4 -11   5 183.909 548.444   5
   4 -11   6 1134.21 596.942   5
   4 -10  -7 1622.70 605.696   5
   4 -10  -6 256.479 564.337   5
   4 -10  -5 96.7511 523.156   5
   4 -10  -4 4846.95 673.202   5
  -4  10   3 1831.66 549.416  10
   4 -10  -3 1175.24 568.300   5
  -4  10   2 534.297 531.495  10
   4 -10  -2 89.4424 460.206   5
  -4  10   1 1054.73 591.312  10
   4 -10  -1 1262.55 504.069   5
  -4  10   0 2011.88 659.281  10
   4 -10   0 2154.16 541.283   5
  -4  10  -1 1940.66 650.002  10
   4 -10   1 1365.82 520.375   5
  -4  10  -2 1969.81 665.075  10
   4 -10   2 1636.83 539.956   5
  -4  10  -3 4372.14 768.064  10
   4 -10   3 3990.14 631.969   5
  -4  10  -4 17563.7 1130.21  10
   4 -10   4 14536.5 878.637   5
  -4  10  -5 9396.98 957.943  10
   4 -10   5 8128.21 732.064   5
   4 -10   6 385.458 502.148   5
   4 -10   7-155.011 568.402   5
   4  -9  -9-306.727 612.057   5
  -4   9   8 297.045 534.938  11
   4  -9  -8 19.5464 563.760   5
  -4   9   7 507.003 544.328  11
   4  -9  -7 461.307 571.984   5
  -4   9   6 437.049 529.259  11
   4  -9  -6 605.764 545.931   5
  -4   9   5 1135.70 551.983  11
   4  -9  -5 801.480 510.776   5
  -4   9   4 888.849 554.268  11
  -4   9   4 730.637 461.638  10
   4  -9  -4 453.649 488.656   5
  -4   9   3 8231.66 769.187  11
  -4   9   3 7019.29 687.053  10
   4  -9  -3 7454.22 681.945   5
   4  -9  -2 27911.2 1014.37   5
  -4   9   2 26520.0 1102.33  10
   4  -9  -1 6043.56 601.640   5
  -4   9   1 6945.05 719.652  10
  -4   9   0 218.842 549.915  10
   4  -9   0 379.841 468.642   5
  -4   9  -1 1460.62 616.738  10
   4  -9   1 1727.73 505.314   5
  -4   9  -2 2430.73 662.461  10
   4  -9   2 1762.43 510.716   5
  -4   9  -3 14343.4 970.118  10
   4  -9   3 14599.2 801.694   5
   4  -9   4 21029.4 952.629   5
  -4   9  -4 22809.0 1148.56  10
  -4   9  -5 375.876 619.372  10
   4  -9   5 412.786 482.678   5
  -4   9  -6-224.809 637.220  10
   4  -9   6-378.562 483.695   5
  -4   9  -6 12.2794 623.227   3
  -4   9  -7 318.082 654.963   3
   4  -9   7 685.298 489.618   5
   4  -9   8 28.7527 565.687   5
  -4   9  -8 92.3719 624.315   3
  -4   8  10 232.261 590.353  11
  -4   8   9 5932.95 732.204  11
   4  -8  -9 5647.31 759.536   5
  -4   8   8 9884.86 802.310  11
   4  -8  -8 8217.78 798.925   5
  -4   8   7 1101.41 531.176  11
   4  -8  -7 1071.69 564.259   5
  -4   8   6 1628.25 557.989  11
   4  -8  -6 1274.89 507.414   5
  -4   8   5 1092.10 523.906  11
   4  -8  -5 283.999 494.261   5
  -4   8   4 2804.31 567.766  11
  -4   8   4 2623.63 515.247  10
   4  -8  -4 2446.10 515.212   5
   4  -8  -3 36832.5 1078.28   5
  -4   8   3 37938.2 1162.59  10
  -4   8   2 30382.9 1085.07  11
  -4   8   2 28996.5 1068.97  10
   4  -8  -2 27567.3 933.582   5
  -4   8   1 417.349 458.766  11
  -4   8   1 340.810 493.346  10
   4  -8  -1 261.029 398.746   5
  -4   8   0 1170.50 563.997  10
   4  -8   0 1140.80 409.478   5
  -4   8  -1 1992.18 590.114  10
   4  -8   1 2522.72 463.667   5
  -4   8  -2 730.709 535.430  10
   4  -8   2 838.054 401.978   5
   4  -8   3 5082.62 532.150   5
  -4   8  -3 5155.69 709.236  10
  -4   8  -4 1709.91 613.274  10
   4  -8   4 1148.11 424.467   5
  -4   8  -4 1414.62 591.036   3
  -4   8  -5 399.563 596.907   3
   4  -8   5 583.025 440.724   5
  -4   8  -5 499.882 599.125  10
  -4   8  -6 3348.54 660.380  10
  -4   8  -6 2413.43 697.050   3
   4  -8   6 2981.18 553.806   5
  -4   8  -7 368.500 587.543  10
  -4   8  -7 469.791 650.581   3
   4  -8   7 591.020 484.833   5
  -4   8  -8 569.985 653.698   3
   4  -8   8 234.201 509.085   5
   4  -8   9 2242.86 589.204   5
  -4   8  -9 2828.09 738.524   3
   4  -7 -11 657.921 644.616   3
  -4   7  10 3271.05 595.189  11
   4  -7  -9 22454.5 1094.75   5
  -4   7   9 23486.3 1077.40  11
  -4   7   8 8099.45 725.703  11
   4  -7  -8 6544.74 713.905   5
  -4   7   7 194.450 457.288  11
   4  -7  -7 175.397 472.099   5
  -4   7   6 2433.91 518.404  11
   4  -7  -6 1919.58 495.977   5
  -4   7   5 1880.57 417.897  10
  -4   7   5 1471.25 487.966  11
   4  -7  -5 1180.99 485.985   5
  -4   7   4 3281.11 472.523  10
   4  -7  -4 3428.53 477.068   5
  -4   7   4 3136.62 534.319  11
  -4   7   3 5992.67 575.657  11
  -4   7   3 5588.42 563.969  10
   4  -7  -3 5467.70 477.383   5
  -4   7   2 892.382 442.187  10
  -4   7   2 917.745 412.791  11
   4  -7  -2 795.824 334.678   5
  -4   7   1 4844.88 526.851  11
  -4   7   1 5516.82 577.246  10
   4  -7  -1 4637.24 460.773   5
  -4   7   0 5713.62 609.337  10
   4  -7   0 5359.37 465.749   5
  -4   7   0 5360.18 508.867  11
  -4   7  -1 55.7634 483.109  10
   4  -7   1-13.2155 338.154   5
  -4   7  -2 1424.25 550.648  10
   4  -7   2 1342.29 384.231   5
   4  -7   3 6161.09 516.774   5
  -4   7  -3 6204.91 656.759  10
  -4   7  -3 6950.47 710.731   3
  -4   7  -4 4173.23 665.582   3
   4  -7   4 2722.32 455.087   5
  -4   7  -4 3514.95 517.036   8
  -4   7  -4 3717.86 616.414  10
  -4   7  -5 1223.54 616.761   3
  -4   7  -5 1044.03 540.090  10
   4  -7   5 866.815 403.263   5
  -4   7  -5 1244.21 456.091   8
  -4   7  -6 1321.28 629.239   3
   4  -7   6 1648.91 438.267   5
  -4   7  -6 1530.75 557.164  10
  -4   7  -7 6684.99 808.787   3
  -4   7  -8 6045.44 843.417   3
  -4   7  -9 827.325 675.542   3
   4  -6 -11 903.169 616.767   3
  -4   6  10 2794.34 550.043  11
  -4   6   9 871.524 455.467  11
   4  -6  -9 1532.45 571.472   5
  -4   6   8 1642.30 486.407  11
   4  -6  -8 1505.54 516.348   5
   4  -6  -7 5099.98 572.115   5
  -4   6   7 5648.91 586.832  11
  -4   6   6 738.909 440.902  11
  -4   6   6 811.241 326.784  10
   4  -6  -6 705.775 438.172   5
  -4   6   5 19.3875 410.569  11
   4  -6  -5-28.6927 338.674   5
  -4   6   4 2703.98 465.771  11
   4  -6  -4 2596.44 397.773   5
   4  -6  -3 3000.51 377.323   5
  -4   6   3 2921.86 474.119  11
  -4   6   2 4873.84 472.272  11
  -4   6   2 4748.65 494.888  10
   4  -6  -2 4805.81 395.782   5
  -4   6   1 3936.18 492.270  10
   4  -6  -1 3852.08 386.270   5
  -4   6   1 4161.06 431.261  11
  -4   6   0 3899.33 420.010  11
   4  -6   0 4002.36 373.952   5
  -4   6   0 4270.71 529.447  10
  -4   6   0 4115.84 505.412   8
  -4   6  -1 25153.4 766.449  11
  -4   6  -1 26526.9 880.695   8
   4  -6   1 25885.4 731.845   5
  -4   6  -1 26008.3 916.216  10
   4  -6   2 18775.9 663.192   5
  -4   6  -2 18764.4 840.385  10
  -4   6  -2 19102.1 778.747   8
  -4   6  -2 19634.4 843.316   3
  -4   6  -3 2496.10 566.876   3
  -4   6  -3 2304.24 512.841  10
   4  -6   3 1804.15 357.956   5
  -4   6  -3 2213.04 435.267   8
   4  -6   4 4514.21 453.269   5
  -4   6  -4 5660.50 604.860  10
  -4   6  -4 5245.38 520.939   8
  -4   6  -4 5044.85 645.452   3
  -4   6  -5 2769.85 615.340   3
  -4   6  -5 2647.65 528.678  10
  -4   6  -5 2336.57 451.053   8
  -4   6  -6 1441.94 596.791   3
  -4   6  -6 1492.81 512.428  10
  -4   6  -6 1064.34 409.584   8
  -4   6  -7 10236.8 855.755   3
  -4   6  -8 6397.52 802.047   3
  -4   6  -9 207.885 664.051   3
  -4   6 -10 229.016 715.896   3
   4  -5 -12 482.196 607.569   3
   4  -5 -11 163.494 585.474   3
  -4   5  10 559.397 419.514  11
  -4   5   9 352.130 421.688  11
  -4   5   8 2965.17 502.604  11
   4  -5  -8 2853.99 522.773   5
  -4   5   7 1177.01 428.236  11
   4  -5  -7 1405.06 436.162   5
   4  -5  -6 2784.82 424.404   5
  -4   5   6 2758.53 468.981  11
   4  -5  -5 22823.4 739.042   5
  -4   5   5 24780.0 867.756  11
   4  -5  -4 11259.9 511.533   5
  -4   5   4 12069.0 633.622  11
  -4   5   3 3993.47 440.927  11
   4  -5  -3 4354.34 353.131   5
   4  -5  -2 11738.7 460.197   5
  -4   5   2 11444.0 558.030  11
  -4   5   2 11464.5 576.312   8
  -4   5   1 2839.57 355.537  11
   4  -5  -1 2574.23 286.018   5
  -4   5   1 3024.07 413.761   8
   4  -5   0 10835.2 439.804   5
  -4   5   0 12135.7 607.861   8
  -4   5   0 11026.1 497.428  11
  -4   5  -1 49309.9 923.589  11
   4  -5   1 51879.8 899.064   5
  -4   5  -1 50998.9 1104.38  10
  -4   5  -1 50621.4 1090.16   8
  -4   5  -1 50900.7 1103.28   3
   4  -5   2 12707.6 501.479   5
  -4   5  -2 12533.6 651.206  10
  -4   5  -2 11753.6 610.973   8
  -4   5  -2 12297.7 663.903   3
  -4   5  -3 212.393 442.135   3
  -4   5  -3 110.489 370.945  10
   4  -5   3 222.042 254.551   5
  -4   5  -3 42.1664 331.240   8
  -4   5  -4 6166.53 541.065  10
  -4   5  -4 6139.27 518.640   8
  -4   5  -4 5581.75 620.346   3
  -4   5  -5 10387.7 647.406  10
  -4   5  -5 9075.21 578.946   8
  -4   5  -5 8210.68 705.061   3
  -4   5  -6 3158.30 446.214   8
  -4   5  -6 3038.65 615.707   3
  -4   5  -7 3907.30 657.704   3
  -4   5  -8 4998.91 734.848   3
  -4   5  -9 1389.75 650.089   3
  -4   5 -10 264.879 625.147   3
   4  -4 -13-4.37653 653.618   3
   4  -4 -12 1269.75 633.536   3
   4  -4 -11 3682.43 633.311   3
   4  -4 -10 761.567 539.111   3
  -4   4  10 1966.15 451.972  11
  -4   4   9 1683.47 459.242  11
  -4   4   8 3740.66 506.979  11
  -4   4   7 2383.59 435.259  11
   4  -4  -7 1498.64 394.406   5
  -4   4   6 21898.8 803.902  11
   4  -4  -6 19676.6 692.517   5
  -4   4   5 42981.6 1020.31  11
   4  -4  -5 38532.6 847.870   5
  -4   4   4 6595.08 467.202  11
   4  -4  -4 6909.94 388.046   5
   4  -4  -3 1880.10 243.907   5
  -4   4   3 1709.87 326.092   8
  -4   4   3 1527.45 319.479  11
  -4   4   2 14292.4 557.142  11
   4  -4  -2 13687.5 847.749   1
   4  -4  -2 14068.3 425.944   5
  -4   4   2 14679.8 583.883   8
  -4   4   1 13335.2 562.196   8
  -4   4   1 13009.3 506.934  11
   4  -4  -1 14835.8 858.576   1
   4  -4  -1 12808.9 402.825   5
   4  -4   0 5808.01 621.803   1
   4  -4   0 5767.14 298.706   5
  -4   4   0 5894.03 434.115   8
  -4   4   0 5564.66 351.970  11
  -4   4  -1 20599.2 552.795  11
   4  -4   1 20790.0 524.467   5
  -4   4  -1 20395.4 683.940   8
  -4   4  -1 21476.9 711.895   3
  -4   4  -2 18149.2 498.137  11
  -4   4  -2 17747.0 650.889   8
   4  -4   2 18484.1 525.009   5
  -4   4  -2 17890.2 663.124  10
  -4   4  -2 18400.5 694.979   3
  -4   4  -3 1371.80 426.639   3
  -4   4  -3 1237.32 345.112  10
  -4   4  -3 1015.34 334.428   8
  -4   4  -4 2488.36 391.140  10
  -4   4  -4 2664.31 384.403   8
  -4   4  -4 2531.85 491.150   3
  -4   4  -5 17511.9 690.226   8
  -4   4  -5 17041.9 818.481   3
  -4   4  -5 18357.4 733.331  10
  -4   4  -6 7332.72 528.740   8
  -4   4  -6 8026.73 706.903   3
  -4   4  -7 2823.16 646.021   3
  -4   4  -8 2845.84 679.842   3
  -4   4  -9 851.083 654.086   3
  -4   4 -10 730.960 629.303   3
   4  -3 -13 722.893 611.598   3
   4  -3 -12 7621.86 771.125   3
  -4   3  11 7039.02 628.636  11
   4  -3 -11 7169.14 703.625   3
  -4   3  10 1121.55 417.165  11
   4  -3 -10 1156.69 533.405   3
  -4   3   9 1979.76 426.867  11
  -4   3   8 7074.93 542.514  11
  -4   3   7 5114.89 476.758  11
  -4   3   6 4946.86 458.524  11
   4  -3  -6 4514.67 387.447   5
   4  -3  -5 18777.9 558.319   5
  -4   3   5 20445.0 687.757  11
  -4   3   4 20017.6 649.426  11
   4  -3  -4 19278.6 868.858   1
   4  -3  -4 18207.8 495.572   5
  -4   3   4 19804.0 596.275   8
  -4   3   3 709.090 250.871  11
  -4   3   3 795.976 257.917   8
   4  -3  -3 641.289 172.600   5
   4  -3  -3 771.267 332.071   1
   4  -3  -2 15600.3 377.488   5
   4  -3  -2 16715.7 816.655   1
  -4   3   2 16435.0 541.594  11
  -4   3   2 16726.4 546.934   8
  -4   3   1 38988.4 743.460  11
   4  -3  -1 38884.9 546.254   5
  -4   3   1 41615.1 826.662   8
  -4   3   0 10432.2 395.545  11
   4  -3   0 10523.8 309.576   5
   4  -3   0 11427.1 729.718   1
  -4   3   0 11224.9 484.290   8
  -4   3   0 10653.3 475.629   3
  -4   3  -1 10862.8 367.947  11
   4  -3   1 11812.0 764.318   1
  -4   3  -1 12088.6 515.967   8
   4  -3   1 11046.9 348.083   5
  -4   3  -1 11972.1 512.952   3
  -4   3  -2 19313.0 642.774   8
  -4   3  -2 19071.2 652.457   3
  -4   3  -3 6082.81 419.790  10
  -4   3  -3 6406.53 441.525   8
  -4   3  -3 6607.27 496.384   3
  -4   3  -4 2940.93 366.858  10
  -4   3  -4 2649.30 373.323   8
  -4   3  -4 2647.36 443.895   3
  -4   3  -5 2250.44 370.416   8
  -4   3  -5 2147.59 496.214   3
  -4   3  -6 3258.69 428.209   8
  -4   3  -6 3542.81 587.630   3
  -4   3  -7 5562.51 677.584   3
  -4   3  -8 2734.33 657.195   3
  -4   3  -9 565.053 615.133   3
  -4   3 -10 84.6718 638.235   3
   4  -2 -14 981.630 652.057   3
   4  -2 -13 731.723 542.168   3
   4  -2 -13 385.524 585.770   4
   4  -2 -12 1218.25 554.247   3
  -4   2  11 6217.99 578.103  11
   4  -2 -11 5193.28 618.527   3
   4  -2 -10 3252.91 532.587   3
  -4   2  10 3920.02 481.144  11
  -4   2   9 894.023 372.930  11
   4  -2  -9 792.790 423.830   3
  -4   2   8 5764.23 373.984   6
  -4   2   8 6571.71 509.363  11
  -4   2   8 6581.27 525.871   7
  -4   2   7 9732.34 457.967   6
  -4   2   7 10640.3 562.281  11
  -4   2   7 11539.8 595.820   7
   4  -2  -6 1795.56 418.508   2
  -4   2   6 2946.66 307.857   6
  -4   2   6 2784.10 367.514   7
   4  -2  -6 2834.38 435.115   1
  -4   2   5 12191.3 476.568   6
   4  -2  -5 11985.8 667.100   1
  -4   2   5 12014.2 434.306   8
  -4   2   5 12068.2 514.819   7
  -4   2   4 30059.8 688.946   6
   4  -2  -4 27357.5 530.705   5
  -4   2   4 30620.6 654.950   8
   4  -2  -4 29819.7 983.481   1
  -4   2   4 28950.8 680.527   7
  -4   2   3 11698.2 456.180   6
  -4   2   3 11360.4 425.878   8
   4  -2  -3 10222.5 288.208   5
  -4   2   3 11254.1 418.631   7
  -4   2   2 2607.04 279.202   6
   4  -2  -2 2404.48 134.825   5
  -4   2   2 2796.13 278.864   8
  -4   2   1 9633.89 404.925   6
   4  -2  -1 8795.14 242.264   9
  -4   2   1 9299.24 415.270   8
  -4   2   1 9555.59 362.760  11
  -4   2   0 21443.9 485.021  11
  -4   2   0 22520.1 607.631   8
  -4   2   0 23177.4 573.188   3
  -4   2  -1 13105.7 356.759  11
  -4   2  -1 14810.6 530.305   8
  -4   2  -1 14520.0 506.652   3
  -4   2  -2 17285.7 590.140   8
  -4   2  -2 17447.1 589.064   3
   4  -2   3 4677.22 514.078   2
  -4   2  -3 4901.43 411.420   8
  -4   2  -3 5034.55 438.533   3
   4  -2   3 5867.47 560.987   1
  -4   2  -4 556.976 259.184  10
  -4   2  -4 635.913 384.296   3
  -4   2  -4 408.540 307.175   8
  -4   2  -5 459.674 438.206   3
  -4   2  -5 484.010 309.326   8
  -4   2  -6 10516.8 573.455   8
  -4   2  -6 10696.2 736.309   3
  -4   2  -7 4393.75 646.884   3
  -4   2  -8 4610.21 702.139   3
  -4   2  -9 5462.02 755.238   3
  -4   2 -10 998.949 646.509   3
   4  -1 -14 1159.92 658.026   4
   4  -1 -13 1164.12 600.230   4
   4  -1 -13 683.815 526.166   3
   4  -1 -12 237.657 475.824   3
   4  -1 -12 243.717 560.415   4
   4  -1 -11 2387.23 512.584   3
  -4   1  11 3418.46 474.754  11
  -4   1  11 3187.93 524.353   7
  -4   1  10 8209.79 578.333  11
   4  -1 -10 7993.94 599.630   3
  -4   1  10 8280.34 626.023   7
   4  -1  -9 3185.92 431.991   3
  -4   1   9 3801.56 483.661   7
  -4   1   8 1544.17 278.258   6
  -4   1   8 2142.86 417.278   7
   4  -1  -8 1754.23 353.446   3
  -4   1   7 9885.06 458.349   6
  -4   1   7 10606.9 564.319   7
   4  -1  -7 8846.59 678.754   2
  -4   1   6 11061.1 466.909   6
  -4   1   6 10216.4 356.376   8
   4  -1  -6 10934.9 597.321   1
  -4   1   6 9755.36 503.801   7
   4  -1  -6 9738.33 629.809   2
  -4   1   5 9995.26 441.170   6
  -4   1   5 10993.4 376.984   8
   4  -1  -5 10592.2 628.252   2
  -4   1   5 10321.4 465.284   7
  -4   1   4 31883.5 700.200   6
  -4   1   4 31497.4 600.280   8
   4  -1  -4 33049.9 1000.72   2
  -4   1   4 32182.8 698.597   7
  -4   1   3 5987.96 350.774   6
   4  -1  -3 5354.04 233.815   9
   4  -1  -3 5830.77 479.242   2
  -4   1   3 5098.36 297.044   8
  -4   1   3 6254.73 328.662   7
  -4   1   2 17265.0 509.221   6
   4  -1  -2 16243.5 343.174   9
   4  -1  -2 17920.7 740.167   2
  -4   1   2 17114.6 484.451   8
  -4   1   2 16883.6 437.169   7
  -4   1   1 6177.86 336.041   6
   4  -1  -1 5878.93 247.920   9
   4  -1  -1 6350.62 492.037   2
  -4   1   1 5712.00 334.388   8
  -4   1   1 5408.73 246.396   7
  -4   1   1 6244.48 291.530   3
  -4   1   0 38938.4 712.234   6
  -4   1   0 39718.0 765.746   8
  -4   1   0 40864.2 666.442   3
   4  -1   0 41039.4 1091.54   2
   4  -1   1 11361.5 628.649   2
  -4   1  -1 11779.4 476.064   8
  -4   1  -1 11755.6 426.692   3
  -4   1  -2 18802.2 573.114   3
   4  -1   2 18967.6 798.444   2
  -4   1  -3 7302.39 457.129   3
   4  -1   3 7675.00 585.646   2
  -4   1  -4 1744.21 387.945   3
  -4   1  -4 1820.41 346.427   8
  -4   1  -5 13989.5 696.664   3
  -4   1  -5 13893.9 608.480   8
  -4   1  -6 4651.40 570.349   3
  -4   1  -6 5241.27 475.977   8
  -4   1  -7 952.800 553.183   3
  -4   1  -8 16471.0 966.918   3
  -4   1  -9 9784.60 898.226   3
  -4   1 -10 81.1963 633.870   3
   4   0 -14 672.448 623.815   4
   4   0 -13 2503.42 650.311   4
   4   0 -12 549.767 610.210   4
  -4   0  12 1016.75 457.390   7
   4   0 -11 2512.13 609.364   4
   4   0 -11 2876.98 479.718   3
  -4   0  11 2766.02 558.284   7
   4   0 -10 10352.9 584.993   3
  -4   0  10 11695.2 716.086   7
   4   0 -10 11081.5 745.764   4
   4   0  -9 517.532 322.849   3
   4   0  -9 288.511 417.410   4
  -4   0   9 401.721 387.898   7
   4   0  -8 675.296 287.441   3
  -4   0   8 910.481 380.704   7
   4   0  -7 8534.09 399.901   3
  -4   0   7 9398.36 546.039   7
  -4   0   6 22681.2 695.090   7
  -4   0   5 11622.3 350.245   8
  -4   0   5 12266.5 498.818   7
   4   0  -5 12625.3 677.551   2
  -4   0   4 16119.3 419.342   8
  -4   0   4 16024.1 510.730   7
   4   0  -4 16853.1 752.696   2
  -4   0   3 2306.65 229.935   8
  -4   0   3 2627.45 249.404   7
   4   0  -3 2501.49 167.722   4
   4   0  -3 3116.86 396.607   2
   4   0  -3 2361.38 219.161   9
   4   0  -2 7146.07 296.119   9
  -4   0   2 6568.64 347.157   6
  -4   0   2 6618.52 295.966   7
   4   0  -2 7513.37 526.388   2
  -4   0   1 34179.8 678.506   6
   4   0  -1 34196.7 586.592   9
  -4   0   1 32979.5 525.303   7
  -4   0   1 33186.5 493.737   3
  -4   0   0 7208.80 338.743   6
   4   0   0 6969.41 332.259   9
  -4   0   0 6959.57 293.419   3
  -4   0   0 6200.46 217.682   7
   4   0   0 6825.03 517.851   2
  -4   0  -1 17775.2 478.014   6
  -4   0  -1 17396.8 474.595   3
   4   0   1 18697.6 781.669   2
  -4   0  -2 67399.4 975.094   3
  -4   0  -3 21774.4 651.014   3
  -4   0  -4 3996.28 430.438   3
  -4   0  -5 8289.28 576.493   3
  -4   0  -6 5969.87 595.023   3
  -4   0  -7 4605.59 632.971   3
  -4   0  -8-36.9759 555.197   3
  -4   0  -9-252.933 618.976   3
  -4   0 -10 2534.06 698.508   3
   4   1 -14-70.2175 631.852   4
   4   1 -13 2672.08 683.470   4
  -4  -1  13 2976.82 551.183   7
   4   1 -12 2794.61 670.725   4
  -4  -1  12 2278.13 518.043   7
   4   1 -11 2725.43 602.810   4
  -4  -1  11 1671.45 509.876   7
   4   1 -10 1758.28 509.490   4
  -4  -1  10 1468.48 464.198   7
   4   1  -9 196.993 418.761   4
  -4  -1   9 808.954 398.493   7
  -4  -1   8 4746.59 479.754   7
   4   1  -8 4063.61 454.466   4
  -4  -1   7 8565.36 526.540   7
   4   1  -7 7787.54 469.703   4
  -4  -1   6 4959.00 408.123   7
   4   1  -6 4197.30 360.616   4
  -4  -1   5 30225.9 520.530   8
  -4  -1   5 32317.4 756.350   7
   4   1  -5 31432.4 651.849   4
   4   1  -4 53180.5 828.512   9
  -4  -1   4 52119.3 879.320   7
   4   1  -4 51480.9 720.516   4
   4   1  -3 22644.5 545.757   9
  -4  -1   3 22563.8 842.362   2
  -4  -1   3 21647.4 542.306   7
   4   1  -3 22415.6 412.402   4
   4   1  -2 17788.0 482.508   9
  -4  -1   2 18605.9 770.989   2
  -4  -1   2 18528.0 469.517   7
   4   1  -1 19815.4 510.937   9
  -4  -1   1 21359.5 815.785   2
  -4  -1   1 19058.6 436.854   7
  -4  -1   0 36412.1 673.148   6
   4   1   0 37749.0 715.955   9
  -4  -1   0 35191.7 536.049   3
  -4  -1  -1 18999.4 486.954   6
   4   1   1 20264.2 586.046   9
  -4  -1  -1 19047.3 473.132   3
  -4  -1  -2 91.5665 223.538   3
  -4  -1  -2 47.9148 153.760   6
  -4  -1  -3 3600.48 364.779   3
  -4  -1  -4 12665.1 596.084   3
  -4  -1  -5 4182.94 508.106   3
  -4  -1  -6 5714.78 597.573   3
  -4  -1  -7-60.9616 510.883   3
  -4  -1  -8 4965.10 704.348   3
  -4  -1  -9 865.754 614.453   3
  -4  -1 -10 7335.79 874.423   3
   4   2 -14 686.571 629.278   4
   4   2 -13 70.0951 595.267   4
  -4  -2  13 65.5698 464.811   7
   4   2 -12 2201.63 646.792   4
  -4  -2  12 2678.34 536.395   7
  -4  -2  11 6854.21 656.142   7
   4   2 -11 7427.74 730.801   4
  -4  -2  10 6105.30 581.714   7
   4   2 -10 6483.81 636.609   4
  -4  -2   9 8613.39 600.110   7
   4   2  -9 8039.66 607.881   4
  -4  -2   8 6982.46 535.412   7
   4   2  -8 6604.17 528.892   4
  -4  -2   7 9250.94 557.024   7
   4   2  -7 8302.41 504.345   4
  -4  -2   6 37687.3 1155.77   2
  -4  -2   6 39434.1 909.912   7
   4   2  -6 36776.6 809.909   4
  -4  -2   5 15525.4 784.747   2
  -4  -2   5 14585.2 565.693   7
   4   2  -5 13950.2 486.111   4
  -4  -2   4 358.541 295.988   2
   4   2  -4 466.471 189.185   4
   4   2  -4 510.467 263.674   9
  -4  -2   4 254.121 232.197   7
   4   2  -3 21619.8 461.553   4
  -4  -2   3 20970.9 395.300   5
   4   2  -3 23888.8 621.595   9
  -4  -2   3 21616.5 880.386   2
  -4  -2   3 22074.6 583.531   7
  -4  -2   2 23434.6 378.289   5
   4   2  -2 26359.1 638.378   9
  -4  -2   2 25690.8 953.059   2
  -4  -2   2 25471.4 588.763   7
  -4  -2   1 18682.4 340.422   5
   4   2  -1 21708.2 592.562   9
  -4  -2   1 21188.7 883.214   2
  -4  -2   1 19815.0 493.844   7
  -4  -2   0 23037.6 419.448   5
   4   2   0 26969.0 676.688   9
  -4  -2   0 22897.7 422.780   3
  -4  -2   0 25969.0 974.688   2
  -4  -2   0 24087.7 505.157   7
  -4  -2  -1 6260.41 312.997   6
  -4  -2  -1 5808.96 280.509   5
   4   2   1 6065.14 427.293   9
  -4  -2  -1 5392.78 298.527   3
  -4  -2  -1 5274.54 545.600   2
   4   2   2 18129.7 654.148   9
  -4  -2  -2 16289.4 843.088   2
  -4  -2  -2 16608.0 528.293   3
   4   2   3 17923.3 698.481   9
  -4  -2  -3 16214.4 597.589   3
  -4  -2  -4 16477.2 669.588   3
  -4  -2  -5 2513.62 456.307   3
  -4  -2  -6 5979.40 617.310   3
  -4  -2  -7 832.978 513.990   3
  -4  -2  -8-159.436 544.395   3
  -4  -2  -9 1273.16 645.860   3
  -4  -2 -10 1766.94 714.497   3
   4   3 -14 492.106 626.406   4
   4   3 -13 2473.03 663.104   4
  -4  -3  13 2638.03 578.026   7
  -4  -3  12 9338.92 734.958   7
   4   3 -12 8993.14 832.025   4
   4   3 -11 2377.02 599.507   4
  -4  -3  11 2487.13 510.623   7
   4   3 -10 1729.01 529.727   4
  -4  -3  10 1991.68 472.826   7
  -4  -3   9 9421.89 635.906   7
   4   3  -9 9045.89 654.114   4
  -4  -3   8 6569.31 541.211   7
   4   3  -8 5661.37 518.425   4
  -4  -3   7 25889.4 847.921   7
   4   3  -7 22513.0 759.663   4
  -4  -3   6 16478.6 666.594   7
   4   3  -6 14324.5 578.796   4
   4   3  -5 19609.8 675.249   9
  -4  -3   5 18816.7 939.458   2
  -4  -3   5 19919.6 672.484   7
   4   3  -5 19327.9 592.029   4
   4   3  -4 2536.64 283.726   4
  -4  -3   4 2417.29 471.119   2
  -4  -3   4 2237.57 240.602   5
   4   3  -4 2675.38 358.632   9
  -4  -3   4 2317.42 316.137   7
  -4  -3   3 38304.7 622.641   5
   4   3  -3 39247.1 849.943   9
  -4  -3   3 37269.9 811.218   7
  -4  -3   3 38000.0 1264.58   2
  -4  -3   2 18513.0 438.063   5
   4   3  -2 19809.8 629.584   9
  -4  -3   2 19057.0 576.525   7
  -4  -3   2 19313.3 906.384   2
   4   3  -1 10587.0 505.236   9
  -4  -3   1 9125.83 332.554   5
  -4  -3   1 10432.0 726.455   2
  -4  -3   1 9782.15 417.190   7
  -4  -3   0 11484.8 377.967   5
  -4  -3   0 10943.6 743.662   2
  -4  -3   0 11542.6 424.317   7
  -4  -3  -1 294.174 198.693   3
   4   3   1 442.525 347.684   9
  -4  -3  -1 431.749 212.379   5
  -4  -3  -2 667.900 268.009   3
   4   3   2 911.954 400.757   9
  -4  -3  -2 362.644 245.137   5
  -4  -3  -3 4280.65 385.304   5
   4   3   3 5611.75 564.346   9
  -4  -3  -3 4462.33 405.083   3
   4   3   4 11342.3 687.491   9
  -4  -3  -4 8563.93 566.092   3
   4   3   5 19186.5 851.496   9
  -4  -3  -5 15399.9 741.145   3
   4   3   6 6601.79 664.462   9
  -4  -3  -6 5662.88 605.991   3
  -4  -3  -7 1719.15 554.674   3
   4   3   7 1379.00 559.654   9
  -4  -3  -8 1989.17 625.401   3
   4   3   8 1436.76 584.464   9
  -4  -3  -9 810.099 616.321   3
   4   3   9 799.457 575.842   9
   4   4 -14 1875.15 677.402   4
  -4  -4  14 1760.41 549.512   7
  -4  -4  13 8926.69 761.307   7
   4   4 -13 9074.82 895.854   4
   4   4 -12 709.958 570.426   4
  -4  -4  12 607.232 448.355   7
  -4  -4  11 5054.18 594.534   7
   4   4 -11 5621.07 699.614   4
   4   4 -10 337.753 480.938   4
  -4  -4  10 470.373 415.872   7
  -4  -4   9 11167.7 692.225   7
   4   4  -9 9651.84 692.405   4
  -4  -4   8 4985.61 536.943   7
   4   4  -8 4624.06 551.545   4
  -4  -4   7 6275.96 546.341   7
   4   4  -7 5595.68 507.615   4
  -4  -4   6 1909.78 402.957   7
   4   4  -6 1496.71 349.635   4
  -4  -4   5 141.329 308.286   7
   4   4  -5 190.201 267.747   4
  -4  -4   5 129.764 235.526   5
   4   4  -5-90.2725 351.746   9
  -4  -4   4 466.127 290.677   7
   4   4  -4 668.149 345.291   9
  -4  -4   4 427.179 226.869   5
  -4  -4   3 5791.50 345.057   5
   4   4  -3 6321.72 489.060   9
  -4  -4   3 5203.49 414.079   7
  -4  -4   2 33257.4 678.472   5
   4   4  -2 34404.9 882.095   9
  -4  -4   2 33442.3 816.472   7
  -4  -4   1 30758.3 645.173   5
   4   4  -1 30609.4 836.566   9
  -4  -4   0 10028.4 437.879   5
   4   4   0 10572.9 586.005   9
  -4  -4  -1 12035.9 482.516   5
   4   4   1 12604.3 647.111   9
  -4  -4  -2 5457.32 417.213   5
   4   4   2 6290.59 564.837   9
  -4  -4  -3 769.024 339.078   3
   4   4   3 1897.71 499.002   9
  -4  -4  -3 1188.95 352.247   5
   4   4   4 12393.3 740.265   9
  -4  -4  -4 10985.3 605.822   5
  -4  -4  -5 4318.71 534.951   3
   4   4   5 4993.33 637.732   9
  -4  -4  -6-79.0863 460.252   3
   4   4   6 1009.55 542.717   9
  -4  -4  -7 1428.96 554.906   3
   4   4   7 2607.18 618.550   9
  -4  -4  -8 1844.17 611.551   3
   4   4   8 2727.98 664.471   9
  -4  -4  -9 893.593 705.486   3
  -4  -5  14 1259.53 548.931   7
   4   5 -13 1080.25 656.536   4
  -4  -5  13 643.726 488.102   7
   4   5 -12 155.264 613.842   4
  -4  -5  12 287.129 439.084   7
   4   5 -11 271.107 573.186   4
  -4  -5  11-78.4952 430.997   7
   4   5 -10-166.212 515.007   4
  -4  -5  10 77.4351 425.914   7
   4   5  -9 1582.87 527.344   4
  -4  -5   9 2248.91 508.694   7
  -4  -5   8 16268.5 814.058   7
   4   5  -8 14652.9 787.580   4
   4   5  -7 7712.80 584.209   4
  -4  -5   7 9104.21 630.405   7
   4   5  -6 7745.40 549.540   4
  -4  -5   6 9219.85 526.806   5
  -4  -5   6 9419.81 619.502   7
  -4  -5   5 17963.3 649.726   5
   4   5  -5 19511.7 802.324   9
  -4  -5   5 17674.0 755.011   7
  -4  -5   4 1309.52 386.012   7
   4   5  -4 1153.65 435.332   9
  -4  -5   4 1173.33 321.654   5
  -4  -5   3 5490.07 412.122   5
   4   5  -3 6411.98 538.468   9
  -4  -5   3 5917.03 477.613   7
  -4  -5   2 29337.4 741.838   5
   4   5  -2 32642.5 940.079   9
  -4  -5   1 6187.67 403.597   5
   4   5  -1 5298.97 558.792   9
   4   5   0 1367.85 467.515   9
  -4  -5   0 1134.04 299.309   5
  -4  -5  -1 10608.5 531.792   5
   4   5   1 11921.2 681.441   9
  -4  -5  -2 5897.71 475.031   5
   4   5   2 7057.04 614.542   9
   4   5   3 4060.55 580.533   9
  -4  -5  -3 3430.86 456.176   5
   4   5   4 2232.35 572.432   9
   4   5   5-6.77619 515.091   9
   4   5   6 156.444 522.102   9
   4   5   7 3215.49 637.156   9
   4   5   8 2066.34 639.902   9
   4   6 -13 607.932 651.543   4
  -4  -6  13 648.725 501.901   7
   4   6 -12 4467.25 730.072   4
  -4  -6  12 3679.80 587.091   7
   4   6 -11 2823.20 682.763   4
  -4  -6  11 3824.60 599.124   7
   4   6 -10 138.063 523.120   4
  -4  -6  10 382.045 470.966   7
   4   6  -9 4466.41 643.126   4
  -4  -6   9 5575.97 633.333   7
   4   6  -8 15488.8 851.417   4
  -4  -6   8 18638.9 881.795   7
  -4  -6   7 2693.67 516.399   7
   4   6  -7 1571.62 479.934   4
  -4  -6   7 2788.69 460.381   5
  -4  -6   6 4458.07 482.799   5
  -4  -6   6 5134.19 558.954   7
  -4  -6   5 13822.6 654.551   5
   4   6  -5 15590.3 796.285   9
  -4  -6   5 14174.4 754.352   7
  -4  -6   4 7688.91 502.596   5
   4   6  -4 6784.92 627.600   9
  -4  -6   4 6990.99 575.600   7
  -4  -6   3 4940.06 444.087   5
   4   6  -3 5508.56 594.102   9
   4   6  -2 2069.91 510.873   9
  -4  -6   2 1147.18 349.101   5
   4   6  -1 232.950 459.313   9
  -4  -6   1 301.655 303.275   5
   4   6   0 2274.29 511.219   9
  -4  -6   0 2586.58 407.177   5
  -4  -6  -1 6711.93 528.190   5
   4   6   1 7445.88 644.182   9
  -4  -6  -2 5133.69 525.886   5
   4   6   2 5975.30 638.864   9
   4   6   3 5098.74 639.579   9
   4   6   4 1950.09 578.039   9
   4   6   5 498.925 527.923   9
   4   6   6-87.7727 523.020   9
   4   6   7 2147.60 640.193   9
  -4  -7  13 68.1983 551.319   7
   4   7 -12 2547.51 668.868   4
  -4  -7  12 3116.34 573.692   7
   4   7 -11 4500.22 750.383   4
  -4  -7  11 3803.57 633.971   7
   4   7 -10 2098.60 623.821   4
  -4  -7  10 2389.15 575.296   5
  -4  -7  10 2774.71 608.561   7
  -4  -7   9 1462.14 530.056   7
   4   7  -9 1220.69 562.036   4
  -4  -7   9 1375.19 506.718   5
  -4  -7   8 294.666 492.866   7
  -4  -7   8 96.4730 406.949   5
  -4  -7   7 56.8255 459.175   7
  -4  -7   7 790.246 442.036   5
  -4  -7   6 2607.81 541.994   7
  -4  -7   6 2529.90 481.146   5
  -4  -7   5 3905.50 577.881   7
  -4  -7   5 4516.82 507.357   5
   4   7  -5 5647.57 650.817   9
  -4  -7   4 6742.39 567.167   5
   4   7  -4 7742.70 696.669   9
  -4  -7   4 7449.13 634.858   7
  -4  -7   3 5284.43 536.690   5
   4   7  -3 5428.89 628.103   9
   4   7  -2 1793.26 537.108   9
  -4  -7   2 1081.38 415.480   5
   4   7  -1 405.818 506.596   9
  -4  -7   1 310.918 361.439   5
   4   7   0 1477.76 553.431   9
  -4  -7   0 1176.57 417.471   5
  -4  -7  -1 6695.77 574.306   5
   4   7   1 7849.56 694.189   9
   4   7   2 4111.81 618.969   9
   4   7   3 584.431 514.503   9
   4   7   4 1528.92 590.085   9
   4   7   5 1510.06 568.874   9
   4   7   6 49.1905 558.859   9
  -4  -8  12 755.308 628.897   5
  -4  -8  12 1160.87 569.513   7
  -4  -8  11 1744.64 623.011   5
  -4  -8  11 1710.80 588.744   7
  -4  -8  10 2452.46 645.393   5
  -4  -8  10 2857.06 595.542   7
  -4  -8   9 1111.81 540.630   7
  -4  -8   9 27.5663 519.489   5
  -4  -8   8 72.9963 479.587   7
  -4  -8   8 120.980 470.619   5
  -4  -8   7 311.657 481.423   7
  -4  -8   7 59.7147 438.577   5
  -4  -8   6 1407.93 529.873   7
  -4  -8   6 1201.26 459.445   5
  -4  -8   5 5330.60 593.193   5
   4   8  -5 6157.41 719.000   9
  -4  -8   5 5653.57 665.431   7
  -4  -8   4 3985.67 595.802   7
   4   8  -4 4405.24 651.639   9
  -4  -8   4 3171.48 558.109   5
   4   8  -3 1189.07 564.280   9
  -4  -8   3 1256.48 492.763   5
   4   8  -2 4233.97 644.781   9
  -4  -8   2 4053.17 526.415   5
   4   8  -1 2955.98 621.981   9
  -4  -8   1 2606.26 503.052   5
   4   8   0 627.880 552.483   9
  -4  -8   0 681.812 454.410   5
   4   8   1 484.344 552.346   9
   4   8   2 1232.05 554.194   9
   4   8   3 945.986 540.428   9
   4   8   4 1070.56 604.292   9
   4   8   5 1427.40 624.761   9
  -4  -9  11 1451.10 657.552   5
  -4  -9  11 1236.35 559.297   7
  -4  -9  10 1711.27 630.373   5
  -4  -9  10 1613.03 569.146   7
  -4  -9   9 1618.61 577.271   7
  -4  -9   9 909.106 608.569   5
  -4  -9   8 1732.51 604.551   7
  -4  -9   8 2021.57 584.586   5
  -4  -9   7 652.649 539.073   7
  -4  -9   7 840.398 519.158   5
  -4  -9   6 306.016 543.450   7
  -4  -9   6 603.301 492.065   5
  -4  -9   5 741.849 527.807   7
  -4  -9   5 541.442 487.232   5
  -4  -9   4 1783.67 557.205   7
   4   9  -4 1479.40 604.651   9
  -4  -9   4 1568.12 536.453   5
   4   9  -3 1516.13 601.529   9
  -4  -9   3 1285.33 531.703   5
   4   9  -2 3065.30 641.930   9
  -4  -9   2 3038.09 553.353   5
   4   9  -1 1953.23 633.298   9
   4   9   0-177.501 550.230   9
   4   9   1 697.901 558.897   9
   4   9   2 7929.69 848.960   9
   4   9   3 2588.85 640.531   9
   4   9   4 102.253 608.526   9
  -4 -10  10 769.054 677.680   5
  -4 -10   9 1042.28 594.131   7
  -4 -10   9 976.391 615.291   5
  -4 -10   8 1695.02 609.314   7
  -4 -10   8 2306.26 628.711   5
  -4 -10   7 678.841 583.918   7
  -4 -10   7 546.543 558.548   5
  -4 -10   6 374.161 532.852   7
  -4 -10   6-73.7764 516.154   5
  -4 -10   5 1238.06 599.320   7
  -4 -10   5 732.101 564.651   5
  -4 -10   4 8120.09 774.092   5
   4  10  -4 9773.50 852.780   9
  -4 -10   4 7695.22 794.854   7
   4  10  -3 1705.39 616.032   9
   4  10  -2 221.839 549.312   9
   4  10  -1 2036.47 664.542   9
   4  10   0 2694.58 669.963   9
   4  10   1 1982.02 635.377   9
   4  10   2 1848.80 712.385   9
  -4 -11   7 2272.31 657.380   7
  -4 -11   6 1184.41 610.398   7
  -4 -11   5 2402.57 677.284   7
  -4 -11   4 2813.63 684.422   7
   4  11  -3 2231.90 656.944   9
   4  11  -2 1707.35 644.355   9
   4  11  -1 462.578 614.397   9
   5 -12  -3 518.667 606.388   5
  -5  12   2 89.8499 696.502  10
   5 -12  -2 0.00000 619.409   5
  -5  12   1 469.354 690.794  10
   5 -12  -1 580.387 605.076   5
  -5  12   0 368.271 665.638  10
   5 -12   0 89.6574 589.975   5
  -5  12  -1 550.269 696.314  10
   5 -11  -5 637.124 600.263   5
   5 -11  -4 1584.26 567.028   5
  -5  11   3 9614.82 895.203  10
   5 -11  -3 11437.3 865.570   5
  -5  11   2 8688.49 904.441  10
   5 -11  -2 7208.56 751.689   5
  -5  11   1 413.737 606.688  10
   5 -11  -1 360.084 507.842   5
  -5  11   0 918.960 641.298  10
   5 -11   0-29.8104 504.577   5
  -5  11  -1 1438.31 706.077  10
   5 -11   1 873.027 500.808   5
  -5  11  -2 3619.86 793.706  10
  -5  11  -3 9557.62 1003.44  10
  -5  11  -4 1704.75 725.552  10
   5 -10  -7 21.6044 615.631   5
  -5  10   6 845.995 615.986  11
   5 -10  -6 712.262 540.212   5
   5 -10  -5 887.607 490.467   5
  -5  10   4 9037.40 791.596  10
   5 -10  -4 7876.22 742.660   5
  -5  10   3 14817.9 962.296  10
   5 -10  -3 15294.7 878.183   5
  -5  10   2 1894.80 613.169  10
   5 -10  -2 1010.78 503.559   5
  -5  10   1 499.637 617.387  10
   5 -10  -1 620.792 441.588   5
  -5  10   0 1493.07 633.282  10
   5 -10   0 942.984 455.633   5
  -5  10  -1 14.0484 646.582  10
   5 -10   1 70.0195 425.177   5
  -5  10  -2 1784.45 687.173  10
  -5  10  -3 1828.74 715.285  10
  -5  10  -4 289.911 638.927  10
  -5  10  -5 1854.46 734.740  10
  -5  10  -6 1864.80 726.281  10
   5  -9  -9 6009.41 735.529   5
  -5   9   8 950.930 578.607  11
   5  -9  -8 405.106 558.989   5
  -5   9   7 759.908 553.148  11
   5  -9  -7 647.476 510.239   5
  -5   9   6 777.550 554.235  11
   5  -9  -6 427.594 495.481   5
  -5   9   5 1308.71 602.103  11
   5  -9  -5 165.308 449.717   5
  -5   9   5 640.817 514.686  10
  -5   9   4 2267.44 633.826  11
  -5   9   4 2361.28 564.552  10
   5  -9  -4 2436.37 520.570   5
  -5   9   3 780.399 521.097  11
  -5   9   3 262.121 527.642  10
   5  -9  -3 326.014 405.951   5
  -5   9   2 692.486 506.352  11
  -5   9   2 437.750 550.359  10
   5  -9  -2 836.841 405.149   5
  -5   9   1 3867.46 672.608  10
   5  -9  -1 3949.18 491.696   5
   5  -9   0 276.011 383.918   5
  -5   9   0 347.227 589.529  10
  -5   9  -1 529.161 595.853  10
   5  -9   1 134.130 381.403   5
  -5   9  -2 3229.01 727.356  10
  -5   9  -3 2793.57 730.511  10
  -5   9  -4 1301.37 659.030  10
  -5   9  -5 780.389 637.944  10
  -5   9  -6 3004.79 753.177  10
  -5   9  -6 2013.59 714.150   3
  -5   9  -7 5030.06 870.274   3
  -5   8  10 958.632 589.457  11
  -5   8   9 623.788 541.972  11
   5  -8  -9 190.858 545.138   5
  -5   8   8 2645.43 602.609  11
   5  -8  -8 1798.49 556.973   5
  -5   8   7 1499.14 557.884  11
   5  -8  -7 1709.24 510.816   5
  -5   8   6 55.2284 528.704  11
   5  -8  -6 66.7846 429.778   5
  -5   8   5 439.149 520.874  11
  -5   8   5 575.960 461.300  10
   5  -8  -5 162.003 415.782   5
  -5   8   4 2555.60 597.592  11
  -5   8   4 1941.18 509.988  10
   5  -8  -4 1563.51 460.435   5
  -5   8   3 2097.39 530.563  11
  -5   8   3 2330.26 571.213  10
   5  -8  -3 1976.28 433.708   5
  -5   8   2 1693.81 520.932  11
  -5   8   2 1751.08 555.345  10
   5  -8  -2 2047.70 425.280   5
   5  -8  -1 724.332 398.606   5
  -5   8   1 1058.57 540.617  10
  -5   8   1 1186.53 476.002  11
  -5   8   0 9273.05 803.035  10
   5  -8   0 8848.88 610.947   5
  -5   8  -1 15845.3 937.364  10
   5  -8   1 14367.5 709.401   5
  -5   8  -2 2665.60 647.333  10
  -5   8  -3 2105.65 643.380  10
  -5   8  -4 2665.88 633.785  10
  -5   8  -5 926.345 561.306  10
  -5   8  -5 457.597 647.951   3
  -5   8  -6 3942.55 719.398  10
  -5   8  -6 2979.06 741.614   3
  -5   8  -7 5926.02 859.962   3
  -5   8  -8 93.6133 676.742   3
  -5   7  11 282.148 587.311  11
  -5   7  10-76.6897 497.118  11
   5  -7  -9 780.794 510.413   5
  -5   7   9 582.223 478.007  11
  -5   7   8 658.561 501.860  11
   5  -7  -8 691.457 455.733   5
  -5   7   7 1018.92 508.298  11
   5  -7  -7 417.480 434.838   5
  -5   7   6 9168.56 746.015  11
  -5   7   6 9810.09 645.557  10
   5  -7  -6 8860.39 648.539   5
  -5   7   5 9454.31 718.293  11
  -5   7   5 9056.27 656.522  10
   5  -7  -5 8546.61 597.948   5
  -5   7   4 1530.21 488.194  10
  -5   7   4 1444.99 510.559  11
   5  -7  -4 1734.80 393.081   5
  -5   7   3 4437.57 563.904  11
  -5   7   3 4558.26 568.556  10
   5  -7  -3 4277.66 447.280   5
   5  -7  -2 3347.95 405.185   5
  -5   7   2 4110.81 558.282  10
  -5   7   2 3376.14 489.518  11
  -5   7   1 2940.15 552.907  10
   5  -7  -1 2216.43 391.239   5
  -5   7   1 2406.53 452.523  11
  -5   7   0 16431.7 750.901  11
  -5   7   0 17071.3 871.764  10
   5  -7   0 16668.3 681.535   5
  -5   7  -1 13452.6 839.121  10
  -5   7  -1 14142.4 803.549   8
  -5   7  -2 959.187 548.977  10
  -5   7  -2 620.657 491.410   8
  -5   7  -3 925.456 535.714  10
  -5   7  -3 1337.67 573.911   3
  -5   7  -3 1228.18 493.589   8
  -5   7  -4 7218.39 729.388  10
  -5   7  -4 5851.75 623.240   8
  -5   7  -4 5732.07 746.167   3
  -5   7  -5 4604.20 741.785   3
  -5   7  -5 5027.20 664.417  10
  -5   7  -5 3779.80 579.197   8
  -5   7  -6 2265.85 701.468   3
  -5   7  -6 2222.01 610.366  10
  -5   7  -7 2898.14 731.449   3
  -5   7  -8 1607.63 716.769   3
  -5   6  11 1042.57 515.596  11
   5  -6 -11 1374.69 650.517   3
  -5   6  10 1163.47 505.000  11
  -5   6   9 1977.83 540.831  11
  -5   6   8 1132.99 480.202  11
   5  -6  -8 922.994 424.852   5
  -5   6   7 4954.88 603.709  11
   5  -6  -7 3687.72 518.367   5
   5  -6  -6 16709.4 734.534   5
  -5   6   6 18752.3 888.917  11
  -5   6   5 8281.95 651.734  11
   5  -6  -5 7108.73 501.663   5
  -5   6   4 781.440 424.050  11
   5  -6  -4 799.955 313.479   5
  -5   6   3 4666.95 506.838  11
   5  -6  -3 3966.42 377.962   5
  -5   6   2 11156.9 642.704  11
   5  -6  -2 10408.3 490.843   5
  -5   6   1 4073.51 437.196  11
  -5   6   1 4370.86 561.587   8
  -5   6   0 4819.94 449.150  11
  -5   6   0 5171.73 590.064  10
  -5   6   0 6254.81 605.351   8
  -5   6  -1 11261.2 562.391  11
  -5   6  -1 11761.9 739.372  10
  -5   6  -1 11054.7 697.126   8
  -5   6  -2 3251.92 550.843  10
  -5   6  -2 3076.49 579.628   3
  -5   6  -2 3030.23 510.835   8
  -5   6  -3 1042.33 464.213  10
  -5   6  -3 598.422 537.258   3
  -5   6  -3 1122.52 459.994   8
  -5   6  -4 8483.67 692.833  10
  -5   6  -4 9181.44 670.405   8
  -5   6  -4 8433.26 742.679   3
  -5   6  -5 8895.99 715.587  10
  -5   6  -5 8561.32 678.130   8
  -5   6  -5 8086.52 781.565   3
  -5   6  -6 1985.99 678.839   3
  -5   6  -6 2278.30 487.702   8
  -5   6  -7 2648.54 667.458   3
  -5   6  -8 429.480 647.505   3
  -5   6  -9 372.283 688.571   3
   5  -5 -12 3880.79 720.934   3
  -5   5  11 1447.79 509.599  11
   5  -5 -11 1908.07 631.347   3
  -5   5  10 963.260 501.132  11
  -5   5   9 2884.00 562.010  11
  -5   5   8 4054.69 574.621  11
   5  -5  -8 2903.96 503.972   5
  -5   5   7 2558.24 503.985  11
   5  -5  -7 1188.81 413.149   5
   5  -5  -6 4469.97 434.710   5
  -5   5   6 5587.05 581.451  11
  -5   5   5 11408.7 686.753  11
   5  -5  -5 10141.5 510.317   5
  -5   5   4 1927.93 436.059  11
   5  -5  -4 2079.05 291.899   5
  -5   5   3 2658.41 415.070  11
   5  -5  -3 3059.88 302.949   5
  -5   5   3 2686.09 464.474   8
  -5   5   2 19850.1 726.101  11
  -5   5   2 19269.2 776.637   8
  -5   5   1 13178.8 582.169  11
  -5   5   1 13164.7 671.635   8
  -5   5   0 4978.72 402.609  11
  -5   5   0 5414.23 544.934   8
  -5   5  -1 7973.68 446.736  11
  -5   5  -1 7695.62 595.865  10
  -5   5  -1 8199.97 601.299   8
  -5   5  -1 8274.62 605.888   3
  -5   5  -2 6104.23 570.051  10
  -5   5  -2 5183.89 533.110   8
  -5   5  -2 5590.19 597.458   3
  -5   5  -3 2162.60 530.749   3
  -5   5  -3 2424.59 492.633  10
  -5   5  -3 2638.27 470.626   8
  -5   5  -4 1000.28 542.289   3
  -5   5  -4 1089.58 453.059  10
  -5   5  -4 1452.96 439.769   8
  -5   5  -5 714.787 567.216   3
  -5   5  -5 845.548 442.258  10
  -5   5  -5 1058.28 417.032   8
  -5   5  -6 4871.20 569.760   8
  -5   5  -6 5257.59 750.622   3
  -5   5  -7 3685.93 714.368   3
  -5   5  -8 775.561 659.160   3
  -5   5  -9-216.013 657.516   3
   5  -4 -13 553.757 658.219   3
   5  -4 -12 1970.24 608.181   3
  -5   4  11 3514.50 591.214  11
   5  -4 -11 2002.38 579.211   3
  -5   4  10 730.963 478.223  11
  -5   4   9 2086.60 511.220  11
  -5   4   8 7810.57 646.868  11
  -5   4   7 2776.67 485.866  11
   5  -4  -7 2942.85 396.797   5
  -5   4   6 2751.18 477.192  11
   5  -4  -6 2425.51 353.789   5
   5  -4  -5 9101.61 446.131   5
  -5   4   5 10635.7 632.708  11
  -5   4   4 11017.4 597.510  11
   5  -4  -4 10159.5 412.272   5
  -5   4   4 11399.2 578.383   8
  -5   4   3 3386.58 396.375  11
  -5   4   3 3402.53 417.192   8
  -5   4   2 1383.81 316.421  11
  -5   4   2 1452.70 376.780   8
  -5   4   1 9929.43 484.557  11
  -5   4   1 10719.4 589.895   8
  -5   4   0 13321.6 512.337  11
  -5   4   0 14523.6 663.171   8
  -5   4  -1 9052.48 414.300  11
  -5   4  -1 9098.73 568.050   8
  -5   4  -1 9749.94 592.594   3
  -5   4  -2 5644.90 504.145   8
  -5   4  -2 4513.00 519.777   3
  -5   4  -3 189.221 435.582   3
  -5   4  -3-52.5981 344.218  10
  -5   4  -3 121.356 374.882   8
  -5   4  -4 183.114 345.454  10
  -5   4  -4-130.848 366.197   8
  -5   4  -4 77.1917 465.456   3
  -5   4  -5 5625.79 527.521   8
  -5   4  -5 5419.49 644.672   3
  -5   4  -6 4580.88 522.995   8
  -5   4  -6 4107.33 683.286   3
  -5   4  -7 2639.58 693.644   3
  -5   4  -8 8656.52 843.155   3
  -5   4  -9 2018.18 707.322   3
   5  -3 -13 415.435 588.099   3
   5  -3 -12 858.026 557.450   3
  -5   3  12 849.380 479.619  11
  -5   3  11 4235.31 584.901  11
   5  -3 -11 3733.34 591.601   3
  -5   3  10 4148.53 559.734  11
   5  -3 -10 3184.86 558.188   3
  -5   3   9 950.280 433.443  11
  -5   3   8 2307.10 473.315  11
  -5   3   7 6677.84 466.624   6
  -5   3   7 7804.68 584.897  11
  -5   3   6 7267.95 477.508   6
  -5   3   6 7695.13 568.543  11
  -5   3   5 10766.6 527.771   6
  -5   3   5 10861.6 595.166  11
   5  -3  -5 11498.3 847.950   1
  -5   3   5 11569.3 531.261   8
  -5   3   4 8359.72 508.328  11
   5  -3  -4 8860.36 754.470   1
  -5   3   4 9065.60 488.989   8
  -5   3   3 1642.64 316.308  11
  -5   3   3 1799.93 323.136   8
  -5   3   2 113.204 241.554  11
  -5   3   2 125.230 286.507   8
  -5   3   1 20513.6 685.546   8
  -5   3   1 19258.1 586.953  11
  -5   3   0 9742.59 415.708  11
  -5   3   0 9705.91 543.165   8
  -5   3   0 9143.91 500.156   3
  -5   3  -1 12756.5 618.416   8
  -5   3  -1 12078.3 571.216   3
  -5   3  -2 15661.9 680.767   8
  -5   3  -2 15381.2 665.290   3
  -5   3  -3 1819.06 353.382  10
  -5   3  -3 1352.09 404.856   8
  -5   3  -3 1754.39 450.647   3
  -5   3  -4 7790.46 521.804  10
  -5   3  -4 6315.01 533.465   8
  -5   3  -4 7402.42 611.911   3
  -5   3  -5 9192.89 627.763   8
  -5   3  -5 10508.9 725.332   3
  -5   3  -6 48.9070 388.858   8
  -5   3  -6 532.193 549.975   3
  -5   3  -7 7849.48 819.525   3
  -5   3  -8 14380.5 1004.52   3
  -5   3  -9 1344.80 683.026   3
   5  -2 -13 1119.57 590.284   4
  -5   2  12 1705.07 500.501  11
  -5   2  11 5787.31 607.636  11
   5  -2 -11 4893.16 570.503   3
  -5   2  10 2369.48 483.342  11
   5  -2 -10 1537.94 447.118   3
  -5   2   9 907.004 294.787   6
  -5   2   9 1103.53 441.816  11
   5  -2  -9 623.675 391.978   3
  -5   2   8 1002.44 310.157   6
  -5   2   8 1368.49 406.390  11
  -5   2   8 1547.87 426.707   7
  -5   2   7 11076.3 539.421   6
  -5   2   7 11441.8 620.865   7
  -5   2   6 7887.51 469.223   6
   5  -2  -6 6636.92 683.416   1
  -5   2   6 7225.96 404.446   8
  -5   2   6 7158.16 497.453   7
  -5   2   5 11462.1 530.998   6
  -5   2   5 11753.7 488.144   8
   5  -2  -5 11484.1 793.315   1
  -5   2   5 11756.3 547.018   7
  -5   2   4 5974.45 420.411   6
  -5   2   4 6296.62 388.180   8
  -5   2   4 5950.45 394.944   7
  -5   2   3 1984.87 326.314   6
  -5   2   3 2041.29 295.422   8
  -5   2   3 1891.29 273.178   7
  -5   2   2 20930.8 657.021   6
  -5   2   2 21500.3 654.569   8
  -5   2   1 9599.36 415.804  11
   5  -2  -1 8502.97 301.244   9
  -5   2   1 9941.51 498.289   8
  -5   2   0 5319.92 313.493  11
   5  -2   0 5064.36 288.024   9
  -5   2   0 6027.67 436.092   8
  -5   2   0 5517.90 392.808   3
  -5   2  -1 48766.2 1022.28   8
  -5   2  -1 49733.1 941.280   3
  -5   2  -2 35678.2 925.234   8
  -5   2  -2 37143.7 884.262   3
  -5   2  -3 3904.10 450.152   8
  -5   2  -3 3977.67 462.439   3
  -5   2  -4 4403.50 497.987   8
  -5   2  -4 5401.43 541.152   3
  -5   2  -5 6293.96 549.275   8
  -5   2  -5 6616.46 628.644   3
  -5   2  -6 3746.75 608.850   3
  -5   2  -6 3637.39 489.452   8
  -5   2  -7 150.178 568.269   3
  -5   2  -8 32.9085 635.358   3
  -5   2  -9 1468.67 677.131   3
   5  -1 -14 851.843 639.453   4
   5  -1 -13 2072.64 614.436   4
   5  -1 -12 1857.60 617.748   4
  -5   1  12 2263.97 508.781  11
  -5   1  11 2618.85 490.590  11
   5  -1 -11 2329.60 563.007   4
  -5   1  11 2040.14 500.904   7
  -5   1  10 224.627 452.066   7
  -5   1   9 1988.69 356.014   6
  -5   1   9 1835.12 482.112   7
  -5   1   8 6298.28 464.437   6
   5  -1  -8 6164.06 431.759   3
  -5   1   8 6516.33 566.809   7
  -5   1   7 1865.57 336.290   6
  -5   1   7 1555.32 410.106   7
  -5   1   6 12107.4 556.244   6
  -5   1   6 12329.9 447.118   8
  -5   1   6 12068.2 583.847   7
  -5   1   5 45979.6 955.617   6
  -5   1   5 43976.9 797.506   8
   5  -1  -5 46073.9 1374.60   2
  -5   1   5 45908.0 949.297   7
  -5   1   4 22496.9 687.689   6
  -5   1   4 21160.7 589.705   8
  -5   1   4 21511.1 625.867   7
  -5   1   3 12509.2 527.252   6
   5  -1  -3 11889.8 365.250   9
  -5   1   3 11745.0 478.762   8
   5  -1  -3 12832.5 768.183   2
  -5   1   3 12311.5 453.514   7
  -5   1   2 16286.0 565.728   6
   5  -1  -2 14528.6 395.151   9
  -5   1   2 16613.7 565.118   8
   5  -1  -2 15976.2 840.684   2
  -5   1   2 14628.5 446.194   7
  -5   1   1 22499.7 646.094   6
   5  -1  -1 21122.6 492.782   9
  -5   1   1 22771.3 677.453   8
  -5   1   1 20546.7 465.526   7
  -5   1   1 22442.1 535.590   3
  -5   1   0 21441.6 626.121   6
  -5   1   0 23011.2 693.039   8
  -5   1   0 21717.0 570.105   3
  -5   1  -1-9.49474 330.608   8
  -5   1  -1 505.683 271.189   3
  -5   1  -2 111.421 330.687   8
  -5   1  -2 179.456 285.243   3
  -5   1  -3 14492.7 657.530   8
  -5   1  -3 14441.8 640.332   3
  -5   1  -4 5311.61 518.732   8
  -5   1  -4 6429.44 553.429   3
  -5   1  -5 3645.54 502.190   8
  -5   1  -5 3772.12 548.631   3
  -5   1  -6 1513.58 559.231   3
  -5   1  -6 1969.24 449.956   8
  -5   1  -7 3799.35 652.646   3
  -5   1  -8 57.1683 550.127   3
  -5   1  -9 6676.60 834.995   3
   5   0 -14 692.644 634.056   4
   5   0 -13 542.382 611.144   4
  -5   0  13 387.400 486.778   7
   5   0 -12 5347.43 727.798   4
  -5   0  12 5385.06 654.051   7
  -5   0  11 6811.73 638.249   7
   5   0 -11 6418.11 664.876   4
   5   0 -10 4185.35 573.882   4
  -5   0  10 4983.79 458.029   6
  -5   0  10 5483.83 593.586   7
  -5   0   9 5382.02 453.875   6
  -5   0   9 5975.99 575.560   7
   5   0  -9 5067.47 536.263   4
  -5   0   8 4812.61 432.702   6
  -5   0   8 4969.99 524.315   7
   5   0  -8 4368.89 456.247   4
  -5   0   7 20303.4 764.884   7
   5   0  -7 19123.2 656.598   4
  -5   0   6 18834.7 689.888   7
   5   0  -6 18437.0 564.688   4
   5   0  -5 113.091 180.817   4
  -5   0   5 208.631 202.843   8
  -5   0   5 176.098 274.440   7
  -5   0   4 7233.25 439.889   6
   5   0  -4 6796.53 349.860   9
  -5   0   4 6626.84 367.290   8
  -5   0   4 7192.09 409.216   7
   5   0  -4 7851.28 649.766   2
  -5   0   3 24961.6 701.939   6
   5   0  -3 24374.8 560.390   9
  -5   0   3 23956.5 627.681   8
  -5   0   3 24537.2 608.581   7
   5   0  -3 26685.1 1061.51   2
  -5   0   2 13283.3 530.215   6
   5   0  -2 12672.0 428.566   9
  -5   0   2 11790.3 404.975   7
   5   0  -2 13824.8 815.538   2
  -5   0   1 26733.6 692.134   6
   5   0  -1 24842.9 592.030   9
  -5   0   1 24660.8 510.476   7
  -5   0   1 25137.6 500.872   3
   5   0  -1 27728.3 1079.10   2
  -5   0   0 505.295 228.586   6
   5   0   0 344.049 246.245   9
  -5   0   0 282.423 207.784   3
  -5   0  -1 24445.6 631.950   6
   5   0   1 24693.7 671.752   9
  -5   0  -1 24940.3 618.751   3
  -5   0  -2 1761.04 333.990   3
  -5   0  -3 25835.9 777.087   3
  -5   0  -4 3577.31 474.670   3
  -5   0  -5 5003.72 563.071   3
  -5   0  -6 3206.96 580.952   3
  -5   0  -6 3989.96 515.432   8
  -5   0  -7 367.716 521.313   3
  -5   0  -7-112.461 403.620   8
  -5   0  -8 897.860 588.724   3
  -5   0  -9 1849.92 702.326   3
   5   1 -14 177.246 644.800   4
  -5  -1  14 587.164 514.689   7
  -5  -1  13 5879.26 683.663   7
   5   1 -13 6834.89 820.504   4
   5   1 -12 2700.91 633.481   4
  -5  -1  12 2434.35 574.727   7
   5   1 -11 385.066 498.742   4
  -5  -1  11-44.8484 449.610   7
  -5  -1  10 7299.27 645.585   7
   5   1 -10 6082.08 620.269   4
  -5  -1   9 6103.26 586.789   7
   5   1  -9 5580.57 546.655   4
  -5  -1   8 10918.3 649.867   7
   5   1  -8 9322.12 557.672   4
  -5  -1   7 24899.5 823.765   7
   5   1  -7 21273.8 687.818   4
  -5  -1   6 3868.20 419.307   7
   5   1  -6 4018.89 336.715   4
  -5  -1   5 17026.5 494.848   8
  -5  -1   5 18342.9 630.524   7
   5   1  -5 16812.1 488.115   4
   5   1  -4 17270.1 561.754   9
  -5  -1   4 17127.2 572.414   7
   5   1  -3 29709.4 685.305   9
  -5  -1   3 28023.1 659.735   7
   5   1  -2 8385.45 414.074   9
  -5  -1   2 7425.77 350.715   7
  -5  -1   1 15947.1 556.431   6
   5   1  -1 14559.2 524.618   9
  -5  -1   0 4156.36 341.948   6
   5   1   0 4461.92 384.860   9
  -5  -1  -1 477.013 217.328   6
   5   1   1 432.720 307.682   9
  -5  -1  -1 318.225 215.369   3
   5   1   2 3831.00 434.365   9
  -5  -1  -2 3319.48 357.917   3
   5   1   3 7718.57 547.009   9
  -5  -1  -3 6509.73 472.177   3
  -5  -1  -4 16005.6 698.990   3
  -5  -1  -5 10494.8 660.888   3
  -5  -1  -6 1887.62 528.597   3
  -5  -1  -7 1614.25 571.935   3
  -5  -1  -8 1449.28 590.951   3
  -5  -1  -9 754.858 666.846   3
   5   2 -14 4837.66 771.906   4
  -5  -2  14 4490.89 677.280   7
   5   2 -13 2786.53 682.688   4
  -5  -2  13 3299.45 613.748   7
   5   2 -12 3558.18 642.494   4
  -5  -2  12 4260.76 622.123   7
   5   2 -11 638.221 502.346   4
  -5  -2  11 577.165 484.298   7
  -5  -2  10 8866.64 692.161   7
   5   2 -10 7127.24 656.808   4
  -5  -2   9 5902.98 577.842   7
   5   2  -9 4619.20 540.672   4
  -5  -2   8 4147.62 506.708   7
   5   2  -8 3677.63 451.528   4
  -5  -2   7 4049.63 468.798   7
   5   2  -7 3779.82 405.600   4
   5   2  -6 525.592 252.349   4
  -5  -2   6 386.943 319.746   7
   5   2  -5 339.247 212.844   4
   5   2  -5 367.188 290.049   9
  -5  -2   5 483.397 297.865   7
   5   2  -4 1520.88 318.698   9
  -5  -2   4 1569.30 295.219   7
   5   2  -3 22605.3 690.381   9
  -5  -2   3 22171.0 638.751   7
   5   2  -2 42127.6 872.818   9
  -5  -2   2 38289.9 754.551   7
   5   2  -1 14527.6 570.132   9
  -5  -2   1 13135.2 439.472   7
  -5  -2   0 8233.73 419.089   6
   5   2   0 8884.96 510.454   9
  -5  -2  -1 9652.69 427.365   6
   5   2   1 9954.91 562.413   9
   5   2   2 2565.44 461.911   9
   5   2   3 8334.63 607.750   9
  -5  -2  -3 7534.70 493.360   3
   5   2   4 8240.90 645.219   9
  -5  -2  -4 7071.25 562.500   3
  -5  -2  -5 180.279 431.447   3
   5   2   5 416.469 488.688   9
  -5  -2  -6 671.623 471.242   3
   5   2   6 1722.29 550.960   9
  -5  -2  -7 2679.75 612.535   3
   5   2   7 3355.49 623.133   9
  -5  -2  -8 743.485 594.598   3
   5   2   8 1883.20 597.806   9
  -5  -2  -9 1569.14 705.374   3
   5   3 -14 1366.40 651.673   4
  -5  -3  14 924.955 551.404   7
  -5  -3  13-48.2594 476.515   7
   5   3 -13 184.769 604.773   4
   5   3 -12 54.4000 489.339   4
  -5  -3  12-19.1959 504.580   7
   5   3 -11 163.179 507.282   4
  -5  -3  11 27.0729 448.497   7
   5   3 -10 42.2771 433.120   4
  -5  -3  10 333.651 439.362   7
  -5  -3   9 11732.9 737.811   7
   5   3  -9 10867.4 681.793   4
  -5  -3   8 18980.9 823.145   7
   5   3  -8 15403.4 714.107   4
  -5  -3   7 6775.22 555.215   7
   5   3  -7 5686.36 477.246   4
  -5  -3   6 16060.0 699.421   7
   5   3  -6 15756.2 593.881   4
   5   3  -5 6915.54 404.181   4
   5   3  -5 7013.23 514.781   9
  -5  -3   5 7319.66 489.955   7
   5   3  -4 2433.00 395.333   9
  -5  -3   4 2383.70 341.014   7
   5   3  -3 25238.3 773.516   9
  -5  -3   3 24018.5 699.395   7
   5   3  -2 13176.2 608.298   9
  -5  -3   2 12783.5 512.635   7
  -5  -3   1 1045.74 243.741   7
   5   3  -1 1037.62 352.741   9
   5   3   0 9356.61 564.441   9
   5   3   1 10369.9 616.091   9
   5   3   2 5218.64 548.083   9
   5   3   3 6207.21 611.332   9
   5   3   4 202.942 480.697   9
   5   3   5 417.405 513.460   9
   5   3   6 2996.34 634.196   9
   5   3   7 4381.76 691.233   9
   5   3   8 1317.29 638.739   9
  -5  -4  14 886.836 550.295   7
   5   4 -13 2598.85 676.915   4
  -5  -4  13 1790.80 552.222   7
   5   4 -12 4813.16 728.340   4
  -5  -4  12 5850.79 660.640   7
   5   4 -11 333.763 505.644   4
  -5  -4  11 513.684 488.306   7
   5   4 -10 1203.44 505.206   4
  -5  -4  10 1131.35 484.312   7
  -5  -4   9 17019.0 863.871   7
   5   4  -9 12967.0 750.427   4
  -5  -4   8 5545.95 587.271   7
   5   4  -8 3895.43 502.876   4
   5   4  -7 1836.83 390.234   4
  -5  -4   7 2249.25 464.598   7
   5   4  -6 11766.3 574.076   4
  -5  -4   6 13652.1 681.627   7
   5   4  -5 10293.5 632.208   9
  -5  -4   5 9470.04 575.183   7
   5   4  -4 6708.04 540.870   9
  -5  -4   4 5570.49 475.140   7
   5   4  -3 5783.60 534.201   9
  -5  -4   3 5322.75 443.172   7
  -5  -4   2 307.048 251.109   7
   5   4  -2 564.795 414.822   9
  -5  -4   1 956.576 278.189   7
   5   4  -1 1012.98 407.160   9
   5   4   0 8840.57 613.955   9
   5   4   1 8943.46 647.273   9
   5   4   2 5973.80 584.409   9
   5   4   3 4782.29 624.115   9
   5   4   4 1113.22 530.100   9
   5   4   5 243.735 530.862   9
   5   4   6 1326.36 603.290   9
   5   4   7 3918.12 679.757   9
   5   5 -13 1230.20 619.928   4
  -5  -5  13 2081.49 546.276   7
   5   5 -12 4561.53 704.228   4
  -5  -5  12 4254.10 630.192   7
   5   5 -11 2813.89 640.542   4
  -5  -5  11 3601.39 589.775   7
   5   5 -10 2010.27 554.639   4
  -5  -5  10 2870.72 582.376   7
   5   5  -9 376.359 459.943   4
  -5  -5   9 941.615 488.175   7
   5   5  -8 166.863 387.931   4
  -5  -5   8 81.9233 456.049   7
   5   5  -7 1393.37 428.257   4
  -5  -5   7 2131.52 480.116   7
  -5  -5   6 4737.75 539.443   7
   5   5  -5 7569.78 634.239   9
  -5  -5   5 7171.57 589.340   7
   5   5  -4 7638.99 624.292   9
  -5  -5   4 7842.90 561.548   7
   5   5  -3 5514.79 582.359   9
  -5  -5   3 4113.80 454.430   7
  -5  -5   2 1034.38 335.182   7
   5   5  -2 1103.68 467.659   9
  -5  -5   1 534.311 312.911   7
   5   5  -1 541.745 465.902   9
   5   5   0 7498.33 643.674   9
   5   5   1 10912.7 739.622   9
   5   5   2 1019.65 512.255   9
   5   5   3 540.800 541.606   9
   5   5   4 3067.90 643.634   9
   5   5   5 804.969 543.567   9
   5   5   6 308.431 537.073   9
   5   5   7 726.079 616.698   9
   5   6 -13 1243.32 655.453   4
  -5  -6  13 638.784 530.467   7
   5   6 -12 1791.96 616.191   4
  -5  -6  12 1719.09 579.094   7
   5   6 -11 2351.18 634.175   4
  -5  -6  11 3142.00 607.538   7
   5   6 -10 1726.88 546.785   4
  -5  -6  10 2279.94 561.165   7
   5   6  -9 735.196 490.086   4
  -5  -6   9 529.631 507.482   7
  -5  -6   8 341.639 462.022   7
  -5  -6   7 1175.66 496.110   7
  -5  -6   6 5958.80 604.766   7
   5   6  -5 8608.31 701.300   9
  -5  -6   5 7186.78 634.385   7
  -5  -6   4 1551.87 439.471   7
   5   6  -4 1413.57 524.089   9
  -5  -6   3 2786.66 469.900   7
   5   6  -3 3744.60 566.778   9
   5   6  -2 7187.43 695.715   9
  -5  -6   2 6108.93 536.842   7
  -5  -6   1 718.072 345.211   7
   5   6  -1 1277.26 554.010   9
   5   6   0 765.379 514.115   9
   5   6   1 2977.59 604.847   9
   5   6   2 2494.78 608.504   9
   5   6   3 1842.47 592.717   9
   5   6   4 1572.34 583.586   9
   5   6   5 1623.73 619.240   9
   5   6   6 475.564 578.470   9
   5   7 -12 896.047 610.544   4
  -5  -7  12 1323.56 539.977   7
   5   7 -11 1604.23 610.838   4
  -5  -7  11 2036.59 530.541   7
  -5  -7  10 969.291 541.237   7
  -5  -7   9 3177.11 621.173   7
  -5  -7   8 2423.34 601.513   7
  -5  -7   7 399.738 461.139   7
  -5  -7   6 884.607 509.729   7
  -5  -7   5 2757.42 547.418   7
   5   7  -5 2733.20 636.068   9
  -5  -7   4 3267.37 530.204   7
   5   7  -4 3106.56 614.695   9
  -5  -7   3 1974.82 471.909   7
   5   7  -3 2812.08 602.411   9
   5   7  -2 4630.58 670.404   9
  -5  -7   2 4017.41 532.300   7
  -5  -7   1 860.389 403.192   7
   5   7  -1 1219.06 586.833   9
   5   7   0 192.610 565.806   9
   5   7   1 10747.5 859.673   9
   5   7   2 10959.0 851.207   9
   5   7   3 170.656 557.853   9
   5   7   4 868.662 593.534   9
   5   7   5 3265.30 716.696   9
  -5  -8  11 1457.62 588.887   7
  -5  -8  10 1112.81 574.481   7
  -5  -8   9 2414.28 608.998   7
  -5  -8   8 2193.52 614.741   7
  -5  -8   7 104.314 482.190   7
  -5  -8   6 257.065 472.615   7
   5   8  -5 13872.8 944.342   9
  -5  -8   5 10288.0 797.946   7
   5   8  -4 7355.96 776.108   9
  -5  -8   4 5664.15 650.293   7
  -5  -8   3-33.2074 458.156   7
   5   8  -3-23.0349 573.867   9
  -5  -8   2 1880.64 521.576   7
   5   8  -2 2600.94 667.330   9
  -5  -8   1 4397.53 550.320   7
   5   8  -1 5205.86 776.322   9
   5   8   0 2450.45 692.812   9
   5   8   1 4930.82 739.498   9
   5   8   2 2302.83 666.316   9
   5   8   3 457.251 611.605   9
  -5  -9  10 1039.36 609.154   7
  -5  -9   9-25.6472 546.647   7
  -5  -9   8 1891.26 604.241   7
  -5  -9   7 2354.04 618.027   7
  -5  -9   6 2963.24 642.737   7
  -5  -9   5 4382.24 675.546   7
   5   9  -5 4100.33 753.607   9
  -5  -9   4 2241.48 609.502   7
   5   9  -4 2508.72 722.209   9
  -5  -9   3 2728.50 600.104   7
   5   9  -3 3003.64 680.031   9
  -5  -9   2 889.302 505.538   7
   5   9  -2 991.368 613.642   9
   5   9  -1 289.467 574.158   9
   5   9   0 1025.40 627.393   9
   5   9   1 519.448 617.449   9
   5   9   2 1367.31 632.472   9
  -5 -10   8 79.2530 546.183   7
  -5 -10   7 786.260 612.378   7
  -5 -10   6 888.236 592.870   7
  -5 -10   5 372.750 584.557   7
  -5 -10   4 1980.38 625.281   7
   5  10  -4 2290.55 721.343   9
  -5 -10   3 206.939 551.108   7
   5  10  -3-36.2048 600.931   9
  -5 -10   2 299.394 576.878   7
   5  10  -2 1232.32 643.786   9
   5  10  -1 293.699 612.299   9
   5  10   0 1892.52 655.355   9
  -6  11   4 341.231 678.431  10
  -6  11   3-347.176 639.609  10
  -6  11   2 1499.04 690.404  10
  -6  11   1 1120.54 657.788  10
  -6  11   0-53.5837 679.108  10
  -6  11  -1 691.954 730.666  10
  -6  11  -2 2048.88 766.361  10
  -6  10   6 182.074 595.893  11
  -6  10   5 695.454 581.893  11
  -6  10   4 1534.49 619.242  11
  -6  10   4 913.702 607.652  10
  -6  10   3 1134.68 606.631  10
  -6  10   2 596.764 600.875  10
  -6  10   1 2213.39 674.345  10
  -6  10   0 9383.15 936.826  10
  -6  10  -1 2725.00 744.870  10
  -6  10  -2 750.503 682.169  10
  -6  10  -3 2206.29 722.722  10
  -6  10  -4 962.312 710.384  10
  -6  10  -5 450.579 727.592  10
  -6   9   8 446.591 558.457  11
  -6   9   7 3053.11 689.681  11
  -6   9   6 5618.69 750.183  11
  -6   9   5 1091.17 596.981  11
  -6   9   5 1624.87 598.520  10
  -6   9   4 1133.21 580.369  11
  -6   9   4 1334.43 572.422  10
  -6   9   3 2636.75 663.162  10
  -6   9   3 2496.78 608.197  11
  -6   9   2 996.985 527.102  11
  -6   9   2 1169.13 596.203  10
  -6   9   1 4464.20 754.501  10
  -6   9   0 8883.81 904.260  10
  -6   9  -1 1313.64 656.079  10
  -6   9  -2 99.2218 599.936  10
  -6   9  -3 2546.23 725.736  10
  -6   9  -4 3686.54 773.901  10
  -6   9  -5 2293.16 694.048  10
  -6   9  -6 757.815 738.416  10
  -6   8   9 1040.02 586.442  11
  -6   8   8 1337.07 569.230  11
  -6   8   7 5499.12 719.952  11
  -6   8   6 5975.10 733.692  11
  -6   8   6 5460.05 667.527  10
  -6   8   5 507.880 543.168  11
  -6   8   5 891.245 530.520  10
  -6   8   4 825.015 514.847  11
  -6   8   4 603.830 522.248  10
  -6   8   3 4780.62 642.244  11
  -6   8   3 4330.93 672.011  10
  -6   8   2 4074.08 589.175  11
  -6   8   2 4280.54 695.292  10
  -6   8   1 2092.30 519.206  11
  -6   8   1 1623.05 599.772  10
  -6   8   0 3278.45 516.683  11
  -6   8   0 4346.48 720.232  10
  -6   8  -1 2440.02 683.290  10
  -6   8  -2 407.664 582.133  10
  -6   8  -3 3052.39 692.736  10
  -6   8  -3 3286.29 633.423   8
  -6   8  -4 5870.42 779.671  10
  -6   8  -4 4837.37 661.248   8
  -6   8  -5 1851.12 661.456  10
  -6   8  -5 2112.14 720.658   3
  -6   8  -5 2034.97 613.642   8
  -6   8  -6 1105.08 690.418   3
  -6   7  10 1401.09 573.380  11
  -6   7   9 2667.58 599.691  11
  -6   7   8 1159.24 568.343  11
  -6   7   7 1262.70 525.414  11
  -6   7   6 4041.43 625.659  11
  -6   7   5 2053.60 552.115  11
  -6   7   4 264.188 446.807  11
  -6   7   3 6624.94 660.631  10
  -6   7   3 6192.31 617.139  11
  -6   7   2 8823.45 667.178  11
  -6   7   2 8851.70 755.635  10
  -6   7   1 3103.80 616.530  10
  -6   7   1 3848.54 615.237   8
  -6   7   1 3211.01 487.908  11
  -6   7   0 3385.91 479.069  11
  -6   7   0 3830.84 622.983  10
  -6   7   0 2805.37 590.466   8
  -6   7  -1 2869.32 607.867  10
  -6   7  -1 3550.20 601.344   8
  -6   7  -2 2169.71 620.088  10
  -6   7  -2 1893.49 557.644   8
  -6   7  -3 991.268 574.971  10
  -6   7  -3 678.800 510.530   8
  -6   7  -4-97.2181 536.608  10
  -6   7  -4-71.3930 606.822   3
  -6   7  -4 158.722 491.727   8
  -6   7  -5 1258.67 622.962  10
  -6   7  -5 1448.25 658.999   3
  -6   7  -5 1707.15 553.509   8
  -6   7  -6 3542.60 777.159   3
  -6   7  -7 1042.89 657.467   3
  -6   6  11 726.652 578.057  11
  -6   6  10 322.898 498.902  11
  -6   6   9 3594.35 623.102  11
  -6   6   8 3055.72 591.220  11
  -6   6   7 1543.49 533.325  11
  -6   6   6 3074.62 579.078  11
  -6   6   5 5775.87 617.597  11
  -6   6   4 4588.10 563.324  11
  -6   6   3 440.496 400.748  11
  -6   6   3 385.399 448.831   8
  -6   6   2 1011.27 394.976  11
  -6   6   2 788.448 501.098   8
  -6   6   1 7567.28 557.107  11
  -6   6   1 7737.77 674.534   8
  -6   6   0 6167.02 497.487  11
  -6   6   0 7234.61 681.932  10
  -6   6   0 7380.12 664.604   8
  -6   6  -1 2461.69 549.576  10
  -6   6  -1 3042.22 559.125   8
  -6   6  -2 373.613 494.027  10
  -6   6  -2-100.510 529.381   3
  -6   6  -2 278.143 463.507   8
  -6   6  -3 257.650 491.052  10
  -6   6  -3 305.020 561.971   3
  -6   6  -3-74.7161 470.197   8
  -6   6  -4 2077.07 632.573   3
  -6   6  -4 1666.24 550.345  10
  -6   6  -4 2139.96 533.778   8
  -6   6  -5 3678.56 725.991   3
  -6   6  -5 4267.54 631.990   8
  -6   6  -6 1634.44 683.096   3
  -6   6  -6 1271.31 519.152   8
  -6   6  -7 6825.20 868.341   3
  -6   6  -8 3355.47 794.385   3
  -6   5  12 1335.35 564.082  11
   6  -5 -12 995.706 623.715   3
  -6   5  11 2914.76 587.782  11
   6  -5 -11 2192.93 602.059   3
  -6   5  10 1068.04 534.352  11
  -6   5   9 495.854 506.931  11
  -6   5   8 2281.14 530.667  11
  -6   5   7 5345.61 626.290  11
  -6   5   6 4820.89 601.731  11
  -6   5   5 4318.28 554.535  11
  -6   5   4-72.7289 401.903  11
  -6   5   4 174.588 388.893   8
  -6   5   3 602.730 385.172  11
  -6   5   3 750.922 431.976   8
  -6   5   2 6231.01 495.281  11
  -6   5   2 6124.07 590.933   8
  -6   5   1 6513.32 475.069  11
  -6   5   1 6194.12 604.783   8
  -6   5   0 4420.54 422.519  11
  -6   5   0 4683.77 590.043   8
  -6   5  -1 16255.0 808.896   8
  -6   5  -2 4559.57 582.575  10
  -6   5  -2 4175.45 605.780   3
  -6   5  -2 3962.88 580.483   8
  -6   5  -3 2129.59 592.782   3
  -6   5  -3 2231.02 509.643  10
  -6   5  -3 2307.30 528.929   8
  -6   5  -4 8373.17 676.048  10
  -6   5  -4 8355.24 684.766   8
  -6   5  -4 8314.59 753.739   3
  -6   5  -5 1024.21 582.383   3
  -6   5  -5 1115.46 464.833   8
  -6   5  -6 1395.61 619.526   3
  -6   5  -6 1767.20 516.176   8
  -6   5  -7 11066.8 971.880   3
  -6   5  -8 3235.14 809.516   3
  -6   4  12 1812.93 561.019  11
  -6   4  11 2487.78 578.696  11
  -6   4  10 166.287 479.241  11
  -6   4   9 133.072 460.480  11
  -6   4   8 4861.27 608.341  11
  -6   4   7 3438.69 549.661  11
  -6   4   6 5845.78 589.468  11
  -6   4   5 8480.29 616.585  11
  -6   4   5 7672.67 539.023   8
  -6   4   4 906.057 378.737  11
  -6   4   4 1174.70 384.391   8
  -6   4   3 8015.90 545.103  11
  -6   4   3 7997.93 567.162   8
  -6   4   2 9751.54 549.337  11
  -6   4   2 10370.2 625.313   8
  -6   4   1 1490.67 450.807   8
  -6   4   1 1683.27 331.895  11
  -6   4   0 18777.3 623.813  11
  -6   4   0 19730.9 829.641   8
  -6   4  -1 36601.0 1068.46   8
  -6   4  -1 38212.4 1049.38   3
  -6   4  -2 5319.57 572.939   8
  -6   4  -2 5432.21 592.288   3
  -6   4  -3 1800.38 512.128   3
  -6   4  -3 2329.25 465.696  10
  -6   4  -3 2393.68 494.149   8
  -6   4  -4 5408.77 585.232   8
  -6   4  -4 5112.86 647.444   3
  -6   4  -5 3623.10 656.938   3
  -6   4  -5 3811.40 556.626   8
  -6   4  -6 792.113 463.190   8
  -6   4  -6 609.994 592.658   3
  -6   4  -7 899.616 646.246   3
  -6   4  -8 411.513 634.362   3
   6  -3 -13 803.392 610.046   4
  -6   3  12 2001.58 565.523  11
  -6   3  11 840.469 494.422  11
  -6   3  10 596.712 464.775  11
  -6   3   9 4534.88 588.014  11
  -6   3   8 1353.34 385.646   6
  -6   3   8 1321.79 483.010  11
  -6   3   7 2181.95 415.018   6
  -6   3   7 2550.86 492.527  11
  -6   3   6 24441.8 839.616   6
  -6   3   6 24732.9 910.838  11
  -6   3   6 22698.5 744.978   8
  -6   3   5 21588.7 790.750   6
  -6   3   5 22756.2 831.577  11
  -6   3   5 22411.8 761.931   8
  -6   3   4 6966.92 509.007  11
  -6   3   4 6627.78 504.509   8
  -6   3   3 6499.14 481.906  11
  -6   3   3 7481.79 513.173   8
  -6   3   2 11180.2 539.419  11
  -6   3   2 11258.9 600.693   8
  -6   3   1 16810.9 600.669  11
  -6   3   1 16896.4 719.707   8
  -6   3   0 1755.23 383.129   3
  -6   3   0 1750.54 459.850   8
  -6   3  -1 719.540 385.967   3
  -6   3  -1 828.030 425.417   8
  -6   3  -2 6619.15 591.289   8
  -6   3  -2 6736.87 563.814   3
  -6   3  -3 9060.16 664.071   8
  -6   3  -3 10143.6 679.996   3
  -6   3  -4 2169.54 518.524   8
  -6   3  -4 2377.70 537.802   3
  -6   3  -5 2660.30 520.171   8
  -6   3  -5 2802.34 585.215   3
  -6   3  -6 323.925 423.537   8
  -6   3  -6 653.107 580.887   3
  -6   3  -7 1856.32 667.507   3
  -6   3  -8 2669.44 734.590   3
   6  -2 -13 1579.90 579.636   4
  -6   2  13 2105.78 549.368  11
  -6   2  12 6244.91 702.879  11
   6  -2 -12 4987.04 679.374   4
  -6   2  11 4851.97 617.009  11
  -6   2  10 3844.73 565.686  11
  -6   2   9 2304.17 404.821   6
  -6   2   9 3048.45 516.124  11
  -6   2   9 2172.88 497.794   7
  -6   2   8 8615.12 569.510   6
  -6   2   8 8259.94 634.787   7
  -6   2   7 16462.6 702.928   6
  -6   2   7 16513.9 737.198   7
  -6   2   6 677.016 354.051   6
  -6   2   6 533.776 271.343   8
  -6   2   6 550.830 353.339   7
  -6   2   5 409.368 363.491   6
  -6   2   5 169.415 289.022   8
  -6   2   5 364.832 307.778   7
  -6   2   4 17413.1 710.595   6
  -6   2   4 16179.5 627.632   8
  -6   2   4 15276.7 595.301   7
  -6   2   3 9305.61 569.715   6
  -6   2   3 8495.63 522.000   8
  -6   2   2 10940.2 588.835   6
  -6   2   2 10587.4 578.237   8
  -6   2   1 6462.80 395.076  11
  -6   2   1 6491.27 521.898   8
  -6   2   0 11859.4 649.275   8
  -6   2   0 10936.4 529.115   3
  -6   2  -1 1823.11 373.027   3
   6  -2   1 1507.12 291.866   9
  -6   2  -1 1878.27 454.171   8
  -6   2  -2 21924.6 851.756   8
  -6   2  -2 19010.0 736.890   3
  -6   2  -3 8375.30 643.599   8
  -6   2  -3 8414.15 600.042   3
  -6   2  -4 3420.54 551.107   8
  -6   2  -4 4388.80 574.348   3
  -6   2  -5 7394.78 645.839   8
  -6   2  -5 6428.68 653.860   3
  -6   2  -6 130.652 426.622   8
  -6   2  -6 395.069 527.808   3
  -6   2  -7 247.901 567.609   3
  -6   2  -8 1623.98 668.582   3
   6  -1 -13 2688.15 630.487   4
  -6   1  13 3143.84 598.428  11
   6  -1 -12 88.7165 513.750   4
  -6   1  12 5.35984 463.428  11
   6  -1 -11 1766.62 544.827   4
  -6   1  11 1715.13 498.520  11
  -6   1  11 2305.73 553.318   7
  -6   1  10 6297.15 514.697   6
  -6   1  10 5913.40 652.978   7
   6  -1 -10 5452.65 578.653   4
  -6   1   9 3481.78 447.025   6
   6  -1  -9 2418.67 468.763   4
  -6   1   9 3964.49 577.986   7
  -6   1   8 12993.1 666.662   6
  -6   1   8 14008.2 753.404   7
  -6   1   7 357.319 358.619   6
  -6   1   7 591.501 393.455   7
  -6   1   6 18103.5 737.863   6
  -6   1   6 16617.6 577.879   8
  -6   1   6 16604.4 692.048   7
  -6   1   5 398.980 364.988   6
  -6   1   5 734.206 272.543   8
  -6   1   5 122.338 290.117   7
  -6   1   4 25465.5 818.421   6
  -6   1   4 24944.0 730.502   8
  -6   1   4 24354.3 714.677   7
  -6   1   3 9126.19 549.364   6
  -6   1   3 9056.52 509.806   8
  -6   1   3 8070.76 429.948   7
  -6   1   2 8849.21 541.983   6
   6  -1  -2 8632.28 389.793   9
  -6   1   2 9214.09 532.571   8
  -6   1   2 8022.46 386.815   7
  -6   1   1 8567.54 509.266   6
   6  -1  -1 7480.35 387.513   9
  -6   1   1 8346.33 549.186   8
  -6   1   0 860.488 279.722   3
   6  -1   0 1102.95 271.274   9
  -6   1   0 1029.52 391.059   8
  -6   1  -1 2290.05 358.981   3
   6  -1   1 1908.64 335.731   9
  -6   1  -1 2346.12 453.076   8
   6  -1   2 3444.87 411.402   9
  -6   1  -2 4389.36 522.068   8
  -6   1  -2 4192.25 443.671   3
  -6   1  -3 11881.3 725.324   8
  -6   1  -3 11480.5 643.377   3
  -6   1  -4 16842.7 823.329   8
  -6   1  -4 15270.4 764.298   3
  -6   1  -5 3307.97 560.587   8
  -6   1  -5 2834.97 561.638   3
  -6   1  -6 802.449 487.151   8
  -6   1  -6 520.025 512.029   3
  -6   1  -7 1704.54 632.127   3
  -6   1  -8 1500.24 636.836   3
   6   0 -14 3023.44 715.168   4
   6   0 -13-49.9532 540.397   4
  -6   0  13 257.649 477.707  11
  -6   0  13 86.8185 517.114   7
   6   0 -12 2818.91 598.880   4
  -6   0  12 2909.67 613.945   7
   6   0 -11 1416.83 510.687   4
  -6   0  11 2054.59 564.187   7
  -6   0  10 5539.31 527.021   6
  -6   0  10 4822.52 633.061   7
   6   0 -10 4765.56 588.760   4
   6   0  -9 2289.25 459.663   4
  -6   0   9 2922.69 450.736   6
  -6   0   9 2578.07 538.919   7
   6   0  -8 2958.64 404.881   4
  -6   0   8 4023.12 488.035   6
  -6   0   8 3735.95 541.124   7
  -6   0   7 1436.00 400.034   6
  -6   0   7 1776.25 427.224   7
  -6   0   6 1170.67 398.031   6
  -6   0   6 982.560 255.642   8
  -6   0   6 953.958 371.142   7
  -6   0   5 538.153 391.772   6
  -6   0   5 535.106 258.961   8
  -6   0   5 678.941 319.829   7
  -6   0   4 6734.21 511.838   6
   6   0  -4 6121.82 379.547   9
  -6   0   4 6234.17 431.333   8
  -6   0   4 6917.00 444.912   7
  -6   0   3 33798.1 904.494   6
   6   0  -3 32017.0 711.723   9
  -6   0   3 32596.0 832.489   8
  -6   0   3 31281.9 737.066   7
  -6   0   2 21051.7 717.919   6
   6   0  -2 19578.3 585.639   9
  -6   0   2 20503.8 705.782   8
  -6   0   2 19520.7 554.202   7
  -6   0   1 6607.06 459.071   6
   6   0  -1 5715.20 398.723   9
  -6   0   0 8215.80 477.967   6
   6   0   0 7243.42 449.300   9
   6   0   1 4908.74 446.306   9
   6   0   2 5065.18 482.459   9
   6   0   3 8481.86 593.991   9
  -6   0  -3 7463.45 542.399   3
   6   0   4 814.126 455.490   9
  -6   0  -4 615.843 422.754   3
  -6   0  -4 783.346 471.464   8
  -6   0  -5 267.890 468.109   3
  -6   0  -5 680.989 447.895   8
  -6   0  -6 2884.08 629.528   3
  -6   0  -6 3660.08 597.984   8
  -6   0  -7 1542.23 590.115   3
  -6   0  -8 1755.04 675.384   3
   6   1 -14 0.00000 615.524   4
  -6  -1  14 547.066 531.798   7
   6   1 -13-720.536 569.078   4
  -6  -1  13-20.9032 539.532   7
   6   1 -12-92.2684 537.633   4
  -6  -1  12-131.489 513.240   7
   6   1 -11-88.1354 451.570   4
  -6  -1  11 278.055 372.412   6
  -6  -1  11-28.7231 491.466   7
   6   1 -10 2722.90 519.945   4
  -6  -1  10 3788.76 496.000   6
  -6  -1  10 3678.95 613.355   7
  -6  -1   9 18759.6 882.624   7
   6   1  -9 15071.6 724.508   4
  -6  -1   8 7672.70 635.159   7
   6   1  -8 6307.37 489.977   4
  -6  -1   7 8118.36 583.285   7
  -6  -1   6 11337.5 606.598   7
   6   1  -5 1843.76 332.675   9
  -6  -1   5 2327.64 312.655   8
  -6  -1   5 1996.21 369.301   7
   6   1  -4 11710.2 525.961   9
  -6  -1   4 10207.1 504.963   8
  -6  -1   4 11330.2 522.959   7
  -6  -1   3 16794.9 676.694   6
   6   1  -3 16785.7 606.878   9
  -6  -1   3 14829.4 539.300   7
  -6  -1   2 1314.93 348.768   6
   6   1  -2 1352.17 319.097   9
  -6  -1   2 1234.06 244.828   7
  -6  -1   1 4435.07 411.607   6
   6   1  -1 4054.51 411.799   9
  -6  -1   0 10009.7 504.483   6
   6   1   0 10522.6 563.281   9
  -6  -1  -1 3635.17 359.257   6
   6   1   1 4251.11 476.209   9
   6   1   2 6577.08 570.838   9
   6   1   3 2015.70 486.588   9
   6   1   4 230.304 465.687   9
   6   1   5 1405.94 520.868   9
   6   1   6 5752.06 667.818   9
   6   1   7 2985.69 624.068   9
  -6  -1  -7 2606.50 555.124   8
   6   2 -14 1322.91 615.937   4
  -6  -2  14 956.640 541.932   7
   6   2 -13 3526.82 676.399   4
  -6  -2  13 3409.43 664.198   7
   6   2 -12 1458.82 558.739   4
  -6  -2  12 1412.79 565.782   7
   6   2 -11 347.162 463.472   4
  -6  -2  11 185.152 488.745   7
  -6  -2  10 7860.36 725.717   7
   6   2 -10 6480.79 610.984   4
  -6  -2   9 7774.89 650.890   7
   6   2  -9 6319.88 569.058   4
  -6  -2   8 888.003 428.565   7
  -6  -2   7 7375.24 581.166   7
  -6  -2   6 9829.61 583.812   7
   6   2  -5 6130.15 483.107   9
  -6  -2   5 5501.12 459.563   7
   6   2  -4 7913.60 519.006   9
  -6  -2   4 7424.58 468.007   7
   6   2  -3 1520.84 380.198   9
  -6  -2   3 1475.36 296.927   7
   6   2  -2-90.7547 319.933   9
  -6  -2   2 80.5457 216.354   7
  -6  -2   1 5211.15 424.918   6
   6   2  -1 5322.70 476.380   9
  -6  -2   0 9857.83 516.077   6
   6   2   0 10837.4 611.028   9
   6   2   1 5960.48 549.003   9
   6   2   2 4871.17 556.143   9
   6   2   3 3255.65 541.649   9
   6   2   4 387.939 473.385   9
   6   2   5 436.967 516.080   9
   6   2   6 4695.99 679.158   9
   6   2   7 1190.90 605.934   9
   6   3 -13 2949.96 675.202   4
  -6  -3  13 1959.68 582.666   7
   6   3 -12 2777.82 581.873   4
  -6  -3  12 2775.77 624.685   7
   6   3 -11 2708.65 544.807   4
  -6  -3  11 3001.40 579.797   7
   6   3 -10 1037.94 429.859   4
  -6  -3  10 949.415 498.102   7
   6   3  -9 178.350 372.821   4
  -6  -3   9 251.397 455.221   7
  -6  -3   8 902.977 430.555   7
  -6  -3   7 3780.68 498.013   7
  -6  -3   6 5458.93 518.172   7
   6   3  -5 6916.03 550.313   9
  -6  -3   5 7197.95 536.544   7
   6   3  -4 7684.59 566.047   9
  -6  -3   4 7274.06 492.878   7
   6   3  -3 3930.32 487.331   9
  -6  -3   3 3269.42 365.676   7
   6   3  -2 485.777 393.234   9
  -6  -3   2 297.344 247.246   7
   6   3  -1 3096.42 494.001   9
  -6  -3   0 12278.3 571.659   6
   6   3   0 13762.2 721.011   9
   6   3   1 2364.95 503.155   9
   6   3   2-148.070 467.439   9
   6   3   3 3330.01 592.461   9
   6   3   4 2841.04 591.839   9
   6   3   5 620.553 565.671   9
   6   3   6 1018.47 575.672   9
   6   4 -13 897.657 613.017   4
  -6  -4  13 1179.33 586.413   7
   6   4 -12 1493.20 524.832   4
  -6  -4  12 2172.80 580.624   7
   6   4 -11 2089.68 564.838   4
  -6  -4  11 2504.18 585.617   7
   6   4 -10 1423.61 462.249   4
  -6  -4  10 1940.49 552.131   7
  -6  -4   9 608.757 471.135   7
  -6  -4   8 32.6590 437.315   7
  -6  -4   7 4539.07 535.616   7
   6   4  -6 11217.8 693.711   9
  -6  -4   6 10097.3 655.211   7
   6   4  -5 2049.34 488.537   9
  -6  -4   5 2231.03 424.141   7
   6   4  -4 1098.98 461.645   9
  -6  -4   4 1893.52 376.724   7
   6   4  -3 10060.7 690.022   9
  -6  -4   3 8064.89 516.285   7
   6   4  -2 3800.64 553.939   9
  -6  -4   2 3003.85 380.370   7
   6   4  -1 469.281 458.133   9
   6   4   0 1570.00 503.656   9
   6   4   1 4554.92 602.597   9
   6   4   2 3641.49 600.248   9
   6   4   3 913.777 550.848   9
   6   4   4 1599.54 618.025   9
   6   4   5 1428.04 601.522   9
   6   4   6 2400.44 652.653   9
   6   5 -13 923.223 644.149   4
  -6  -5  13 982.627 537.872   7
   6   5 -12 1317.53 615.906   4
  -6  -5  12 1457.33 539.457   7
   6   5 -11 842.564 505.148   4
  -6  -5  11 334.549 492.086   7
   6   5 -10 1972.19 531.624   4
  -6  -5  10 2332.19 601.616   7
  -6  -5   9 5033.19 647.521   7
  -6  -5   8 1353.10 502.599   7
  -6  -5   7 125.072 448.785   7
   6   5  -6 2585.71 566.253   9
  -6  -5   6 2481.61 501.752   7
   6   5  -5 5333.53 617.032   9
  -6  -5   5 5910.17 569.258   7
  -6  -5   4 2405.90 439.082   7
   6   5  -4 2528.00 544.048   9
  -6  -5   3 2702.07 412.460   7
   6   5  -3 3289.15 576.284   9
   6   5  -2 3188.84 583.445   9
   6   5  -1 402.167 500.835   9
   6   5   0 5412.80 678.782   9
   6   5   1 20511.1 969.813   9
   6   5   2 2407.82 606.494   9
   6   5   3 232.255 578.577   9
   6   5   4 3792.85 693.983   9
   6   5   5 1591.23 610.329   9
   6   6 -12 584.231 625.489   4
  -6  -6  12 805.606 530.441   7
   6   6 -11 1285.81 550.402   4
  -6  -6  11 1825.74 561.632   7
  -6  -6  10 1414.94 542.037   7
  -6  -6   9 2583.38 601.880   7
  -6  -6   8 725.163 511.244   7
  -6  -6   7 249.192 455.105   7
   6   6  -6 10406.8 797.301   9
  -6  -6   6 8684.86 712.341   7
   6   6  -5 17958.6 920.898   9
  -6  -6   5 13846.9 789.286   7
  -6  -6   4 572.307 403.267   7
   6   6  -4 548.109 537.538   9
  -6  -6   3 1084.01 401.379   7
   6   6  -3 1211.12 580.574   9
   6   6  -2 8311.73 769.031   9
   6   6  -1 3393.40 669.010   9
   6   6   0 4922.76 699.166   9
   6   6   1 3726.07 685.294   9
   6   6   2 1409.91 627.583   9
   6   6   3 2174.68 641.945   9
   6   6   4 283.147 600.627   9
  -6  -7  11 3377.20 686.917   7
  -6  -7  10 56.4280 521.379   7
  -6  -7   9 1422.97 586.742   7
  -6  -7   8 3348.27 625.921   7
  -6  -7   7 2942.29 607.459   7
   6   7  -6 6489.46 758.978   9
  -6  -7   6 5073.63 663.756   7
  -6  -7   5 3845.84 588.486   7
   6   7  -5 4467.82 692.069   9
  -6  -7   4 3686.39 552.899   7
   6   7  -4 5029.47 717.179   9
  -6  -7   3 2468.99 500.844   7
   6   7  -3 2699.42 666.661   9
   6   7  -2-119.957 573.527   9
   6   7  -1-55.1987 608.431   9
   6   7   0 1357.75 634.090   9
   6   7   1 906.653 622.640   9
   6   7   2 883.074 620.279   9
   6   7   3 59.6020 593.500   9
  -6  -8  10 2196.02 649.574   7
  -6  -8   9 860.337 518.458   7
  -6  -8   8 331.355 548.789   7
  -6  -8   7 624.544 550.776   7
  -6  -8   6 1027.60 541.821   7
  -6  -8   5 1906.97 546.489   7
   6   8  -5 2262.44 647.599   9
  -6  -8   4 2244.99 532.930   7
   6   8  -4 2413.20 667.303   9
  -6  -8   3 764.519 460.030   7
   6   8  -3 852.826 613.946   9
   6   8  -2 331.516 605.801   9
   6   8  -1 3135.06 692.529   9
   6   8   0 445.685 604.729   9
   6   8   1 735.900 610.616   9
   6   8   2 906.555 651.724   9
  -6  -9   8 134.153 542.539   7
  -6  -9   7 1747.69 660.245   7
  -6  -9   6 184.996 550.725   7
  -6  -9   5 220.995 531.881   7
   6   9  -5 825.421 656.778   9
  -6  -9   4 18.9710 545.488   7
   6   9  -4 122.028 603.441   9
  -6  -9   3 196.809 558.596   7
   6   9  -3 1052.15 649.894   9
   6   9  -2 12889.2 983.992   9
   6   9  -1 4121.68 779.133   9
  -6 -10   5 738.844 634.634   7
  -6 -10   4 1037.47 644.962   7
  -7  10   5 219.522 609.691  11
  -7  10   5 221.319 663.875  10
  -7  10   4 1466.84 622.713  11
  -7  10   4 1544.58 668.654  10
  -7  10   3 2239.42 654.515  11
  -7  10   3 2297.80 711.581  10
  -7  10   2 2314.04 733.189  10
  -7  10   1 1223.88 683.768  10
  -7  10   0 1569.87 708.340  10
  -7  10  -1 84.3445 691.297  10
  -7  10  -2 1053.80 717.054  10
  -7   9   7 1396.45 645.721  11
  -7   9   6 1874.85 649.555  11
  -7   9   6 1263.26 576.058  10
  -7   9   5 823.404 561.676  11
  -7   9   5 203.120 566.191  10
  -7   9   4 2066.54 640.615  11
  -7   9   4 1859.24 646.005  10
  -7   9   3 3822.72 662.475  11
  -7   9   3 3659.17 717.961  10
  -7   9   2 1821.81 561.154  11
  -7   9   2 2053.65 700.782  10
  -7   9   1 2336.85 707.101  10
  -7   9   0 1465.20 680.385  10
  -7   9  -1 300.823 651.008  10
  -7   9  -2 537.148 644.002  10
  -7   9  -3-397.778 661.251  10
  -7   9  -4-268.212 705.739  10
  -7   8   8 1143.38 597.852  11
  -7   8   7 1062.95 584.198  11
  -7   8   6 1134.91 580.592  11
  -7   8   6 1911.27 584.969  10
  -7   8   5 2434.02 607.285  11
  -7   8   5 2209.02 599.221  10
  -7   8   4 722.699 510.003  11
  -7   8   4 747.325 553.399  10
  -7   8   3-199.076 473.697  11
  -7   8   3 363.563 565.101  10
  -7   8   2 2320.19 546.020  11
  -7   8   2 2047.67 634.258  10
  -7   8   1 4844.76 609.672  11
  -7   8   1 4443.01 762.080  10
  -7   8   0 2368.52 666.080  10
  -7   8  -1 452.929 620.363  10
  -7   8  -1 668.060 595.147   8
  -7   8  -2 445.172 582.462  10
  -7   8  -2 109.845 566.817   8
  -7   8  -3-25.2198 625.402  10
  -7   8  -3 320.418 581.478   8
  -7   8  -4 1674.48 680.170  10
  -7   8  -4 2216.46 638.784   8
  -7   8  -5 678.999 636.057   8
  -7   7  10 23.8699 546.126  11
  -7   7   9 562.851 577.437  11
  -7   7   8 2133.24 618.338  11
  -7   7   7 2196.18 608.207  11
  -7   7   6 2791.52 605.615  11
  -7   7   5 132.517 493.484  11
  -7   7   4 209.618 463.086  11
  -7   7   3 1383.03 490.904  11
  -7   7   2 3469.56 531.099  11
  -7   7   2 3560.90 668.724  10
  -7   7   2 3640.14 608.297   8
  -7   7   1 1457.91 423.418  11
  -7   7   1 1083.62 605.987  10
  -7   7   1 1623.63 607.600   8
  -7   7   0 8642.94 820.589  10
  -7   7   0 9662.00 826.045   8
  -7   7  -1 7977.43 804.222  10
  -7   7  -1 7127.81 757.393   8
  -7   7  -2 661.765 560.174  10
  -7   7  -2 738.410 550.505   8
  -7   7  -3 4139.03 686.347  10
  -7   7  -3 4169.98 693.091   8
  -7   7  -4 2019.44 658.039  10
  -7   7  -4 2102.78 700.258   3
  -7   7  -4 1759.72 643.862   8
  -7   7  -5 165.938 620.766   3
  -7   7  -5 365.968 567.451   8
  -7   7  -6 4865.52 859.815   3
  -7   6  10 618.330 534.228  11
  -7   6   9 1236.58 560.469  11
  -7   6   8 1456.75 599.806  11
  -7   6   7 1814.86 565.872  11
  -7   6   6 6758.23 689.439  11
  -7   6   5 2071.66 516.722  11
  -7   6   4 2063.61 498.272  11
  -7   6   4 1522.64 531.383   8
  -7   6   3 7390.87 624.243  11
  -7   6   3 7282.61 676.262   8
  -7   6   2 814.072 391.150  11
  -7   6   2 992.339 550.478   8
  -7   6   1 3816.23 483.801  11
  -7   6   1 5102.43 655.258   8
  -7   6   0 25232.8 1071.70  10
  -7   6   0 23944.5 1048.95   8
  -7   6  -1 9156.21 794.757  10
  -7   6  -1 7925.12 747.333   8
  -7   6  -2 1504.54 557.118  10
  -7   6  -2 814.565 539.080   8
  -7   6  -3 2781.24 618.211  10
  -7   6  -3 2783.55 690.686   3
  -7   6  -3 2860.18 628.481   8
  -7   6  -4 2655.00 601.183  10
  -7   6  -4 1844.02 647.595   3
  -7   6  -4 2896.91 614.332   8
  -7   6  -5 563.053 637.424   3
  -7   6  -5 1066.14 534.911   8
  -7   6  -6-62.8931 675.200   3
  -7   5  11 338.107 524.752  11
  -7   5  10 2060.38 611.216  11
  -7   5   9 1912.94 599.164  11
  -7   5   8 965.473 532.120  11
  -7   5   7 9552.89 766.466  11
  -7   5   6 17048.0 900.308  11
  -7   5   5 5876.17 636.933  11
  -7   5   5 4963.65 576.881   8
  -7   5   4 3598.15 522.840  11
  -7   5   4 2411.71 514.002   8
  -7   5   3 4351.55 518.664  11
  -7   5   3 4957.59 587.556   8
  -7   5   2 9499.51 598.405  11
  -7   5   2 9978.15 720.209   8
  -7   5   1 3450.56 444.856  11
  -7   5   1 3703.02 605.598   8
  -7   5   0 1878.83 535.715   8
  -7   5  -1 853.408 506.110   8
  -7   5  -2 10553.1 749.776  10
  -7   5  -2 9727.87 758.200   8
  -7   5  -2 10193.8 756.731   3
  -7   5  -3 2524.15 570.097  10
  -7   5  -3 2088.47 622.213   3
  -7   5  -3 2080.49 576.769   8
  -7   5  -4 873.160 586.891   3
  -7   5  -4 1508.17 551.018   8
  -7   5  -5 291.793 607.587   3
  -7   5  -5 205.790 491.545   8
  -7   5  -6 1008.61 666.536   3
  -7   5  -6 1691.88 571.799   8
  -7   5  -7 361.989 692.452   3
  -7   4  12 3105.55 695.484  11
  -7   4  11 2557.62 591.836  11
  -7   4  10 1917.98 581.791  11
  -7   4   9 3483.31 621.221  11
  -7   4   8 9756.12 780.674  11
  -7   4   7 1404.85 523.601  11
  -7   4   6 522.149 461.236  11
  -7   4   6 572.166 388.863   8
  -7   4   5 5669.86 602.462  11
  -7   4   5 5347.80 546.418   8
  -7   4   4 8986.27 633.040  11
  -7   4   4 9354.65 658.981   8
  -7   4   3 3806.37 483.793  11
  -7   4   3 4043.24 545.936   8
  -7   4   2 6290.05 503.209  11
  -7   4   2 6063.58 606.498   8
  -7   4   1 741.415 458.244   8
  -7   4   0 6769.09 659.631   8
  -7   4  -1 5566.36 621.215   8
  -7   4  -1 6199.95 597.522   3
  -7   4  -2 9384.52 727.307   8
  -7   4  -2 8005.20 694.810   3
  -7   4  -3 2768.54 576.276   3
  -7   4  -3 3119.43 546.630  10
  -7   4  -3 3532.11 577.852   8
  -7   4  -4 5183.67 679.202   3
  -7   4  -4 6689.41 674.290   8
  -7   4  -5 1240.05 611.852   3
  -7   4  -5 1064.10 517.738   8
  -7   4  -6 18.5612 586.483   3
  -7   4  -6 204.762 524.346   8
  -7   4  -7 1875.12 685.184   3
  -7   3  12 449.627 540.941  11
   7  -3 -12 188.350 533.713   4
  -7   3  11 4123.36 651.220  11
  -7   3  10 2357.54 569.724  11
  -7   3   9 4240.32 640.529  11
  -7   3   8 2583.46 478.120   6
  -7   3   8 3189.76 590.537  11
  -7   3   7 5881.39 576.875   6
  -7   3   7 5788.36 612.343  11
  -7   3   6 1787.58 468.943   6
  -7   3   6 2109.56 489.700  11
  -7   3   6 1442.91 380.777   8
  -7   3   5 9472.74 649.486  11
  -7   3   5 10040.0 614.363   8
  -7   3   4 7102.65 564.015  11
  -7   3   4 8170.31 602.303   8
  -7   3   3 5143.15 479.288  11
  -7   3   3 5323.41 531.326   8
  -7   3   2 7806.25 516.675  11
  -7   3   2 7945.99 609.056   8
  -7   3   1 1589.67 484.750   8
  -7   3   0 1659.22 512.457   8
  -7   3  -1 2914.79 509.651   3
  -7   3  -1 3442.46 569.301   8
  -7   3  -2 4436.77 563.600   3
  -7   3  -2 5570.02 645.474   8
  -7   3  -3 13300.2 824.374   8
  -7   3  -3 12562.0 784.815   3
  -7   3  -4 4134.58 626.792   3
  -7   3  -4 6219.76 671.859   8
  -7   3  -5 971.137 551.532   3
  -7   3  -5 482.281 477.420   8
  -7   3  -6 1339.72 537.975   8
  -7   3  -6 663.878 628.959   3
  -7   3  -7 1455.73 669.951   3
   7  -2 -13 1876.75 601.354   4
  -7   2  13 1956.11 583.133  11
  -7   2  12-120.985 484.614  11
  -7   2  11 3756.76 628.328  11
  -7   2  10 1832.14 429.452   6
  -7   2  10 2159.84 566.060  11
  -7   2   9 2460.12 462.598   6
  -7   2   9 3284.57 566.118  11
  -7   2   8 1841.35 449.041   6
  -7   2   8 1380.64 476.733   7
  -7   2   7 1433.89 449.629   6
  -7   2   7 729.505 428.674   7
  -7   2   6 1066.05 426.857   6
  -7   2   6 1376.44 364.159   8
  -7   2   6 943.516 391.634   7
  -7   2   5 1011.15 410.924   6
  -7   2   5 1112.31 373.780   8
  -7   2   5 1143.55 354.383   7
  -7   2   4 14486.8 750.194   6
  -7   2   4 13207.4 646.014   8
  -7   2   3 22627.5 852.932   6
  -7   2   3 23282.0 830.413   8
  -7   2   2 6748.72 470.046  11
  -7   2   2 6857.33 570.744   8
  -7   2   1 3824.67 532.398   8
  -7   2   0 6106.69 596.708   8
  -7   2  -1 3602.91 563.257   8
  -7   2  -2 5997.28 646.211   8
  -7   2  -3 1083.19 507.675   8
   7  -2   4 376.356 395.060   9
  -7   2  -4-30.1861 474.709   8
  -7   2  -5 2507.69 570.230   8
  -7   2  -5 2502.90 589.242   3
  -7   2  -6 1215.69 572.518   8
  -7   2  -6 1872.38 615.480   3
  -7   1  13 163.843 527.848  11
  -7   1  12 4.39636 492.388  11
  -7   1  11 405.336 517.008   7
  -7   1  10 10018.7 673.921   6
  -7   1  10 9236.99 762.817   7
  -7   1   9 9308.65 653.252   6
  -7   1   9 8426.02 694.997   7
  -7   1   8 3820.20 518.915   6
  -7   1   8 3220.53 543.940   7
  -7   1   7 8527.12 637.735   6
  -7   1   7 7791.35 605.340   7
  -7   1   6 4201.62 527.725   6
  -7   1   6 3644.28 395.158   8
  -7   1   6 3927.37 466.403   7
  -7   1   5 4894.71 539.352   6
  -7   1   5 4708.25 450.775   8
  -7   1   5 4206.87 450.616   7
  -7   1   4 12155.2 695.969   6
  -7   1   4 11162.8 610.023   8
  -7   1   4 10654.5 547.930   7
  -7   1   3 1970.84 423.104   6
  -7   1   3 1973.06 410.259   8
  -7   1   2 1271.32 407.298   6
  -7   1   2 1418.92 427.542   8
  -7   1   1 8565.29 564.487   6
  -7   1   1 7608.32 608.365   8
  -7   1   0 3161.23 531.650   8
   7  -1   1 4038.14 441.462   9
  -7   1  -1 4437.60 586.272   8
   7  -1   2 5026.55 505.345   9
  -7   1  -2 5395.68 639.822   8
   7  -1   3 34.0400 392.468   9
  -7   1  -3 56.9662 486.636   8
   7  -1   4 162.265 417.198   9
  -7   1  -4 75.3611 500.690   8
   7  -1   5 4054.13 590.397   9
  -7   1  -5 3966.81 626.988   8
   7  -1   6 2838.40 592.180   9
  -7   1  -6 3134.59 617.764   8
   7  -1   7 380.283 563.697   9
  -7   0  13 2879.68 615.037  11
  -7   0  13 2427.82 629.549   7
  -7   0  12-123.543 531.951   7
  -7   0  11 2824.67 468.496   6
  -7   0  11 2485.24 585.392   7
  -7   0  10 5417.64 590.383   6
  -7   0  10 5732.25 663.647   7
  -7   0   9 915.856 433.000   6
  -7   0   9 785.434 473.814   7
  -7   0   8 2852.51 508.743   6
  -7   0   8 3139.37 530.256   7
  -7   0   7 7602.52 614.086   6
  -7   0   7 5895.74 565.333   7
  -7   0   6 4257.51 521.060   6
  -7   0   6 4044.32 471.102   7
  -7   0   5 6127.70 571.939   6
  -7   0   5 6101.16 473.608   8
  -7   0   5 6234.50 496.892   7
  -7   0   4 3040.20 483.748   6
  -7   0   4 2221.70 395.525   8
  -7   0   4 2496.82 369.540   7
  -7   0   3 248.616 360.970   6
  -7   0   3 28.1525 358.390   8
  -7   0   2 1695.48 407.012   6
   7   0  -2 1505.45 332.562   9
  -7   0   2 1021.89 414.762   8
  -7   0   1 9636.64 577.922   6
   7   0  -1 8754.08 500.139   9
  -7   0   1 9328.74 658.538   8
  -7   0   0 5961.35 488.462   6
   7   0   0 5643.83 477.809   9
  -7   0   0 6140.10 605.882   8
   7   0   1 3421.08 454.923   9
  -7   0  -1 3054.31 536.517   8
   7   0   2 3485.88 483.881   9
  -7   0  -2 3504.21 575.739   8
   7   0   3 867.743 446.166   9
  -7   0  -3 1014.31 509.851   8
   7   0   4 360.462 449.002   9
  -7   0  -4 325.035 473.482   8
   7   0   5 3018.41 575.939   9
  -7   0  -5 2640.69 591.567   8
   7   0   6 2440.61 595.537   9
  -7   0  -6 2337.71 616.891   8
  -7  -1  13 1256.92 584.184   7
  -7  -1  12 1818.19 607.920   7
  -7  -1  11 1865.89 469.072   6
  -7  -1  11 1742.48 575.579   7
  -7  -1  10 121.178 420.246   6
  -7  -1  10-6.36706 532.920   7
  -7  -1   9-128.389 424.624   6
  -7  -1   9-170.455 472.877   7
  -7  -1   8 2696.64 497.417   6
  -7  -1   8 2339.83 536.125   7
  -7  -1   7 6148.13 590.239   6
  -7  -1   7 5289.44 547.074   7
  -7  -1   6 4939.05 564.801   6
  -7  -1   6 4070.50 483.519   7
  -7  -1   5 5796.63 573.926   6
  -7  -1   5 4842.38 450.126   8
  -7  -1   5 4924.50 456.240   7
  -7  -1   4 5168.61 544.861   6
   7   1  -4 4455.36 432.238   9
  -7  -1   4 5175.84 466.728   8
  -7  -1   4 5305.86 427.390   7
  -7  -1   3 924.219 375.516   6
   7   1  -3 431.229 338.240   9
  -7  -1   3 864.673 361.830   8
  -7  -1   2 508.394 349.565   6
   7   1  -2 794.352 363.467   9
  -7  -1   1 10286.7 591.894   6
   7   1  -1 10297.8 603.202   9
  -7  -1   0 6086.25 477.462   6
   7   1   0 6036.35 524.306   9
   7   1   1-374.509 404.093   9
   7   1   2 1093.50 450.706   9
   7   1   3 3363.62 555.007   9
   7   1   4 709.119 480.052   9
   7   1   5 312.176 513.417   9
  -7  -1  -5 332.097 502.889   8
   7   1   6 1955.48 598.261   9
  -7  -1  -6 1506.94 589.498   8
  -7  -2  13 1292.48 623.411   7
  -7  -2  12 1398.79 464.979   6
  -7  -2  12 1212.21 571.594   7
  -7  -2  11 2994.16 534.554   6
  -7  -2  11 1870.96 583.846   7
  -7  -2  10 689.996 546.236   7
  -7  -2   9 210.607 454.251   7
  -7  -2   8 1161.19 456.404   7
  -7  -2   7 9030.09 636.587   7
  -7  -2   6 3314.82 463.181   7
   7   2  -5 278.239 360.842   9
  -7  -2   5 329.372 312.741   8
  -7  -2   5 483.723 347.082   7
  -7  -2   4 5469.71 558.768   6
   7   2  -4 5319.70 513.874   9
  -7  -2   4 4575.81 432.977   7
  -7  -2   3 6454.40 556.334   6
   7   2  -3 6717.19 556.247   9
  -7  -2   2 746.634 383.809   6
   7   2  -2 491.307 402.937   9
  -7  -2   1 631.938 341.781   6
   7   2  -1 446.571 415.549   9
   7   2   0 5054.85 555.366   9
   7   2   1 5756.68 596.438   9
   7   2   2 1393.00 530.342   9
   7   2   3 1524.09 546.924   9
   7   2   4 2483.27 583.837   9
   7   2   5 2370.29 611.658   9
   7   2   6 4115.66 702.977   9
  -7  -2  -6 4972.15 711.561   8
  -7  -3  13 1954.59 613.372   7
  -7  -3  12 455.476 521.611   7
  -7  -3  11 1738.48 557.629   7
  -7  -3  10 4588.69 639.852   7
  -7  -3   9 3103.82 563.144   7
  -7  -3   8 389.211 429.942   7
  -7  -3   7 579.708 430.642   7
   7   3  -6 4674.73 546.902   9
  -7  -3   6 5434.69 535.022   7
   7   3  -5 3811.68 538.756   9
  -7  -3   5 4091.18 464.893   7
   7   3  -4 1597.11 459.086   9
  -7  -3   4 1141.75 348.160   7
   7   3  -3 3615.77 552.802   9
  -7  -3   2 2411.85 432.983   6
   7   3  -2 2432.18 499.085   9
  -7  -3   1 2944.10 423.739   6
   7   3  -1 2714.33 544.517   9
   7   3   0 18945.5 886.167   9
   7   3   1 8177.34 691.303   9
   7   3   2 399.885 492.310   9
   7   3   3 2028.28 606.776   9
   7   3   4 2696.30 615.986   9
   7   3   5 594.844 586.783   9
  -7  -4  12 2090.30 593.001   7
  -7  -4  11 1497.61 547.348   7
  -7  -4  10 1695.05 542.898   7
  -7  -4   9 2371.82 555.259   7
  -7  -4   8 411.167 450.913   7
  -7  -4   7 2864.21 521.653   7
   7   4  -6 21904.9 926.572   9
  -7  -4   6 18922.7 868.089   7
   7   4  -5 3428.99 578.515   9
  -7  -4   5 3360.40 472.620   7
   7   4  -4 235.197 477.757   9
  -7  -4   4 325.809 333.130   7
   7   4  -3 5911.20 658.432   9
   7   4  -2 4304.16 632.555   9
   7   4  -1 3079.23 589.518   9
   7   4   0 6064.38 676.198   9
   7   4   1 2085.78 583.451   9
   7   4   2 3446.96 627.565   9
   7   4   3 873.995 565.205   9
   7   4   4 1022.20 595.157   9
  -7  -5  12 5180.52 733.658   7
  -7  -5  11 360.389 508.893   7
  -7  -5  10 490.136 514.321   7
  -7  -5   9 3545.64 634.648   7
  -7  -5   8 2589.10 538.766   7
  -7  -5   7 4309.32 588.985   7
   7   5  -6 4786.94 674.574   9
  -7  -5   6 4120.23 578.532   7
   7   5  -5 4586.92 650.854   9
  -7  -5   5 4080.48 539.002   7
   7   5  -4 5245.66 673.072   9
  -7  -5   4 4115.03 506.322   7
   7   5  -3 13.2758 520.930   9
   7   5  -2 778.293 557.463   9
   7   5  -1 1263.34 570.043   9
   7   5   0 2905.61 654.190   9
   7   5   1 1816.48 612.150   9
   7   5   2 459.955 564.940   9
   7   5   3 601.941 562.625   9
  -7  -6  11 2580.07 674.743   7
  -7  -6  10 1409.66 582.927   7
  -7  -6   9-238.223 504.752   7
  -7  -6   8 122.644 488.645   7
  -7  -6   7 1386.46 542.834   7
   7   6  -6 2863.17 604.810   9
  -7  -6   6 1682.02 505.758   7
   7   6  -5 3029.95 626.253   9
  -7  -6   5 2405.43 504.781   7
   7   6  -4-37.5458 533.571   9
  -7  -6   4 256.834 388.558   7
   7   6  -3 698.777 569.377   9
   7   6  -2 3334.77 700.438   9
   7   6  -1 1440.00 615.140   9
   7   6   0 163.419 600.100   9
   7   6   1 1802.29 653.760   9
   7   6   2 785.571 600.345   9
  -7  -7  10 128.268 539.544   7
  -7  -7   9 231.249 545.000   7
  -7  -7   8 2014.12 629.140   7
  -7  -7   7 500.876 490.382   7
   7   7  -6 436.397 578.430   9
  -7  -7   6 339.563 448.829   7
  -7  -7   5 438.901 451.810   7
   7   7  -5 544.965 583.844   9
   7   7  -4 218.860 588.876   9
   7   7  -3 12328.7 937.313   9
   7   7  -2 11436.0 909.083   9
   7   7  -1-59.3476 605.381   9
   7   7   0 605.250 605.299   9
   7   7   1 1151.05 659.782   9
  -7  -8   9 7178.02 844.137   7
  -7  -8   8 2504.96 689.748   7
  -7  -8   7-176.960 541.663   7
  -7  -8   6 559.507 517.756   7
  -7  -8   5 996.810 540.489   7
   7   8  -5 788.705 602.618   9
   7   8  -4 1323.33 651.328   9
   7   8  -3 5695.81 793.214   9
   7   8  -2 5183.80 790.795   9
   7   8  -1 2284.12 698.423   9
  -7  -9   6-231.297 641.482   7
  -7  -9   5 370.582 635.117   7
  -8  10   3 203.923 656.472  11
  -8   9   6 353.145 653.689  10
  -8   9   5 208.225 585.993  11
  -8   9   5 89.4059 621.907  10
  -8   9   4 146.608 567.256  11
  -8   9   4 258.452 615.120  10
  -8   9   3 975.193 556.802  11
  -8   9   3 1776.27 684.327  10
  -8   9   2 744.588 654.263  10
  -8   9   1 3336.59 791.859  10
  -8   9   0 7103.03 917.554  10
  -8   9  -1 1359.14 737.234  10
  -8   8   7 2694.66 645.986  11
  -8   8   7 3182.90 672.531  10
  -8   8   6 2639.62 657.567  11
  -8   8   6 2948.77 634.831  10
  -8   8   5 53.9085 546.787  11
  -8   8   5 877.859 573.789  10
  -8   8   4 2194.10 620.146  11
  -8   8   4 2389.94 676.252  10
  -8   8   3 589.144 521.871  11
  -8   8   3 2180.80 695.686  10
  -8   8   2 419.896 622.018  10
  -8   8   1 8356.28 892.184  10
  -8   8   0 6584.23 841.467  10
  -8   8   0 6789.19 807.879   8
  -8   8  -1 1080.21 688.675  10
  -8   8  -1 1204.35 616.447   8
  -8   8  -2 1458.54 656.455  10
  -8   8  -2 1276.33 645.029   8
  -8   8  -3 1031.19 712.028  10
  -8   8  -3 1650.42 658.229   8
  -8   7   8 1862.65 621.788  11
  -8   7   7 8355.57 804.801  11
  -8   7   6 5124.76 713.719  11
  -8   7   5 808.789 530.515  11
  -8   7   4 1307.43 499.050  11
  -8   7   3 2822.83 555.651  11
  -8   7   3 3497.90 661.672   8
  -8   7   2 3982.62 694.090  10
  -8   7   2 3122.80 639.438   8
  -8   7   1 161.978 587.251  10
  -8   7   1 275.757 571.911   8
  -8   7   0 958.565 601.945  10
  -8   7   0 404.427 572.483   8
  -8   7  -1 4507.17 733.712  10
  -8   7  -1 4076.35 704.325   8
  -8   7  -2 3181.03 706.618  10
  -8   7  -2 3523.42 698.237   8
  -8   7  -3 672.353 634.360  10
  -8   7  -3 341.148 575.518   8
  -8   7  -4 183.682 640.139   8
  -8   6   9 4244.31 683.135  11
  -8   6   8 2710.52 624.706  11
  -8   6   7 414.704 536.813  11
  -8   6   6 358.493 495.578  11
  -8   6   5 6362.25 642.248  11
  -8   6   4 1842.50 511.919  11
  -8   6   4 1835.92 545.588   8
  -8   6   3 2371.33 517.710  11
  -8   6   3 2699.94 608.735   8
  -8   6   2 325.374 513.131   8
  -8   6   1 3559.19 656.317   8
  -8   6   0 1002.58 561.874  10
  -8   6   0 480.515 590.556   8
  -8   6  -1 6330.89 750.585  10
  -8   6  -1 5963.26 762.872   8
  -8   6  -2 3107.21 646.738  10
  -8   6  -2 2018.14 661.990   8
  -8   6  -3 4304.41 728.998  10
  -8   6  -3 4110.18 735.241   8
  -8   6  -4 1818.25 667.143   3
  -8   6  -4 1995.71 619.390   8
  -8   6  -5-129.883 725.829   3
  -8   6  -5 153.672 661.307   8
  -8   5  10 1240.87 581.520  11
  -8   5   9 2846.20 651.959  11
  -8   5   8 666.473 557.425  11
  -8   5   7 3016.19 621.707  11
  -8   5   6 1420.74 535.603  11
  -8   5   5 4920.61 608.362  11
  -8   5   5 5606.06 624.022   8
  -8   5   4 3354.91 551.858  11
  -8   5   4 3052.20 571.635   8
  -8   5   3 5695.22 572.083  11
  -8   5   3 5733.58 662.795   8
  -8   5   2 1944.16 562.911   8
  -8   5   1 660.204 563.603   8
  -8   5   0 2391.45 597.016   8
  -8   5  -1 2275.32 606.291   8
  -8   5  -2 6092.36 734.151  10
  -8   5  -2 5991.42 739.560   8
  -8   5  -3 5640.60 739.143   3
  -8   5  -3 7149.22 797.813   8
  -8   5  -4 683.740 630.878   3
  -8   5  -4 1382.49 594.978   8
  -8   5  -5 350.557 709.784   3
  -8   5  -5 454.485 595.089   8
  -8   4  11 738.389 582.037  11
  -8   4  10 2250.08 617.840  11
  -8   4   9 2021.71 602.220  11
  -8   4   8 889.438 529.809  11
  -8   4   7 706.720 515.038  11
  -8   4   6 848.584 469.813  11
  -8   4   6 645.459 422.594   8
  -8   4   5 3282.46 550.074  11
  -8   4   5 3426.00 521.830   8
  -8   4   4 14563.3 779.752  11
  -8   4   4 13906.9 796.563   8
  -8   4   3 7491.35 594.340  11
  -8   4   3 7805.12 702.255   8
  -8   4   2 2548.54 579.408   8
  -8   4   1 3041.03 593.526   8
  -8   4   0 2884.70 602.466   8
  -8   4  -1 3593.42 641.510   8
  -8   4  -2 1927.56 517.686  10
  -8   4  -2 1871.56 597.314   8
  -8   4  -3-210.653 517.949   8
  -8   4  -4 1257.31 593.872   8
  -8   4  -5 1634.40 605.568   8
  -8   3  12 197.902 563.697  11
  -8   3  11 2858.15 613.671  11
  -8   3  10 8532.86 814.076  11
  -8   3   9 2978.61 609.742  11
  -8   3   8 3040.80 601.121  11
  -8   3   7 3418.31 599.087  11
  -8   3   6 2843.11 526.162  11
  -8   3   6 2395.23 454.906   8
  -8   3   5 6327.55 593.177  11
  -8   3   5 5930.83 582.245   8
  -8   3   4 1802.26 438.738  11
  -8   3   4 1859.32 502.173   8
  -8   3   3 274.992 348.296  11
  -8   3   3 86.8458 439.378   8
  -8   3   2 5302.99 607.721   8
  -8   3   1 4168.81 604.255   8
  -8   3   0 1722.87 559.904   8
  -8   3  -1 4858.29 665.346   8
  -8   3  -2 384.252 519.559   8
  -8   3  -3-590.886 512.000   8
  -8   3  -4 1436.66 597.569   8
  -8   3  -5 3881.74 674.659   8
  -8   2  12 559.089 535.363  11
  -8   2  11 2256.86 568.880  11
  -8   2  10 845.928 433.692   6
  -8   2  10 760.475 524.385  11
  -8   2   9 890.832 426.899   6
  -8   2   9 574.366 529.443  11
  -8   2   8 4136.95 563.617   6
  -8   2   8 4277.84 617.627  11
  -8   2   7 2743.49 532.789   6
  -8   2   6 3762.25 557.093   6
  -8   2   6 3356.11 459.884   8
  -8   2   5 3897.97 551.193   6
  -8   2   5 3854.93 511.007   8
  -8   2   4 46.4348 444.392   6
  -8   2   4 85.1687 361.691  11
  -8   2   4 103.302 385.767   8
  -8   2   3 137.645 324.542  11
  -8   2   3 246.216 420.908   8
  -8   2   2 5254.96 594.505   8
  -8   2   1 6932.35 676.036   8
  -8   2   0 2776.26 578.424   8
  -8   2  -1 2235.47 595.441   8
  -8   2  -2 1910.77 587.334   8
  -8   2  -3 26.5751 498.106   8
  -8   2  -4 197.905 575.029   8
  -8   2  -5 3043.03 672.626   8
  -8   1  12 1091.46 560.125  11
  -8   1  11 120.747 438.062   6
  -8   1  11 163.734 506.426  11
  -8   1  11-85.1214 508.214   7
  -8   1  10 60.1063 408.948   6
  -8   1  10 169.708 500.762   7
  -8   1   9 875.902 470.209   6
  -8   1   9 648.168 452.579   7
  -8   1   8 4314.52 581.748   6
  -8   1   8 2984.43 531.438   7
  -8   1   7 3100.30 563.785   6
  -8   1   7 3177.74 520.037   7
  -8   1   6 2523.65 533.541   6
  -8   1   6 1863.94 431.598   7
  -8   1   5 3909.03 560.766   6
  -8   1   5 3646.04 482.588   8
  -8   1   5 3914.28 444.243   7
  -8   1   4 1904.11 497.720   6
  -8   1   4 1489.60 448.297   8
  -8   1   3 85.3467 418.239   6
  -8   1   3 269.270 404.484   8
  -8   1   2 4523.53 543.298   6
  -8   1   2 4100.58 555.281   8
  -8   1   1 7790.70 703.221   8
  -8   1   0 22.0868 508.511   8
  -8   1  -1-42.9878 513.228   8
  -8   1  -2 3148.40 631.081   8
  -8   1  -3 1446.08 544.201   8
  -8   1  -4 508.645 553.397   8
  -8   1  -5 427.504 567.019   8
  -8   0  12 1174.59 579.641   7
  -8   0  11 1345.07 482.709   6
  -8   0  11 1317.11 564.536   7
  -8   0  10 498.107 457.264   6
  -8   0  10 226.607 508.800   7
  -8   0   9 349.313 462.451   6
  -8   0   9 189.117 447.322   7
  -8   0   8 5044.03 610.181   6
  -8   0   8 4058.41 574.907   7
  -8   0   7 4378.66 602.585   6
  -8   0   7 3798.43 536.154   7
  -8   0   6 6.46003 445.335   6
  -8   0   6 158.581 373.752   7
  -8   0   5 1492.56 507.948   6
  -8   0   5 1614.48 417.543   8
  -8   0   5 1354.74 380.022   7
  -8   0   4 6771.33 618.652   6
  -8   0   4 5801.30 554.631   8
  -8   0   3 2225.83 468.747   6
  -8   0   3 2100.34 474.770   8
  -8   0   2 364.104 399.983   6
  -8   0   2 599.629 443.399   8
  -8   0   1 1842.47 452.602   6
  -8   0   1 1762.91 529.865   8
  -8   0   0 5845.15 658.090   8
  -8   0  -1 2618.71 572.441   8
   8   0   2 423.328 452.481   9
  -8   0  -2 419.532 531.341   8
   8   0   3 1603.93 500.992   9
  -8   0  -3 1474.94 592.880   8
   8   0   4 2315.98 572.369   9
  -8   0  -4 2971.82 638.371   8
   8   0   5 2433.62 596.523   9
  -8   0  -5 3217.73 694.264   8
  -8  -1  12 59.6356 476.430   6
  -8  -1  12 693.906 563.774   7
  -8  -1  11 1669.27 531.917   6
  -8  -1  11 1800.52 580.305   7
  -8  -1  10 3215.81 586.293   6
  -8  -1  10 3172.80 589.990   7
  -8  -1   9 345.401 476.955   6
  -8  -1   9 521.093 456.446   7
  -8  -1   8 366.053 484.283   6
  -8  -1   8-252.251 447.943   7
  -8  -1   7 2849.91 576.091   6
  -8  -1   7 2507.26 502.543   7
  -8  -1   6 5841.06 655.760   6
  -8  -1   6 4813.89 530.885   7
  -8  -1   5 1214.01 467.848   6
  -8  -1   5 1158.35 377.100   8
  -8  -1   5 1224.91 383.013   7
  -8  -1   4 1751.80 477.078   6
  -8  -1   4 1657.08 452.032   8
  -8  -1   3 2770.25 485.190   6
  -8  -1   3 2986.51 526.520   8
  -8  -1   2 2428.16 456.490   6
  -8  -1   2 2113.97 501.618   8
  -8  -1   1 10767.7 663.557   6
   8   1  -1 10663.8 661.850   9
  -8  -1   1 11282.7 769.694   8
   8   1   0 12119.1 704.738   9
  -8  -1   0 12590.4 836.679   8
   8   1   1 303.779 433.917   9
  -8  -1  -1 584.700 524.178   8
   8   1   2 1370.39 502.012   9
  -8  -1  -2 813.539 539.622   8
   8   1   3 2689.89 583.750   9
  -8  -1  -3 2994.15 652.487   8
   8   1   4 59.7171 533.300   9
  -8  -1  -4 261.684 561.490   8
   8   1   5 1048.46 590.740   9
  -8  -2  12 661.188 478.687   6
  -8  -2  12 1191.24 589.725   7
  -8  -2  11 496.092 478.862   6
  -8  -2  11 642.830 546.443   7
  -8  -2  10 1778.90 523.733   6
  -8  -2  10 1482.06 530.340   7
  -8  -2   9 587.175 482.639   6
  -8  -2   9 463.115 480.682   7
  -8  -2   8 525.928 476.291   6
  -8  -2   8 552.873 472.201   7
  -8  -2   7 13728.2 853.674   6
  -8  -2   7 13014.3 760.366   7
  -8  -2   6 8938.66 711.125   6
  -8  -2   6 8129.29 619.347   7
  -8  -2   5 600.023 451.879   6
  -8  -2   5 488.725 362.257   8
  -8  -2   5 387.884 364.340   7
  -8  -2   4 3004.81 523.354   6
  -8  -2   4 3015.59 488.644   8
  -8  -2   3 4954.11 569.511   6
   8   2  -3 4259.95 535.514   9
  -8  -2   2 1917.70 455.170   6
   8   2  -2 1721.19 489.635   9
  -8  -2   1 4869.48 542.100   6
   8   2  -1 5265.34 571.559   9
   8   2   0 2565.79 543.472   9
   8   2   1 2282.71 526.553   9
   8   2   2 2430.61 578.331   9
   8   2   3 543.236 512.853   9
   8   2   4 329.171 566.046   9
  -8  -2  -4 269.824 549.957   8
  -8  -3  12 1432.47 538.575   6
  -8  -3  12 1504.17 599.719   7
  -8  -3  11 223.178 506.689   6
  -8  -3  11 150.028 549.710   7
  -8  -3  10 2853.85 610.460   7
  -8  -3   9 2482.11 553.927   7
  -8  -3   8 3387.80 552.153   7
  -8  -3   7 3865.46 542.274   7
   8   3  -6 3291.78 542.166   9
  -8  -3   6 2740.93 477.358   7
  -8  -3   5 5376.60 619.761   6
   8   3  -5 5891.57 602.855   9
  -8  -3   4 935.202 481.158   6
   8   3  -4 1088.11 463.351   9
  -8  -3   3 1057.12 447.250   6
   8   3  -3 1245.81 483.482   9
  -8  -3   2 119.275 391.864   6
   8   3  -2 137.915 463.648   9
   8   3  -1 2826.54 570.530   9
   8   3   0 2210.89 567.614   9
   8   3   1 1346.56 537.107   9
   8   3   2 282.000 531.331   9
   8   3   3 723.292 548.077   9
  -8  -4  11 3476.58 673.856   7
  -8  -4  10 89.5979 498.160   7
  -8  -4   9 123.295 473.976   7
  -8  -4   8 1173.69 492.182   7
  -8  -4   7 1111.37 479.266   7
   8   4  -6 2591.23 550.911   9
  -8  -4   6 1928.80 478.494   7
   8   4  -5 562.337 500.146   9
  -8  -4   4 226.841 443.874   6
   8   4  -4 392.968 480.760   9
  -8  -4   3 1585.45 473.023   6
   8   4  -3 2760.78 584.939   9
   8   4  -2 3674.01 624.789   9
   8   4  -1-149.339 519.258   9
   8   4   0 902.596 562.550   9
   8   4   1 1024.23 544.946   9
   8   4   2 1441.53 606.746   9
  -8  -5  11 140.435 558.997   7
  -8  -5  10 219.212 509.234   7
  -8  -5   9 1680.07 585.849   7
  -8  -5   8 1068.65 523.460   7
  -8  -5   7 45.4973 434.434   7
   8   5  -6 1443.62 566.822   9
  -8  -5   6 1025.64 457.494   7
   8   5  -5 94.1462 548.226   9
   8   5  -4 4810.04 693.742   9
  -8  -5   3 17812.1 888.332   6
   8   5  -3 20608.0 1028.68   9
   8   5  -2 2555.58 610.912   9
   8   5  -1 111.378 550.026   9
   8   5   0 1838.91 657.925   9
   8   5   1 205.309 580.759   9
  -8  -6  10 4289.96 732.577   7
  -8  -6   9 5965.47 748.925   7
  -8  -6   8 56.9945 506.995   7
  -8  -6   7 790.840 484.177   7
   8   6  -6 2384.57 623.300   9
  -8  -6   6 1705.57 498.521   7
   8   6  -5 1102.01 585.730   9
   8   6  -4 4253.74 729.605   9
   8   6  -3 7951.96 799.094   9
   8   6  -2 4325.65 737.820   9
   8   6  -1 845.344 630.183   9
   8   6   0 208.450 588.683   9
  -8  -7   8 2413.56 636.287   7
  -8  -7   7-310.274 573.563   7
   8   7  -6 162.710 572.518   9
   8   7  -5 930.129 610.579   9
   8   7  -4 983.476 621.964   9
   8   7  -3 1228.69 596.327   9
   8   7  -2 3193.57 695.276   9
  -9   8   5 1574.90 599.117  11
  -9   8   5 1629.07 636.961  10
  -9   8   4 551.981 590.030  11
  -9   8   4 644.393 613.012  10
  -9   8   3 597.582 624.785  10
  -9   8   2 566.036 645.868  10
  -9   8   1 280.711 660.309  10
  -9   8   1-9.82664 589.930   8
  -9   7   7 633.544 568.969  11
  -9   7   6 2312.93 611.860  11
  -9   7   5 1446.61 541.462  11
  -9   7   4 2621.34 567.647  11
  -9   7   3 1776.30 630.080   8
  -9   7   2 332.494 584.626  10
  -9   7   2 508.168 560.621   8
  -9   7   1 1744.83 672.850  10
  -9   7   1 1297.46 635.360   8
  -9   7   0 1245.90 641.143  10
  -9   7   0 1383.95 633.963   8
  -9   7  -1 1216.44 681.183  10
  -9   7  -1 2567.87 689.418   8
  -9   7  -2 3189.41 734.336  10
  -9   6   8 593.385 546.740  11
  -9   6   7 819.902 578.568  11
  -9   6   6 971.606 560.590  11
  -9   6   5 4247.48 654.810  11
  -9   6   5 4316.11 672.231   8
  -9   6   4 5196.50 645.318  11
  -9   6   4 6030.85 733.298   8
  -9   6   3 1505.60 586.751   8
  -9   6   2 1123.99 611.808   8
  -9   6   1 1558.36 628.077   8
  -9   6   0 1113.46 621.484  10
  -9   6   0 2036.92 685.937   8
  -9   6  -1 2080.13 641.181  10
  -9   6  -1 2285.18 664.520   8
  -9   6  -2 297.837 678.615  10
  -9   6  -2 276.814 569.907   8
  -9   5   9 1389.39 603.878  11
  -9   5   8 1753.15 603.522  11
  -9   5   7 1604.58 569.831  11
  -9   5   6 2205.28 592.960  11
  -9   5   6 2802.04 557.328   8
  -9   5   5 1224.14 502.825  11
  -9   5   5 1482.23 541.015   8
  -9   5   4-66.0629 438.771  11
  -9   5   4 336.265 498.681   8
  -9   5   3 1601.31 567.937   8
  -9   5   2 3413.47 647.288   8
  -9   5   1 1182.37 574.774   8
  -9   5   0 3156.57 672.551   8
  -9   5  -1 1539.94 582.155  10
  -9   5  -1 2448.98 640.048   8
  -9   5  -2 63.4626 583.313   8
  -9   5  -3 506.184 586.088   8
  -9   4  10 350.344 562.672  11
  -9   4   9 1732.13 592.900  11
  -9   4   8 1381.50 587.621  11
  -9   4   7 789.688 484.533  11
  -9   4   6 2862.60 588.259  11
  -9   4   6 3254.53 542.347   8
  -9   4   5 521.228 482.078  11
  -9   4   5 687.118 467.590   8
  -9   4   4-110.750 402.426  11
  -9   4   4-50.8885 485.436   8
  -9   4   3 1427.46 562.568   8
  -9   4   2 4780.26 666.767   8
  -9   4   1 2776.42 646.838   8
  -9   4   0 1020.48 583.643   8
  -9   4  -1 1456.39 614.039   8
  -9   4  -2 776.086 593.297   8
  -9   4  -3 408.973 580.073   8
  -9   3  10-270.859 531.345  11
  -9   3   9 706.192 548.666  11
  -9   3   8 3171.54 646.896  11
  -9   3   7 1201.31 539.369  11
  -9   3   6 1288.54 515.222  11
  -9   3   6 1524.24 483.331   8
  -9   3   5 2124.64 529.331  11
  -9   3   5 2241.55 513.824   8
  -9   3   4 510.992 436.824  11
  -9   3   4 538.585 483.415   8
  -9   3   3 889.924 489.609   8
  -9   3   2 5253.21 677.651   8
  -9   3   1 1034.41 541.816   8
  -9   3   0 484.356 556.137   8
  -9   3  -1 1407.42 580.993   8
  -9   3  -2 1968.53 637.268   8
  -9   3  -3 799.217 577.582   8
  -9   2  11 674.597 583.261  11
  -9   2  10 89.0451 449.749   6
  -9   2  10 302.399 532.447  11
  -9   2   9 806.713 478.186   6
  -9   2   9 1749.21 597.968  11
  -9   2   8 3846.98 622.831   6
  -9   2   8 2916.42 617.050  11
  -9   2   7 553.715 509.040   6
  -9   2   7 460.279 467.455  11
  -9   2   6 354.028 491.277   6
  -9   2   6-74.9338 448.630  11
  -9   2   5 3030.28 512.764  11
  -9   2   5 3176.35 533.407   8
  -9   2   4 2077.52 486.539  11
  -9   2   4 2520.14 509.213   8
  -9   2   3 696.133 488.543   8
  -9   2   2 675.307 537.096   8
  -9   2   1 4118.44 664.354   8
  -9   2   0 3387.80 666.498   8
  -9   2  -1 308.185 545.080   8
  -9   2  -2 375.200 586.586   8
  -9   2  -3 2953.01 685.477   8
  -9   1  11 2126.88 552.266   6
  -9   1  11 2519.21 635.307  11
  -9   1  10 1208.03 488.692   6
  -9   1  10 881.582 542.548   7
  -9   1   9 648.346 468.794   6
  -9   1   9-174.941 484.166   7
  -9   1   8 631.756 489.788   6
  -9   1   8 227.699 472.794   7
  -9   1   7 4407.69 630.277   6
  -9   1   7 3757.35 544.297   7
  -9   1   6 1913.33 541.017   6
  -9   1   5 529.352 508.449   6
  -9   1   5 487.423 440.501   8
  -9   1   4 1608.00 530.773   6
  -9   1   4 1579.75 493.132   8
  -9   1   3 2129.43 563.504   8
  -9   1   2 6044.75 707.697   8
  -9   1   1 10765.4 828.170   8
  -9   1   0 1410.19 580.791   8
  -9   1  -1 707.811 565.513   8
  -9   1  -2 2883.92 644.322   8
  -9   1  -3 133.701 598.813   8
  -9   0  11 807.193 514.570   6
  -9   0  11 573.444 558.766   7
  -9   0  10 1331.07 509.852   6
  -9   0  10 269.213 547.705   7
  -9   0   9 615.559 499.379   6
  -9   0   9 318.178 481.642   7
  -9   0   8 5858.09 690.295   6
  -9   0   8 4521.96 607.152   7
  -9   0   7 8866.31 765.866   6
  -9   0   7 7652.50 656.466   7
  -9   0   6 1719.72 538.153   6
  -9   0   5 1521.16 535.127   6
  -9   0   5 1392.85 468.725   8
  -9   0   4 3685.68 574.543   6
  -9   0   4 4005.16 578.998   8
  -9   0   3 1245.11 460.775   6
  -9   0   3 1005.67 506.621   8
  -9   0   2 2924.63 566.382   6
  -9   0   2 2475.35 580.920   8
  -9   0   1 3144.99 652.802   8
  -9   0   0 898.646 508.733   8
  -9   0  -1 1991.97 594.812   8
  -9   0  -2 134.126 547.291   8
  -9   0  -3 1351.45 597.069   8
  -9  -1  11 529.573 496.516   6
  -9  -1  11 560.872 567.027   7
  -9  -1  10 1836.71 569.880   6
  -9  -1  10 1242.56 568.238   7
  -9  -1   9 1491.95 530.942   6
  -9  -1   9 1621.89 567.474   7
  -9  -1   8 4224.83 654.550   6
  -9  -1   8 2430.83 543.089   7
  -9  -1   7 2086.69 599.878   6
  -9  -1   7 1095.62 478.664   7
  -9  -1   6 4273.76 638.555   6
  -9  -1   5 2560.09 565.272   6
  -9  -1   5 3248.62 516.605   8
  -9  -1   4 509.923 474.780   6
  -9  -1   4 819.134 463.557   8
  -9  -1   3 704.287 438.235   6
  -9  -1   3 1075.04 485.340   8
  -9  -1   2 1598.49 473.001   6
  -9  -1   2 1839.26 548.724   8
  -9  -1   1 2110.17 589.051   8
  -9  -1   0 430.178 517.529   8
  -9  -1  -1 348.991 553.790   8
  -9  -1  -2 556.467 556.742   8
  -9  -2  11 266.604 518.832   6
  -9  -2  11 114.413 563.213   7
  -9  -2  10 103.596 500.028   6
  -9  -2  10 174.031 532.298   7
  -9  -2   9-3.39258 493.133   6
  -9  -2   9-534.334 518.164   7
  -9  -2   8 1908.86 579.732   6
  -9  -2   8 864.880 496.636   7
  -9  -2   7 1975.93 582.146   6
  -9  -2   7 1438.15 486.013   7
  -9  -2   6 631.633 496.390   6
  -9  -2   5 217.613 473.866   6
  -9  -2   5 116.559 402.029   8
  -9  -2   4 1090.30 485.445   6
  -9  -2   4 643.811 443.814   8
  -9  -2   3 4883.29 630.205   6
  -9  -2   3 5374.01 661.920   8
  -9  -2   2 93.6457 429.322   6
  -9  -2   2 247.058 484.989   8
  -9  -2   1 73.1164 514.685   8
  -9  -2   0 2900.18 634.515   8
   9   2   1 1159.80 527.110   9
  -9  -2  -1 746.211 577.008   8
   9   2   2 4889.12 695.388   9
  -9  -2  -2 6071.73 778.644   8
  -9  -3  10 645.636 542.657   6
  -9  -3  10 60.1120 534.972   7
  -9  -3   9 1562.86 562.622   6
  -9  -3   9 1720.53 578.895   7
  -9  -3   8-53.3177 499.220   6
  -9  -3   8 35.3339 495.336   7
  -9  -3   7 1296.74 541.944   6
  -9  -3   7 1019.61 487.501   7
  -9  -3   6 1016.30 517.364   6
  -9  -3   5 1655.88 565.711   6
  -9  -3   4 15306.9 902.014   6
  -9  -3   4 15997.0 869.538   8
  -9  -3   3 7066.69 684.395   6
  -9  -3   3 7990.81 733.328   8
   9   3  -2 304.751 509.913   9
   9   3  -1 711.797 520.840   9
   9   3   0 1388.87 559.261   9
   9   3   1 203.723 597.991   9
  -9  -4  10 10016.3 863.014   7
  -9  -4   9 2073.66 615.058   6
  -9  -4   9 828.419 547.027   7
  -9  -4   8 302.901 499.974   6
  -9  -4   8 13.7164 511.505   7
  -9  -4   7 1519.95 538.256   6
  -9  -4   6 799.350 539.220   6
  -9  -4   5 1709.36 568.006   6
  -9  -4   4 6060.28 707.222   6
   9   4  -4 6221.40 726.673   9
   9   4  -3 4231.41 672.045   9
   9   4  -2 1439.81 582.325   9
   9   4  -1 380.639 565.181   9
   9   4   0-28.9994 602.491   9
  -9  -5   9 4089.89 677.088   7
  -9  -5   8 704.406 557.357   7
  -9  -5   6 35.9099 500.655   6
   9   5  -6 57.1689 585.637   9
  -9  -5   5 1432.81 549.125   6
   9   5  -5 1923.30 579.598   9
  -9  -5   4-56.1019 520.932   6
   9   5  -4 638.006 555.436   9
   9   5  -3 2445.60 626.461   9
   9   5  -2 1426.10 620.500   9
   9   6  -6 696.909 629.589   9
  -9  -6   5 1355.16 581.826   6
   9   6  -5 843.601 629.677   9
   9   6  -4 392.204 625.000   9
 -10   6   6 682.169 602.814  11
 -10   6   5 274.071 635.377   8
 -10   6   4 325.553 612.672   8
 -10   6   3 2101.37 671.632   8
 -10   6   2 1911.70 635.222   8
 -10   5   7 253.707 584.293  11
 -10   5   6 623.462 561.177  11
 -10   5   5 847.978 568.000   8
 -10   5   4 242.964 547.772   8
 -10   5   3 1982.45 629.962   8
 -10   5   2 1373.99 616.382   8
 -10   5   1-107.037 575.666   8
 -10   5   0 159.809 684.985  10
 -10   4   8 1005.85 591.426  11
 -10   4   7 203.935 532.163  11
 -10   4   6 1567.92 575.112  11
 -10   4   5 1812.12 542.966   8
 -10   4   4 730.026 516.766   8
 -10   4   3 439.946 566.293   8
 -10   4   2 1498.16 619.337   8
 -10   4   1 4201.97 741.868   8
 -10   4   0 816.031 602.578   8
 -10   3   9 220.680 564.428  11
 -10   3   8 1833.31 632.624  11
 -10   3   7 2161.76 605.585  11
 -10   3   6 144.864 500.331  11
 -10   3   5 239.763 516.971   8
 -10   3   4 2583.13 604.523   8
 -10   3   3 3195.96 620.375   8
 -10   3   2 6638.69 783.039   8
 -10   3   1 3446.61 667.447   8
 -10   3   0 47.8055 563.598   8
 -10   2   9 1449.95 594.761  11
 -10   2   8 5392.46 729.820  11
 -10   2   7 1243.25 552.730  11
 -10   2   6 249.985 497.732  11
 -10   2   5 2240.45 575.717   8
 -10   2   4 97.8438 499.434   8
 -10   2   3 436.743 511.840   8
 -10   2   2 2641.59 649.693   8
 -10   2   1 1238.78 573.552   8
 -10   2   0 1141.35 603.761   8
 -10   1   9 1623.62 592.082   6
 -10   1   9 1775.90 584.872  11
 -10   1   8 2366.64 583.910   6
 -10   1   7 1850.22 569.303   6
 -10   1   6 2533.04 602.871   6
 -10   1   5 279.712 512.729   6
 -10   1   5 25.6171 483.960   8
 -10   1   4 1165.67 550.549   8
 -10   1   3 492.073 511.059   8
 -10   1   2 2403.35 651.653   8
 -10   1   1 744.379 581.594   8
 -10   1   0 1.23616 567.009   8
 -10   0  10-229.953 562.138   7
 -10   0   9 806.229 509.673   6
 -10   0   9 1129.65 542.858   7
 -10   0   8 1489.24 605.957   6
 -10   0   7 1557.85 525.697   6
 -10   0   6-59.7728 483.880   6
 -10   0   5-0.73792 470.310   6
 -10   0   5-132.958 494.709   8
 -10   0   4 4407.93 673.344   6
 -10   0   4 4316.30 676.410   8
 -10   0   3 616.596 497.849   8
 -10   0   2 435.493 544.763   8
 -10   0   1 2854.11 652.652   8
 -10   0   0 1127.78 609.390   8
 -10  -1   9 46.3374 554.716   6
 -10  -1   9 486.734 546.851   7
 -10  -1   8 503.335 546.265   6
 -10  -1   7 1317.78 551.460   6
 -10  -1   6 523.733 525.856   6
 -10  -1   5 6338.82 733.346   6
 -10  -1   5 6772.02 698.788   8
 -10  -1   4 9923.03 813.256   6
 -10  -1   4 10863.4 841.803   8
 -10  -1   3 461.673 513.228   6
 -10  -1   3 804.679 513.110   8
 -10  -1   2 346.740 539.559   8
 -10  -1   1 1041.35 611.774   8
 -10  -2   9 51.4585 576.599   7
 -10  -2   8 899.573 548.557   6
 -10  -2   7 724.628 528.478   6
 -10  -2   6 1560.41 591.289   6
 -10  -2   5 3560.15 640.629   6
 -10  -2   4 4060.47 620.047   6
 -10  -2   4 3497.94 645.043   8
 -10  -2   3 2107.87 527.633   6
 -10  -2   3 2936.46 639.900   8
 -10  -2   2 343.913 542.681   8
 -10  -3   7 89.0117 551.908   6
 -10  -3   6 1118.26 581.923   6
 -10  -3   5 1050.93 532.359   6
 -10  -3   4 1224.85 546.988   6
 -10  -3   4 1209.31 537.894   8
 -10  -3   3 1452.67 578.759   8
 -10  -4   5 214.297 597.591   6
 -11   2   5 1647.00 614.693   8
;
loop_
_symmetry_equiv_pos_as_xyz
'x, y, z'
'-x, -y, -z'
loop_
_atom_site_label
_atom_site_type_symbol
_atom_site_fract_x
_atom_site_fract_y
_atom_site_fract_z
_atom_site_U_iso_or_equiv
_atom_site_adp_type
_atom_site_occupancy
_atom_site_symmetry_multiplicity
_atom_site_calc_flag
_atom_site_refinement_flags
Ni1 Ni 0 0 0 0.01413(7) Uani 1 2 d S
C1 C 0.4867(2) 0.21928(17) 0.04233(16) 0.0141(2) Uani 1 1 d .
C11 C 0.3147(2) 0.18324(17) -0.12457(16) 0.0146(2) Uani 1 1 d .
C12 C 0.3693(2) 0.23940(18) -0.26906(17) 0.0179(3) Uani 1 1 d .
H12A H 0.2524 0.1813 -0.3741 0.027 Uiso 1 1 calc R
H12B H 0.5117 0.2061 -0.2671 0.027 Uiso 1 1 calc R
H12C H 0.3794 0.3675 -0.2604 0.027 Uiso 1 1 calc R
N1 N 0.11595(19) 0.10514(15) -0.14631(13) 0.0144(2) Uani 1 1 d .
O1 O -0.03284(16) 0.08784(13) -0.30978(11) 0.01831(19) Uani 1 1 d .
H1 H -0.1551 0.03 -0.3182 0.027 Uiso 1 1 calc R
C2 C 0.4509(2) 0.16441(17) 0.18277(16) 0.0151(2) Uani 1 1 d .
O2 O 0.26045(15) 0.07164(13) 0.17585(11) 0.01712(19) Uani 1 1 d .
C3 C 0.6244(2) 0.20688(18) 0.33805(16) 0.0164(2) Uani 1 1 d .
H3 H 0.5999 0.1728 0.4336 0.02 Uiso 1 1 calc R
C4 C 0.8298(2) 0.29694(17) 0.35562(17) 0.0165(2) Uani 1 1 d .
H4 H 0.9444 0.322 0.4622 0.02 Uiso 1 1 calc R
C5 C 0.8709(2) 0.35145(17) 0.21900(17) 0.0159(2) Uani 1 1 d .
C6 C 0.6982(2) 0.31162(17) 0.06594(17) 0.0157(2) Uani 1 1 d .
H6 H 0.7242 0.3487 -0.0281 0.019 Uiso 1 1 calc R
C7 C 1.0944(2) 0.45212(18) 0.23714(18) 0.0190(3) Uani 1 1 d .
H7A H 1.1305 0.4151 0.1372 0.028 Uiso 1 1 calc R
H7B H 1.2085 0.4277 0.3358 0.028 Uiso 1 1 calc R
H7C H 1.0892 0.5788 0.2501 0.028 Uiso 1 1 calc R
loop_
_atom_site_aniso_label
_atom_site_aniso_U_11
_atom_site_aniso_U_22
_atom_site_aniso_U_33
_atom_site_aniso_U_23
_atom_site_aniso_U_13
_atom_site_aniso_U_12
Ni1 0.01459(12) 0.01323(12) 0.01413(12) 0.00280(9) 0.00406(9) 0.00305(9)
C1 0.0163(6) 0.0119(6) 0.0146(6) 0.0026(4) 0.0051(5) 0.0048(4)
C11 0.0176(6) 0.0120(6) 0.0151(6) 0.0026(4) 0.0061(5) 0.0051(5)
C12 0.0187(6) 0.0184(6) 0.0181(6) 0.0057(5) 0.0072(5) 0.0043(5)
N1 0.0155(5) 0.0141(5) 0.0122(5) 0.0026(4) 0.0019(4) 0.0048(4)
O1 0.0157(4) 0.0228(5) 0.0137(4) 0.0050(4) 0.0015(4) 0.0011(4)
C2 0.0163(6) 0.0121(6) 0.0167(6) 0.0018(4) 0.0052(5) 0.0037(5)
O2 0.0152(4) 0.0198(5) 0.0150(4) 0.0045(4) 0.0039(4) 0.0001(4)
C3 0.0175(6) 0.0161(6) 0.0150(6) 0.0027(5) 0.0050(5) 0.0033(5)
C4 0.0172(6) 0.0144(6) 0.0159(6) 0.0017(5) 0.0030(5) 0.0038(5)
C5 0.0164(6) 0.0113(6) 0.0200(6) 0.0014(5) 0.0066(5) 0.0034(4)
C6 0.0175(6) 0.0134(6) 0.0169(6) 0.0022(5) 0.0068(5) 0.0033(5)
C7 0.0173(6) 0.0179(6) 0.0206(6) 0.0022(5) 0.0062(5) 0.0016(5)
loop_
_atom_type_symbol
_atom_type_description
_atom_type_scat_dispersion_real
_atom_type_scat_dispersion_imag
_atom_type_scat_source
C C 0.0033 0.0016 'International Tables Vol C Tables 4.2.6.8 and 6.1.1.4'
H H 0 0 'International Tables Vol C Tables 4.2.6.8 and 6.1.1.4'
N N 0.0061 0.0033 'International Tables Vol C Tables 4.2.6.8 and 6.1.1.4'
O O 0.0106 0.006 'International Tables Vol C Tables 4.2.6.8 and 6.1.1.4'
Ni Ni 0.3393 1.1124 'International Tables Vol C Tables 4.2.6.8 and 6.1.1.4'
loop_
_exptl_crystal_face_index_h
_exptl_crystal_face_index_k
_exptl_crystal_face_index_l
_exptl_crystal_face_perp_dist
-1 2 1 0.0516
1 -2 -1 0.1086
1 0 -1 0.1351
-1 0 1 0.182
0 -1 0 0.0788
0 1 0 0.0366
0 0 -1 0.0653
0 0 1 0.0392
0 1 -1 0.0435
0 -1 1 0.0573
1 -2 2 0.0868
loop_
_geom_angle_atom_site_label_1
_geom_angle_atom_site_label_2
_geom_angle_atom_site_label_3
_geom_angle
_geom_angle_site_symmetry_1
_geom_angle_site_symmetry_3
O2 Ni1 O2 180.00(9) 2 .
O2 Ni1 N1 92.23(5) 2 2
O2 Ni1 N1 87.77(5) . 2
O2 Ni1 N1 87.77(5) 2 .
O2 Ni1 N1 92.23(5) . .
N1 Ni1 N1 180 2 .
C6 C1 C2 117.59(12) . .
C6 C1 C11 119.60(12) . .
C2 C1 C11 122.81(12) . .
N1 C11 C1 120.11(12) . .
N1 C11 C12 120.41(12) . .
C1 C11 C12 119.47(12) . .
C11 C12 H12A 109.5 . .
C11 C12 H12B 109.5 . .
H12A C12 H12B 109.5 . .
C11 C12 H12C 109.5 . .
H12A C12 H12C 109.5 . .
H12B C12 H12C 109.5 . .
C11 N1 O1 113.67(11) . .
C11 N1 Ni1 131.25(9) . .
O1 N1 Ni1 114.96(8) . .
N1 O1 H1 109.5 . .
O2 C2 C3 117.79(12) . .
O2 C2 C1 123.38(12) . .
C3 C2 C1 118.82(12) . .
C2 O2 Ni1 129.88(9) . .
C4 C3 C2 121.73(12) . .
C4 C3 H3 119.1 . .
C2 C3 H3 119.1 . .
C3 C4 C5 120.78(12) . .
C3 C4 H4 119.6 . .
C5 C4 H4 119.6 . .
C6 C5 C4 117.45(12) . .
C6 C5 C7 121.29(12) . .
C4 C5 C7 121.26(12) . .
C5 C6 C1 123.61(12) . .
C5 C6 H6 118.2 . .
C1 C6 H6 118.2 . .
C5 C7 H7A 109.5 . .
C5 C7 H7B 109.5 . .
H7A C7 H7B 109.5 . .
C5 C7 H7C 109.5 . .
H7A C7 H7C 109.5 . .
H7B C7 H7C 109.5 . .
loop_
_geom_bond_atom_site_label_1
_geom_bond_atom_site_label_2
_geom_bond_distance
_geom_bond_site_symmetry_2
Ni1 O2 1.8245(11) 2
Ni1 O2 1.8245(11) .
Ni1 N1 1.8853(12) 2
Ni1 N1 1.8853(12) .
C1 C6 1.4083(19) .
C1 C2 1.4094(18) .
C1 C11 1.4668(18) .
C11 N1 1.3000(18) .
C11 C12 1.5003(18) .
C12 H12A 0.98 .
C12 H12B 0.98 .
C12 H12C 0.98 .
N1 O1 1.3972(14) .
O1 H1 0.84 .
C2 O2 1.3332(16) .
C2 C3 1.4030(19) .
C3 C4 1.3802(19) .
C3 H3 0.95 .
C4 C5 1.3917(19) .
C4 H4 0.95 .
C5 C6 1.3875(19) .
C5 C7 1.5127(19) .
C6 H6 0.95 .
C7 H7A 0.98 .
C7 H7B 0.98 .
C7 H7C 0.98 .
loop_
_geom_hbond_atom_site_label_D
_geom_hbond_atom_site_label_H
_geom_hbond_atom_site_label_A
_geom_hbond_distance_DH
_geom_hbond_distance_HA
_geom_hbond_distance_DA
_geom_hbond_angle_DHA
_geom_hbond_site_symmetry_A
O1 H1 O2 0.84 1.8 2.4676(14) 134.6 2
