#------------------------------------------------------------------------------
#$Date: 2017-05-05 09:19:44 +0300 (Fri, 05 May 2017) $
#$Revision: 196238 $
#$URL: file:///home/coder/svn-repositories/cod/cif/7/22/82/7228221.cif $
#------------------------------------------------------------------------------
#
# This file is available in the Crystallography Open Database (COD),
# http://www.crystallography.net/
#
# All data on this site have been placed in the public domain by the
# contributors.
#
data_7228221
loop_
_publ_author_name
'Carter, Damien J.'
'Raiteri, Paolo'
'Barnard, Keith R.'
'Gielink, Rhian'
'Mocerino, Mauro'
'Skelton, Brian W.'
'Vaughan, Jamila G.'
'Ogden, Mark I.'
'Rohl, Andrew L.'
_publ_section_title
;
 Difference Hirshfeld fingerprint plots: a tool for studying polymorphs
;
_journal_issue                   16
_journal_name_full               CrystEngComm
_journal_page_first              2207
_journal_paper_doi               10.1039/C6CE02535H
_journal_volume                  19
_journal_year                    2017
_chemical_formula_moiety         'C18 H20 Cu N2 O4'
_chemical_formula_sum            'C18 H20 Cu N2 O4'
_chemical_formula_weight         391.9
_chemical_name_systematic
;
 ?
;
_space_group_IT_number           2
_symmetry_cell_setting           triclinic
_symmetry_space_group_name_Hall  '-P 1'
_symmetry_space_group_name_H-M   'P -1'
_atom_sites_solution_hydrogens   geom
_atom_sites_solution_primary     direct
_atom_sites_solution_secondary   difmap
_audit_creation_date             2013-05-27T08:43:11-00:00
_audit_creation_method           'WinGX routine CIF_UPDATE'
_audit_update_record
;
2016-11-25 deposited with the CCDC.
2017-03-28 downloaded from the CCDC.
;
_cell_angle_alpha                71.541(7)
_cell_angle_beta                 79.573(6)
_cell_angle_gamma                85.986(6)
_cell_formula_units_Z            1
_cell_length_a                   6.2433(4)
_cell_length_b                   8.0884(6)
_cell_length_c                   8.6219(7)
_cell_measurement_reflns_used    3434
_cell_measurement_temperature    100(2)
_cell_measurement_theta_max      37.082
_cell_measurement_theta_min      4.203
_cell_volume                     406.13(5)
_computing_cell_refinement
;
        CrysAlisPro, Oxford Diffraction Ltd.,
        Version 1.171.33.52 (release 06-11-2009 CrysAlis171 .NET)
        (compiled Nov  6 2009,16:24:50)
;
_computing_data_collection
;
        CrysAlisPro, Oxford Diffraction Ltd.,
        Version 1.171.33.52 (release 06-11-2009 CrysAlis171 .NET)
        (compiled Nov  6 2009,16:24:50)
;
_computing_data_reduction
;
        CrysAlisPro, Oxford Diffraction Ltd.,
        Version 1.171.33.52 (release 06-11-2009 CrysAlis171 .NET)
        (compiled Nov  6 2009,16:24:50)
;
_computing_molecular_graphics    'Diamond (Brandenburg, K., (1999)'
_computing_publication_material  'WinGX Farrugia, L. J. (1999)'
_computing_structure_refinement  'SHELXL-97 (Sheldrick, 2008)'
_computing_structure_solution    'SIR92 (Altomare et al., 1994)'
_diffrn_ambient_temperature      100(2)
_diffrn_detector_area_resol_mean 16.0009
_diffrn_measured_fraction_theta_full 0.997
_diffrn_measured_fraction_theta_max 0.97
_diffrn_measurement_device_type  'Oxford Diffraction Xcalibur diffractometer'
_diffrn_measurement_method       '\w scans'
_diffrn_orient_matrix_UB_11      -0.0322651
_diffrn_orient_matrix_UB_12      0.0383965
_diffrn_orient_matrix_UB_13      -0.0785481
_diffrn_orient_matrix_UB_21      -0.0317514
_diffrn_orient_matrix_UB_22      0.0772137
_diffrn_orient_matrix_UB_23      0.0209496
_diffrn_orient_matrix_UB_31      0.1062908
_diffrn_orient_matrix_UB_32      0.0333533
_diffrn_orient_matrix_UB_33      -0.0336355
_diffrn_radiation_monochromator  graphite
_diffrn_radiation_type           MoK\a
_diffrn_radiation_wavelength     0.71073
_diffrn_reflns_av_R_equivalents  0.028
_diffrn_reflns_av_unetI/netI     0.0545
_diffrn_reflns_limit_h_max       10
_diffrn_reflns_limit_h_min       -10
_diffrn_reflns_limit_k_max       13
_diffrn_reflns_limit_k_min       -13
_diffrn_reflns_limit_l_max       11
_diffrn_reflns_limit_l_min       -14
_diffrn_reflns_number            7403
_diffrn_reflns_theta_full        36.5
_diffrn_reflns_theta_max         37.2
_diffrn_reflns_theta_min         3.05
_exptl_absorpt_coefficient_mu    1.371
_exptl_absorpt_correction_T_max  0.929
_exptl_absorpt_correction_T_min  0.759
_exptl_absorpt_correction_type   analytical
_exptl_absorpt_process_details
;
    CrysAlisPro, Oxford Diffraction Ltd.,
Analytical numeric absorption correction using a multifaceted crystal
         model based on expressions derived by R.C. Clark & J.S.
        (Clark, R. C. & Reid, J. S. (1995). Acta Cryst. A51, 887-897

;
_exptl_crystal_colour            brown
_exptl_crystal_density_diffrn    1.602
_exptl_crystal_density_method    'not measured'
_exptl_crystal_description       rod
_exptl_crystal_F_000             203
_exptl_crystal_size_max          0.31
_exptl_crystal_size_mid          0.08
_exptl_crystal_size_min          0.06
_refine_diff_density_max         0.834
_refine_diff_density_min         -0.591
_refine_diff_density_rms         0.103
_refine_ls_extinction_method     none
_refine_ls_goodness_of_fit_ref   1.067
_refine_ls_hydrogen_treatment    constr
_refine_ls_matrix_type           full
_refine_ls_number_parameters     118
_refine_ls_number_reflns         4073
_refine_ls_number_restraints     0
_refine_ls_restrained_S_all      1.067
_refine_ls_R_factor_all          0.0475
_refine_ls_R_factor_gt           0.0412
_refine_ls_shift/su_max          0.001
_refine_ls_shift/su_mean         0
_refine_ls_structure_factor_coef Fsqd
_refine_ls_weighting_details
'calc w=1/[\s^2^(Fo^2^)+(0.0415P)^2^+0.0581P] where P=(Fo^2^+2Fc^2^)/3'
_refine_ls_weighting_scheme      calc
_refine_ls_wR_factor_gt          0.0935
_refine_ls_wR_factor_ref         0.0985
_reflns_number_gt                3705
_reflns_number_total             4073
_reflns_threshold_expression     I>2\s(I)
_iucr_refine_instructions_details
;
TITL crystal2 in P-1
CELL  0.71073   6.2433   8.0884   8.6219   71.541   79.573   85.986
ZERR     1.00   0.0004   0.0006   0.0007    0.007    0.006    0.006
LATT   1
SFAC  C    H    N    O    CU
UNIT  18   20   2    4    1
MERG   2
eqiv $1   -x+1, -y+1, -z+1
htab O21 O1_$1
FMAP   2
PLAN    6
ACTA    73.00
BOND   $H
L.S.   4
TEMP  -173.00
WGHT    0.041500    0.058100
FVAR       7.03001
CU1   5    0.500000    0.500000    0.500000    10.50000    0.01131    0.01374 =
         0.01114   -0.00484   -0.00253    0.00226
C1    1    0.837854    0.320471    0.683655    11.00000    0.01120    0.01199 =
         0.01210   -0.00336   -0.00185   -0.00030
O1    4    0.651188    0.409294    0.678415    11.00000    0.01273    0.01943 =
         0.01229   -0.00642   -0.00369    0.00507
C2    1    0.963523    0.277432    0.545601    11.00000    0.01258    0.01223 =
         0.01176   -0.00394   -0.00244   -0.00001
C21   1    0.901862    0.324685    0.380940    11.00000    0.01214    0.01218 =
         0.01329   -0.00520   -0.00210    0.00046
C22   1    1.053621    0.282415    0.241141    11.00000    0.01465    0.02164 =
         0.01330   -0.00820   -0.00304    0.00356
AFIX 137
H22A  2    1.048002    0.157440    0.256115    11.00000   -1.50000
H22B  2    1.202617    0.313374    0.241087    11.00000   -1.50000
H22C  2    1.008964    0.348936    0.135281    11.00000   -1.50000
AFIX   0
N21   3    0.715878    0.401466    0.356047    11.00000    0.01343    0.01524 =
         0.00977   -0.00458   -0.00360    0.00110
O21   4    0.671727    0.435064    0.195702    11.00000    0.01579    0.02186 =
         0.01235   -0.00797   -0.00617    0.00590
AFIX 147
H21   2    0.553175    0.490331    0.187195    11.00000   -1.50000
AFIX   0
C3    1    1.159657    0.182198    0.571144    11.00000    0.01256    0.01420 =
         0.01352   -0.00485   -0.00248    0.00115
AFIX  43
H3    2    1.244351    0.152611    0.480217    11.00000   -1.20000
AFIX   0
C4    1    1.235194    0.129776    0.720134    11.00000    0.01189    0.01276 =
         0.01574   -0.00398   -0.00323    0.00103
C41   1    1.441587    0.022132    0.741649    11.00000    0.01519    0.01730 =
         0.02024   -0.00610   -0.00610    0.00461
AFIX 137
H41A  2    1.409262   -0.101043    0.764952    11.00000   -1.50000
H41B  2    1.500652    0.036863    0.834239    11.00000   -1.50000
H41C  2    1.548799    0.060713    0.639720    11.00000   -1.50000
AFIX   0
C5    1    1.109404    0.175543    0.852956    11.00000    0.01466    0.01368 =
         0.01354   -0.00308   -0.00358    0.00021
AFIX  43
H5    2    1.157868    0.142813    0.956967    11.00000   -1.20000
AFIX   0
C6    1    0.916161    0.267507    0.834399    11.00000    0.01472    0.01564 =
         0.01134   -0.00398   -0.00283    0.00133
AFIX  43
H6    2    0.833662    0.295773    0.926795    11.00000   -1.20000
HKLF    4
 
REM  crystal2 in P-1
REM R1 =  0.0412 for   3705 Fo > 4sig(Fo)  and  0.0475 for all   4073 data
REM    118 parameters refined using      0 restraints
 
END
 
WGHT      0.0414      0.0592
REM Highest difference peak  0.834,  deepest hole -0.591,  1-sigma level  0.103
Q1    1   1.0078  0.2274  0.8557  11.00000  0.05    0.68
Q2    1   0.8153  0.3678  0.3747  11.00000  0.05    0.66
Q3    1   0.9015  0.3196  0.7431  11.00000  0.05    0.62
Q4    1   1.3207  0.0760  0.7212  11.00000  0.05    0.61
Q5    1   1.1700  0.1305  0.7966  11.00000  0.05    0.55
Q6    1   0.9276  0.3010  0.4616  11.00000  0.05    0.55

;
_cod_data_source_file            c6ce02535h2.cif
_cod_data_source_block           mojv118c_100k
_cod_original_sg_symbol_Hall     '-p 1'
_cod_database_code               7228221
_iucr_refine_reflections_details
;
 -10  -5  -5 644.823 210.617   6
  -9  -7  -7 1691.85 353.027   6
  -9  -7  -6 1359.57 312.263   6
  -9  -7  -5 1708.52 335.816   6
  -9  -7  -4 638.718 228.812   6
  -9  -6  -8 193.923 161.246   6
  -9  -6  -7 3579.16 475.760   6
  -9  -6  -6 1906.77 338.048   6
  -9  -6  -5 1113.05 267.880   6
  -9  -6  -4 1487.41 300.441   6
  -9  -5  -9 311.281 169.688   6
  -9  -5  -8 523.459 198.213   6
  -9  -5  -7 2012.06 363.815   6
  -9  -5  -6 1061.33 246.962   6
  -9  -5  -5 1357.50 289.678   6
  -9  -5  -4 3873.70 462.342   6
  -9  -5  -3 220.174 120.798   6
  -9  -4  -9 1751.97 347.685   6
  -9  -4  -8 1654.30 329.669   6
  -9  -4  -7 377.383 188.750   6
  -9  -4  -6 246.551 137.663   6
  -9  -4  -5 2980.12 406.948   6
  -9  -4  -4 4185.93 463.076   6
  -9  -4  -3 519.824 184.124   6
  -9  -3  -9 1989.90 363.020   6
  -9  -3  -8 1678.32 325.093   6
  -9  -3  -7 762.250 210.457   6
  -9  -3  -6 203.619 152.116   6
  -9  -3  -5 1497.39 278.014   6
  -9  -3  -4 3011.46 382.549   6
  -9  -2  -9 787.887 221.309   6
  -9  -2  -8 729.288 236.764   6
  -9  -2  -7 502.232 184.124   6
  -9  -2  -6 4621.55 487.221   6
  -9  -1  -9 255.824 148.638   6
  -9  -1  -8 2766.83 405.617   6
  -8  -9  -7 1211.66 298.650   6
  -8  -9  -6 7749.04 717.618   6
  -8  -8  -9 296.419 204.458   6
  -8  -8  -8 1421.29 323.254   6
  -8  -8  -7 1176.18 280.791   6
  -8  -8  -6 2720.95 412.948   6
  -8  -7  -9 1289.88 304.782   6
  -8  -7  -8 2646.39 412.503   6
  -8  -7  -7 6566.61 629.028   6
  -8  -7  -6 70.8301 109.192   6
  -8  -7  -5 2120.93 357.837   6
  -8  -6 -10 1657.37 347.161   6
  -8  -6  -9 5886.79 611.525   6
  -8  -6  -8 3099.03 438.635   6
  -8  -6  -7 3010.49 416.908   6
  -8  -6  -6 3031.66 410.827   6
  -8  -6  -5 192.125 170.775   6
  -8  -5 -10 1059.55 274.851   6
  -8  -5  -9 2187.96 378.297   6
  -8  -5  -8 5652.32 579.877   6
  -8  -5  -7 3351.45 428.560   6
  -8  -5  -6 1688.64 315.283   6
  -8  -5  -5 2525.63 366.710   6
  -8  -5  -4 1479.27 277.529   6
  -8  -4 -11 3736.08 507.658   6
  -8  -4 -10 3534.14 486.642   6
  -8  -4  -9 250.333 172.156   6
  -8  -4  -8 119.103 142.455   6
  -8  -4  -7 5127.19 521.862   6
  -8  -4  -6 3864.24 430.028   6
  -8  -4  -5 2232.94 334.636   6
  -8  -4  -4 2381.71 332.280   6
  -8  -4  -3 2889.08 361.399   6
  -8  -3 -11 3645.40 504.545   6
  -8  -3 -10 3494.47 478.670   6
  -8  -3  -9 12.5738 121.135   6
  -8  -3  -8 166.966 136.509   6
  -8  -3  -7 3752.75 445.927   6
  -8  -3  -6 3165.21 396.050   6
  -8  -3  -5 2058.17 308.977   6
  -8  -3  -4 6498.55 526.849   6
  -8  -3  -3 1397.54 257.548   6
  -8  -3  -2 71.0070 85.4450   6
  -8  -2 -11 1598.35 342.640   6
  -8  -2 -10 2339.53 385.647   6
  -8  -2  -9 1319.54 292.776   6
  -8  -2  -8 2129.52 347.038   6
  -8  -2  -7 1668.32 298.083   6
  -8  -2  -6 911.504 219.418   6
  -8  -2  -5 4296.32 427.420   6
  -8  -2  -4 8459.16 588.725   6
  -8  -2  -3 2233.06 291.690   6
  -8  -1 -10 1227.56 276.671   6
  -8  -1  -9 1722.12 322.927   6
  -8  -1  -8 2671.02 390.716   6
  -8  -1  -7 1353.87 268.990   6
  -8  -1  -6 194.206 96.9492   6
  -8  -1  -5 2412.37 319.638   6
  -8  -1  -4 6157.26 487.117   6
  -8   0 -10 3495.69 464.999   6
  -8   0  -9 3047.96 425.603   6
  -8   0  -8 2164.83 347.645   6
  -8   0  -7 139.161 121.730   6
  -8   0  -6 6415.37 537.434   6
  -8   1 -10 285.889 205.398   6
  -8   1  -9 71.1713 108.461   6
  -8   1  -8 3347.40 411.904   6
  -7 -10  -8 1015.73 265.760   6
  -7 -10  -7 491.286 203.843   6
  -7  -9 -10 1788.86 360.541   6
  -7  -9  -9-2.13378 135.814   6
  -7  -9  -8-80.9437 156.733   6
  -7  -9  -7 434.649 196.784   6
  -7  -8 -10 1110.30 291.303   6
  -7  -8  -9 4116.20 508.142   6
  -7  -8  -8 169.427 132.013   6
  -7  -8  -7 298.425 139.673   6
  -7  -8  -6 2023.11 347.599   6
  -7  -7 -11 3130.38 474.434   6
  -7  -7 -10 753.831 213.026   6
  -7  -7  -9 3007.53 438.438   6
  -7  -7  -8 2800.90 406.606   6
  -7  -7  -7 1443.85 293.270   6
  -7  -7  -6 9669.41 723.635   6
  -7  -6 -11 905.110 298.741   6
  -7  -6 -10 1529.40 340.593   6
  -7  -6  -9 1886.77 339.795   6
  -7  -6  -8 1861.72 332.076   6
  -7  -6  -7 2812.94 387.162   6
  -7  -6  -6 4954.76 501.227   6
  -7  -6  -5 11631.2 759.753   6
  -7  -5 -12 1618.14 349.118   6
  -7  -5 -11 1089.90 288.200   6
  -7  -5 -10 475.898 224.074   6
  -7  -5  -9 1490.68 307.023   6
  -7  -5  -8 3118.94 420.280   6
  -7  -5  -7 10452.2 725.404   6
  -7  -5  -6 386.453 156.428   6
  -7  -5  -5 4954.43 477.303   6
  -7  -4 -12 2465.56 407.848   6
  -7  -4 -11 1479.32 334.343   6
  -7  -4 -10 2001.06 355.957   6
  -7  -4  -9 8519.77 689.180   6
  -7  -4  -8 5764.17 558.344   6
  -7  -4  -7 5717.18 524.545   6
  -7  -4  -6 7677.09 584.290   6
  -7  -4  -5 944.078 203.558   6
  -7  -4  -4 2121.49 299.104   6
  -7  -3 -12 1843.28 367.138   6
  -7  -3 -11 1724.11 334.715   6
  -7  -3 -10 1420.09 307.472   6
  -7  -3  -9 3211.83 418.818   6
  -7  -3  -8 9499.49 698.023   6
  -7  -3  -7 5855.68 522.933   6
  -7  -3  -6 2665.31 347.922   6
  -7  -3  -5 5180.89 459.862   6
  -7  -3  -4 2946.24 331.765   6
  -7  -3  -3 4489.92 404.833   6
  -7  -2 -12 753.066 212.050   6
  -7  -2 -11 2475.42 406.420   6
  -7  -2 -10 5928.01 588.575   6
  -7  -2  -9 170.852 120.751   6
  -7  -2  -8 31.6836 129.039   6
  -7  -2  -7 4994.77 483.249   6
  -7  -2  -6 6868.04 543.067   6
  -7  -2  -5 4585.70 415.250   6
  -7  -2  -4 5237.49 428.321   6
  -7  -2  -3 4094.02 369.963   6
  -7  -2  -2 13383.7 677.178   6
  -7  -1 -11 4113.34 515.138   6
  -7  -1 -10 5711.70 581.033   6
  -7  -1  -9 784.982 218.010   6
  -7  -1  -8-81.7243 109.895   6
  -7  -1  -7 3328.11 394.275   6
  -7  -1  -6 6843.74 529.945   6
  -7  -1  -5 3551.53 363.658   6
  -7  -1  -4 9522.15 575.961   6
  -7  -1  -3 4293.78 369.691   6
  -7  -1  -2 26.4218 66.1263   6
  -7  -1  -1 4548.80 355.851   6
  -7   0 -11 1632.81 336.241   6
  -7   0 -10 3181.09 439.621   6
  -7   0  -9 768.078 210.486   6
  -7   0  -8 1387.88 278.473   6
  -7   0  -7 1110.81 232.600   6
  -7   0  -6 2307.00 314.433   6
  -7   0  -5 5303.61 444.774   6
  -7   0  -4 12077.1 649.390   6
  -7   0  -3 5705.61 413.207   6
  -7   1 -11 4304.16 533.020   6
  -7   1 -10 1271.44 294.422   6
  -7   1  -9 1106.83 259.064   6
  -7   1  -8 4017.35 453.839   6
  -7   1  -7 3342.13 390.868   6
  -7   1  -6 71.0924 102.174   6
  -7   1  -5 1221.97 209.592   6
  -7   1  -4 10868.7 607.184   6
  -7   2 -10 4049.73 503.050   6
  -7   2  -9 3384.19 438.613   6
  -7   2  -8 2506.00 358.565   6
  -7   2  -7 686.264 191.040   6
  -7   2  -6 3300.38 366.134   6
  -7   3 -10 617.639 217.870   6
  -7   3  -9-19.9834 101.724   6
  -7   3  -8 2895.01 396.545   6
  -6 -11  -8 1080.55 274.235   6
  -6 -11  -7 1758.14 345.288   6
  -6 -10 -10 1511.57 316.289   6
  -6 -10  -9 924.723 275.327   6
  -6 -10  -8 2223.28 378.558   6
  -6 -10  -7 165.728 116.737   6
  -6  -9 -11 1103.79 279.245   6
  -6  -9 -10 1525.27 323.986   6
  -6  -9  -9 3380.50 451.440   6
  -6  -9  -8 3453.39 441.683   6
  -6  -9  -7 622.368 196.864   6
  -6  -8 -12 404.022 190.433   6
  -6  -8 -11 2008.87 370.199   6
  -6  -8 -10 2266.85 372.925   6
  -6  -8  -9 3276.24 443.226   6
  -6  -8  -8 3280.89 431.344   6
  -6  -8  -7 1142.49 270.344   6
  -6  -7 -12 1565.63 339.999   6
  -6  -7 -11 3387.81 475.900   6
  -6  -7 -10 2795.40 414.858   6
  -6  -7  -9 279.210 166.302   6
  -6  -7  -8 96.2485 128.352   6
  -6  -7  -7 660.788 226.437   6
  -6  -7  -6 1252.93 251.851   6
  -6  -6 -12 13427.6 945.773   6
  -6  -6 -11 3970.22 503.387   6
  -6  -6 -10 1111.37 279.115   6
  -6  -6  -9 6046.61 581.043   6
  -6  -6  -8 845.430 228.240   6
  -6  -6  -7 328.145 153.312   6
  -6  -6  -6 1075.47 231.286   6
  -6  -5 -13 1122.17 303.592   6
  -6  -5 -12 3162.62 452.492   6
  -6  -5 -11 6591.34 643.284   6
  -6  -5 -10 901.836 248.641   6
  -6  -5  -9 3552.96 438.732   6
  -6  -5  -8 6675.94 573.264   6
  -6  -5  -7 1836.55 293.682   6
  -6  -5  -6 11048.9 687.341   6
  -6  -5  -5 15863.8 822.306   6
  -6  -4 -13 6558.58 672.766   6
  -6  -4 -12 514.509 234.951   6
  -6  -4 -11 2408.16 400.578   6
  -6  -4 -10 2007.38 341.862   6
  -6  -4  -9 5018.69 508.795   6
  -6  -4  -8 2753.28 365.006   6
  -6  -4  -7 3012.45 361.234   6
  -6  -4  -6 9357.08 613.770   6
  -6  -4  -5 23611.0 990.881   6
  -6  -3 -13 5802.41 636.076   6
  -6  -3 -12 2900.23 437.685   6
  -6  -3 -11 1417.38 317.144   6
  -6  -3 -10-103.886 140.678   6
  -6  -3  -9 2794.16 385.062   6
  -6  -3  -8 2908.51 368.517   6
  -6  -3  -7 15552.9 825.127   6
  -6  -3  -6 4610.50 418.024   6
  -6  -3  -5 4469.37 396.510   6
  -6  -3  -4 1211.74 202.597   6
  -6  -2 -12 2427.50 413.536   6
  -6  -2 -11 2169.60 368.815   6
  -6  -2 -10 1838.93 331.789   6
  -6  -2  -9 8107.09 638.367   6
  -6  -2  -8 7159.49 571.207   6
  -6  -2  -7 9356.75 623.210   6
  -6  -2  -6 15018.6 770.828   6
  -6  -2  -5 1033.71 181.379   6
  -6  -2  -4 6478.17 448.519   6
  -6  -2  -3 5104.72 384.946   6
  -6  -1 -12 2231.28 392.799   6
  -6  -1 -11 2328.46 385.346   6
  -6  -1 -10 1819.45 320.569   6
  -6  -1  -9 2854.73 378.676   6
  -6  -1  -8 15202.9 852.700   6
  -6  -1  -7 12609.6 731.148   6
  -6  -1  -6 3020.70 334.335   6
  -6  -1  -5 5985.90 451.450   6
  -6  -1  -4 4536.82 363.408   6
  -6  -1  -3 6137.61 410.201   6
  -6  -1  -2 9384.07 495.287   6
  -6   0 -12 1749.98 357.981   6
  -6   0 -11 1840.61 349.451   6
  -6   0 -10 6095.65 586.251   6
  -6   0  -9 708.185 225.077   6
  -6   0  -8 187.598 134.428   6
  -6   0  -7 3132.58 357.768   6
  -6   0  -6 7224.55 523.386   6
  -6   0  -5 6053.25 451.217   6
  -6   0  -4 10855.6 580.854   6
  -6   0  -3 5860.12 391.154   6
  -6   0  -2 14698.4 616.700   6
  -6   0  -1 36043.3 1039.34   6
  -6   0   0 7646.46 402.353   6
  -6   1 -11 3849.34 500.256   6
  -6   1 -10 7543.22 670.059   6
  -6   1  -9 1443.55 285.612   6
  -6   1  -8 188.784 104.919   6
  -6   1  -7 1699.74 279.696   6
  -6   1  -6 7556.96 537.538   6
  -6   1  -5 4125.85 367.045   6
  -6   1  -4 11840.3 607.037   6
  -6   1  -3 7993.94 457.049   6
  -6   1  -2 254.579 84.5669   6
  -6   2 -11 1287.03 322.660   6
  -6   2 -10 4828.54 543.786   6
  -6   2  -9 1300.31 275.174   6
  -6   2  -8 771.576 215.134   6
  -6   2  -7 3432.38 393.011   6
  -6   2  -6 2717.55 322.954   6
  -6   2  -5 5233.50 417.165   6
  -6   2  -4 13013.0 640.044   6
  -6   2  -3 8919.48 487.029   6
  -6   3 -10 1204.21 291.090   6
  -6   3  -9 609.974 205.263   6
  -6   3  -8 3674.23 429.492   6
  -6   3  -7 4621.75 457.263   6
  -6   3  -6 186.561 113.744   6
  -6   3  -5 810.885 180.837   6
  -6   4 -10 3453.48 473.221   6
  -6   4  -9 2337.05 370.187   6
  -6   4  -8 3390.05 427.090   6
  -6   4  -7 818.209 200.593   6
  -6   4  -6 1594.41 264.543   6
  -6   5  -9-100.029 121.097   6
  -5 -12  -8 7965.54 705.467   6
  -5 -12  -7 2928.13 419.884   6
  -5 -11 -10 555.844 205.758   6
  -5 -11  -9-109.140 146.174   6
  -5 -11  -8 926.994 245.208   6
  -5 -10 -11 373.230 180.483   6
  -5 -10 -10 1711.69 321.778   6
  -5 -10  -9 567.297 198.738   6
  -5 -10  -8 96.2507 126.491   6
  -5 -10  -7 1324.63 283.918   6
  -5  -9 -12 1814.77 345.146   6
  -5  -9 -11 7664.97 684.025   6
  -5  -9 -10 1813.98 336.346   6
  -5  -9  -9 102.077 105.624   6
  -5  -9  -8 1722.85 301.469   6
  -5  -9  -7 3071.04 403.788   6
  -5  -8 -13 67.9527 171.071   6
  -5  -8 -12 523.259 192.433   6
  -5  -8 -11 5465.07 566.948   6
  -5  -8 -10 3194.58 426.135   6
  -5  -8  -9 1355.85 281.780   6
  -5  -8  -8 3091.98 397.703   6
  -5  -8  -7 1918.80 302.108   6
  -5  -7 -13-161.085 137.949   6
  -5  -7 -12 592.131 195.353   6
  -5  -7 -11 1957.48 338.647   6
  -5  -7 -10 2439.55 376.515   6
  -5  -7  -9 5452.59 532.622   6
  -5  -7  -8 6382.81 557.436   6
  -5  -7  -7 1366.54 251.781   6
  -5  -6 -13 201.984 141.112   6
  -5  -6 -12 597.268 241.224   6
  -5  -6 -11 1840.21 345.142   6
  -5  -6 -10 3732.83 443.536   6
  -5  -6  -9 5841.42 525.808   6
  -5  -6  -8 7246.81 574.474   6
  -5  -6  -7 1364.95 240.118   6
  -5  -6  -6 1859.72 280.219   6
  -5  -5 -13 92.9260 128.208   6
  -5  -5 -12 784.498 241.359   6
  -5  -5 -11 4311.23 500.745   6
  -5  -5 -10 5833.19 553.887   6
  -5  -5  -9 1135.94 241.544   6
  -5  -5  -8 443.952 184.132   6
  -5  -5  -7 1367.85 239.067   6
  -5  -5  -6 3212.75 354.732   6
  -5  -4 -13 1283.43 308.349   6
  -5  -4 -12 14418.3 946.459   6
  -5  -4 -11 6292.11 594.311   6
  -5  -4 -10 1832.24 330.105   6
  -5  -4  -9 8437.11 628.683   6
  -5  -4  -8 2760.42 343.261   6
  -5  -4  -7 562.845 155.343   6
  -5  -4  -6 1658.27 239.416   6
  -5  -4  -5 9028.07 548.950   6
  -5  -3 -13 1264.08 319.519   6
  -5  -3 -12 5966.33 602.315   6
  -5  -3 -11 12090.8 831.337   6
  -5  -3 -10 1273.31 270.780   6
  -5  -3  -9 4037.03 430.133   6
  -5  -3  -8 14303.9 786.236   6
  -5  -3  -7 3299.70 351.328   6
  -5  -3  -6 9672.51 575.142   6
  -5  -3  -5 22816.1 892.533   6
  -5  -3  -4 8249.13 491.878   6
  -5  -3  -3 11489.7 457.793   1
  -5  -2 -13 7547.78 715.679   6
  -5  -2 -12 114.885 129.406   6
  -5  -2 -11 2739.20 398.210   6
  -5  -2 -10 1313.86 272.518   6
  -5  -2  -9 6426.10 549.306   6
  -5  -2  -8 4652.67 436.383   6
  -5  -2  -7 5220.22 440.125   6
  -5  -2  -6 13160.1 674.950   6
  -5  -2  -5 38621.1 1217.03   6
  -5  -2  -4 21085.9 810.545   6
  -5  -2  -3 4100.37 319.092   6
  -5  -2  -3 3654.55 244.134   1
  -5  -2  -2 17831.8 626.683   1
  -5  -1 -13 6377.27 663.439   6
  -5  -1 -12 3730.69 484.253   6
  -5  -1 -11 2113.01 354.603   6
  -5  -1 -10 328.180 190.102   6
  -5  -1  -9 4304.92 449.223   6
  -5  -1  -8 2006.20 294.664   6
  -5  -1  -7 16848.8 816.183   6
  -5  -1  -6 10864.2 610.304   6
  -5  -1  -5 3281.59 309.873   6
  -5  -1  -4 519.818 123.719   6
  -5  -1  -3 29765.2 943.133   6
  -5  -1  -2 18247.7 639.612   1
  -5  -1  -2 17326.9 658.618   6
  -5  -1  -1 14005.2 565.344   1
  -5  -1   0 17006.0 661.716   1
  -5   0 -12 3517.36 493.184   6
  -5   0 -11 1494.61 307.989   6
  -5   0 -10 1319.77 279.892   6
  -5   0  -9 6970.78 580.204   6
  -5   0  -8 5845.43 505.847   6
  -5   0  -7 9400.48 603.121   6
  -5   0  -6 25639.1 998.704   6
  -5   0  -5 190.991 90.2433   6
  -5   0  -4 17713.2 715.868   6
  -5   0  -3 5706.27 360.269   6
  -5   0  -2 22041.2 732.524   6
  -5   0  -1 11616.3 484.857   6
  -5   0  -1 13428.5 558.625   1
  -5   0  -1 13325.2 596.306   2
  -5   0   0 28490.3 910.706   1
  -5   1 -12 2104.64 396.496   6
  -5   1 -11 3199.49 453.947   6
  -5   1 -10 2202.60 360.723   6
  -5   1  -9 1981.61 324.404   6
  -5   1  -8 15848.5 859.567   6
  -5   1  -7 17975.7 866.548   6
  -5   1  -6 4372.56 388.622   6
  -5   1  -5 2058.34 250.978   6
  -5   1  -4 4527.42 342.717   6
  -5   1  -3 7476.43 414.605   6
  -5   1  -2 12887.2 523.264   6
  -5   1  -1 12793.2 487.821   6
  -5   1  -1 13098.8 584.561   2
  -5   1   0 33825.4 1044.17   2
  -5   1   0 32586.1 851.144   6
  -5   2 -12 2514.74 433.388   6
  -5   2 -11 2041.40 352.924   6
  -5   2 -10 5738.54 582.405   6
  -5   2  -9 1627.50 304.005   6
  -5   2  -8 162.069 117.886   6
  -5   2  -7 5917.33 494.555   6
  -5   2  -6 8186.96 544.605   6
  -5   2  -5 5344.85 407.133   6
  -5   2  -4 15802.6 683.868   6
  -5   2  -3 9676.84 480.894   6
  -5   2  -2 13762.0 542.367   6
  -5   2  -1 44375.0 1087.55   6
  -5   2  -1 43639.6 1220.46   2
  -5   2   0 21209.1 776.622   2
  -5   3 -11 2272.31 385.620   6
  -5   3 -10 7215.29 657.375   6
  -5   3  -9 2499.34 379.127   6
  -5   3  -8 246.407 151.255   6
  -5   3  -7 98.9552 94.0683   6
  -5   3  -6 7029.54 521.407   6
  -5   3  -5 6196.53 450.151   6
  -5   3  -4 12489.5 610.050   6
  -5   3  -3 11283.4 530.344   6
  -5   3  -2 786.905 120.881   6
  -5   3  -1 7908.21 426.469   2
  -5   3   0 22052.6 776.448   2
  -5   3   1 4754.01 339.964   2
  -5   4 -10 4542.31 537.636   6
  -5   4  -9 2185.27 353.357   6
  -5   4  -8 369.921 188.969   6
  -5   4  -7 1534.49 270.309   6
  -5   4  -6 3594.50 375.240   6
  -5   4  -5 6851.70 490.947   6
  -5   4  -4 12625.8 629.170   6
  -5   4   1 8461.27 451.999   2
  -5   5 -10 888.278 242.501   6
  -5   5  -9 446.492 190.365   6
  -5   5  -8 1760.13 304.153   6
  -5   5  -7 4353.01 455.855   6
  -5   5  -6 545.341 171.284   6
  -5   5  -5 422.516 133.812   6
  -5   6  -7 1237.77 254.460   6
  -5  10   1 2264.54 345.068   8
  -5  11   0 1962.08 343.169   8
  -5  11   1-105.421 155.159   8
  -4 -11  -9 2418.47 361.172   6
  -4 -11  -8 374.604 152.025   6
  -4 -10 -12 1072.66 249.728   3
  -4 -10 -11 374.271 141.358   6
  -4 -10 -10-65.5021 109.290   6
  -4 -10  -9 1713.72 304.318   6
  -4 -10  -8 16818.1 941.014   6
  -4  -9 -13 1927.92 367.222   3
  -4  -9 -12 304.401 170.061   3
  -4  -9 -12 337.469 184.919   6
  -4  -9 -11-2.58841 92.3274   3
  -4  -9 -11 145.262 153.373   6
  -4  -9 -10 1804.03 314.868   6
  -4  -9 -10 1291.03 255.987   3
  -4  -9  -9-15.9311 96.9940   6
  -4  -9  -8 2001.32 314.148   6
  -4  -9  -7 19686.8 997.147   6
  -4  -8 -13 1088.17 275.467   6
  -4  -8 -12 2594.70 396.277   6
  -4  -8 -11 784.548 228.597   6
  -4  -8 -10 2666.12 365.622   6
  -4  -8  -9 2574.09 351.747   6
  -4  -8  -9 2464.80 321.981   3
  -4  -8  -8 175.656 110.699   3
  -4  -8  -8 90.4220 95.1186   6
  -4  -8  -7 1871.52 277.720   6
  -4  -7 -14 1878.32 355.530   6
  -4  -7 -13 100.794 120.496   6
  -4  -7 -12 1575.95 318.613   6
  -4  -7 -11 13352.6 848.284   6
  -4  -7 -10 5866.16 536.208   6
  -4  -7  -9 793.596 198.407   6
  -4  -7  -8 2737.04 344.005   6
  -4  -7  -7 6496.77 509.361   6
  -4  -6 -14 3199.14 449.325   6
  -4  -6 -13 176.806 135.521   6
  -4  -6 -12-42.9437 121.519   6
  -4  -6 -11 7721.76 633.526   6
  -4  -6 -10 6814.56 576.296   6
  -4  -6  -9 1250.54 244.850   6
  -4  -6  -8 4735.52 435.133   6
  -4  -6  -7 4500.32 405.169   6
  -4  -6  -6 1747.59 258.220   6
  -4  -5 -14 2005.40 376.611   6
  -4  -5 -13 392.731 163.800   6
  -4  -5 -12 1101.58 266.360   6
  -4  -5 -11 3872.64 457.329   6
  -4  -5 -10 2947.35 378.283   6
  -4  -5  -9 5901.34 498.611   6
  -4  -5  -8 11718.4 686.387   6
  -4  -5  -7 4561.54 403.261   6
  -4  -5  -6 262.601 129.993   6
  -4  -5  -1 10248.9 514.079   2
  -4  -4 -14 308.346 166.836   6
  -4  -4 -13 212.902 172.470   6
  -4  -4 -12 330.452 161.383   6
  -4  -4 -11 2201.54 345.679   6
  -4  -4 -10 3674.13 413.705   6
  -4  -4  -9 8149.63 583.438   6
  -4  -4  -8 15810.2 794.104   6
  -4  -4  -7 2500.16 305.394   6
  -4  -4  -6 2179.30 254.318   6
  -4  -4  -5 14911.9 683.724   6
  -4  -4  -1 14122.3 600.751   2
  -4  -4   0 2126.01 223.167   2
  -4  -3 -14 286.302 146.673   6
  -4  -3 -13 105.618 140.112   6
  -4  -3 -12 787.747 216.620   6
  -4  -3 -11 2965.88 388.869   6
  -4  -3 -10 5606.72 515.059   6
  -4  -3  -9 4280.63 420.744   6
  -4  -3  -8 1803.16 264.161   6
  -4  -3  -7 1824.48 264.747   6
  -4  -3  -6 5123.84 395.515   6
  -4  -3  -5 15513.0 672.429   6
  -4  -3  -4 11705.1 367.546   1
  -4  -3  -4 11776.3 558.248   6
  -4  -3  -1 17805.4 673.477   2
  -4  -3   0 1737.14 193.637   2
  -4  -3   1 13710.8 599.522   2
  -4  -2 -13 553.970 204.401   6
  -4  -2 -12 10197.6 772.579   6
  -4  -2 -11 9755.06 727.390   6
  -4  -2 -10 2328.10 343.865   6
  -4  -2  -9 7255.51 556.679   6
  -4  -2  -8 4476.08 411.863   6
  -4  -2  -7 515.032 143.858   6
  -4  -2  -6 1797.78 236.557   6
  -4  -2  -5 15115.9 651.562   6
  -4  -2  -4 14149.1 596.291   6
  -4  -2  -3 23683.5 641.231   1
  -4  -2  -1 1008.39 147.710   2
  -4  -2   0 8106.52 429.437   2
  -4  -2   1 25635.3 854.312   2
  -4  -1 -13 465.581 187.452   6
  -4  -1 -12 5366.94 571.991   6
  -4  -1 -11 14266.5 895.765   6
  -4  -1 -10 2368.09 344.847   6
  -4  -1  -9 2463.41 339.003   6
  -4  -1  -8 18121.4 868.229   6
  -4  -1  -7 6150.66 456.009   6
  -4  -1  -6 6994.55 457.036   6
  -4  -1  -5 23904.2 860.166   6
  -4  -1  -4 12795.6 555.519   6
  -4  -1  -3 21096.0 709.836   6
  -4  -1  -2 22744.1 662.674   1
  -4  -1  -1 5359.49 328.815   2
  -4  -1  -1 4806.10 276.596   1
  -4  -1   0 89.9341 56.4665   2
  -4  -1   1 27635.8 884.737   2
  -4   0 -13 7437.86 714.909   6
  -4   0 -12 476.845 227.114   6
  -4   0 -11 1715.92 299.265   6
  -4   0 -10 462.438 177.391   6
  -4   0  -9 8243.27 607.249   6
  -4   0  -8 7553.71 548.033   6
  -4   0  -7 6984.65 496.235   6
  -4   0  -6 15484.8 713.508   6
  -4   0  -5 51192.5 1408.91   6
  -4   0  -4 34065.4 1018.26   6
  -4   0  -3 5555.98 328.283   6
  -4   0  -2 23918.8 720.579   6
  -4   0  -1 28606.1 807.779   1
  -4   0  -1 26342.7 752.460   6
  -4   0  -1 29474.3 862.870   2
  -4   0   0 2307.92 214.136   2
  -4   0   0 2557.25 210.777   1
  -4   0   1 10476.3 471.630   1
  -4   0   1 10596.3 491.936   2
  -4   1 -12 6214.97 646.991   6
  -4   1 -11 1481.85 304.043   6
  -4   1 -10 1651.92 302.569   6
  -4   1  -9 4160.14 451.185   6
  -4   1  -8 3537.72 390.937   6
  -4   1  -7 11348.9 654.604   6
  -4   1  -6 18746.4 811.537   6
  -4   1  -5 616.288 138.746   6
  -4   1  -4 252.239 90.3926   6
  -4   1  -3 39425.4 1068.69   6
  -4   1  -2 30481.7 845.949   6
  -4   1  -1 19215.0 659.566   2
  -4   1  -1 19119.8 575.775   6
  -4   1   0 25933.7 800.367   2
  -4   1   0 27443.8 815.597   1
  -4   1   1 34990.0 995.113   1
  -4   1   1 34836.2 1002.26   2
  -4   1   2 47234.7 1253.34   1
  -4   2 -12 2084.04 377.754   6
  -4   2 -11 1845.08 342.999   6
  -4   2 -10 932.212 249.684   6
  -4   2  -9 5270.01 517.552   6
  -4   2  -8 6029.99 516.359   6
  -4   2  -7 6904.36 515.281   6
  -4   2  -6 30253.4 1094.18   6
  -4   2  -5 621.975 143.962   6
  -4   2  -4 26548.7 891.239   6
  -4   2  -3 1862.59 194.232   6
  -4   2  -2 5449.93 324.154   6
  -4   2  -1 19928.7 659.807   2
  -4   2  -1 19387.8 578.958   6
  -4   2   0 40160.1 1046.53   2
  -4   2   0 37526.9 862.497   6
  -4   2   1 10402.8 478.197   1
  -4   2   1 9303.84 436.270   2
  -4   2   2 313.995 92.7703   1
  -4   3 -11 3247.34 465.896   6
  -4   3 -10 2890.98 413.433   6
  -4   3  -9 1840.52 313.449   6
  -4   3  -8 11046.6 725.290   6
  -4   3  -7 19552.0 933.039   6
  -4   3  -6 5716.95 454.372   6
  -4   3  -5 3839.27 344.773   6
  -4   3  -4 2958.75 278.831   6
  -4   3  -3 6105.45 370.234   6
  -4   3  -2 14171.3 533.678   6
  -4   3  -1 12386.3 436.879   6
  -4   3   0 31694.2 891.042   2
  -4   3   1 20892.3 701.714   2
  -4   4 -11 1767.34 358.577   6
  -4   4 -10 5226.00 575.840   6
  -4   4  -9 1526.93 304.618   6
  -4   4  -8 93.2880 117.425   6
  -4   4  -7 4869.56 460.125   6
  -4   4  -6 6821.23 517.751   6
  -4   4  -5 3237.05 326.088   6
  -4   4  -4 15523.1 694.338   6
  -4   4  -3 12991.9 575.433   6
  -4   4  -2 10793.9 470.382   6
  -4   4  -1 38197.6 958.665   6
  -4   4   0 29082.3 816.728   2
  -4   4   1 1920.03 184.048   2
  -4   5 -10 4577.97 538.912   6
  -4   5  -9 3441.24 453.523   6
  -4   5  -8 39.1473 114.021   6
  -4   5  -7 151.363 119.142   6
  -4   5  -6 3694.49 386.698   6
  -4   5  -5 5714.04 454.217   6
  -4   5  -4 10708.1 585.902   6
  -4   5  -3 13274.1 606.755   6
  -4   6  -6 2864.95 358.126   6
  -4   6  -5 5781.66 471.352   6
  -4   8  -7 1658.25 344.225   9
  -4   8   3 7582.33 513.354   8
  -4   9   2 3217.04 376.256   8
  -4  10   1 442.048 181.814   8
  -4  10   2 11007.3 737.787   8
  -4  11  -2 589.181 246.518   8
  -4  11  -1 261.940 166.101   8
  -4  11   0 1764.16 340.165   8
  -4  11   1 2887.08 422.478   8
  -4  11   2 3084.47 410.749   8
  -4  12   1 1355.47 290.942   8
  -4  12   2 1688.01 326.256   8
  -3 -11 -11 361.353 161.866   3
  -3 -10 -12 2477.05 397.581   3
  -3 -10 -11 60.3010 108.754   3
  -3 -10 -10 1047.12 235.761   3
  -3 -10  -9 1677.64 287.766   3
  -3 -10  -9 1433.45 259.618   6
  -3 -10  -8 802.150 208.610   6
  -3 -10  -7 681.362 185.986   6
  -3  -9 -13 4090.82 517.064   3
  -3  -9 -12 1967.87 353.240   3
  -3  -9 -11 1716.96 315.486   3
  -3  -9 -10 1722.54 307.556   3
  -3  -9 -10 3291.43 390.296   6
  -3  -9  -9 3028.96 373.120   6
  -3  -9  -9 3040.30 384.050   3
  -3  -9  -8 200.133 127.651   3
  -3  -9  -8 125.806 91.2607   6
  -3  -9  -7 769.825 182.194   6
  -3  -9  -7 962.540 192.328   3
  -3  -8 -13 6151.48 619.184   3
  -3  -8 -12 2169.60 359.241   3
  -3  -8 -11 1076.92 240.670   3
  -3  -8 -11 1455.32 269.533   6
  -3  -8 -10 344.174 147.002   6
  -3  -8 -10-7.57532 90.1028   3
  -3  -8  -9 731.700 167.669   3
  -3  -8  -9 1268.90 233.461   6
  -3  -8  -8 25015.3 1044.13   3
  -3  -8  -8 27621.7 1101.19   6
  -3  -8  -7 25798.4 1003.09   3
  -3  -8  -7 27345.3 1083.29   6
  -3  -8  -6 3997.66 345.811   3
  -3  -7 -14 29.0180 130.434   4
  -3  -7 -13 2835.96 414.389   4
  -3  -7 -13 2794.36 397.878   6
  -3  -7 -12 433.557 176.963   6
  -3  -7 -12 1173.84 251.518   4
  -3  -7 -11 226.686 145.594   6
  -3  -7 -10 2077.60 304.329   6
  -3  -7  -9 288.758 139.710   6
  -3  -7  -8 2273.74 289.465   6
  -3  -7  -7 40328.5 1301.89   3
  -3  -7  -7 44162.3 1397.28   6
  -3  -7  -6 19800.7 783.262   3
  -3  -7  -5 2208.80 226.190   3
  -3  -6 -14 707.189 224.255   6
  -3  -6 -14 654.169 241.755   4
  -3  -6 -13 3854.37 468.358   6
  -3  -6 -12 2983.68 397.309   6
  -3  -6 -11 681.655 193.183   6
  -3  -6 -10 2761.03 346.631   6
  -3  -6  -9 5266.63 457.236   6
  -3  -6  -8 620.033 159.290   6
  -3  -6  -7 3122.84 319.410   6
  -3  -6  -6 9567.20 551.086   6
  -3  -6  -4 4045.47 269.104   3
  -3  -6  -3 1676.84 155.321   3
  -3  -6   0 68077.8 1593.54   2
  -3  -5 -14 1953.07 350.781   6
  -3  -5 -13 475.506 183.339   6
  -3  -5 -12 1186.74 252.977   6
  -3  -5 -11 15235.5 863.027   6
  -3  -5 -10 10209.7 667.746   6
  -3  -5  -9 1200.91 219.886   6
  -3  -5  -8 3839.42 361.396   6
  -3  -5  -7 7293.68 478.853   6
  -3  -5  -6 8560.94 500.964   6
  -3  -5  -3 6933.19 311.701   3
  -3  -5  -2 7947.31 298.004   3
  -3  -5   0 13623.8 536.675   2
  -3  -5   1 9337.59 448.913   2
  -3  -5   2 2403.77 226.435   2
  -3  -4 -14 3647.12 482.795   6
  -3  -4 -13 283.664 178.393   6
  -3  -4 -12-24.2865 124.068   6
  -3  -4 -11 10315.0 704.648   6
  -3  -4 -10 13602.4 775.562   6
  -3  -4  -9 2582.04 314.336   6
  -3  -4  -8 5293.08 422.862   6
  -3  -4  -7 8946.21 522.420   6
  -3  -4  -6 2996.43 281.014   6
  -3  -4  -5 34644.0 1057.47   6
  -3  -4  -2 6417.43 246.423   3
  -3  -4  -1 14816.7 556.823   2
  -3  -4   0 2957.48 227.299   2
  -3  -4   1 3472.19 258.661   2
  -3  -4   2 1000.12 145.781   2
  -3  -3 -14 3248.53 461.542   6
  -3  -3 -13 172.752 132.169   6
  -3  -3 -12 856.159 230.446   6
  -3  -3 -11 5785.25 518.243   6
  -3  -3 -10 4540.87 450.563   6
  -3  -3  -9 4856.02 430.267   6
  -3  -3  -8 13564.6 695.186   6
  -3  -3  -7 8967.19 525.200   6
  -3  -3  -6 123.277 69.0718   6
  -3  -3  -5 12280.5 551.653   6
  -3  -3  -4 89975.7 1614.56   1
  -3  -3  -4 87512.6 1993.63   6
  -3  -3  -1 19832.7 644.338   2
  -3  -3   0 12013.8 479.953   2
  -3  -3   1 13663.6 533.384   2
  -3  -2 -14 346.997 211.487   6
  -3  -2 -13 319.094 172.709   6
  -3  -2 -12 1281.85 267.007   6
  -3  -2 -11 2471.20 358.743   6
  -3  -2 -10 3186.40 374.752   6
  -3  -2  -9 8944.79 593.168   6
  -3  -2  -8 22671.2 934.881   6
  -3  -2  -7 3862.27 339.577   6
  -3  -2  -6 1741.08 220.139   6
  -3  -2  -5 25124.4 836.246   6
  -3  -2  -4 35304.9 987.425   6
  -3  -2  -3 9144.34 287.767   1
  -3  -2  -1 30836.1 842.041   2
  -3  -2   0 5680.69 307.670   2
  -3  -2   1 5425.08 315.505   2
  -3  -1 -14 557.824 231.163   9
  -3  -1 -13 193.033 160.641   6
  -3  -1 -12 379.716 199.480   6
  -3  -1 -11 2201.15 347.028   6
  -3  -1 -10 5860.41 516.634   6
  -3  -1  -9 5759.43 485.467   6
  -3  -1  -8 2895.77 322.046   6
  -3  -1  -7 1628.55 224.916   6
  -3  -1  -6 5412.89 386.588   6
  -3  -1  -5 25516.1 850.748   6
  -3  -1  -4 19650.0 677.187   6
  -3  -1  -3 15094.8 539.002   6
  -3  -1  -2 49276.7 1051.47   1
  -3  -1  -1 45140.9 1088.51   2
  -3  -1   0 393.878 83.7073   2
  -3   0 -13 760.882 254.533   6
  -3   0 -12 6031.07 603.158   6
  -3   0 -11 8648.56 685.329   6
  -3   0 -10 2714.90 365.413   6
  -3   0  -9 10471.5 669.863   6
  -3   0  -8 5739.45 467.777   6
  -3   0  -7 435.609 141.350   6
  -3   0  -6 1445.20 204.372   6
  -3   0  -5 19575.5 733.866   6
  -3   0  -4 19753.9 683.497   6
  -3   0  -3 25364.8 748.056   6
  -3   0  -2 27031.9 727.196   6
  -3   0  -1 3214.89 214.149   2
  -3   0  -1 3153.99 187.231   6
  -3   0  -1 3061.48 191.354   1
  -3   0   0 9140.02 365.917   1
  -3   0   0 9422.90 389.327   2
  -3   1 -13 692.060 275.284   6
  -3   1 -13 923.886 294.951   9
  -3   1 -12 3884.84 495.463   6
  -3   1 -11 17191.4 1011.69   6
  -3   1 -10 4402.78 488.006   6
  -3   1  -9 1217.21 231.036   6
  -3   1  -8 15293.0 794.919   6
  -3   1  -7 8571.81 547.661   6
  -3   1  -6 4845.00 380.090   6
  -3   1  -5 20640.3 771.482   6
  -3   1  -4 14110.0 572.756   6
  -3   1  -3 24954.6 750.646   6
  -3   1  -2 49489.7 1141.07   6
  -3   1  -1 7901.51 302.494   6
  -3   1  -1 7866.41 338.213   2
  -3   1   0 9406.69 383.093   1
  -3   1   0 8693.29 288.412   6
  -3   1   0 8147.66 355.554   2
  -3   1   1 50072.3 1185.43   1
  -3   1   2 30731.5 864.087   1
  -3   2 -12 1463.43 324.485   6
  -3   2 -11 1233.19 293.894   6
  -3   2 -10 321.921 183.267   6
  -3   2  -9 6091.72 544.233   6
  -3   2  -8 6031.01 515.418   6
  -3   2  -7 7418.75 532.026   6
  -3   2  -6 11245.4 609.059   6
  -3   2  -5 42055.7 1244.24   6
  -3   2  -4 42859.2 1184.63   6
  -3   2  -3 7109.82 367.573   6
  -3   2  -2 20763.2 626.219   6
  -3   2  -1 39695.6 942.544   2
  -3   2  -1 38543.8 899.725   6
  -3   2   0 3472.70 212.297   2
  -3   2   0 2966.14 150.232   6
  -3   2   1 8090.69 381.598   1
  -3   2   2 16462.5 592.479   1
  -3   2   3 21019.7 707.545   1
  -3   2   4 31306.9 941.212   1
  -3   2   5 2974.51 260.644   1
  -3   3 -12 7225.78 705.893   6
  -3   3 -12 7251.17 729.713   9
  -3   3 -11 681.288 227.532   6
  -3   3 -10 3909.97 470.694   6
  -3   3  -9 2191.80 339.999   6
  -3   3  -8 3939.01 423.631   6
  -3   3  -7 7659.50 568.087   6
  -3   3  -6 18303.0 829.154   6
  -3   3  -5 318.720 118.476   6
  -3   3  -4 579.462 134.634   6
  -3   3  -3 34285.5 987.194   6
  -3   3  -2 31622.3 862.836   6
  -3   3  -1 19318.3 560.347   6
  -3   3   0 31601.2 783.985   2
  -3   3   0 30085.2 689.107   6
  -3   3   3 24022.1 789.257   1
  -3   3   4 8338.04 440.493   1
  -3   4 -11 1894.79 361.719   6
  -3   4 -11 1091.15 284.685   9
  -3   4 -10 355.679 190.029   6
  -3   4  -9 2823.67 399.077   6
  -3   4  -8 4381.34 465.122   6
  -3   4  -7 3892.40 408.162   6
  -3   4  -6 23020.6 981.505   6
  -3   4  -5 3660.62 348.977   6
  -3   4  -4 21877.1 832.020   6
  -3   4  -3 81.5059 56.5155   6
  -3   4  -2 29682.2 865.319   6
  -3   4  -1 20046.2 606.097   6
  -3   4   0 36015.2 847.340   2
  -3   4   1 15511.3 500.551   2
  -3   5 -10 4402.33 551.786   9
  -3   5  -9 1222.29 273.966   6
  -3   5  -8 6125.37 562.312   6
  -3   5  -7 14323.0 830.104   6
  -3   5  -6 5983.64 499.902   6
  -3   5  -5 3269.02 338.878   6
  -3   5  -4 1434.81 210.725   6
  -3   5  -3 1792.85 211.130   6
  -3   5  -2 9282.22 449.566   6
  -3   5   1 28423.5 723.431   2
  -3   6 -10 3307.53 491.810   9
  -3   6  -9 1831.05 356.371   9
  -3   6   4 1178.01 155.032   8
  -3   7  -9 2597.83 442.949   9
  -3   7  -8 112.035 178.489   9
  -3   7  -7 144.899 144.257   9
  -3   7   3 20732.0 819.220   8
  -3   7   4 10051.6 519.150   8
  -3   8  -8 203.027 161.789   9
  -3   8  -7 212.181 148.887   9
  -3   8  -6 989.105 264.301   9
  -3   8  -5 4912.44 509.371   9
  -3   8  -4 6741.88 558.661   9
  -3   8   2 7699.31 523.283   8
  -3   8   3 18469.7 821.066   8
  -3   8   4 6657.14 457.132   8
  -3   9   1 3735.45 413.823   8
  -3   9   2 9592.75 633.615   8
  -3   9   3 6675.73 511.800   8
  -3   9   4 2345.14 291.441   8
  -3  10  -1 2419.38 369.484   8
  -3  10   0 3106.90 412.373   8
  -3  10   1 1376.47 270.525   8
  -3  10   2 3517.78 410.304   8
  -3  10   3 5492.85 492.321   8
  -3  10   4 1889.62 286.239   8
  -3  11  -3 1726.79 349.727   8
  -3  11  -2-253.873 168.875   8
  -3  11  -1 1892.64 359.547   8
  -3  11   0 2188.31 356.376   8
  -3  11   1 1882.51 340.768   8
  -3  11   2 1047.78 251.584   8
  -3  11   3 535.369 180.334   8
  -3  12   0 1101.83 293.114   8
  -3  12   1-43.9848 135.436   8
  -3  12   2 4996.44 543.905   8
  -3  12   3 3587.26 455.746   8
  -2 -12 -10 234.795 126.849   3
  -2 -11 -11 584.267 203.983   3
  -2 -11 -10 1554.59 312.239   3
  -2 -11  -9 2727.42 374.245   3
  -2 -11  -8 2437.68 353.162   3
  -2 -10 -12 1902.32 359.482   3
  -2 -10 -11 4402.24 494.170   3
  -2 -10 -10 3877.68 446.995   3
  -2 -10  -9 5617.72 530.083   3
  -2 -10  -8 5838.99 514.695   3
  -2 -10  -7 1108.09 219.343   3
  -2 -10  -6 1605.57 244.703   3
  -2  -9 -13 1074.30 277.044   3
  -2  -9 -12 810.368 240.272   3
  -2  -9 -11 413.779 180.363   3
  -2  -9 -10 6585.20 582.310   3
  -2  -9  -9 7324.39 585.012   3
  -2  -9  -8 2877.56 348.915   3
  -2  -9  -8 2508.15 307.578   6
  -2  -9  -7 630.279 162.287   6
  -2  -9  -7 636.340 170.221   3
  -2  -9  -6 1550.51 219.756   3
  -2  -9  -5 8780.85 527.191   3
  -2  -8 -14-84.6610 103.649   4
  -2  -8 -13 2856.52 436.491   3
  -2  -8 -13 3740.44 466.343   4
  -2  -8 -12 5867.40 597.052   3
  -2  -8 -11 93.1110 130.566   3
  -2  -8 -10 507.284 173.650   3
  -2  -8  -9 4127.81 424.752   3
  -2  -8  -9 4677.13 409.789   6
  -2  -8  -8 113.285 124.372   3
  -2  -8  -8 217.251 113.530   6
  -2  -8  -7 270.534 98.1128   6
  -2  -8  -7 150.918 98.6031   3
  -2  -8  -6 4358.06 364.221   3
  -2  -8  -5 2750.77 275.220   3
  -2  -8  -4 14258.6 625.093   3
  -2  -8  -3 25238.2 845.559   3
  -2  -7 -14 11179.6 853.849   4
  -2  -7 -13 7926.14 688.332   4
  -2  -7 -12 3188.02 410.063   4
  -2  -7 -11 3344.20 394.051   4
  -2  -7 -11 2977.02 355.100   6
  -2  -7 -10 2671.85 334.105   4
  -2  -7 -10 3085.66 341.890   6
  -2  -7  -9 5417.63 441.943   4
  -2  -7  -9 5852.30 458.175   6
  -2  -7  -8 247.785 105.072   6
  -2  -7  -8 185.707 97.2898   3
  -2  -7  -8 422.174 125.392   4
  -2  -7  -7 827.895 161.417   6
  -2  -7  -7 585.662 153.165   3
  -2  -7  -6 18071.7 760.584   3
  -2  -7  -5 4336.70 331.349   3
  -2  -7  -4 109.985 90.3126   3
  -2  -7  -3 15289.1 586.768   3
  -2  -7  -2 7693.79 378.995   3
  -2  -6 -14 2688.71 428.225   4
  -2  -6 -13 10759.2 810.329   4
  -2  -6 -12 4170.95 443.118   6
  -2  -6 -12 3952.48 467.566   4
  -2  -6 -11 2818.28 353.091   6
  -2  -6 -10 814.340 184.698   6
  -2  -6  -9 530.285 155.192   6
  -2  -6  -8 29804.4 1055.48   6
  -2  -6  -7 47919.4 1376.73   6
  -2  -6  -6 14724.0 651.407   6
  -2  -6  -6 14705.0 590.283   4
  -2  -6  -5 5561.61 303.474   4
  -2  -6  -5 6180.99 374.142   3
  -2  -6  -4 6362.22 354.408   3
  -2  -6  -3 6471.10 337.453   3
  -2  -6  -2 1536.58 148.697   3
  -2  -6  -1 323.187 70.5898   3
  -2  -5 -14-5.58539 131.091   4
  -2  -5 -13 2320.03 354.231   6
  -2  -5 -12 1630.48 286.555   6
  -2  -5 -11 326.510 123.794   6
  -2  -5 -10 1905.19 276.438   6
  -2  -5  -9 272.699 126.091   6
  -2  -5  -8 2110.08 258.180   6
  -2  -5  -7 76623.4 1888.22   6
  -2  -5  -6 50486.2 1362.01   6
  -2  -5  -5 2612.17 123.904   1
  -2  -5  -4 6311.47 221.859   7
  -2  -5  -3 3876.76 173.365   4
  -2  -5  -3 4211.25 246.151   3
  -2  -5  -2 14155.9 465.974   3
  -2  -5  -1 89005.8 1753.80   3
  -2  -5   0 31424.0 803.918   2
  -2  -5   0 29323.9 709.149   3
  -2  -5   1 2470.24 191.174   2
  -2  -5   2 4470.46 274.502   2
  -2  -4 -14 548.756 205.021   6
  -2  -4 -13 2837.14 398.510   6
  -2  -4 -12 4798.64 478.478   6
  -2  -4 -11 969.860 220.671   6
  -2  -4 -10 1510.67 249.109   6
  -2  -4  -9 7029.48 496.740   6
  -2  -4  -8 1606.65 220.352   6
  -2  -4  -7 5020.65 364.995   6
  -2  -4  -6 18425.4 699.123   6
  -2  -4  -6 18330.8 552.518   7
  -2  -4  -5 4925.28 213.261   7
  -2  -4  -5 5104.62 329.311   6
  -2  -4  -2 217.012 52.3464   3
  -2  -4  -1 131186. 2391.42   3
  -2  -4   0 241567. 4249.05   3
  -2  -4   0 250246. 4434.11   2
  -2  -4   1 9747.70 383.921   2
  -2  -4   1 8400.96 261.909   3
  -2  -3 -14 2049.98 354.582   6
  -2  -3 -13 455.903 176.719   6
  -2  -3 -12 1068.82 244.964   6
  -2  -3 -11 14038.6 804.529   6
  -2  -3 -10 14393.7 768.759   6
  -2  -3  -9 3353.69 342.149   6
  -2  -3  -8 4519.23 370.680   6
  -2  -3  -7 9410.30 509.061   6
  -2  -3  -6 9536.24 477.663   6
  -2  -3  -5 5243.24 325.329   6
  -2  -3  -4 777.178 123.081   6
  -2  -3  -1 7235.80 310.610   2
  -2  -3   0 41220.8 969.943   2
  -2  -3   1 28227.3 753.414   2
  -2  -2 -14 3850.30 496.045   6
  -2  -2 -13 522.494 206.341   6
  -2  -2 -12-173.855 148.496   6
  -2  -2 -11 6509.97 549.202   6
  -2  -2 -10 20284.9 949.659   6
  -2  -2  -9 3923.23 378.409   6
  -2  -2  -8 4597.64 379.880   6
  -2  -2  -7 12369.3 595.994   6
  -2  -2  -6 3710.59 289.757   6
  -2  -2  -5 40104.2 1081.04   6
  -2  -2  -4 92959.9 1950.06   6
  -2  -2  -3 6713.86 312.973   6
  -2  -2  -3 6344.79 163.578   1
  -2  -2  -1 38074.6 891.336   2
  -2  -2   0 1339.06 122.024   2
  -2  -1 -14 4496.20 548.255   6
  -2  -1 -13 415.750 184.345   6
  -2  -1 -13 1010.38 259.322   9
  -2  -1 -12 303.571 175.014   6
  -2  -1 -11 5865.24 542.497   6
  -2  -1 -10 6618.46 536.879   6
  -2  -1  -9 3641.71 370.416   6
  -2  -1  -8 12620.4 656.473   6
  -2  -1  -7 13450.2 639.029   6
  -2  -1  -6 124.939 55.8121   6
  -2  -1  -5 7880.48 405.961   6
  -2  -1  -4 159210. 3080.10   6
  -2  -1  -3 107719. 2128.25   6
  -2  -1  -2 5748.85 253.724   6
  -2  -1  -2 5060.97 176.739   1
  -2  -1  -1 19918.4 549.928   2
  -2  -1   0 19092.2 532.706   2
  -2   0 -13 784.859 236.696   6
  -2   0 -13 224.405 132.325   9
  -2   0 -12 1750.17 321.812   9
  -2   0 -12 1064.20 260.239   6
  -2   0 -11 3112.17 406.977   6
  -2   0 -10 2272.14 333.447   6
  -2   0  -9 5859.81 492.227   6
  -2   0  -8 24691.2 993.969   6
  -2   0  -7 7174.43 464.708   6
  -2   0  -6 316.629 108.397   6
  -2   0  -5 22621.9 766.377   6
  -2   0  -4 60798.6 1415.77   6
  -2   0  -3 17505.5 554.738   6
  -2   0  -2 6550.02 271.804   6
  -2   0  -1 49466.4 1031.47   1
  -2   0  -1 51147.7 1081.08   2
  -2   0  -1 51951.8 1046.42   6
  -2   0   0 19120.4 530.534   2
  -2   0   0 20167.2 520.361   1
  -2   1 -13 53.4330 123.450   6
  -2   1 -13-125.537 118.956   9
  -2   1 -12 528.285 202.244   9
  -2   1 -12 866.329 243.097   6
  -2   1 -11 1659.22 320.738   6
  -2   1 -10 3285.94 413.073   6
  -2   1  -9 6112.02 520.390   6
  -2   1  -8 4409.45 401.496   6
  -2   1  -7 2429.55 283.840   6
  -2   1  -6 5094.14 373.656   6
  -2   1  -5 28695.5 918.088   6
  -2   1  -4 23543.3 750.667   6
  -2   1  -3 11947.6 452.715   6
  -2   1  -2 59572.7 1275.64   6
  -2   1  -1 71135.4 1383.92   6
  -2   1  -1 70224.1 1401.36   2
  -2   1   0 225.492 60.2620   1
  -2   1   0 248.641 53.7742   2
  -2   1   1 11606.4 389.887   1
  -2   2 -12 3634.18 488.837   9
  -2   2 -12 2950.32 441.999   6
  -2   2 -11 5650.78 586.650   9
  -2   2 -11 4569.53 522.002   6
  -2   2 -10 2237.54 355.505   6
  -2   2  -9 8118.08 615.129   6
  -2   2  -8 5645.89 483.064   6
  -2   2  -7 462.148 144.008   6
  -2   2  -6 1117.25 194.025   6
  -2   2  -5 16609.5 686.355   6
  -2   2  -4 17244.0 646.302   6
  -2   2  -3 19177.7 632.930   6
  -2   2  -2 34946.5 867.229   6
  -2   2  -1 11201.0 357.560   6
  -2   2   0 11043.7 340.920   2
  -2   2   2 80278.5 1670.76   1
  -2   2   3 7950.38 351.679   1
  -2   2   4 4368.04 267.789   1
  -2   2   5 18633.6 642.120   1
  -2   3 -12 2436.74 411.318   9
  -2   3 -11 12484.2 907.433   9
  -2   3 -11 13722.1 931.817   6
  -2   3 -10 6214.31 592.107   6
  -2   3  -9 698.741 208.659   6
  -2   3  -8 8500.45 615.746   6
  -2   3  -7 8079.33 564.218   6
  -2   3  -6 3174.78 327.145   6
  -2   3  -5 11428.7 586.744   6
  -2   3  -4 7768.15 436.126   6
  -2   3  -3 16597.5 616.259   6
  -2   3  -2 50691.4 1199.76   6
  -2   3  -1 1141.58 115.130   6
  -2   3   0 16960.7 444.080   6
  -2   3   0 17144.6 440.364   2
  -2   3   3 8180.46 293.226   8
  -2   3   3 9339.14 399.404   1
  -2   3   4 17080.5 582.183   1
  -2   3   4 14809.1 389.839   8
  -2   3   5 17431.5 623.841   1
  -2   3   6 2503.62 224.248   1
  -2   3   7 5428.10 348.638   1
  -2   4 -11 265.182 207.053   9
  -2   4 -10 799.160 247.259   6
  -2   4 -10 250.913 187.381   9
  -2   4  -9 3204.46 413.499   6
  -2   4  -8 4484.27 472.618   6
  -2   4  -7 6756.02 532.945   6
  -2   4  -6 7040.47 512.585   6
  -2   4  -5 24467.6 942.690   6
  -2   4  -4 36420.1 1133.17   6
  -2   4  -3 9348.80 468.636   6
  -2   4  -2 12086.3 491.909   6
  -2   4  -1 27075.4 742.165   6
  -2   4   0 2722.39 125.735   2
  -2   4   3 11753.9 425.051   8
  -2   4   4 36396.3 866.995   8
  -2   4   5 8836.70 433.484   1
  -2   4   6 554.653 114.184   1
  -2   4   7 5166.38 344.943   1
  -2   5 -10 3173.88 473.985   9
  -2   5  -9 278.111 147.852   9
  -2   5  -8 3805.29 466.838   9
  -2   5  -6 10654.9 673.574   6
  -2   5  -5 1022.78 202.961   6
  -2   5  -4 1153.89 182.767   6
  -2   5   1 25843.2 578.433   2
  -2   5   3 21517.2 690.968   8
  -2   5   4 10909.6 440.479   8
  -2   5   5 8933.98 369.910   8
  -2   6 -10 48.3700 124.261   9
  -2   6  -9 1321.37 294.109   9
  -2   6  -8 2880.77 419.392   9
  -2   6  -7 1752.94 307.158   9
  -2   6   3 25698.5 848.423   8
  -2   6   4 32468.9 957.406   8
  -2   6   5 5075.04 312.721   8
  -2   7  -9 2233.77 405.469   9
  -2   7  -8 2549.60 405.863   9
  -2   7  -7 8295.16 698.963   9
  -2   7  -6 5153.58 519.535   9
  -2   7  -5 2736.25 356.170   9
  -2   7  -4 805.066 184.954   9
  -2   7   2 314.976 107.538   8
  -2   7   3 10102.3 533.974   8
  -2   7   4 11998.8 571.078   8
  -2   7   5 28832.4 937.332   8
  -2   8  -8 96.8185 179.204   9
  -2   8  -7 2104.15 377.098   9
  -2   8  -6 4476.44 502.578   9
  -2   8  -5 712.888 212.419   9
  -2   8  -4 5225.19 487.449   9
  -2   8  -3 9338.54 608.184   9
  -2   8   1 3514.55 356.674   8
  -2   8   2 664.400 163.696   8
  -2   8   3 80.8058 76.4966   8
  -2   8   4-56.1204 88.2314   8
  -2   8   5 6310.86 429.223   8
  -2   9  -7 102.798 116.892   9
  -2   9  -6 554.190 186.341   9
  -2   9  -5 1331.80 273.888   9
  -2   9   0 15736.4 857.718   8
  -2   9   1 4419.29 435.915   8
  -2   9   2 250.813 114.858   8
  -2   9   3 9344.91 604.367   8
  -2   9   4 8412.57 557.669   8
  -2   9   5 4021.01 369.611   8
  -2  10  -5 2517.68 421.985   8
  -2  10  -4 3381.96 470.067   8
  -2  10  -3 3837.81 486.896   8
  -2  10  -2 1397.67 298.225   8
  -2  10  -1 19.8819 124.804   8
  -2  10   0 98.6743 122.081   8
  -2  10   1 1829.89 291.757   8
  -2  10   2 3991.80 427.027   8
  -2  10   3 12521.5 758.117   8
  -2  10   4 7384.66 559.194   8
  -2  10   5 963.297 203.423   8
  -2  11  -4 1567.05 328.686   8
  -2  11  -3 3265.29 465.900   8
  -2  11  -2 802.897 253.762   8
  -2  11  -1 288.966 153.954   8
  -2  11   0-77.4739 105.733   8
  -2  11   1 1154.52 254.001   8
  -2  11   2 5807.60 558.764   8
  -2  11   3 5381.88 520.156   8
  -2  11   4 1694.68 292.402   8
  -2  11   5 681.969 198.327   8
  -2  12  -1 1323.69 302.461   8
  -2  12   0 1670.60 334.246   8
  -2  12   1 335.103 177.295   8
  -2  12   2 2071.83 347.194   8
  -2  12   3 4320.00 496.583   8
  -2  12   4 1011.48 247.670   8
  -2  13   2 1469.52 321.107   8
  -2  13   3 352.752 179.834   8
  -2  13   4 128.035 144.945   8
  -1 -12 -10 502.577 190.222   3
  -1 -12  -9 308.975 161.868   3
  -1 -12  -8 1327.68 267.588   3
  -1 -12  -7 3316.09 400.083   3
  -1 -11 -11 1051.04 254.970   3
  -1 -11 -10 980.552 262.446   3
  -1 -11  -9 2649.01 384.963   3
  -1 -11  -8 868.195 219.861   3
  -1 -11  -7 222.580 143.957   3
  -1 -11  -6 930.928 215.779   3
  -1 -11  -5 4082.68 405.712   3
  -1 -10 -12 687.887 222.597   3
  -1 -10 -11-33.7437 129.654   3
  -1 -10 -10 173.250 110.447   3
  -1 -10  -9 4787.07 493.632   3
  -1 -10  -8 7005.93 580.948   3
  -1 -10  -7 235.392 123.458   3
  -1 -10  -6 463.251 150.226   3
  -1 -10  -5 5975.46 469.716   3
  -1 -10  -4 2789.05 309.434   3
  -1  -9 -13 433.912 177.335   3
  -1  -9 -12 856.919 237.403   3
  -1  -9 -11 1045.88 255.137   3
  -1  -9 -10 1163.94 264.253   3
  -1  -9  -9 4693.72 472.625   3
  -1  -9  -8 4668.77 447.183   3
  -1  -9  -7 3887.67 396.075   3
  -1  -9  -6 5158.68 434.593   3
  -1  -9  -5 2329.56 283.686   3
  -1  -9  -4 813.757 167.899   3
  -1  -9  -3 5377.79 392.458   3
  -1  -9  -2 14601.8 664.926   3
  -1  -8 -13 8.39276 120.684   4
  -1  -8 -13 530.009 210.587   3
  -1  -8 -12 839.271 240.864   3
  -1  -8 -12 1377.32 280.299   4
  -1  -8 -11 7230.63 629.478   3
  -1  -8 -11 7409.75 599.814   4
  -1  -8 -10 5632.75 531.877   3
  -1  -8 -10 6211.46 520.396   4
  -1  -8  -9 7406.98 584.315   3
  -1  -8  -9 8197.74 550.121   4
  -1  -8  -8 8578.67 595.954   3
  -1  -8  -7 2800.30 320.315   3
  -1  -8  -7 2558.14 268.831   6
  -1  -8  -6 2369.64 273.035   3
  -1  -8  -5 3028.12 303.646   3
  -1  -8  -4 2943.71 289.543   3
  -1  -8  -3 10117.2 521.708   3
  -1  -8  -2 10060.7 504.497   3
  -1  -8  -1 4655.84 331.927   3
  -1  -7 -14 655.033 251.220   4
  -1  -7 -13 659.209 211.214   4
  -1  -7 -13 353.552 205.586   3
  -1  -7 -12 1576.80 319.248   3
  -1  -7 -12 1408.88 287.418   4
  -1  -7 -11 1053.41 265.110   3
  -1  -7 -11 1210.72 254.925   4
  -1  -7 -10 8036.69 594.273   4
  -1  -7 -10 8891.24 642.833   3
  -1  -7  -9 13067.5 750.966   3
  -1  -7  -9 13727.5 732.612   4
  -1  -7  -8 6370.78 452.155   4
  -1  -7  -8 6409.92 428.958   6
  -1  -7  -8 5454.16 457.944   3
  -1  -7  -7 2109.72 235.868   6
  -1  -7  -7 1892.63 259.273   3
  -1  -7  -7 2425.43 257.002   4
  -1  -7  -6 2466.33 272.894   3
  -1  -7  -6 2370.75 238.686   6
  -1  -7  -6 2440.77 229.422   4
  -1  -7  -5 11136.6 564.967   3
  -1  -7  -4 21453.0 785.813   3
  -1  -7  -3 17057.8 660.399   3
  -1  -7  -2 13326.2 555.956   3
  -1  -7  -1 4471.67 298.346   3
  -1  -7   0 4707.13 306.341   3
  -1  -7   1 7989.19 408.085   3
  -1  -6 -14 242.777 153.744   4
  -1  -6 -13 2273.47 388.225   4
  -1  -6 -12 10112.9 757.484   4
  -1  -6 -11 58.7092 85.0181   4
  -1  -6 -10 202.956 121.174   4
  -1  -6 -10 228.135 111.531   6
  -1  -6  -9 8736.52 522.933   6
  -1  -6  -9 7523.97 541.692   4
  -1  -6  -8 282.439 103.780   6
  -1  -6  -8 488.275 139.318   4
  -1  -6  -7 142.773 77.2046   7
  -1  -6  -7 119.462 82.8078   6
  -1  -6  -7 191.192 92.5616   4
  -1  -6  -6 6861.35 439.678   3
  -1  -6  -6 7144.70 404.608   4
  -1  -6  -6 6608.86 343.076   7
  -1  -6  -6 7541.85 411.497   6
  -1  -6  -5 4735.24 343.331   3
  -1  -6  -5 4857.01 298.082   4
  -1  -6  -5 5242.22 259.800   1
  -1  -6  -5 5185.85 283.196   7
  -1  -6  -4 22241.1 757.739   3
  -1  -6  -4 22132.6 644.294   4
  -1  -6  -3 59357.6 1426.22   3
  -1  -6  -2 21897.2 697.487   3
  -1  -6  -1 3634.84 245.360   3
  -1  -6   0 3548.40 242.297   3
  -1  -6   1 5559.66 307.380   3
  -1  -6   2 12092.2 485.519   3
  -1  -5 -14 12158.0 918.523   4
  -1  -5 -13 10564.2 818.072   4
  -1  -5 -12 5584.79 570.873   4
  -1  -5 -11 2919.41 340.568   6
  -1  -5 -11 3107.29 396.521   4
  -1  -5 -10 2685.78 307.638   6
  -1  -5 -10 2899.81 304.471   7
  -1  -5  -9 7434.30 449.572   7
  -1  -5  -9 5449.69 417.142   6
  -1  -5  -8 462.171 106.870   7
  -1  -5  -8 418.062 113.036   6
  -1  -5  -7 226.430 87.0746   6
  -1  -5  -7 151.708 52.8774   7
  -1  -5  -6 27692.9 895.092   4
  -1  -5  -6 28255.4 790.910   7
  -1  -5  -6 27063.0 851.285   6
  -1  -5  -5 11752.5 493.047   6
  -1  -5  -5 12215.3 496.839   4
  -1  -5  -5 11773.8 431.403   7
  -1  -5  -5 12266.3 367.352   1
  -1  -5  -4 345.308 74.6318   4
  -1  -5  -4 422.984 96.5792   3
  -1  -5  -3 22832.0 585.972   4
  -1  -5  -3 22459.0 693.699   3
  -1  -5  -2 32157.9 848.710   3
  -1  -5  -1 557.901 86.5786   3
  -1  -5   0 7217.16 317.452   3
  -1  -5   1 9293.16 374.185   3
  -1  -5   1 9530.87 321.193   2
  -1  -5   2 8474.02 377.753   3
  -1  -5   2 12974.6 407.525   2
  -1  -5   3 46436.5 1142.66   3
  -1  -5   4 19798.4 681.926   3
  -1  -4 -14 2319.91 416.439   4
  -1  -4 -13 16058.8 1028.42   4
  -1  -4 -12 4813.60 470.884   6
  -1  -4 -11 2829.97 337.011   6
  -1  -4 -10 2655.90 308.929   6
  -1  -4  -9 725.714 159.051   7
  -1  -4  -9 683.887 156.403   6
  -1  -4  -8 23405.8 862.056   6
  -1  -4  -8 22978.6 813.318   7
  -1  -4  -7 60540.5 1517.43   6
  -1  -4  -7 59178.4 1438.27   7
  -1  -4  -6 33224.0 946.615   6
  -1  -4  -6 30772.0 853.207   7
  -1  -4  -5 11079.2 453.372   6
  -1  -4  -5 10165.3 383.781   7
  -1  -4  -4 5334.31 242.466   7
  -1  -4  -4 5980.80 213.265   1
  -1  -4  -3 7885.36 345.864   3
  -1  -4  -3 7952.95 298.048   4
  -1  -4  -2 5370.11 255.126   3
  -1  -4  -1 2514.04 159.196   3
  -1  -4   0 7294.63 288.102   3
  -1  -4   0 7977.39 269.069   2
  -1  -4   1 40131.2 910.011   3
  -1  -4   1 40032.0 878.866   2
  -1  -4   2 1144.46 115.000   3
  -1  -4   3 7000.07 320.356   3
  -1  -4   4 30294.5 866.694   3
  -1  -4   5 5265.48 341.256   3
  -1  -3 -14 112.924 126.247   4
  -1  -3 -13 1454.76 306.331   6
  -1  -3 -12 2867.50 371.298   6
  -1  -3 -11 567.882 160.196   6
  -1  -3 -10 3829.07 374.133   6
  -1  -3  -9 299.351 124.786   6
  -1  -3  -8 667.881 148.000   6
  -1  -3  -8 440.345 115.407   7
  -1  -3  -7 100338. 2231.41   6
  -1  -3  -7 99257.7 2163.12   7
  -1  -3  -6 99881.4 2125.57   6
  -1  -3  -6 96556.0 2035.91   7
  -1  -3  -5 3178.79 225.695   6
  -1  -3  -5 2447.14 175.337   7
  -1  -3  -4 7545.09 333.986   6
  -1  -3  -4 7419.16 277.848   7
  -1  -3  -3 17889.4 438.785   7
  -1  -3  -1 171819. 3068.26   3
  -1  -3   0 91875.1 1690.01   3
  -1  -3   0 89873.9 1704.85   2
  -1  -3   1 6029.90 221.962   3
  -1  -3   2 6436.04 255.029   3
  -1  -3   3 2667.52 180.624   3
  -1  -3   4 3135.37 220.626   3
  -1  -2 -14 304.756 163.577   6
  -1  -2 -14 811.014 265.142   4
  -1  -2 -13 1489.25 291.730   6
  -1  -2 -12 3996.92 444.865   6
  -1  -2 -11 909.957 209.150   6
  -1  -2 -11 1111.85 243.005   9
  -1  -2 -10 785.539 186.005   6
  -1  -2  -9 7698.88 512.339   6
  -1  -2  -8 2554.34 272.029   6
  -1  -2  -7 5605.34 377.338   6
  -1  -2  -6 24740.6 766.368   7
  -1  -2  -6 25528.5 816.002   6
  -1  -2  -5 9543.57 414.518   6
  -1  -2  -5 8747.80 364.880   7
  -1  -2  -4 13827.4 480.847   6
  -1  -2  -4 14651.7 435.983   7
  -1  -2  -3 7756.66 307.999   6
  -1  -2  -3 7647.06 242.831   7
  -1  -2   0 970556. 16418.6   2
  -1  -2   2 1265.02 94.2086   3
  -1  -2   3 18359.3 534.925   3
  -1  -1 -14 569.546 205.638   6
  -1  -1 -13 1381.65 289.309   6
  -1  -1 -13 883.110 231.856   9
  -1  -1 -12 643.239 188.774   6
  -1  -1 -12 1028.56 234.925   9
  -1  -1 -11 10131.0 700.359   6
  -1  -1 -11 10514.3 712.044   9
  -1  -1 -10 13650.8 768.652   6
  -1  -1  -9 4472.31 403.740   6
  -1  -1  -8 5688.24 422.340   6
  -1  -1  -7 7093.95 434.539   6
  -1  -1  -6 7884.03 423.112   6
  -1  -1  -5 6602.89 352.517   6
  -1  -1  -4 588.860 93.6723   6
  -1  -1  -3 1073.57 111.246   6
  -1  -1  -2 33200.4 737.467   6
  -1  -1   0 75213.7 1407.12   2
  -1   0 -13 1134.87 280.213   6
  -1   0 -13 1272.66 294.254   9
  -1   0 -12 3.24297 112.512   9
  -1   0 -12-20.9109 103.088   6
  -1   0 -11 3878.11 444.865   9
  -1   0 -11 4077.07 460.351   6
  -1   0 -10 21491.9 1021.13   6
  -1   0  -9 6846.04 517.999   6
  -1   0  -8 2264.08 273.866   6
  -1   0  -7 9883.69 539.755   6
  -1   0  -6 4468.51 326.426   6
  -1   0  -5 25744.4 801.627   6
  -1   0  -4 101909. 2086.15   6
  -1   0  -3 341.633 104.103   6
  -1   0  -2 8151.36 287.062   6
  -1   0   0 415.260 49.3872   2
  -1   1 -13 738.549 230.854   9
  -1   1 -13 1007.84 278.402   6
  -1   1 -12 140.656 157.995   6
  -1   1 -12 83.8644 149.786   9
  -1   1 -11 4022.53 464.897   6
  -1   1 -11 3238.28 429.286   9
  -1   1 -10 6867.91 579.428   9
  -1   1 -10 6877.33 570.549   6
  -1   1  -9 3398.03 389.219   6
  -1   1  -8 6871.52 503.398   6
  -1   1  -7 12401.4 639.879   6
  -1   1  -6 1350.61 190.141   6
  -1   1  -5 3300.30 269.123   6
  -1   1  -4 128581. 2592.34   6
  -1   1  -3 150645. 2878.61   6
  -1   1  -2 14627.0 439.742   6
  -1   1  -1 13746.3 362.770   6
  -1   1   0 10919.5 273.221   2
  -1   1   1 23653.1 545.796   1
  -1   2 -12 869.708 254.250   9
  -1   2 -11 2828.46 405.009   6
  -1   2 -11 1929.89 353.083   9
  -1   2 -10 1610.16 305.741   9
  -1   2 -10 1559.35 299.158   6
  -1   2  -9 2661.01 357.384   6
  -1   2  -9 3205.25 391.184   9
  -1   2  -8 16781.3 853.328   6
  -1   2  -7 9930.22 596.675   6
  -1   2  -6 382.906 116.335   6
  -1   2  -5 9125.35 490.595   6
  -1   2  -4 49744.0 1280.31   6
  -1   2  -3 32411.8 890.456   6
  -1   2  -2 6965.95 305.176   6
  -1   2  -1 28244.5 672.404   6
  -1   2   0 30364.4 588.214   2
  -1   2   2 66841.7 1345.74   1
  -1   2   3 203336. 3667.58   1
  -1   2   4 32610.3 806.803   1
  -1   3 -12 378.042 173.698   9
  -1   3 -11 732.234 212.774   9
  -1   3 -10 1342.24 284.340   9
  -1   3 -10 1582.51 302.023   6
  -1   3  -9 3537.95 423.628   6
  -1   3  -9 3623.36 429.236   9
  -1   3  -8 4202.35 433.649   6
  -1   3  -8 5032.35 482.654   9
  -1   3  -7 3080.16 341.650   6
  -1   3  -6 3308.46 333.822   6
  -1   3  -5 18124.1 756.418   6
  -1   3  -4 22275.3 791.596   6
  -1   3  -3 6874.64 375.055   6
  -1   3  -2 24159.9 711.226   6
  -1   3  -1 50699.0 1121.15   6
  -1   3   2 87013.9 1709.20   8
  -1   3   3 64467.7 1301.07   8
  -1   3   4 25216.0 680.380   1
  -1   3   4 24168.4 587.205   8
  -1   3   5 9763.53 309.236   8
  -1   3   5 9865.81 391.288   1
  -1   3   6 8208.97 371.346   1
  -1   3   7 6926.62 352.995   1
  -1   4 -11 2893.52 447.197   9
  -1   4 -10 1267.16 292.988   9
  -1   4  -9 6629.37 613.538   9
  -1   4  -8 5538.72 527.939   9
  -1   4  -7 506.537 186.080   9
  -1   4  -7 483.334 174.942   6
  -1   4  -6 198.949 100.046   6
  -1   4  -5 11607.8 617.535   6
  -1   4  -4 11865.5 575.548   6
  -1   4  -3 7007.52 404.709   6
  -1   4   2 63400.1 1402.01   8
  -1   4   3 17838.5 553.058   8
  -1   4   4 2208.59 162.473   8
  -1   4   5 14759.7 460.837   8
  -1   4   6 6373.86 277.945   8
  -1   4   6 7165.68 350.710   1
  -1   4   7 4253.65 274.898   1
  -1   5 -10 6809.40 667.949   9
  -1   5  -9 1010.76 250.506   9
  -1   5  -8 3857.59 466.682   9
  -1   5  -7 5450.66 516.269   9
  -1   5  -6 2118.06 313.746   9
  -1   5   1 23146.1 600.112   9
  -1   5   2 47674.6 1212.80   8
  -1   5   3 7415.85 368.100   8
  -1   5   4 6434.26 330.364   8
  -1   5   5 16155.8 550.056   8
  -1   5   6 5800.02 296.693   8
  -1   6 -10 1081.48 297.721   9
  -1   6  -9 2630.90 428.409   9
  -1   6  -8 2020.14 352.537   9
  -1   6  -7 5291.83 528.185   9
  -1   6  -6 6212.74 543.581   9
  -1   6  -5 11129.3 694.148   9
  -1   6  -4 22519.2 958.308   9
  -1   6  -3 7333.96 481.168   9
  -1   6  -2 6878.91 432.815   9
  -1   6  -1 14672.9 595.375   9
  -1   6   0 1398.00 158.157   9
  -1   6   1 2818.17 184.783   9
  -1   6   2 9334.33 477.919   8
  -1   6   3 4397.13 312.090   8
  -1   6   4 22239.3 757.870   8
  -1   6   5 14505.2 573.013   8
  -1   6   6 103.894 61.3493   8
  -1   7  -9-48.6124 152.297   9
  -1   7  -8 1933.63 358.963   9
  -1   7  -7 2627.84 396.680   9
  -1   7  -6 6630.18 584.102   9
  -1   7  -5 1259.35 249.293   9
  -1   7  -4 1369.42 247.531   9
  -1   7  -3 16534.4 789.929   9
  -1   7  -2 9821.98 547.488   9
  -1   7  -1 5601.85 373.347   9
  -1   7   0 20869.7 707.968   9
  -1   7   1 17456.1 765.163   8
  -1   7   2 11919.7 602.488   8
  -1   7   3 11187.3 562.951   8
  -1   7   4 9305.77 497.942   8
  -1   7   5 7584.65 441.628   8
  -1   7   6 1403.29 182.327   8
  -1   8  -8 1875.63 359.136   9
  -1   8  -7 463.634 169.304   9
  -1   8  -6 5017.13 529.679   9
  -1   8  -5 5348.44 511.117   9
  -1   8  -4 5086.26 474.534   9
  -1   8  -3 2537.39 306.961   9
  -1   8  -2 8780.44 545.390   9
  -1   8   0 10549.4 643.002   8
  -1   8   1 9208.84 577.393   8
  -1   8   2 1867.35 253.574   8
  -1   8   3 16616.5 763.530   8
  -1   8   4 24591.3 942.725   8
  -1   8   5 2415.76 273.614   8
  -1   8   6 4993.80 379.561   8
  -1   9  -7 4301.89 526.612   9
  -1   9  -7 3433.58 470.893   8
  -1   9  -6 3114.62 437.706   8
  -1   9  -6 3021.01 425.029   9
  -1   9  -5 2054.85 326.456   9
  -1   9  -5 2180.35 376.044   8
  -1   9  -4 581.807 221.017   8
  -1   9  -4 439.963 167.703   9
  -1   9  -3 234.648 137.638   8
  -1   9  -2 1434.27 278.969   8
  -1   9  -1 4488.29 457.931   8
  -1   9   0 5353.72 481.462   8
  -1   9   1 11482.7 698.443   8
  -1   9   2 83.2834 105.287   8
  -1   9   3 4908.88 433.161   8
  -1   9   4 4195.05 393.539   8
  -1   9   5 18034.6 833.400   8
  -1   9   6 7303.39 502.938   8
  -1  10  -6 3092.66 457.636   8
  -1  10  -5 767.473 254.299   8
  -1  10  -4 1933.35 356.845   8
  -1  10  -3 5757.83 579.977   8
  -1  10  -2 2914.20 397.176   8
  -1  10  -1 6129.44 575.330   8
  -1  10   0 6594.95 574.552   8
  -1  10   1 2102.85 330.544   8
  -1  10   2 1067.39 233.548   8
  -1  10   3 311.047 158.805   8
  -1  10   4 266.625 138.947   8
  -1  10   5 3129.99 352.632   8
  -1  10   6 5527.98 465.718   8
  -1  11  -4 1730.30 346.953   8
  -1  11  -3 4885.75 567.443   8
  -1  11  -2 860.021 243.637   8
  -1  11  -1 864.442 257.848   8
  -1  11   0 7881.87 666.742   8
  -1  11   1 3787.51 455.946   8
  -1  11   2 117.736 125.250   8
  -1  11   3 4026.55 456.784   8
  -1  11   4 5293.06 510.427   8
  -1  11   5 1896.74 306.528   8
  -1  11   6 4036.05 428.871   8
  -1  12  -2 1070.57 279.246   8
  -1  12  -1 133.521 171.972   8
  -1  12   0 129.403 111.703   8
  -1  12   1 1251.01 273.043   8
  -1  12   2 1697.32 324.560   8
  -1  12   3 5684.39 567.990   8
  -1  12   4 6594.57 601.147   8
  -1  12   5 956.370 241.453   8
  -1  12   6 2424.54 346.389   8
  -1  13   2 2623.98 412.078   8
  -1  13   3 3498.38 467.417   8
  -1  13   4 1815.56 334.732   8
  -1  13   5 203.920 136.174   8
   0 -13  -8-47.4590 103.367   3
   0 -13  -7 953.907 244.216   3
   0 -12 -10 198.576 139.515   3
   0 -12  -9 286.750 172.304   3
   0 -12  -8 2044.26 338.647   3
   0 -12  -7 2776.48 381.502   3
   0 -12  -6 3943.89 440.838   3
   0 -12  -5 1084.33 245.587   3
   0 -12  -4 1411.91 267.535   3
   0 -11 -11 3473.55 467.066   3
   0 -11 -10 8138.84 698.325   3
   0 -11  -9 907.355 244.961   3
   0 -11  -8 2499.42 366.479   3
   0 -11  -7 4531.37 472.815   3
   0 -11  -6 4929.71 481.281   3
   0 -11  -5 11179.3 711.003   3
   0 -11  -4 1972.41 290.321   3
   0 -11  -3 2398.94 315.363   3
   0 -10 -12 1571.74 336.196   3
   0 -10 -11 2472.60 392.897   3
   0 -10 -10 1543.06 306.435   3
   0 -10  -9 307.937 165.033   3
   0 -10  -8 2338.15 340.696   3
   0 -10  -7 6055.31 533.701   3
   0 -10  -6 1435.27 257.229   3
   0 -10  -5 1535.23 251.891   3
   0 -10  -4 18312.7 869.351   3
   0 -10  -3 8502.79 562.190   3
   0 -10  -2 1039.91 197.561   3
   0 -10  -1 6165.50 468.116   3
   0  -9 -13 201.804 138.013   4
   0  -9 -12 1444.24 312.223   3
   0  -9 -12 1273.17 275.546   4
   0  -9 -11 3053.95 390.743   4
   0  -9 -11 3115.85 435.443   3
   0  -9 -10 1010.07 261.064   3
   0  -9  -9 2782.92 366.939   3
   0  -9  -8 2781.87 363.744   3
   0  -9  -7 126.549 105.733   3
   0  -9  -6 1312.79 234.499   3
   0  -9  -5 6519.31 490.005   3
   0  -9  -4 3951.19 366.584   3
   0  -9  -3 4837.07 395.024   3
   0  -9  -2 5305.98 410.603   3
   0  -9  -1 9432.08 554.246   3
   0  -9   0 8516.27 523.064   3
   0  -8 -13 1473.00 309.117   4
   0  -8 -13 1097.75 302.622   3
   0  -8 -12 941.767 276.409   3
   0  -8 -12 1591.31 309.011   4
   0  -8 -11 250.456 124.315   4
   0  -8 -11 279.837 171.999   3
   0  -8 -10 476.122 187.379   3
   0  -8 -10 237.483 137.634   4
   0  -8  -9 7281.09 584.148   3
   0  -8  -9 7599.04 554.147   4
   0  -8  -8 14871.9 809.057   3
   0  -8  -8 14590.3 737.432   4
   0  -8  -7 764.886 154.907   4
   0  -8  -7 636.902 154.738   3
   0  -8  -7 1024.79 169.983   7
   0  -8  -6 194.949 88.5197   3
   0  -8  -5 11677.9 634.976   3
   0  -8  -4 7926.05 498.227   3
   0  -8  -3 2895.62 285.880   3
   0  -8  -2 6135.12 411.222   3
   0  -8  -1 701.348 147.266   3
   0  -8   0 749.550 148.804   3
   0  -8   1 7062.46 447.661   3
   0  -8   2 3329.92 306.634   3
   0  -7 -13 1128.93 292.944   3
   0  -7 -13 998.545 261.516   4
   0  -7 -12 1063.82 256.361   3
   0  -7 -12 1150.75 268.440   4
   0  -7 -11 642.832 207.746   3
   0  -7 -11 939.028 230.808   4
   0  -7 -10 1497.84 275.101   3
   0  -7 -10 1248.40 246.065   4
   0  -7  -9 7566.53 579.838   3
   0  -7  -9 8223.43 578.744   4
   0  -7  -9 8922.69 536.865   7
   0  -7  -8 8627.97 588.539   3
   0  -7  -8 8957.22 512.280   7
   0  -7  -8 8333.84 541.985   4
   0  -7  -7 3687.32 367.497   3
   0  -7  -7 4503.34 337.655   7
   0  -7  -7 4080.22 344.678   4
   0  -7  -6 7927.68 510.375   3
   0  -7  -6 8118.40 444.369   7
   0  -7  -6 7532.42 448.501   4
   0  -7  -5 8830.16 444.649   4
   0  -7  -5 7687.56 482.750   3
   0  -7  -4 1922.32 225.317   3
   0  -7  -3 7267.73 432.211   3
   0  -7  -2 28695.9 937.836   3
   0  -7  -1 8445.78 451.574   3
   0  -7   0 1925.63 211.321   3
   0  -7   1 3334.21 282.648   3
   0  -7   2 15657.5 657.955   3
   0  -7   3 2406.21 255.697   3
   0  -6 -14 1008.41 290.018   3
   0  -6 -14 1341.63 319.413   4
   0  -6 -13 0.50168 123.209   3
   0  -6 -13 33.6045 133.149   4
   0  -6 -12 893.175 250.132   3
   0  -6 -12 659.970 211.733   4
   0  -6 -11 7932.28 643.057   4
   0  -6 -11 7006.51 606.859   3
   0  -6 -11 8168.61 576.990   7
   0  -6 -10 7988.06 607.552   3
   0  -6 -10 9463.76 660.581   4
   0  -6 -10 8268.76 547.430   7
   0  -6  -9 9344.98 628.583   3
   0  -6  -9 10159.2 574.383   7
   0  -6  -9 9045.98 613.525   4
   0  -6  -8 12246.2 685.201   3
   0  -6  -8 12083.5 656.468   4
   0  -6  -8 10872.6 565.071   7
   0  -6  -7 4391.25 303.438   6
   0  -6  -7 3818.96 361.251   3
   0  -6  -7 4547.13 333.950   7
   0  -6  -6 5226.71 307.625   6
   0  -6  -6 5042.02 388.677   3
   0  -6  -6 5403.86 341.404   7
   0  -6  -6 4975.88 350.607   4
   0  -6  -5 7815.11 368.828   6
   0  -6  -5 6521.90 416.547   3
   0  -6  -5 7293.24 346.830   1
   0  -6  -5 7247.56 393.428   4
   0  -6  -4 2856.22 260.567   3
   0  -6  -4 3224.18 232.086   1
   0  -6  -4 3275.25 236.590   4
   0  -6  -3 17761.3 671.110   3
   0  -6  -2 26627.1 838.433   3
   0  -6  -1 7818.78 402.760   3
   0  -6   0 8849.81 428.980   3
   0  -6   1 15562.2 604.307   3
   0  -6   2 7944.90 417.255   3
   0  -6   3 2955.15 266.728   3
   0  -6   4 8131.56 464.801   3
   0  -6   5 7122.06 456.819   3
   0  -5 -14 513.867 223.175   4
   0  -5 -13 294.323 157.968   4
   0  -5 -12 1419.45 289.956   4
   0  -5 -11 1180.42 228.451   7
   0  -5 -11 1611.97 304.157   4
   0  -5 -10 9452.47 665.901   4
   0  -5 -10 11016.5 640.154   7
   0  -5  -9 17884.1 782.891   7
   0  -5  -9 18433.3 886.127   4
   0  -5  -8 10328.4 607.050   4
   0  -5  -8 10137.0 503.994   6
   0  -5  -8 9950.29 530.371   7
   0  -5  -7 5173.21 325.934   6
   0  -5  -7 4994.52 386.785   4
   0  -5  -7 5846.76 368.087   7
   0  -5  -6 4083.00 332.619   3
   0  -5  -6 4345.67 273.263   6
   0  -5  -6 3583.63 271.931   7
   0  -5  -6 4442.33 330.681   4
   0  -5  -5 11058.5 525.771   3
   0  -5  -5 11122.2 429.135   6
   0  -5  -5 11169.7 492.810   4
   0  -5  -5 9611.38 438.912   7
   0  -5  -5 11408.6 406.149   1
   0  -5  -4 29430.6 906.918   3
   0  -5  -4 32222.1 812.705   1
   0  -5  -4 29895.6 847.201   4
   0  -5  -3 38787.2 1047.65   3
   0  -5  -3 39823.7 958.340   4
   0  -5  -2 31684.5 883.461   3
   0  -5  -1 6389.62 326.336   3
   0  -5   0 8735.28 386.772   3
   0  -5   1 20097.9 653.242   3
   0  -5   2 8577.81 400.137   3
   0  -5   2 8004.95 248.818   2
   0  -5   3 5912.86 345.093   3
   0  -5   4 13643.4 582.110   3
   0  -5   5 7554.67 453.001   3
   0  -5   6 2353.98 272.979   3
   0  -4 -14 323.578 172.988   4
   0  -4 -13 511.528 209.735   4
   0  -4 -12 9784.80 765.121   4
   0  -4 -11 690.817 211.339   4
   0  -4 -10 130.107 125.970   4
   0  -4 -10 168.185 105.834   7
   0  -4 -10 124.805 88.3253   6
   0  -4  -9 10152.1 571.819   7
   0  -4  -9 9616.83 627.351   4
   0  -4  -9 8500.32 502.719   6
   0  -4  -8 2807.76 313.439   4
   0  -4  -8 2450.41 255.210   7
   0  -4  -8 2603.21 251.010   6
   0  -4  -7 443.133 132.791   4
   0  -4  -7 651.713 128.117   7
   0  -4  -6 8453.04 385.811   6
   0  -4  -6 7436.78 435.220   4
   0  -4  -6 7543.15 392.984   7
   0  -4  -5 5430.65 278.881   6
   0  -4  -5 5634.65 336.909   4
   0  -4  -5 5763.66 307.765   7
   0  -4  -4 33126.0 939.409   3
   0  -4  -4 33747.0 831.023   6
   0  -4  -4 33811.0 910.460   4
   0  -4  -4 35125.5 804.493   1
   0  -4  -3 119933. 2391.63   3
   0  -4  -3 118997. 2315.33   4
   0  -4  -2 46512.9 1094.41   3
   0  -4  -1 7115.45 312.870   3
   0  -4   0 8677.94 349.011   3
   0  -4   1 11268.0 269.746   2
   0  -4   1 11373.1 417.719   3
   0  -4   2 13209.8 474.939   3
   0  -4   3 29470.6 839.157   3
   0  -4   4 23150.8 755.850   3
   0  -4   5 3076.13 268.160   3
   0  -4   6 888.215 166.603   3
   0  -3 -14 6526.58 690.928   4
   0  -3 -13 12137.1 898.599   4
   0  -3 -12 6474.52 628.710   4
   0  -3 -11 3780.33 447.260   4
   0  -3 -11 4130.37 405.708   6
   0  -3 -10 2200.01 281.413   6
   0  -3  -9 7031.57 447.691   9
   0  -3  -9 7136.53 487.309   7
   0  -3  -9 7591.87 481.077   6
   0  -3  -8 1582.45 193.003   9
   0  -3  -8 994.915 167.249   7
   0  -3  -8 1460.25 193.084   6
   0  -3  -7 221.589 78.9678   6
   0  -3  -7 69.3072 55.4967   7
   0  -3  -6 4056.65 299.476   6
   0  -3  -6 25059.3 678.940   7
   0  -3  -5 27776.2 742.007   6
   0  -3  -5 24956.5 744.243   7
   0  -3  -4 888.599 100.258   6
   0  -3  -4 924.915 105.880   7
   0  -3  -3 24223.3 592.894   6
   0  -3  -3 23963.9 649.082   4
   0  -3  -3 23202.0 564.010   1
   0  -3  -2 100078. 1938.54   3
   0  -3  -2 98566.3 1873.04   4
   0  -3  -1 5282.24 237.301   3
   0  -3   0 7255.15 279.187   3
   0  -3   1 13825.2 429.000   3
   0  -3   2 17647.2 522.675   3
   0  -3   3 93749.3 1919.32   3
   0  -3   4 55430.6 1320.81   3
   0  -3   5 1634.28 192.083   3
   0  -3   6 2221.03 244.479   3
   0  -2 -14 934.023 313.079   4
   0  -2 -13 17604.9 1097.33   4
   0  -2 -12 6781.30 650.418   4
   0  -2 -12 8198.64 627.007   6
   0  -2 -11 1942.90 294.685   6
   0  -2 -11 1710.00 276.412   9
   0  -2 -10 3666.30 369.105   9
   0  -2 -10 2912.61 333.060   6
   0  -2  -9 1241.31 211.248   9
   0  -2  -9 1180.02 208.143   6
   0  -2  -8 14160.6 646.015   9
   0  -2  -8 13704.6 660.019   7
   0  -2  -8 14917.0 660.163   6
   0  -2  -7 48885.5 1351.14   7
   0  -2  -7 51851.1 1343.11   6
   0  -2  -6 43259.0 1128.05   6
   0  -2  -6 43973.7 1157.40   7
   0  -2  -5 19393.2 603.596   6
   0  -2  -5 18669.8 611.102   7
   0  -2  -4 3778.34 209.384   6
   0  -2  -4 4089.97 224.911   7
   0  -2  -3 2601.70 146.218   6
   0  -2  -3 2343.28 146.440   7
   0  -2  -2 9491.01 265.805   1
   0  -2  -2 9974.65 313.290   4
   0  -2  -1 6606.23 230.530   3
   0  -2   0 671.785 65.8896   3
   0  -2   1 92154.8 1725.95   3
   0  -2   2 3544.26 186.454   3
   0  -2   3 10703.3 384.907   3
   0  -2   4 61753.9 1399.52   3
   0  -2   5 12697.6 533.817   3
   0  -1 -13 1097.59 264.371   6
   0  -1 -13 1541.46 321.789   4
   0  -1 -12 2098.22 328.866   6
   0  -1 -12 1838.63 313.313   9
   0  -1 -11 346.094 141.297   6
   0  -1 -11 917.207 220.007   9
   0  -1 -10 4402.51 417.411   6
   0  -1 -10 4134.51 407.018   9
   0  -1  -9 50.2455 87.9609   9
   0  -1  -9 156.028 102.040   6
   0  -1  -8 315.794 114.731   9
   0  -1  -8 181.877 92.3837   6
   0  -1  -7 83384.5 2009.61   7
   0  -1  -7 85563.8 1994.12   6
   0  -1  -6 135603. 2836.42   7
   0  -1  -6 140629. 2827.70   6
   0  -1  -5 6744.61 338.840   6
   0  -1  -5 5946.40 325.377   7
   0  -1  -4 2193.24 165.177   6
   0  -1  -4 2043.41 163.392   7
   0  -1  -3 938.504 134.292   6
   0  -1  -3 35258.4 555.298   7
   0  -1  -2 16027.1 398.785   7
   0  -1  -1 152707. 2624.13   1
   0  -1   2 14994.2 403.690   3
   0  -1   3 742.807 89.7459   3
   0  -1   4 2295.70 186.352   3
   0   0 -13 960.275 274.685   4
   0   0 -13 741.851 233.349   9
   0   0 -12 3135.33 418.092   6
   0   0 -12 3014.88 410.580   9
   0   0 -11 1515.55 277.078   9
   0   0 -11 1120.08 257.892   6
   0   0 -10 429.507 143.000   6
   0   0 -10 286.653 147.925   9
   0   0  -9 4213.62 410.474   9
   0   0  -9 3936.14 385.569   6
   0   0  -8 2850.42 313.580   9
   0   0  -8 2538.09 295.244   6
   0   0  -7 5099.64 381.084   6
   0   0  -6 26130.5 868.062   6
   0   0  -5 10445.8 460.701   6
   0   0  -4 14860.7 518.064   7
   0   0  -4 15231.7 518.961   6
   0   0  -3 24181.2 635.906   7
   0   0  -3 24059.4 634.086   6
   0   0  -2 36572.1 785.546   7
   0   0  -2 36620.5 780.434   6
   0   1 -13 926.576 264.553   9
   0   1 -13 369.034 150.310   4
   0   1 -12 405.016 167.242   9
   0   1 -11 6134.03 585.916   9
   0   1 -11 7403.54 622.707   6
   0   1 -10 8219.28 626.506   6
   0   1 -10 9273.14 679.180   9
   0   1  -9 3566.55 393.676   9
   0   1  -9 3692.67 390.353   6
   0   1  -8 5970.53 486.248   9
   0   1  -8 6233.62 475.452   6
   0   1  -7 5465.17 410.936   6
   0   1  -7 5167.47 413.877   9
   0   1  -6 3268.58 295.745   6
   0   1  -5 7460.89 410.114   6
   0   1  -4 2692.04 216.929   6
   0   1  -3 674.582 98.2826   6
   0   1  -2 14995.2 444.839   6
   0   1  -1 19548.3 468.059   6
   0   2 -12 12.6027 128.368   9
   0   2 -11 1483.32 303.984   9
   0   2 -10 13854.1 875.682   9
   0   2  -9 8169.90 625.174   9
   0   2  -9 7682.52 591.387   6
   0   2  -8 2053.47 292.490   6
   0   2  -8 2342.93 319.398   9
   0   2  -7 5493.35 454.705   9
   0   2  -7 5322.33 431.125   6
   0   2  -6 2415.98 286.342   9
   0   2  -6 2569.71 281.914   6
   0   2  -5 14619.2 629.940   6
   0   2  -4 62866.2 1518.53   6
   0   2  -3 10574.5 438.263   6
   0   2  -2 3182.03 204.131   6
   0   2   1 6566.26 235.446   8
   0   2   2 9784.90 293.446   8
   0   2   3 2310.24 118.478   1
   0   2   3 2324.86 129.384   8
   0   2   4 3801.69 182.294   8
   0   2   4 3873.41 172.423   1
   0   3 -12 317.162 208.990   9
   0   3 -11 1795.03 348.672   9
   0   3 -10 5173.34 544.726   9
   0   3  -9 3598.53 427.171   9
   0   3  -8 3468.33 400.900   9
   0   3  -7 6265.76 510.044   9
   0   3  -7 5281.57 454.739   6
   0   3  -6 2546.58 295.060   6
   0   3  -6 2919.63 331.508   9
   0   3  -5 1634.00 216.062   6
   0   3  -5 1901.30 251.775   9
   0   3  -4 54753.3 1431.28   6
   0   3  -4 54241.9 1456.68   9
   0   3  -1 12656.0 442.559   9
   0   3   0 7747.76 283.503   9
   0   3   1 5487.40 255.519   8
   0   3   2 95881.0 1870.76   8
   0   3   3 23992.7 620.917   8
   0   3   4 943.770 96.7386   8
   0   3   5 27111.3 652.811   1
   0   3   5 26137.3 683.672   8
   0   3   6 27207.3 676.446   1
   0   3   6 25508.7 691.033   8
   0   3   7 359.034 68.9720   1
   0   4 -11 2014.07 366.222   9
   0   4 -10 1599.24 324.515   9
   0   4  -9 826.882 247.584   9
   0   4  -8 7894.69 632.262   9
   0   4  -7 9150.01 639.367   9
   0   4  -6 1412.58 243.917   9
   0   4  -5 3322.39 341.013   9
   0   4  -4 21996.7 859.228   9
   0   4  -3 29099.8 948.253   9
   0   4  -2 12026.4 521.808   9
   0   4  -1 11130.2 449.219   9
   0   4   0 9053.50 349.870   9
   0   4   1 7313.88 346.586   8
   0   4   1 7346.33 252.915   9
   0   4   1 6587.28 195.518   2
   0   4   2 45183.6 1082.62   8
   0   4   3 118037. 2329.12   8
   0   4   4 32871.7 843.914   8
   0   4   5 5480.92 278.167   8
   0   4   6 7250.35 332.252   8
   0   4   7 528.497 89.0730   8
   0   5 -10 668.625 211.231   9
   0   5  -9 748.558 212.537   9
   0   5  -8 2920.33 405.176   9
   0   5  -7 3629.35 417.424   9
   0   5  -6 2200.05 306.073   9
   0   5  -5 7951.55 549.967   9
   0   5  -4 13800.0 696.369   9
   0   5  -3 6240.36 420.596   9
   0   5  -2 7961.19 439.616   9
   0   5  -1 19900.2 680.974   9
   0   5   0 7848.39 352.630   9
   0   5   1 5930.99 172.156   2
   0   5   1 6072.96 261.405   9
   0   5   1 6133.52 352.593   8
   0   5   2 30698.1 880.410   8
   0   5   2 28328.2 616.989   9
   0   5   3 37171.5 1010.79   8
   0   5   4 29349.1 844.326   8
   0   5   5 11184.0 460.168   8
   0   5   6 3977.06 262.603   8
   0   5   7 5284.67 309.338   8
   0   6 -10 234.729 179.922   9
   0   6  -9 2721.47 424.821   9
   0   6  -8 4259.94 500.057   9
   0   6  -7 317.561 174.981   9
   0   6  -6 26.1396 112.094   9
   0   6  -5 7566.93 565.948   9
   0   6  -4 8550.52 563.141   9
   0   6  -3 3130.16 310.290   9
   0   6  -2 7651.18 454.827   9
   0   6  -1 15292.7 615.515   9
   0   6   0 8755.41 489.858   8
   0   6   0 9102.53 411.397   9
   0   6   1 7722.73 329.529   9
   0   6   1 7786.28 448.381   8
   0   6   2 28420.4 896.350   8
   0   6   2 26422.6 585.572   2
   0   6   3 17691.6 682.312   8
   0   6   4 2637.90 238.052   8
   0   6   5 7140.58 394.171   8
   0   6   6 5522.58 340.674   8
   0   6   7 4527.22 310.995   8
   0   7  -9 694.614 226.613   9
   0   7  -8 2682.38 415.055   9
   0   7  -7 3005.68 393.992   8
   0   7  -7 3043.97 424.433   9
   0   7  -6 673.473 196.483   9
   0   7  -5 2385.48 336.131   9
   0   7  -4 1418.15 241.466   9
   0   7  -3 2143.87 274.160   9
   0   7  -2 14746.6 754.119   8
   0   7  -2 16321.1 726.525   9
   0   7  -1 3048.51 317.504   8
   0   7  -1 3057.29 273.702   9
   0   7   0 1815.04 237.884   8
   0   7   0 1657.31 181.550   9
   0   7   1 7691.77 492.572   8
   0   7   1 8234.62 366.494   9
   0   7   2 29483.9 1013.05   8
   0   7   3 6655.11 434.143   8
   0   7   4 2101.47 231.953   8
   0   7   5 7850.64 456.384   8
   0   7   6 6593.03 412.387   8
   0   7   7 4852.59 351.503   8
   0   8  -8 836.458 258.979   9
   0   8  -7 1865.48 340.220   9
   0   8  -6 4066.16 459.751   8
   0   8  -6 3607.53 449.096   9
   0   8  -5 4167.22 454.714   9
   0   8  -5 5792.52 529.504   8
   0   8  -4 10823.3 694.814   9
   0   8  -4 10176.4 702.748   8
   0   8  -3 4685.77 455.002   8
   0   8  -3 4385.95 411.371   9
   0   8  -2 2967.99 309.637   9
   0   8  -2 2552.06 330.780   8
   0   8  -1 6882.08 525.685   8
   0   8  -1 6981.15 441.392   9
   0   8   0 942.401 205.793   8
   0   8   1 949.463 196.286   8
   0   8   2 6003.87 457.256   8
   0   8   3 2617.96 291.453   8
   0   8   4 9416.72 551.367   8
   0   8   5 10998.0 594.596   8
   0   8   6 187.061 91.3754   8
   0   8   7 593.570 139.049   8
   0   9  -7 1901.91 359.417   9
   0   9  -6 4309.08 499.397   9
   0   9  -6 2826.56 406.742   8
   0   9  -5 723.709 216.805   8
   0   9  -5 622.104 191.107   9
   0   9  -4 870.342 201.908   9
   0   9  -4 494.792 190.428   8
   0   9  -3 10065.5 725.631   8
   0   9  -3 10678.6 673.347   9
   0   9  -2 6083.39 535.040   8
   0   9  -1 1626.15 295.581   8
   0   9   0 8457.26 615.328   8
   0   9   1 8594.69 600.776   8
   0   9   2 5306.81 462.796   8
   0   9   3 3898.13 390.569   8
   0   9   4 4796.24 416.267   8
   0   9   5 5651.34 452.584   8
   0   9   6 1178.85 208.880   8
   0   9   7 15.2857 78.2477   8
   0  10  -6 1709.65 331.095   9
   0  10  -6 1996.65 361.506   8
   0  10  -5 2982.03 433.385   8
   0  10  -4 1365.54 299.871   8
   0  10  -3 2284.85 365.731   8
   0  10  -2 3411.09 432.945   8
   0  10  -1 5426.70 532.285   8
   0  10   0 5277.17 517.306   8
   0  10   1 5991.44 542.610   8
   0  10   2 1015.26 218.235   8
   0  10   3 9462.34 648.368   8
   0  10   4 16766.0 866.098   8
   0  10   5 2050.57 298.599   8
   0  10   6 1302.49 226.833   8
   0  10   7 7700.61 552.058   8
   0  11  -4 58.7491 148.876   8
   0  11  -3 760.853 248.208   8
   0  11  -2 307.235 157.015   8
   0  11  -1 2429.26 383.016   8
   0  11   0 2600.90 402.978   8
   0  11   1 4871.70 522.645   8
   0  11   2 614.980 214.196   8
   0  11   3 2455.08 360.210   8
   0  11   4 1671.85 287.082   8
   0  11   5 10175.7 702.261   8
   0  11   6 4394.74 458.856   8
   0  11   7 4842.21 468.376   8
   0  12  -2 1672.64 348.045   8
   0  12  -1 2777.00 429.851   8
   0  12   0 2277.39 386.423   8
   0  12   1 1610.87 327.820   8
   0  12   2 807.643 242.450   8
   0  12   3-107.684 134.052   8
   0  12   4 1113.65 250.079   8
   0  12   5 1214.10 268.390   8
   0  12   6 3790.55 446.877   8
   0  12   7 3164.96 393.712   8
   0  13   1 2919.43 435.853   8
   0  13   2 97.1835 190.145   8
   0  13   3 1426.90 300.709   8
   0  13   4 2556.19 392.572   8
   0  13   5 689.070 224.422   8
   0  13   6 1703.45 317.399   8
   0  13   7 946.576 238.527   8
   1 -13  -7 1184.29 260.937   3
   1 -13  -6 453.138 202.098   3
   1 -13  -5 268.052 132.238   3
   1 -13  -4 1576.71 291.095   3
   1 -12  -9 156.186 162.122   3
   1 -12  -8 5.39504 101.062   3
   1 -12  -7 7380.76 647.450   3
   1 -12  -6 3513.41 436.638   3
   1 -12  -5 897.279 231.076   3
   1 -12  -4 7175.47 609.935   3
   1 -12  -3 5382.29 512.658   3
   1 -12  -2 1864.27 303.235   3
   1 -11 -10 134.846 189.421   3
   1 -11  -9 12.1563 111.296   3
   1 -11  -8 273.447 158.412   3
   1 -11  -7 2090.93 328.565   3
   1 -11  -6 3946.43 444.445   3
   1 -11  -5 1793.28 299.577   3
   1 -11  -4 4386.16 456.356   3
   1 -11  -3 3810.87 416.263   3
   1 -11  -2 96.4643 101.427   3
   1 -11  -1 3648.33 403.238   3
   1 -11   0 8367.74 609.638   3
   1 -10 -11 9818.51 800.849   3
   1 -10 -10 559.149 202.919   3
   1 -10  -9 293.737 169.118   3
   1 -10  -8 1956.76 333.964   3
   1 -10  -7 4559.01 478.608   3
   1 -10  -6 5799.32 516.061   3
   1 -10  -5 3724.66 395.443   3
   1 -10  -4 553.229 160.686   3
   1 -10  -3 119.213 87.9031   3
   1 -10  -2 968.825 218.419   3
   1 -10  -1 2350.31 306.934   3
   1 -10   0 6766.96 521.199   3
   1 -10   1 5355.36 464.462   3
   1  -9 -12 123.424 139.706   4
   1  -9 -12-53.0822 134.301   3
   1  -9 -11 2776.51 384.377   4
   1  -9 -11 3242.33 453.604   3
   1  -9 -10 13035.2 871.135   3
   1  -9 -10 11600.2 763.195   4
   1  -9  -9 1984.11 317.617   3
   1  -9  -8 2132.97 319.816   3
   1  -9  -8 3005.96 338.176   7
   1  -9  -7 7956.14 607.100   3
   1  -9  -7 8457.10 558.060   7
   1  -9  -6 8486.69 600.448   3
   1  -9  -5 16818.1 841.490   3
   1  -9  -4 4433.47 402.609   3
   1  -9  -3 5105.48 423.463   3
   1  -9  -2 56.7490 80.7617   3
   1  -9  -1 12345.2 676.721   3
   1  -9   0 4042.95 383.430   3
   1  -9   1 3342.86 351.789   3
   1  -9   2 887.213 185.285   3
   1  -9   3 58.1061 98.7307   3
   1  -8 -13-146.490 159.534   3
   1  -8 -13 154.190 177.728   4
   1  -8 -12 844.986 242.545   3
   1  -8 -12 765.053 240.840   4
   1  -8 -11 3312.74 430.649   4
   1  -8 -11 3444.75 458.173   3
   1  -8 -10 3377.13 404.911   4
   1  -8 -10 3411.54 429.788   3
   1  -8 -10 3905.37 406.712   7
   1  -8  -9 1572.91 262.176   4
   1  -8  -9 963.933 232.591   3
   1  -8  -9 1131.66 219.547   7
   1  -8  -8 2222.39 299.362   4
   1  -8  -8 2091.96 312.722   3
   1  -8  -8 2064.35 273.445   7
   1  -8  -7 10671.9 679.155   3
   1  -8  -7 11791.8 640.883   7
   1  -8  -6 4320.68 410.840   3
   1  -8  -5 2377.24 292.472   3
   1  -8  -4 23932.2 954.869   3
   1  -8  -3 17940.2 791.606   3
   1  -8  -2 1499.15 223.551   3
   1  -8  -1 8647.66 523.502   3
   1  -8   0 11370.9 614.117   3
   1  -8   1 10571.0 595.119   3
   1  -8   2 8747.40 541.190   3
   1  -8   3 2507.24 286.044   3
   1  -8   4 4392.21 408.461   3
   1  -7 -13-161.595 189.169   4
   1  -7 -13-17.4865 119.906   3
   1  -7 -12 179.731 164.756   3
   1  -7 -12 667.170 221.976   4
   1  -7 -11 4685.46 517.523   3
   1  -7 -11 4117.53 479.425   4
   1  -7 -11 5542.56 499.243   7
   1  -7 -10 2486.26 318.760   7
   1  -7 -10 2618.49 363.678   3
   1  -7 -10 2341.71 339.614   4
   1  -7  -9 3346.51 357.998   7
   1  -7  -9 3248.74 370.528   4
   1  -7  -9 2960.00 370.891   3
   1  -7  -8 4095.97 415.902   3
   1  -7  -8 4212.27 375.908   7
   1  -7  -8 3701.66 376.951   4
   1  -7  -7 445.827 123.116   4
   1  -7  -7 115.680 94.0126   3
   1  -7  -7 447.413 134.753   7
   1  -7  -6 1348.20 203.579   4
   1  -7  -6 1211.60 222.790   3
   1  -7  -5 8322.72 522.284   3
   1  -7  -5 7349.43 414.691   1
   1  -7  -4 9302.49 533.987   3
   1  -7  -4 9495.15 485.989   1
   1  -7  -3 10825.6 563.097   3
   1  -7  -2 11178.0 571.466   3
   1  -7  -1 15820.1 680.468   3
   1  -7   0 18239.9 747.359   3
   1  -7   1 5816.60 402.655   3
   1  -7   2 10240.4 554.248   3
   1  -7   3 17400.6 763.880   3
   1  -7   4 1177.68 208.420   3
   1  -7   5 920.267 189.272   3
   1  -7   6 5509.34 469.202   3
   1  -6 -13 929.540 229.583   7
   1  -6 -13 856.413 264.335   3
   1  -6 -13 1554.85 349.166   4
   1  -6 -12 1934.61 309.070   7
   1  -6 -12 2307.19 380.015   3
   1  -6 -12 1921.93 346.094   4
   1  -6 -11 1027.33 224.297   7
   1  -6 -11 1137.08 285.279   3
   1  -6 -11 1272.84 284.805   4
   1  -6 -10 356.986 144.826   7
   1  -6 -10-28.2073 98.0955   3
   1  -6 -10 214.369 142.430   4
   1  -6  -9 6743.52 542.117   3
   1  -6  -9 7069.55 506.739   7
   1  -6  -9 6337.86 526.335   4
   1  -6  -8 23655.5 1014.99   3
   1  -6  -8 23738.3 933.206   7
   1  -6  -8 22865.8 983.401   4
   1  -6  -7 2265.33 249.895   7
   1  -6  -7 1874.23 245.257   4
   1  -6  -7 2083.91 276.171   3
   1  -6  -6 122.054 81.2777   3
   1  -6  -6 89.7658 70.1395   7
   1  -6  -6 333.579 109.945   4
   1  -6  -5 14702.2 572.130   1
   1  -6  -5 14748.0 669.700   3
   1  -6  -5 13954.1 617.464   4
   1  -6  -4 23479.0 771.982   1
   1  -6  -4 23202.6 853.098   3
   1  -6  -3 5260.32 356.382   3
   1  -6  -2 9240.53 477.627   3
   1  -6  -1 2831.40 250.565   3
   1  -6   0 1424.75 180.922   3
   1  -6   1 15198.1 634.180   3
   1  -6   2 7291.87 432.900   3
   1  -6   3 7986.28 469.919   3
   1  -6   4 21323.7 848.065   3
   1  -6   5 10915.8 608.360   3
   1  -6   6 4752.53 416.171   3
   1  -6   7 4079.42 409.889   3
   1  -5 -13 963.639 278.561   3
   1  -5 -13 1338.93 300.382   4
   1  -5 -12 1636.01 302.869   7
   1  -5 -12 1535.80 315.094   3
   1  -5 -12 1688.23 314.061   4
   1  -5 -11 1176.31 242.600   7
   1  -5 -11 580.978 185.028   3
   1  -5 -11 766.327 232.463   4
   1  -5 -10 648.237 165.329   7
   1  -5 -10 775.582 204.710   4
   1  -5  -9 8036.84 572.066   3
   1  -5  -9 8865.44 620.595   4
   1  -5  -9 8526.93 558.306   7
   1  -5  -8 13132.6 706.704   3
   1  -5  -8 13503.5 729.988   4
   1  -5  -8 12641.4 649.636   7
   1  -5  -7 4514.97 383.122   3
   1  -5  -7 4382.76 374.143   4
   1  -5  -7 4133.24 334.319   7
   1  -5  -6 5691.02 404.987   3
   1  -5  -6 5516.15 393.059   4
   1  -5  -6 5529.78 374.782   7
   1  -5  -5 15009.6 653.539   3
   1  -5  -5 16286.0 650.914   4
   1  -5  -4 5840.60 243.805   6
   1  -5  -4 6315.98 381.680   3
   1  -5  -4 6201.00 328.019   1
   1  -5  -4 6145.40 357.715   4
   1  -5  -3 8117.15 380.748   1
   1  -5  -3 7589.53 409.934   3
   1  -5  -2 49214.9 1256.51   3
   1  -5  -1 23254.1 756.597   3
   1  -5   0 7915.18 397.744   3
   1  -5   1 1039.19 146.383   3
   1  -5   2 33721.6 994.353   3
   1  -5   3 7911.88 433.113   3
   1  -5   4 3560.74 301.116   3
   1  -5   5 5647.53 404.634   3
   1  -5   6 1690.10 235.251   3
   1  -5   7 4146.12 403.072   3
   1  -4 -14 1369.20 314.945   3
   1  -4 -13 1006.33 258.887   4
   1  -4 -12 720.825 243.920   4
   1  -4 -11 4920.74 479.025   7
   1  -4 -11 5025.94 529.520   4
   1  -4 -10 8813.57 599.604   7
   1  -4 -10 8714.00 655.295   4
   1  -4  -9 11174.9 638.380   7
   1  -4  -9 11421.6 711.832   4
   1  -4  -8 12878.5 647.258   7
   1  -4  -8 13297.6 718.389   4
   1  -4  -7 4607.67 285.179   6
   1  -4  -7 4654.28 353.234   7
   1  -4  -7 4540.93 383.489   4
   1  -4  -6 6641.20 311.943   6
   1  -4  -6 6857.91 432.263   3
   1  -4  -6 6558.78 392.739   7
   1  -4  -6 6325.01 419.806   4
   1  -4  -5 15179.4 616.616   3
   1  -4  -5 14583.2 450.695   6
   1  -4  -5 14181.8 572.204   7
   1  -4  -5 14816.8 613.110   4
   1  -4  -4 2362.78 137.896   6
   1  -4  -4 2342.22 221.316   3
   1  -4  -4 2672.63 192.784   1
   1  -4  -4 2478.33 213.772   4
   1  -4  -3 18133.7 623.334   3
   1  -4  -3 18344.8 598.991   4
   1  -4  -3 17990.9 565.634   1
   1  -4  -2 65068.2 1254.05   5
   1  -4  -2 64459.3 1469.17   3
   1  -4  -1 19612.9 621.639   3
   1  -4   0 9240.94 396.634   3
   1  -4   1 20712.8 660.323   3
   1  -4   2 23844.5 743.109   3
   1  -4   3 7379.33 391.454   3
   1  -4   4 11412.8 530.500   3
   1  -4   5 11981.0 577.953   3
   1  -4   6 114.591 88.7011   3
   1  -4   7 412.955 147.540   3
   1  -3 -13-58.5022 152.046   4
   1  -3 -12 1388.28 311.477   4
   1  -3 -11 1474.69 266.813   7
   1  -3 -11 1388.55 284.150   4
   1  -3 -10 12073.4 723.193   7
   1  -3 -10 11080.3 744.710   4
   1  -3  -9 19385.8 785.372   6
   1  -3  -9 18740.9 865.065   7
   1  -3  -9 19105.0 932.117   4
   1  -3  -8 9948.29 616.029   4
   1  -3  -8 10039.6 567.645   7
   1  -3  -8 10274.5 510.911   6
   1  -3  -7 6849.58 371.048   6
   1  -3  -7 6732.72 426.500   7
   1  -3  -7 6726.07 358.487   9
   1  -3  -7 6689.70 461.256   4
   1  -3  -6 8214.56 352.619   9
   1  -3  -6 7931.68 468.121   4
   1  -3  -6 7739.13 426.419   7
   1  -3  -6 7858.36 361.957   6
   1  -3  -5 9821.56 342.307   9
   1  -3  -5 9911.39 452.179   7
   1  -3  -5 10392.8 492.045   4
   1  -3  -5 10279.7 371.399   6
   1  -3  -4 21322.2 552.301   6
   1  -3  -4 23906.9 730.456   3
   1  -3  -4 23103.3 516.300   9
   1  -3  -4 23489.2 742.997   4
   1  -3  -4 23745.7 712.272   7
   1  -3  -3 63523.2 1447.60   3
   1  -3  -3 66645.8 1456.53   4
   1  -3  -3 67481.3 1383.22   1
   1  -3  -2 87127.4 1623.72   5
   1  -3  -2 85921.0 1758.65   3
   1  -3  -2 83258.6 1710.61   1
   1  -3  -2 85445.5 1732.45   4
   1  -3  -1 4652.80 245.935   3
   1  -3   0 3187.23 198.321   3
   1  -3   1 47436.9 865.213   2
   1  -3   1 51408.9 1131.18   3
   1  -3   2 25413.3 721.516   3
   1  -3   3 7759.99 371.033   3
   1  -3   4 23079.3 758.401   3
   1  -3   5 17385.4 681.904   3
   1  -3   6 2563.52 272.104   3
   1  -3   7 2742.03 303.256   3
   1  -2 -13-92.8952 117.209   4
   1  -2 -12 6817.94 652.279   4
   1  -2 -11 1656.83 311.171   4
   1  -2 -10 184.089 118.876   6
   1  -2 -10 63.4140 101.447   9
   1  -2 -10 317.685 178.772   4
   1  -2  -9 6750.02 538.055   4
   1  -2  -9 6415.63 497.611   7
   1  -2  -9 6874.17 470.764   9
   1  -2  -9 7174.54 480.357   6
   1  -2  -8 5789.12 430.087   7
   1  -2  -8 6498.43 418.839   9
   1  -2  -8 5674.05 460.823   4
   1  -2  -8 5423.03 382.398   6
   1  -2  -7 1561.39 188.770   9
   1  -2  -7 1541.66 182.603   6
   1  -2  -7 1728.90 231.751   4
   1  -2  -7 1695.15 219.059   7
   1  -2  -6 8038.19 466.017   4
   1  -2  -6 7840.80 387.077   9
   1  -2  -6 7047.58 411.290   7
   1  -2  -6 7585.27 372.218   6
   1  -2  -5 3012.26 207.644   9
   1  -2  -5 2832.80 250.544   4
   1  -2  -5 3090.27 241.112   7
   1  -2  -5 2917.75 199.128   6
   1  -2  -4 31750.9 754.255   9
   1  -2  -4 32275.1 900.287   4
   1  -2  -4 31507.9 854.348   7
   1  -2  -4 31146.8 740.757   6
   1  -2  -3 199901. 3518.53   9
   1  -2  -3 199851. 3727.89   4
   1  -2  -3 201682. 3700.00   7
   1  -2  -2 66142.1 1347.32   1
   1  -2  -2 66865.9 1384.01   3
   1  -2  -2 69171.5 1338.52   5
   1  -2  -2 66895.1 1391.08   4
   1  -2  -1 3946.11 196.324   3
   1  -2  -1 3631.23 182.236   1
   1  -2   0 32011.4 741.596   3
   1  -2   1 28634.6 700.244   3
   1  -2   2 6631.93 287.518   3
   1  -2   3 34240.4 879.633   3
   1  -2   4 48384.1 1197.09   3
   1  -2   5 9425.22 459.181   3
   1  -2   6 369.172 108.802   3
   1  -1 -13 7734.87 726.104   4
   1  -1 -12 5471.94 580.003   4
   1  -1 -11 3908.14 418.847   9
   1  -1 -11 4326.86 495.304   4
   1  -1 -11 4156.77 432.125   6
   1  -1 -10 1103.15 212.559   6
   1  -1 -10 1134.12 233.920   9
   1  -1 -10 1189.73 260.781   4
   1  -1  -9 5041.92 426.642   9
   1  -1  -9 4685.43 401.422   6
   1  -1  -8 2986.32 309.178   9
   1  -1  -8 2091.97 275.560   7
   1  -1  -8 2533.89 271.014   6
   1  -1  -7 838.115 145.666   6
   1  -1  -7 610.137 146.089   9
   1  -1  -7 757.445 151.003   7
   1  -1  -6 12871.7 559.735   9
   1  -1  -6 13225.8 592.251   7
   1  -1  -6 13790.1 552.487   6
   1  -1  -5 32760.0 926.371   9
   1  -1  -5 34815.3 973.149   7
   1  -1  -5 34202.9 906.970   6
   1  -1  -4 99.3159 47.9880   9
   1  -1  -4 20.5687 47.6054   7
   1  -1  -4 175.864 51.0926   6
   1  -1  -3 14196.8 484.158   4
   1  -1  -3 14262.3 427.944   9
   1  -1  -3 14826.4 470.770   7
   1  -1  -3 14050.9 402.925   6
   1  -1  -2 126948. 2296.78   9
   1  -1  -2 127709. 2376.44   5
   1  -1  -2 129097. 2401.79   4
   1  -1  -2 129053. 2383.25   7
   1  -1  -1 23681.9 544.424   3
   1  -1  -1 24539.7 537.577   5
   1  -1  -1 24342.0 565.877   4
   1  -1  -1 22755.6 544.146   1
   1  -1   0 10780.5 313.408   1
   1  -1   0 12421.4 321.974   3
   1  -1   1 13638.8 374.897   3
   1  -1   2 14342.8 426.922   3
   1  -1   3 152298. 2865.14   3
   1  -1   4 131263. 2595.72   3
   1  -1   5 3515.09 264.700   3
   1   0 -13 12899.5 942.319   4
   1   0 -12 8071.80 703.943   4
   1   0 -12 8451.11 677.152   9
   1   0 -11 1384.97 274.041   9
   1   0 -11 1013.35 256.776   4
   1   0 -10 2392.98 331.518   9
   1   0 -10 3298.85 403.902   4
   1   0 -10 2652.55 337.240   6
   1   0  -9 1648.79 251.438   6
   1   0  -9 1360.48 244.022   9
   1   0  -8 8110.68 537.092   9
   1   0  -8 8510.46 531.525   6
   1   0  -7 30724.5 1068.67   9
   1   0  -7 32137.5 1051.00   6
   1   0  -6 28035.5 953.843   9
   1   0  -6 30256.4 982.861   7
   1   0  -6 30228.5 943.444   6
   1   0  -5 17178.2 657.833   9
   1   0  -5 18877.0 677.480   7
   1   0  -5 18515.3 643.953   6
   1   0  -4 6516.54 341.532   9
   1   0  -4 6293.11 329.843   7
   1   0  -4 6500.29 317.263   6
   1   0  -3 641.633 85.2420   6
   1   0  -3 546.094 87.3047   7
   1   0  -3 554.721 88.0966   9
   1   0  -2 6877.29 262.506   9
   1   0  -2 6329.69 257.182   4
   1   0  -2 6278.15 255.857   7
   1   0  -2 6521.98 236.513   6
   1   0  -1 224.017 47.1998   5
   1   0  -1 162.225 37.8989   7
   1   0   1 81759.9 1460.16   1
   1   0   2 8340.72 279.350   3
   1   0   3 10637.6 376.866   3
   1   0   4 98440.6 2014.19   3
   1   1 -13 1045.66 267.653   9
   1   1 -13 1138.13 315.735   4
   1   1 -12 1678.86 327.584   9
   1   1 -12 1728.42 326.082   4
   1   1 -11 641.480 219.277   9
   1   1 -11 245.087 132.918   4
   1   1 -10 3464.66 409.439   9
   1   1  -9 607.137 175.639   9
   1   1  -8 663.594 186.589   9
   1   1  -8 596.483 154.625   6
   1   1  -7 43537.7 1390.73   9
   1   1  -7 45429.8 1364.79   6
   1   1  -6 111680. 2587.38   9
   1   1  -6 116466. 2550.68   6
   1   1  -5 13227.9 597.578   9
   1   1  -5 14117.8 584.656   6
   1   1  -4 1013.93 136.193   6
   1   1  -4 1043.05 146.748   9
   1   1  -4 1070.74 145.532   7
   1   1  -3 16622.4 572.384   9
   1   1  -3 16773.8 548.871   7
   1   1  -3 16645.0 540.512   6
   1   1  -2 12503.7 406.114   7
   1   1  -2 12021.8 421.088   9
   1   1  -1 87656.6 1665.47   5
   1   1  -1 88537.5 1692.85   9
   1   1  -1 88503.4 1653.08   7
   1   1   0 79309.5 1470.98   9
   1   1   1 14972.7 385.415   2
   1   1   1 15873.1 384.525   8
   1   1   2 32308.9 708.148   8
   1   1   3 1314.89 109.733   8
   1   2 -12 1568.78 325.549   9
   1   2 -12 781.940 257.856   4
   1   2 -11 1038.33 259.247   9
   1   2 -11 1282.85 291.063   4
   1   2 -10 134.736 148.111   9
   1   2  -9 1953.72 308.963   9
   1   2  -8 1664.25 280.783   9
   1   2  -7 2665.83 312.963   9
   1   2  -6 20744.6 872.996   9
   1   2  -5 10800.2 565.001   9
   1   2  -4 6534.54 396.591   9
   1   2  -3 20291.3 689.869   9
   1   2  -2 1409.09 144.928   9
   1   2  -1 37149.4 846.871   8
   1   2  -1 38344.6 891.725   9
   1   2   0 999999. 16810.7   9
   1   2   0 982174. 16825.5   8
   1   2   1 262488. 4698.59   2
   1   2   1 270929. 4748.93   8
   1   2   1 277261. 4686.86   9
   1   2   2 18441.1 493.176   8
   1   2   2 18483.9 440.178   9
   1   2   3 7864.88 296.278   8
   1   2   4 14053.6 448.605   8
   1   2   5 8799.78 356.145   8
   1   3 -11 3289.47 457.915   9
   1   3 -10 5460.24 560.361   9
   1   3  -9 1591.90 303.067   9
   1   3  -8 5104.25 489.652   9
   1   3  -7 3912.69 403.948   9
   1   3  -6 644.413 172.183   9
   1   3  -5 2865.74 307.947   9
   1   3  -4 3103.83 287.278   9
   1   3  -3 2827.57 252.097   9
   1   3  -2 6233.24 342.094   9
   1   3  -1 5876.42 291.781   8
   1   3  -1 5974.95 298.834   9
   1   3   0 91844.8 1809.77   9
   1   3   0 92626.3 1861.24   8
   1   3   1 170398. 3164.70   8
   1   3   1 173013. 3049.72   9
   1   3   1 166997. 3041.13   2
   1   3   2 11511.9 402.924   8
   1   3   2 11310.7 321.042   9
   1   3   3 16947.8 517.136   8
   1   3   4 7052.00 313.999   8
   1   3   5 2474.38 187.461   8
   1   3   6 95315.8 1980.15   8
   1   4 -11 674.549 212.016   9
   1   4 -10 7904.48 693.890   9
   1   4  -9 7029.22 634.806   9
   1   4  -8 2966.60 390.842   9
   1   4  -7 2293.78 320.182   9
   1   4  -6 369.766 134.383   9
   1   4  -5 6032.61 465.199   9
   1   4  -4 30296.7 1063.13   9
   1   4  -3 6751.57 422.284   9
   1   4  -2 1178.27 159.477   9
   1   4  -2 1487.41 174.467   8
   1   4  -1 37070.0 994.356   9
   1   4  -1 37338.0 1015.43   8
   1   4   0 6937.92 316.409   9
   1   4   0 7850.48 372.013   8
   1   4   1 2431.99 158.445   9
   1   4   1 2386.04 139.836   2
   1   4   1 2827.84 212.887   8
   1   4   2 4787.37 279.379   8
   1   4   2 5134.26 209.761   9
   1   4   3 7784.25 256.127   9
   1   4   3 7858.30 358.225   8
   1   4   4 5617.27 299.552   8
   1   4   5 10556.4 437.234   8
   1   4   6 30496.3 863.681   8
   1   4   7 59309.4 1414.77   8
   1   5 -10 2842.55 432.423   9
   1   5  -9 3641.51 475.089   9
   1   5  -8 1385.75 278.732   9
   1   5  -7 1990.15 313.555   9
   1   5  -6 1810.58 291.721   9
   1   5  -6 2220.09 265.939   8
   1   5  -5 1199.73 224.753   9
   1   5  -4 18934.2 835.879   9
   1   5  -3 42892.3 1302.11   9
   1   5  -3 44144.9 1272.76   8
   1   5  -2 12664.3 577.174   9
   1   5  -2 12169.5 568.096   8
   1   5  -1 8097.15 415.993   9
   1   5  -1 9367.80 470.817   8
   1   5   0 6515.94 331.063   9
   1   5   0 7358.37 402.564   8
   1   5   1 556.309 85.7404   9
   1   5   1 343.545 81.8976   8
   1   5   2 30347.2 891.047   8
   1   5   2 28739.3 701.955   9
   1   5   2 29405.0 714.867   2
   1   5   3 23274.4 747.781   8
   1   5   3 22227.2 547.848   9
   1   5   4 336.369 86.9190   8
   1   5   5 11529.6 490.796   8
   1   5   6 26649.1 832.461   8
   1   5   7 298.982 87.0363   8
   1   5   8 556.448 114.768   8
   1   6  -9 545.658 203.171   9
   1   6  -8 3249.29 436.397   9
   1   6  -7 4871.65 510.847   9
   1   6  -6 1212.46 228.478   8
   1   6  -6 957.380 215.647   9
   1   6  -5 1448.37 254.294   9
   1   6  -5 1402.70 225.844   8
   1   6  -4 7675.40 542.475   9
   1   6  -4 8112.25 523.721   8
   1   6  -3 14171.7 706.272   9
   1   6  -3 15277.5 720.551   8
   1   6  -2 11520.8 595.630   8
   1   6  -2 10391.1 551.783   9
   1   6  -1 5270.85 351.177   9
   1   6  -1 4952.11 374.617   8
   1   6   0 3472.65 302.919   8
   1   6   0 3829.91 267.830   9
   1   6   1 3632.86 235.774   9
   1   6   1 3915.28 318.209   8
   1   6   2 21279.7 598.885   9
   1   6   2 22475.3 801.435   8
   1   6   2 21733.5 582.520   2
   1   6   3 57823.4 1254.03   2
   1   6   3 58859.9 1478.09   8
   1   6   4 21537.1 773.626   8
   1   6   5 4917.53 336.374   8
   1   6   6 6997.93 408.142   8
   1   6   7 215.499 85.1562   8
   1   6   8 410.171 111.087   8
   1   7  -8 585.166 194.519   9
   1   7  -7 2315.32 364.469   9
   1   7  -6 2261.94 318.203   8
   1   7  -6 1979.30 342.357   9
   1   7  -5 2270.93 328.957   9
   1   7  -5 2759.60 340.288   8
   1   7  -4 6496.36 510.199   8
   1   7  -4 6863.61 531.244   9
   1   7  -3 3162.76 345.780   8
   1   7  -3 3229.67 340.520   9
   1   7  -2 3417.00 347.019   8
   1   7  -2 3525.47 336.282   9
   1   7  -1 8230.58 523.825   8
   1   7  -1 7080.51 439.108   9
   1   7   0 4805.41 321.414   9
   1   7   0 4496.62 375.831   8
   1   7   1 4142.33 271.341   9
   1   7   1 4919.96 386.211   8
   1   7   2 12692.7 635.889   8
   1   7   3 17015.1 734.372   8
   1   7   4 20654.1 813.688   8
   1   7   5 9990.38 532.460   8
   1   7   6 2043.01 235.550   8
   1   7   7 1945.96 227.904   8
   1   7   8 5863.70 409.720   8
   1   8  -8 2278.21 390.273   9
   1   8  -7 7.06065 107.289   9
   1   8  -6 22.9072 111.875   9
   1   8  -5 2410.32 355.800   9
   1   8  -5 2803.06 362.727   8
   1   8  -4 5084.14 478.698   8
   1   8  -4 5224.65 489.057   9
   1   8  -3 1580.10 252.847   9
   1   8  -3 1428.08 250.535   8
   1   8  -2 1450.17 225.400   9
   1   8  -2 1662.00 270.242   8
   1   8  -1 6589.20 509.094   8
   1   8  -1 6242.65 428.647   9
   1   8   0 6927.17 523.462   8
   1   8   0 7021.95 417.491   9
   1   8   1 5671.40 463.311   8
   1   8   2 9716.77 591.372   8
   1   8   3 9313.41 569.563   8
   1   8   4 3409.97 340.021   8
   1   8   5 3243.78 318.250   8
   1   8   6 2001.91 250.470   8
   1   8   7 2955.73 306.583   8
   1   8   8 9469.45 561.833   8
   1   9  -7 1749.26 331.750   9
   1   9  -6 348.093 160.129   9
   1   9  -5 954.769 245.330   9
   1   9  -5 1271.57 278.342   8
   1   9  -4 977.086 230.496   9
   1   9  -4 607.714 196.118   8
   1   9  -3 747.540 198.829   9
   1   9  -3 470.623 174.698   8
   1   9  -2 5455.37 511.056   8
   1   9  -2 6981.70 512.659   9
   1   9  -1 2429.98 332.867   8
   1   9   0 458.059 163.433   8
   1   9   1 2249.64 314.882   8
   1   9   2 14567.9 785.261   8
   1   9   3 4755.27 437.453   8
   1   9   4 833.280 175.204   8
   1   9   5 2519.76 302.696   8
   1   9   6 5499.98 451.415   8
   1   9   7 3890.71 380.226   8
   1   9   8 4942.80 422.049   8
   1  10  -5 2085.84 346.069   9
   1  10  -5 2452.23 383.898   8
   1  10  -4 4176.12 495.429   8
   1  10  -3 2721.49 390.555   8
   1  10  -2 1814.75 329.567   8
   1  10  -1 3888.01 453.469   8
   1  10   0 627.983 203.987   8
   1  10   1-22.8624 125.474   8
   1  10   2 2546.52 351.944   8
   1  10   3 1702.64 287.740   8
   1  10   4 3073.62 365.157   8
   1  10   5 6109.59 509.934   8
   1  10   6 359.372 128.642   8
   1  10   7 308.140 99.9323   8
   1  10   8 8566.99 603.955   8
   1  11  -4 244.822 170.306   8
   1  11  -3 6180.57 619.071   8
   1  11  -2 4115.98 513.810   8
   1  11  -1 923.042 252.149   8
   1  11   0 2931.53 411.111   8
   1  11   1 4665.21 496.418   8
   1  11   2 2452.27 377.084   8
   1  11   3 2087.25 344.573   8
   1  11   4 1620.31 280.736   8
   1  11   5 3818.65 435.306   8
   1  11   6 1506.40 273.940   8
   1  11   7 182.453 120.892   8
   1  11   8 840.899 245.643   8
   1  12  -2 959.250 270.517   8
   1  12  -1 2454.04 401.834   8
   1  12   0 2872.47 431.682   8
   1  12   1 4007.22 498.193   8
   1  12   2 485.861 160.482   8
   1  12   3 4160.61 493.265   8
   1  12   4 9013.30 710.210   8
   1  12   5 1535.16 305.402   8
   1  12   6 570.841 187.376   8
   1  12   7 2549.72 367.378   8
   1  12   8 1233.39 258.035   8
   1  13   1 2355.73 400.027   8
   1  13   2 355.068 194.914   8
   1  13   3 690.291 234.131   8
   1  13   4 1272.17 310.057   8
   1  13   5 5934.05 605.170   8
   1  13   6 2589.28 388.892   8
   1  13   7 2926.40 408.417   8
   1  13   8 1582.31 306.148   8
   2 -13  -5 992.881 247.703   3
   2 -13  -4 319.344 158.732   3
   2 -13  -3 318.011 179.251   3
   2 -13  -2 612.189 201.860   3
   2 -12  -8 2062.02 377.781   3
   2 -12  -7-6.96721 119.984   3
   2 -12  -6 169.357 122.917   3
   2 -12  -5 42.6199 114.635   3
   2 -12  -4 1008.10 234.688   3
   2 -12  -3 3310.16 425.003   3
   2 -12  -2 1610.85 298.316   3
   2 -12  -1 800.834 229.438   3
   2 -12   0 1650.50 300.204   3
   2 -11 -10 7272.32 693.803   3
   2 -11  -9 3802.48 489.861   3
   2 -11  -8 1525.72 298.832   3
   2 -11  -7 1135.43 237.752   3
   2 -11  -6 357.266 177.951   3
   2 -11  -5 680.978 200.595   3
   2 -11  -4 1648.64 294.908   3
   2 -11  -3 4814.18 490.981   3
   2 -11  -2 5513.55 521.874   3
   2 -11  -1 672.972 212.079   3
   2 -11   0 136.960 122.093   3
   2 -11   1 164.167 127.020   3
   2 -11   2 1258.41 251.766   3
   2 -10 -11 880.496 249.005   3
   2 -10 -10 4726.20 548.072   3
   2 -10  -9 444.526 204.676   3
   2 -10  -8 9.28220 91.2945   7
   2 -10  -8 7.64088 127.650   3
   2 -10  -7 9337.11 709.888   3
   2 -10  -7 10307.2 691.905   7
   2 -10  -6 7646.48 617.870   3
   2 -10  -5 816.604 214.778   3
   2 -10  -4 7519.66 584.110   3
   2 -10  -3 12532.6 758.862   3
   2 -10  -2 3348.00 393.216   3
   2 -10  -1 1658.24 280.228   3
   2 -10   0 349.927 161.028   3
   2 -10   1 73.5232 73.7189   3
   2 -10   2 1202.82 239.645   3
   2 -10   3 2618.90 359.134   3
   2  -9 -12 4605.35 566.970   3
   2  -9 -11 1063.50 287.889   3
   2  -9 -10 940.891 254.247   3
   2  -9 -10 625.900 184.309   7
   2  -9  -9-82.2986 138.053   3
   2  -9  -9-95.6124 85.5262   7
   2  -9  -8 394.662 194.299   3
   2  -9  -8 312.731 153.249   7
   2  -9  -7 3213.17 406.833   3
   2  -9  -7 3201.96 369.263   7
   2  -9  -6 7330.41 571.533   3
   2  -9  -5 3592.65 389.946   3
   2  -9  -4 7531.46 559.489   3
   2  -9  -3 9467.71 628.216   3
   2  -9  -2 179.021 105.515   3
   2  -9  -1 4674.33 426.937   3
   2  -9   0 15741.1 816.558   3
   2  -9   1 1310.28 251.417   3
   2  -9   2 992.552 206.588   3
   2  -9   3 8722.17 618.822   3
   2  -9   4 3562.98 406.586   3
   2  -9   5 1764.30 294.029   3
   2  -8 -12 3972.01 506.795   4
   2  -8 -12 4178.04 522.355   3
   2  -8 -12 4345.69 491.821   7
   2  -8 -11 10786.8 814.094   3
   2  -8 -11 10893.7 763.068   7
   2  -8 -11 10882.0 800.856   4
   2  -8 -10 534.715 185.028   4
   2  -8 -10 699.319 213.383   3
   2  -8 -10 676.203 187.046   7
   2  -8  -9 1261.17 264.191   3
   2  -8  -9 1592.40 277.247   7
   2  -8  -8 2612.67 359.952   3
   2  -8  -8 2381.50 321.084   7
   2  -8  -7 7059.42 559.339   3
   2  -8  -7 7474.71 547.415   7
   2  -8  -6 6335.64 508.432   3
   2  -8  -5 6340.94 498.959   3
   2  -8  -4 152.866 124.086   3
   2  -8  -3 287.544 113.327   3
   2  -8  -2 852.177 192.902   3
   2  -8  -1 3130.74 326.008   3
   2  -8   0 14398.1 741.722   3
   2  -8   1 12399.9 678.062   3
   2  -8   2 4517.01 407.619   3
   2  -8   3 9435.50 611.668   3
   2  -8   4 4434.40 434.356   3
   2  -8   5 757.081 188.037   3
   2  -8   6 3982.50 434.953   3
   2  -7 -13 2376.12 416.022   3
   2  -7 -13 2485.61 391.509   7
   2  -7 -12 506.942 227.025   4
   2  -7 -12 321.747 166.709   3
   2  -7 -12 12.7825 115.435   7
   2  -7 -11 2064.90 363.427   4
   2  -7 -11 2517.37 387.083   3
   2  -7 -11 2693.49 371.928   7
   2  -7 -10 14336.1 892.615   3
   2  -7 -10 14776.0 848.811   7
   2  -7 -10 14705.2 901.861   4
   2  -7  -9 4553.92 471.567   3
   2  -7  -9 5209.76 468.574   7
   2  -7  -9 4117.34 445.376   4
   2  -7  -8 2410.65 326.294   4
   2  -7  -8 2406.80 330.055   3
   2  -7  -8 2787.55 326.240   7
   2  -7  -7 9504.77 622.234   3
   2  -7  -7 8694.31 571.777   7
   2  -7  -7 9034.56 590.723   4
   2  -7  -6 9522.95 599.530   3
   2  -7  -5 27965.5 1072.02   3
   2  -7  -4 12469.5 661.599   3
   2  -7  -3 9371.77 550.003   3
   2  -7  -2 565.345 152.468   3
   2  -7  -1 21524.8 856.364   3
   2  -7   0 9634.08 564.506   3
   2  -7   1 4759.88 396.045   3
   2  -7   2 4416.71 382.694   3
   2  -7   3 73.6864 74.8970   3
   2  -7   4 622.083 163.083   3
   2  -7   5 1961.63 282.586   3
   2  -7   6 4811.64 459.230   3
   2  -7   7 6946.58 582.765   3
   2  -7   8 2447.39 378.246   3
   2  -6 -13-103.607 152.278   7
   2  -6 -13 29.0050 117.545   4
   2  -6 -13 60.0855 123.052   3
   2  -6 -12 355.693 178.181   7
   2  -6 -12 352.958 188.215   4
   2  -6 -12 169.879 152.022   3
   2  -6 -11 2184.98 335.015   7
   2  -6 -11 2964.32 414.321   4
   2  -6 -11 2450.90 370.356   3
   2  -6 -10 4276.40 467.284   3
   2  -6 -10 5282.15 487.993   7
   2  -6 -10 4938.78 505.859   4
   2  -6  -9 3861.49 399.126   7
   2  -6  -9 3244.10 385.079   4
   2  -6  -9 2977.50 371.376   3
   2  -6  -8 2694.21 331.028   3
   2  -6  -8 3061.24 338.270   7
   2  -6  -8 2984.10 355.057   4
   2  -6  -7 12370.7 687.465   3
   2  -6  -7 11174.5 653.174   4
   2  -6  -7 11649.5 645.387   7
   2  -6  -6 8033.00 534.604   3
   2  -6  -6 8600.07 535.382   4
   2  -6  -5 4825.90 386.159   3
   2  -6  -4 30757.5 1055.28   3
   2  -6  -3 27289.2 897.640   1
   2  -6  -3 25612.7 921.256   3
   2  -6  -2 1667.58 209.909   3
   2  -6  -1 13345.7 611.981   3
   2  -6   0 19978.1 777.364   3
   2  -6   1 16744.4 717.901   3
   2  -6   2 20007.9 805.984   3
   2  -6   3 1060.80 183.479   3
   2  -6   4 11813.1 635.950   3
   2  -6   5 5405.97 445.215   3
   2  -6   6 11280.8 678.012   3
   2  -6   7 1261.01 253.450   3
   2  -6   8 2162.90 343.097   3
   2  -5 -13 115.811 101.927   7
   2  -5 -13 89.1274 114.580   3
   2  -5 -13 43.1517 124.856   4
   2  -5 -12 64.9506 119.142   7
   2  -5 -12-33.4607 116.516   3
   2  -5 -11 4822.42 505.560   3
   2  -5 -11 5159.61 509.625   7
   2  -5 -11 4862.05 533.554   4
   2  -5 -10 3747.24 437.042   3
   2  -5 -10 4178.90 430.219   7
   2  -5 -10 3107.30 409.660   4
   2  -5  -9 3248.76 364.562   7
   2  -5  -9 2937.84 358.637   3
   2  -5  -9 2806.14 359.681   4
   2  -5  -8 3721.77 378.535   3
   2  -5  -8 3182.36 361.408   4
   2  -5  -8 3827.36 372.014   7
   2  -5  -7 918.678 178.502   7
   2  -5  -7 747.310 175.844   4
   2  -5  -7 811.485 168.261   3
   2  -5  -6 2105.51 267.361   4
   2  -5  -6 2185.38 263.079   3
   2  -5  -6 2153.22 249.301   7
   2  -5  -5 8423.27 491.107   3
   2  -5  -5 7931.79 471.904   4
   2  -5  -4 10740.9 540.413   3
   2  -5  -4 11601.0 508.745   1
   2  -5  -3 21291.8 626.798   5
   2  -5  -3 20889.9 773.378   3
   2  -5  -3 22907.9 751.074   1
   2  -5  -2 27890.9 857.100   1
   2  -5  -2 27096.7 872.312   3
   2  -5  -2 25313.8 671.245   5
   2  -5  -1 25010.5 644.517   5
   2  -5  -1 25943.1 841.159   3
   2  -5   0 30034.4 940.564   3
   2  -5   0 29794.6 744.846   5
   2  -5   1 14005.6 600.068   3
   2  -5   2 18778.6 729.535   3
   2  -5   3 23633.0 859.198   3
   2  -5   4 1445.38 208.184   3
   2  -5   5 1055.05 192.437   3
   2  -5   6 10606.3 631.715   3
   2  -5   7 4621.26 432.189   3
   2  -5   8 2345.99 339.820   3
   2  -4 -13 400.472 193.682   3
   2  -4 -13 1135.91 305.154   4
   2  -4 -12 1493.70 304.708   7
   2  -4 -12 1781.25 323.284   3
   2  -4 -12 1570.47 319.334   4
   2  -4 -11 1950.14 318.810   7
   2  -4 -11 1848.97 308.452   3
   2  -4 -11 2327.72 373.072   4
   2  -4 -10 435.676 151.318   7
   2  -4 -10 382.072 149.087   3
   2  -4 -10 444.764 162.635   4
   2  -4  -9 4250.99 415.701   3
   2  -4  -9 3707.34 383.885   7
   2  -4  -9 4176.16 440.071   4
   2  -4  -8 24398.4 993.186   3
   2  -4  -8 24361.8 989.166   7
   2  -4  -8 24495.5 1048.25   4
   2  -4  -7 5793.63 429.131   3
   2  -4  -7 5923.53 454.290   4
   2  -4  -7 4801.66 389.991   7
   2  -4  -6 508.584 115.595   7
   2  -4  -6 840.945 165.217   3
   2  -4  -6 625.335 146.390   4
   2  -4  -5 8760.40 479.123   3
   2  -4  -5 9735.08 501.621   7
   2  -4  -5 9036.63 500.449   4
   2  -4  -4 36136.7 1051.48   3
   2  -4  -4 35543.5 1060.85   4
   2  -4  -3 12671.8 494.710   1
   2  -4  -3 11307.2 506.923   3
   2  -4  -3 11050.7 424.747   5
   2  -4  -2 11355.6 474.851   1
   2  -4  -2 11543.1 492.067   3
   2  -4  -2 11924.7 402.205   5
   2  -4  -1 5218.04 241.272   5
   2  -4  -1 5388.94 322.112   3
   2  -4  -1 5645.34 318.243   1
   2  -4   0 2886.93 232.783   3
   2  -4   1 28764.4 874.481   3
   2  -4   2 14306.1 579.813   3
   2  -4   2 13723.6 359.127   2
   2  -4   3 9377.49 471.486   3
   2  -4   3 9705.58 324.591   2
   2  -4   4 36608.5 1119.39   3
   2  -4   5 24943.6 919.232   3
   2  -4   6 7413.39 494.126   3
   2  -4   7 6077.10 478.935   3
   2  -4   8 3604.75 397.493   3
   2  -3 -13 1181.78 287.383   4
   2  -3 -12 1984.74 323.424   3
   2  -3 -12 2208.97 386.529   4
   2  -3 -11 815.363 214.031   3
   2  -3 -11 1505.91 288.119   7
   2  -3 -11 1466.35 302.036   4
   2  -3 -10 175.497 135.134   7
   2  -3 -10 450.630 169.216   4
   2  -3  -9 6246.80 497.491   7
   2  -3  -9 5150.01 490.048   4
   2  -3  -8 14573.1 743.315   7
   2  -3  -8 16110.2 829.125   4
   2  -3  -7 5520.38 403.965   3
   2  -3  -7 5329.03 408.023   7
   2  -3  -7 5079.58 429.183   4
   2  -3  -6 2742.34 266.332   3
   2  -3  -6 2768.06 201.042   9
   2  -3  -6 2213.13 243.887   7
   2  -3  -6 2819.05 294.310   4
   2  -3  -5 17881.9 673.635   3
   2  -3  -5 17285.7 503.496   9
   2  -3  -5 18759.0 698.136   7
   2  -3  -5 17060.9 698.161   4
   2  -3  -4 16005.6 603.052   3
   2  -3  -4 15862.1 438.731   9
   2  -3  -4 16314.0 616.896   7
   2  -3  -4 15701.3 625.156   4
   2  -3  -3 8868.89 278.730   9
   2  -3  -3 8923.66 377.003   5
   2  -3  -3 8957.94 409.469   3
   2  -3  -3 8780.73 423.523   4
   2  -3  -2 51576.0 1189.25   1
   2  -3  -2 49226.8 1117.31   5
   2  -3  -2 51052.2 1208.68   3
   2  -3  -1 51464.8 1190.66   3
   2  -3  -1 49208.5 1166.39   1
   2  -3  -1 49211.5 1078.02   5
   2  -3   0 16913.9 562.716   3
   2  -3   1 1221.14 137.935   3
   2  -3   2 50628.3 1257.71   3
   2  -3   2 52646.6 1063.89   2
   2  -3   3 17014.4 623.983   3
   2  -3   4 9141.50 466.208   3
   2  -3   5 10667.8 543.171   3
   2  -3   6 2288.53 265.705   3
   2  -3   7 6914.69 496.439   3
   2  -3   8 6938.71 534.575   3
   2  -2 -13 622.577 223.724   4
   2  -2 -12 1004.01 280.625   4
   2  -2 -11 2280.27 374.946   4
   2  -2 -10 6039.60 536.021   7
   2  -2 -10 5950.18 556.371   4
   2  -2  -9 10175.5 574.827   9
   2  -2  -9 9417.87 631.147   7
   2  -2  -9 9863.43 677.733   4
   2  -2  -8 11707.8 586.165   9
   2  -2  -8 12048.7 670.901   7
   2  -2  -8 12341.2 711.084   4
   2  -2  -7 3741.26 343.591   7
   2  -2  -7 4262.75 378.043   4
   2  -2  -7 4369.96 319.661   9
   2  -2  -7 4435.90 307.005   6
   2  -2  -6 5299.18 374.278   7
   2  -2  -6 5219.49 317.859   9
   2  -2  -6 4853.74 386.004   4
   2  -2  -6 5648.42 307.692   6
   2  -2  -5 19441.8 676.479   3
   2  -2  -5 18847.5 595.787   9
   2  -2  -5 18964.5 701.952   7
   2  -2  -5 17905.5 718.961   4
   2  -2  -5 17526.4 545.266   6
   2  -2  -4 4097.13 268.000   3
   2  -2  -4 4432.46 229.711   9
   2  -2  -4 4128.01 282.580   7
   2  -2  -4 4003.08 290.659   4
   2  -2  -3 7555.22 346.625   3
   2  -2  -3 8443.98 293.785   9
   2  -2  -3 7454.25 353.050   5
   2  -2  -3 7870.37 375.802   7
   2  -2  -3 7625.59 377.874   4
   2  -2  -2 78955.0 1497.60   9
   2  -2  -2 76748.5 1620.47   3
   2  -2  -2 77187.1 1608.27   5
   2  -2  -1 45782.0 1042.98   3
   2  -2  -1 44646.1 1037.31   1
   2  -2  -1 45574.2 1009.10   5
   2  -2  -1 46162.6 948.567   9
   2  -2   0 11611.1 404.045   3
   2  -2   0 10829.9 395.328   1
   2  -2   1 11234.2 412.313   3
   2  -2   1 11115.3 338.149   2
   2  -2   2 34645.7 902.296   3
   2  -2   2 35828.0 802.422   2
   2  -2   3 18760.0 622.927   3
   2  -2   4 17386.4 638.269   3
   2  -2   5 15866.5 645.154   3
   2  -2   6 824.856 165.695   3
   2  -2   7 125.494 89.3024   3
   2  -1 -13-136.416 185.880   4
   2  -1 -12 669.777 249.114   4
   2  -1 -11 584.378 209.015   4
   2  -1 -10 7842.94 568.538   9
   2  -1 -10 8213.49 657.179   4
   2  -1  -9 19094.4 860.026   9
   2  -1  -9 17179.9 885.638   7
   2  -1  -9 17249.7 909.818   4
   2  -1  -8 9133.48 541.530   9
   2  -1  -8 8048.33 556.372   7
   2  -1  -8 9442.59 611.068   4
   2  -1  -7 5881.46 400.962   9
   2  -1  -7 6121.47 436.740   7
   2  -1  -7 5379.56 432.812   4
   2  -1  -6 8831.67 458.777   9
   2  -1  -6 9511.45 514.676   7
   2  -1  -6 9179.97 524.739   4
   2  -1  -5 12054.5 497.341   9
   2  -1  -5 11878.6 541.478   7
   2  -1  -5 11431.1 549.470   4
   2  -1  -4 13746.8 489.901   9
   2  -1  -4 13297.5 536.414   7
   2  -1  -4 13327.3 551.162   4
   2  -1  -3 38191.6 907.377   3
   2  -1  -3 37087.0 890.300   9
   2  -1  -3 38219.4 969.301   7
   2  -1  -3 36922.2 978.688   4
   2  -1  -3 36383.3 967.455   5
   2  -1  -2 112309. 2103.58   3
   2  -1  -2 111572. 2169.99   5
   2  -1  -2 108097. 2077.76   9
   2  -1  -2 109401. 2171.74   7
   2  -1  -2 109238. 2179.57   4
   2  -1  -1 11953.3 370.948   3
   2  -1  -1 11723.3 358.157   9
   2  -1  -1 12158.0 395.669   5
   2  -1   0 185.828 45.0449   9
   2  -1   0 186.735 43.3498   3
   2  -1   0 278.091 54.2951   5
   2  -1   0 179.060 51.8410   1
   2  -1   1 73254.0 1418.49   2
   2  -1   1 73240.5 1444.38   3
   2  -1   2 60202.7 1289.83   3
   2  -1   2 60164.4 1247.29   2
   2  -1   3 12113.1 450.459   3
   2  -1   4 23352.9 730.122   3
   2  -1   5 27909.0 877.698   3
   2  -1   6 4377.99 342.720   3
   2   0 -13-24.1280 148.291   4
   2   0 -12 3679.53 444.686   9
   2   0 -12 3939.54 500.104   4
   2   0 -11 2890.71 380.211   9
   2   0 -11 2602.36 394.189   4
   2   0 -10 266.769 137.493   9
   2   0 -10-43.5475 128.215   4
   2   0  -9 4556.06 428.180   9
   2   0  -9 3076.21 371.712   4
   2   0  -8 5900.79 479.641   7
   2   0  -8 5702.80 475.876   4
   2   0  -8 5562.63 449.051   9
   2   0  -7 1609.98 222.893   9
   2   0  -7 2098.75 263.222   7
   2   0  -7 2288.37 276.185   4
   2   0  -6 6513.98 415.901   9
   2   0  -6 6010.23 416.972   7
   2   0  -6 5788.80 414.535   4
   2   0  -5 2475.10 238.885   7
   2   0  -5 2002.66 213.350   9
   2   0  -5 2559.46 245.408   4
   2   0  -4 13182.0 539.770   4
   2   0  -4 13086.4 520.995   9
   2   0  -4 13377.3 539.032   7
   2   0  -3 146301. 2817.28   9
   2   0  -3 147293. 2842.52   7
   2   0  -3 143817. 2841.93   4
   2   0  -2 87551.9 1673.51   3
   2   0  -2 86752.9 1807.43   5
   2   0  -2 90763.4 1788.58   7
   2   0  -2 88192.1 1770.52   9
   2   0  -2 88931.0 1787.86   4
   2   0  -1 1724.90 100.761   3
   2   0  -1 1691.84 136.734   5
   2   0  -1 1576.93 124.044   7
   2   0  -1 1736.39 129.491   9
   2   0   0 20017.6 469.625   3
   2   0   0 20665.3 541.004   5
   2   0   0 20897.1 536.472   9
   2   0   1 51878.0 1085.54   9
   2   0   1 51641.8 1033.12   3
   2   0   1 50451.9 1085.32   2
   2   0   1 51077.7 1040.64   1
   2   0   2 6123.65 224.437   1
   2   0   2 6564.92 274.265   2
   2   0   2 6374.80 260.527   3
   2   0   3 18036.6 547.336   3
   2   0   4 59107.5 1367.87   3
   2   0   5 22214.5 747.959   3
   2   1 -12 3386.79 441.642   9
   2   1 -12 3646.61 477.065   4
   2   1 -11 3911.47 456.523   9
   2   1 -11 3436.77 442.846   4
   2   1 -10 557.991 178.822   9
   2   1 -10 593.904 202.718   4
   2   1  -9 1103.42 221.327   9
   2   1  -9 1497.76 278.132   4
   2   1  -8 2029.42 285.847   9
   2   1  -8 2226.62 301.551   4
   2   1  -7 170.714 98.2370   9
   2   1  -7 424.667 149.598   4
   2   1  -6 3900.16 343.856   9
   2   1  -6 4182.93 359.108   7
   2   1  -6 4327.26 351.532   4
   2   1  -5 20855.8 790.613   9
   2   1  -5 22282.5 807.432   7
   2   1  -5 20242.4 755.482   4
   2   1  -4 830.932 141.441   9
   2   1  -4 662.691 69.3961   8
   2   1  -4 954.741 139.167   7
   2   1  -4 681.103 118.984   4
   2   1  -3 9721.48 434.022   9
   2   1  -3 9704.96 291.649   8
   2   1  -3 10082.4 425.381   7
   2   1  -3 10278.2 415.130   4
   2   1  -2 79354.8 1671.48   9
   2   1  -2 78535.3 1480.86   8
   2   1  -2 77152.8 1663.27   5
   2   1  -2 80185.4 1633.85   7
   2   1  -2 79661.8 1604.56   4
   2   1  -1 21460.8 602.224   9
   2   1  -1 22097.6 521.612   8
   2   1  -1 22664.9 613.094   5
   2   1  -1 22451.9 572.873   7
   2   1  -1 23163.2 563.548   4
   2   1   0 19388.7 528.224   9
   2   1   0 19716.2 486.645   8
   2   1   0 19109.2 515.706   5
   2   1   0 18669.9 452.478   7
   2   1   1 19830.6 551.546   2
   2   1   1 20475.0 544.370   9
   2   1   1 20305.1 527.694   8
   2   1   2 5302.69 257.096   2
   2   1   2 5535.66 226.343   3
   2   1   2 5621.24 250.673   8
   2   1   3 105930. 2066.09   8
   2   1   3 106397. 2067.20   3
   2   1   3 104118. 1864.37   1
   2   2 -12 7392.63 679.850   9
   2   2 -11 1593.84 319.533   9
   2   2 -11 1291.94 278.846   4
   2   2 -10 1114.65 251.979   9
   2   2 -10 1184.55 273.704   4
   2   2  -9 1512.37 275.313   9
   2   2  -9 1275.32 258.857   4
   2   2  -8 4673.50 454.541   9
   2   2  -8 4429.46 410.903   4
   2   2  -7 14650.9 769.701   9
   2   2  -7 14370.9 726.773   4
   2   2  -6 11565.8 634.252   9
   2   2  -6 10287.2 555.141   4
   2   2  -5 10393.0 566.274   9
   2   2  -5 10460.6 511.774   4
   2   2  -4 8340.33 466.240   9
   2   2  -4 7513.64 323.328   8
   2   2  -4 8545.87 412.619   4
   2   2  -3 1147.63 156.642   9
   2   2  -3 1354.51 125.380   8
   2   2  -3 1530.38 166.442   7
   2   2  -3 1272.53 139.724   4
   2   2  -2 3323.43 238.614   9
   2   2  -2 3092.66 211.244   7
   2   2  -2 2935.18 179.184   4
   2   2  -2 3232.18 187.543   8
   2   2  -1 4053.33 221.851   5
   2   2  -1 3970.71 235.661   9
   2   2  -1 3647.53 195.862   8
   2   2  -1 3695.24 167.980   4
   2   2  -1 3721.62 201.378   7
   2   2   0 1318.56 120.949   9
   2   2   0 1445.05 116.461   5
   2   2   0 1443.53 120.950   8
   2   2   0 1434.36 97.8477   7
   2   2   1 38657.0 880.246   9
   2   2   1 36900.5 889.504   2
   2   2   1 38194.4 881.165   8
   2   2   1 38351.8 841.302   5
   2   2   2 9713.84 359.708   8
   2   2   2 9968.45 347.670   9
   2   2   2 9092.97 355.153   2
   2   2   3 7116.77 316.167   8
   2   2   4 90357.7 1870.97   8
   2   2   5 39139.7 1014.95   8
   2   3 -11 412.109 177.432   9
   2   3 -10 1227.28 281.336   9
   2   3  -9 960.226 235.501   9
   2   3  -8 958.356 210.615   9
   2   3  -8 562.446 161.712   4
   2   3  -7 16978.7 877.948   9
   2   3  -7 17093.1 791.882   4
   2   3  -6 71766.1 1996.03   9
   2   3  -6 71842.5 1830.27   4
   2   3  -5 14591.5 712.546   9
   2   3  -5 13939.9 601.650   4
   2   3  -4 1307.80 196.440   9
   2   3  -4 1045.95 132.802   8
   2   3  -4 1024.37 141.098   4
   2   3  -3 7274.97 423.679   9
   2   3  -3 6739.36 341.147   8
   2   3  -3 7105.56 329.512   4
   2   3  -2 4829.39 312.494   9
   2   3  -2 4772.97 274.777   8
   2   3  -2 4435.45 217.878   4
   2   3  -1 28502.0 753.687   5
   2   3  -1 28608.9 771.112   8
   2   3  -1 27630.8 803.628   9
   2   3   0 41081.2 993.887   8
   2   3   0 40806.3 919.630   5
   2   3   0 40772.9 986.438   9
   2   3   1 7508.76 331.539   8
   2   3   1 7335.55 306.010   9
   2   3   1 7194.00 307.661   2
   2   3   1 7252.20 265.914   5
   2   3   2 17906.4 517.936   9
   2   3   2 17202.3 556.838   8
   2   3   2 17844.7 544.533   2
   2   3   3 4902.21 273.654   8
   2   3   3 4888.43 239.532   9
   2   3   4 828.288 116.996   8
   2   3   5 4624.83 285.150   8
   2   3   6 9574.84 442.317   8
   2   4 -10 221.535 148.543   9
   2   4  -9 1171.47 286.630   9
   2   4  -8 321.544 157.169   9
   2   4  -7 945.183 223.719   9
   2   4  -6 12205.3 723.337   9
   2   4  -5 11033.7 645.700   9
   2   4  -5 10731.5 520.425   8
   2   4  -4 3449.09 326.270   9
   2   4  -4 3143.25 265.742   8
   2   4  -4 3090.33 239.613   4
   2   4  -3 10034.1 536.584   9
   2   4  -3 9878.36 463.548   8
   2   4  -3 8781.69 371.781   4
   2   4  -2 690.877 133.812   9
   2   4  -2 1037.65 146.033   8
   2   4  -2 825.814 86.7784   4
   2   4  -1 9412.76 431.452   8
   2   4  -1 8665.93 428.674   9
   2   4   0 246264. 4395.11   5
   2   4   0 245545. 4580.21   8
   2   4   0 244969. 4532.89   9
   2   4   1 128235. 2523.41   9
   2   4   1 131413. 2390.69   5
   2   4   1 128006. 2496.18   2
   2   4   1 131215. 2615.36   8
   2   4   2 148.485 46.7967   9
   2   4   2 151.826 52.0353   8
   2   4   2 145.033 36.3243   5
   2   4   2 297.745 69.0903   2
   2   4   3 3752.28 256.536   8
   2   4   3 3871.24 216.378   9
   2   4   3 3856.09 242.857   2
   2   4   4 7787.14 384.294   8
   2   4   5 5007.14 312.955   8
   2   4   6 18244.3 664.542   8
   2   4   7 4906.92 331.639   8
   2   5 -10 3202.14 458.202   9
   2   5  -9 1008.05 267.158   9
   2   5  -8 2835.61 403.772   9
   2   5  -7 3604.68 423.942   9
   2   5  -6 37.6338 105.735   9
   2   5  -5 1101.76 209.551   9
   2   5  -5 530.491 139.497   8
   2   5  -4 1589.94 237.610   9
   2   5  -4 1580.41 207.785   8
   2   5  -3 2080.37 254.229   9
   2   5  -3 2216.38 239.224   8
   2   5  -2 3992.55 325.906   9
   2   5  -2 4699.36 340.425   8
   2   5  -1 2159.16 216.759   9
   2   5  -1 2390.95 236.148   8
   2   5   0 30826.6 893.975   9
   2   5   0 30111.2 944.437   8
   2   5   1 89206.4 1725.16   5
   2   5   1 92732.0 2045.86   8
   2   5   1 91326.5 1900.11   9
   2   5   2 13079.5 464.333   9
   2   5   2 12664.8 353.911   5
   2   5   2 13496.1 568.956   8
   2   5   2 13702.6 478.032   2
   2   5   3 3776.84 221.230   9
   2   5   3 4048.68 289.076   8
   2   5   3 3816.89 173.053   5
   2   5   3 3912.79 247.756   2
   2   5   4 7431.13 404.729   8
   2   5   5 2632.75 241.045   8
   2   5   6 49180.1 1312.41   8
   2   5   7 72768.4 1771.53   8
   2   5   8 1740.23 214.533   8
   2   6  -9 3999.52 510.046   9
   2   6  -8 2079.12 360.517   9
   2   6  -7 2741.53 388.724   9
   2   6  -6 322.091 138.667   9
   2   6  -5 1057.96 227.440   9
   2   6  -5 1595.95 234.117   8
   2   6  -4 12853.5 725.629   9
   2   6  -4 13141.1 673.006   8
   2   6  -3 3391.52 350.963   9
   2   6  -3 3633.46 332.998   8
   2   6  -2 395.760 116.756   9
   2   6  -2 349.025 112.115   8
   2   6  -1 14334.9 638.691   9
   2   6  -1 15512.9 691.637   8
   2   6   0 7262.32 446.766   8
   2   6   0 6632.96 383.525   9
   2   6   1 338.521 114.462   8
   2   6   1 211.773 69.7859   9
   2   6   2 2163.54 185.179   9
   2   6   2 2136.69 176.066   2
   2   6   2 2404.61 247.960   8
   2   6   3 6724.19 413.282   8
   2   6   3 6034.09 303.227   9
   2   6   3 6238.51 325.441   2
   2   6   4 6274.66 293.128   9
   2   6   4 6234.72 398.020   8
   2   6   4 5543.23 327.778   2
   2   6   5 5686.18 383.171   8
   2   6   6 12963.1 600.525   8
   2   6   7 43695.7 1282.99   8
   2   6   8 26099.5 940.922   8
   2   6   9 790.361 162.050   8
   2   7  -8 1189.35 277.543   9
   2   7  -7 636.219 205.576   9
   2   7  -6 1228.28 269.553   9
   2   7  -5 588.968 181.038   9
   2   7  -5 652.225 170.823   8
   2   7  -4 6292.39 527.255   9
   2   7  -4 7015.96 521.276   8
   2   7  -3 18880.2 885.056   9
   2   7  -3 20069.1 898.601   8
   2   7  -2 7963.92 518.742   9
   2   7  -2 8292.30 544.877   8
   2   7  -1 4050.86 371.946   8
   2   7  -1 5155.36 381.138   9
   2   7   0 3916.53 353.035   8
   2   7   0 3329.18 283.397   9
   2   7   1 12.7587 52.1792   9
   2   7   1 61.8355 74.2445   8
   2   7   2 6873.43 360.771   9
   2   7   2 6711.75 459.070   8
   2   7   3 14688.9 682.430   8
   2   7   3 13043.4 491.190   9
   2   7   4 161.412 95.9675   8
   2   7   4 170.876 63.6326   2
   2   7   5 4022.28 341.528   8
   2   7   5 3354.59 271.205   2
   2   7   6 17337.0 755.046   8
   2   7   7 742.512 158.453   8
   2   7   8 161.452 83.2384   8
   2   7   9 5110.35 414.016   8
   2   8  -7 2668.30 410.399   9
   2   8  -6 1080.00 266.077   9
   2   8  -5 955.875 232.884   9
   2   8  -4 2280.75 330.188   9
   2   8  -4 2719.82 348.430   8
   2   8  -3 6120.57 511.042   8
   2   8  -3 6613.78 526.064   9
   2   8  -2 6818.02 505.264   9
   2   8  -2 6481.55 523.807   8
   2   8  -1 2433.30 280.100   9
   2   8  -1 2872.60 338.573   8
   2   8   0 1492.41 202.563   9
   2   8   0 1266.71 232.018   8
   2   8   1 1855.96 206.127   9
   2   8   1 1462.84 240.487   8
   2   8   2 7237.38 509.941   8
   2   8   3 25549.2 1015.24   8
   2   8   4 13893.4 712.634   8
   2   8   5 2170.69 281.400   8
   2   8   6 4158.63 378.248   8
   2   8   7 82.9285 84.5558   8
   2   8   8 76.8196 67.7056   8
   2   8   9 4048.11 389.343   8
   2   9  -6 1660.98 326.557   9
   2   9  -5 1264.47 275.612   9
   2   9  -4 2588.92 361.492   9
   2   9  -4 2409.38 354.394   8
   2   9  -3 1919.84 293.441   9
   2   9  -3 1371.84 270.602   8
   2   9  -2 1503.40 245.952   9
   2   9  -2 1335.90 263.813   8
   2   9  -1 3005.04 321.198   9
   2   9  -1 2983.43 368.646   8
   2   9   0 2120.17 315.193   8
   2   9   1 1924.33 295.576   8
   2   9   2 5678.58 487.878   8
   2   9   3 7526.08 555.478   8
   2   9   4 10324.8 652.196   8
   2   9   5 8845.91 602.115   8
   2   9   6 1433.57 249.357   8
   2   9   7 323.736 126.450   8
   2   9   8 2713.74 336.225   8
   2   9   9 7338.33 548.301   8
   2  10  -5 1333.87 277.106   9
   2  10  -4 2482.58 373.865   9
   2  10  -4 2410.98 373.646   8
   2  10  -3 913.588 215.403   9
   2  10  -3 713.913 215.100   8
   2  10  -2 430.054 182.077   8
   2  10  -1 1883.51 311.769   8
   2  10   0 4307.64 474.897   8
   2  10   1 2952.95 388.980   8
   2  10   2 3605.55 423.669   8
   2  10   3 3532.58 415.584   8
   2  10   4 1946.51 299.727   8
   2  10   5 1897.75 304.083   8
   2  10   6 984.763 223.148   8
   2  10   7 1126.08 228.045   8
   2  10   8 5293.14 485.461   8
   2  10   9 5569.71 501.979   8
   2  11  -4 455.142 194.374   8
   2  11  -3 215.971 138.863   8
   2  11  -2 2048.43 360.665   8
   2  11  -1 2046.26 359.556   8
   2  11   0-33.6241 105.101   8
   2  11   1 981.680 227.183   8
   2  11   2 7176.34 626.290   8
   2  11   3 2729.53 373.174   8
   2  11   4 348.902 158.794   8
   2  11   5 787.289 219.099   8
   2  11   6 3016.20 384.235   8
   2  11   7 2332.91 345.730   8
   2  11   8 2758.14 375.178   8
   2  11   9 3023.41 392.084   8
   2  12  -1 1797.35 343.280   8
   2  12   0 538.600 189.182   8
   2  12   1-4.03401 166.188   8
   2  12   2 709.932 226.322   8
   2  12   3 868.038 232.508   8
   2  12   4 959.121 242.866   8
   2  12   5 2287.69 364.605   8
   2  12   6 518.408 171.333   8
   2  12   7 758.248 205.521   8
   2  12   8 3387.79 430.192   8
   2  12   9 3336.03 424.284   8
   2  13   2 1480.12 344.313   8
   2  13   3 928.585 273.055   8
   2  13   4 982.497 255.149   8
   2  13   5 1922.07 355.349   8
   2  13   6 1518.92 313.274   8
   2  13   7-34.1253 100.127   8
   2  13   8 48.3752 105.104   8
   3 -12  -7 2464.95 397.356   3
   3 -12  -6 2548.07 397.126   3
   3 -12  -5 224.639 115.833   3
   3 -12  -4-68.8290 146.804   3
   3 -12  -3 4059.49 487.511   3
   3 -12  -2 4535.00 514.025   3
   3 -12  -1 45.4378 114.527   3
   3 -12   0 1108.93 271.293   3
   3 -12   1 3348.56 437.122   3
   3 -11  -9 3267.85 463.617   3
   3 -11  -8 2380.13 394.362   3
   3 -11  -8 2099.40 348.790   7
   3 -11  -7 2065.66 358.115   3
   3 -11  -7 1819.18 320.064   7
   3 -11  -6 1687.38 308.719   3
   3 -11  -5 965.743 244.160   3
   3 -11  -4 763.474 212.330   3
   3 -11  -3 951.731 238.145   3
   3 -11  -2 1576.70 296.789   3
   3 -11  -1 1702.41 302.814   3
   3 -11   0 2813.79 395.731   3
   3 -11   1 1205.82 239.655   3
   3 -11   2-36.2423 119.319   3
   3 -11   3 973.158 244.299   3
   3 -10 -10 1301.57 303.256   3
   3 -10 -10 1231.35 285.701   7
   3 -10  -9 6248.75 627.764   3
   3 -10  -9 5489.99 554.177   7
   3 -10  -8 4910.02 531.120   3
   3 -10  -8 3538.89 438.979   7
   3 -10  -7 177.848 125.150   3
   3 -10  -7 229.624 138.313   7
   3 -10  -6 209.469 146.558   3
   3 -10  -5 313.688 157.502   3
   3 -10  -4 1341.26 260.216   3
   3 -10  -3 5003.07 497.323   3
   3 -10  -2 3302.43 400.221   3
   3 -10  -1 1037.70 229.023   3
   3 -10   0 3276.08 398.332   3
   3 -10   1 2002.99 329.153   3
   3 -10   2 267.936 113.527   3
   3 -10   3 291.709 133.211   3
   3 -10   4 1005.99 246.819   3
   3 -10   5 1590.35 297.424   3
   3  -9 -11 905.810 262.562   3
   3  -9 -11 1321.33 281.253   7
   3  -9 -10 7215.62 672.866   3
   3  -9 -10 7362.66 647.872   7
   3  -9  -9 6038.89 609.495   3
   3  -9  -9 7179.64 617.922   7
   3  -9  -8 3533.00 440.978   3
   3  -9  -8 3347.51 411.431   7
   3  -9  -7 1842.84 313.933   3
   3  -9  -7 2686.32 355.703   7
   3  -9  -6 530.450 172.867   3
   3  -9  -5 815.426 192.386   3
   3  -9  -4 2010.82 315.140   3
   3  -9  -3 5360.75 483.685   3
   3  -9  -2 9470.28 647.152   3
   3  -9  -1 3252.57 383.908   3
   3  -9   0 715.917 180.704   3
   3  -9   1 165.784 87.1248   3
   3  -9   2 1218.05 241.945   3
   3  -9   3 4576.73 469.659   3
   3  -9   4 2599.15 368.807   3
   3  -9   5 23.4561 96.3360   3
   3  -9   6 892.004 226.954   3
   3  -9   7 1012.64 230.776   3
   3  -8 -12 1361.78 314.430   3
   3  -8 -12 1175.43 282.651   7
   3  -8 -11 1043.63 274.407   3
   3  -8 -11 448.643 184.783   7
   3  -8 -10 6491.74 594.255   7
   3  -8 -10 7062.33 643.413   3
   3  -8  -9 1891.76 328.612   3
   3  -8  -9 2624.40 365.718   7
   3  -8  -8 101.465 115.676   3
   3  -8  -8 145.420 76.5840   7
   3  -8  -7 11194.2 745.331   3
   3  -8  -7 11095.7 718.665   7
   3  -8  -6 16227.2 871.366   3
   3  -8  -5 1349.46 249.216   3
   3  -8  -4 7191.26 541.475   3
   3  -8  -3 17161.4 845.969   3
   3  -8  -2 8359.74 568.520   3
   3  -8  -1 3577.72 378.032   3
   3  -8   0 714.567 194.793   3
   3  -8   1 126.604 92.8949   3
   3  -8   2 1962.69 286.881   3
   3  -8   3 4288.82 432.155   3
   3  -8   4 5679.55 509.708   3
   3  -8   5 2993.96 388.766   3
   3  -8   6 486.790 182.838   3
   3  -8   7 115.604 124.045   3
   3  -8   8 378.964 168.228   3
   3  -7 -12 4800.75 569.094   4
   3  -7 -12 4444.58 529.523   3
   3  -7 -12 4448.45 523.397   7
   3  -7 -11 1571.83 318.686   4
   3  -7 -11 1212.42 273.693   3
   3  -7 -11 1946.65 345.452   7
   3  -7 -10 27.4200 118.409   4
   3  -7 -10 293.318 180.836   3
   3  -7 -10 281.754 147.297   7
   3  -7  -9 53.0565 122.115   3
   3  -7  -9 163.005 126.776   7
   3  -7  -8 70.3426 96.5497   3
   3  -7  -8 190.241 125.210   7
   3  -7  -7 3171.85 375.452   3
   3  -7  -7 3122.52 372.027   7
   3  -7  -6 13270.0 748.578   3
   3  -7  -5 5834.54 471.764   3
   3  -7  -4 9424.27 591.711   3
   3  -7  -3 19670.7 863.815   3
   3  -7  -2 1881.00 254.471   3
   3  -7  -1 5180.30 420.277   3
   3  -7   0 24871.6 996.059   3
   3  -7   1 4068.33 380.806   3
   3  -7   2 1140.12 218.238   3
   3  -7   3 11383.7 671.195   3
   3  -7   4 7839.76 575.696   3
   3  -7   5 4008.20 421.175   3
   3  -7   6 1209.62 249.007   3
   3  -7   7-35.0853 115.846   3
   3  -7   8 40.5864 116.585   3
   3  -7   9 1249.12 290.884   3
   3  -6 -12 4438.89 547.910   4
   3  -6 -12 3147.46 440.226   3
   3  -6 -12 3444.44 455.034   7
   3  -6 -11 12447.1 849.769   3
   3  -6 -11 12595.7 854.339   7
   3  -6 -11 14432.4 950.036   4
   3  -6 -10 980.347 256.679   4
   3  -6 -10 1579.07 296.046   3
   3  -6 -10 1064.05 237.474   7
   3  -6  -9 2483.42 360.865   4
   3  -6  -9 3048.85 383.039   3
   3  -6  -9 2472.58 350.773   7
   3  -6  -8 722.370 196.958   4
   3  -6  -8 850.686 207.626   3
   3  -6  -8 1103.61 228.820   7
   3  -6  -7 9699.18 628.611   3
   3  -6  -7 10211.8 644.332   7
   3  -6  -6 7631.27 534.093   3
   3  -6  -6 7265.90 521.174   7
   3  -6  -5 8356.15 538.563   3
   3  -6  -4 1006.16 184.850   3
   3  -6  -3 93.5842 75.7286   3
   3  -6  -2 677.294 152.651   3
   3  -6  -1 3054.50 307.509   3
   3  -6   0 24498.3 930.507   3
   3  -6   1 22960.4 911.946   3
   3  -6   2 7687.96 503.878   3
   3  -6   3 12298.4 663.256   3
   3  -6   4 9445.08 596.714   3
   3  -6   5 1357.65 242.369   3
   3  -6   6 4974.73 468.541   3
   3  -6   7 2581.55 351.524   3
   3  -6   8-42.0131 97.4410   3
   3  -6   9 1044.76 271.693   3
   3  -5 -12 721.418 272.814   4
   3  -5 -12 458.865 183.451   3
   3  -5 -12 488.162 199.968   7
   3  -5 -11 2105.31 368.371   4
   3  -5 -11 1674.30 309.264   3
   3  -5 -11 1037.00 249.830   7
   3  -5 -10 11910.5 780.146   3
   3  -5 -10 13944.1 851.086   7
   3  -5 -10 12742.9 852.372   4
   3  -5  -9 5631.49 502.158   3
   3  -5  -9 5436.07 500.265   7
   3  -5  -9 5996.86 549.749   4
   3  -5  -8 2478.34 338.173   4
   3  -5  -8 3078.85 351.935   3
   3  -5  -8 2068.89 297.034   7
   3  -5  -7 9633.28 603.052   3
   3  -5  -7 10317.5 628.686   7
   3  -5  -7 9396.97 618.229   4
   3  -5  -6 8417.98 538.980   3
   3  -5  -6 8724.89 549.246   7
   3  -5  -6 7921.69 536.414   4
   3  -5  -5 28657.9 1035.32   3
   3  -5  -4 24474.1 911.059   3
   3  -5  -4 24495.9 806.246   5
   3  -5  -3 9741.78 524.404   3
   3  -5  -3 9910.42 442.469   5
   3  -5  -2 5828.70 390.716   3
   3  -5  -2 5716.70 308.314   5
   3  -5  -1 26217.5 906.330   3
   3  -5  -1 27557.8 775.734   5
   3  -5   0 23500.3 856.697   3
   3  -5   0 24643.0 721.358   5
   3  -5   1 8290.43 482.419   3
   3  -5   2 9434.76 523.773   3
   3  -5   3 1926.54 243.398   3
   3  -5   4 1223.00 203.731   3
   3  -5   5 3179.71 339.601   3
   3  -5   6 5479.16 462.401   3
   3  -5   7 12796.9 766.201   3
   3  -5   8 4215.70 469.757   3
   3  -5   9 439.926 187.553   3
   3  -4 -12 215.876 130.835   7
   3  -4 -12 213.889 171.613   4
   3  -4 -11 981.545 246.872   7
   3  -4 -11 967.636 255.091   3
   3  -4 -11 1064.98 278.407   4
   3  -4 -10 3602.62 412.086   3
   3  -4 -10 3833.00 435.877   7
   3  -4 -10 3300.50 435.096   4
   3  -4  -9 5492.98 492.915   3
   3  -4  -9 6554.07 543.074   7
   3  -4  -9 5310.24 515.227   4
   3  -4  -8 4228.69 394.312   3
   3  -4  -8 4150.92 413.087   7
   3  -4  -8 3759.86 411.000   4
   3  -4  -7 10383.7 605.803   3
   3  -4  -7 11019.6 642.060   7
   3  -4  -7 10447.2 650.067   4
   3  -4  -6 10542.3 575.867   3
   3  -4  -6 10794.7 604.663   7
   3  -4  -6 10772.4 622.273   4
   3  -4  -5 6668.01 427.127   3
   3  -4  -5 7494.41 471.909   7
   3  -4  -5 6107.04 441.532   4
   3  -4  -4 34486.6 1069.94   3
   3  -4  -4 33966.4 1010.24   5
   3  -4  -3 29850.2 946.505   3
   3  -4  -3 29229.3 868.765   5
   3  -4  -2 795.749 133.601   1
   3  -4  -2 884.641 144.682   3
   3  -4  -2 705.908 108.604   5
   3  -4  -1 14494.7 518.941   5
   3  -4  -1 14193.8 592.152   3
   3  -4  -1 16088.9 616.131   1
   3  -4   0 35574.6 1033.78   1
   3  -4   0 36183.6 1050.43   3
   3  -4   0 34787.0 921.225   5
   3  -4   1 20434.9 752.713   3
   3  -4   2 31086.4 991.386   3
   3  -4   3 129.415 90.2348   3
   3  -4   4 23145.0 882.656   3
   3  -4   5 3303.84 327.752   3
   3  -4   6 22513.4 943.540   3
   3  -4   7 3109.50 353.681   3
   3  -4   8 3227.10 383.439   3
   3  -4   9 1964.73 346.206   3
   3  -3 -12-107.120 141.380   7
   3  -3 -12 160.835 166.358   4
   3  -3 -11 3262.32 438.831   7
   3  -3 -11 2906.20 384.520   3
   3  -3 -11 3561.68 472.629   4
   3  -3 -10 3842.24 420.125   3
   3  -3 -10 3494.73 417.116   7
   3  -3  -9 3188.84 356.146   3
   3  -3  -9 2958.47 365.854   7
   3  -3  -9 2950.90 381.963   4
   3  -3  -8 3514.84 351.450   3
   3  -3  -8 3096.51 363.463   7
   3  -3  -8 3427.24 383.312   4
   3  -3  -7 1097.91 192.745   7
   3  -3  -7 544.102 149.243   3
   3  -3  -7 868.815 185.373   4
   3  -3  -6 2928.29 286.349   3
   3  -3  -6 2946.10 305.617   7
   3  -3  -6 2705.02 304.415   4
   3  -3  -5 9415.93 490.701   3
   3  -3  -5 9664.58 391.055   9
   3  -3  -5 9459.83 524.397   7
   3  -3  -5 9563.94 539.206   4
   3  -3  -4 7904.06 426.697   3
   3  -3  -4 8037.47 333.168   9
   3  -3  -4 7730.05 427.535   5
   3  -3  -4 8070.33 457.356   7
   3  -3  -4 8611.45 483.811   4
   3  -3  -3 22227.7 751.104   3
   3  -3  -3 22414.1 736.118   5
   3  -3  -3 23119.2 621.765   9
   3  -3  -2 46367.7 1188.70   3
   3  -3  -2 46963.9 1153.64   5
   3  -3  -2 46738.7 1043.87   9
   3  -3  -1 34380.6 952.753   1
   3  -3  -1 34630.1 949.585   3
   3  -3  -1 32966.8 888.333   5
   3  -3   0 31635.1 902.740   3
   3  -3   0 30643.0 834.128   5
   3  -3   0 31906.2 906.121   1
   3  -3   1 20767.1 701.991   3
   3  -3   1 20713.3 697.671   1
   3  -3   2 32927.3 813.599   2
   3  -3   2 32089.8 961.862   3
   3  -3   3 34515.6 1028.37   3
   3  -3   3 34172.0 869.448   2
   3  -3   4 579.449 101.803   2
   3  -3   4 289.003 98.4299   3
   3  -3   5 125.379 87.0957   3
   3  -3   6 18157.1 801.576   3
   3  -3   7 7534.20 529.489   3
   3  -3   8 3063.30 368.751   3
   3  -2 -12 925.739 261.908   4
   3  -2 -11 2330.16 375.589   7
   3  -2 -11 1653.58 330.025   4
   3  -2 -10 1087.40 255.744   7
   3  -2 -10 804.047 233.945   4
   3  -2  -9 2079.01 305.727   7
   3  -2  -9 1861.99 266.986   3
   3  -2  -9 1766.63 294.978   4
   3  -2  -8 16641.6 778.633   3
   3  -2  -8 16999.1 734.545   9
   3  -2  -8 17355.3 856.941   7
   3  -2  -8 17749.7 897.323   4
   3  -2  -7 7968.14 488.092   3
   3  -2  -7 8625.94 467.893   9
   3  -2  -7 7906.78 535.122   7
   3  -2  -7 7623.93 543.294   4
   3  -2  -6 657.613 116.733   9
   3  -2  -6 684.085 148.211   7
   3  -2  -6 279.492 94.2959   3
   3  -2  -6 475.063 142.862   4
   3  -2  -5 2730.10 241.566   3
   3  -2  -5 2823.24 224.660   9
   3  -2  -5 3229.99 294.639   7
   3  -2  -5 2880.90 287.436   4
   3  -2  -4 29986.0 887.160   3
   3  -2  -4 29747.2 954.575   5
   3  -2  -4 30532.9 825.168   9
   3  -2  -4 29801.3 956.898   7
   3  -2  -4 32256.7 998.222   4
   3  -2  -3 19535.5 649.966   3
   3  -2  -3 19736.7 590.649   9
   3  -2  -3 19873.1 688.785   5
   3  -2  -3 19800.3 700.640   7
   3  -2  -2 15346.7 490.456   9
   3  -2  -2 16095.5 547.732   3
   3  -2  -2 15603.8 560.996   5
   3  -2  -1 7499.77 316.244   9
   3  -2  -1 7349.06 342.785   3
   3  -2  -1 7742.77 356.052   5
   3  -2   0 3140.54 222.745   1
   3  -2   0 3504.52 228.376   3
   3  -2   0 3068.49 215.233   5
   3  -2   1 40876.2 1021.34   3
   3  -2   1 38518.3 1006.81   1
   3  -2   2 21296.6 674.573   1
   3  -2   2 21741.5 696.362   3
   3  -2   2 22412.9 635.155   2
   3  -2   3 7743.14 398.812   3
   3  -2   3 7842.24 350.303   2
   3  -2   4 41487.5 1165.09   3
   3  -2   5 41083.4 1215.63   3
   3  -2   6 10873.7 580.129   3
   3  -2   7 7702.35 528.727   3
   3  -2   8 5937.11 495.160   3
   3  -1 -12 1732.00 345.892   4
   3  -1 -11 1402.15 298.722   4
   3  -1 -10 323.108 165.143   7
   3  -1 -10 207.078 156.524   4
   3  -1  -9 2369.40 299.771   9
   3  -1  -9 2598.94 355.727   7
   3  -1  -9 2516.19 355.313   4
   3  -1  -8 12660.4 644.913   3
   3  -1  -8 12641.8 657.448   9
   3  -1  -8 12349.7 723.648   7
   3  -1  -8 12423.8 737.552   4
   3  -1  -7 8213.60 474.364   3
   3  -1  -7 7320.25 463.055   9
   3  -1  -7 6951.76 503.850   7
   3  -1  -7 6509.57 494.517   4
   3  -1  -6 1977.32 222.207   9
   3  -1  -6 1882.36 238.936   7
   3  -1  -6 1705.26 198.844   3
   3  -1  -6 2229.66 271.437   4
   3  -1  -5 10211.9 463.521   3
   3  -1  -5 10546.2 486.625   9
   3  -1  -5 10506.4 541.471   7
   3  -1  -5 10638.0 556.690   4
   3  -1  -4 18138.6 608.088   3
   3  -1  -4 17732.1 615.392   9
   3  -1  -4 17692.8 678.748   7
   3  -1  -4 17472.8 690.293   4
   3  -1  -3 9781.65 461.877   5
   3  -1  -3 10238.5 416.038   9
   3  -1  -3 9762.29 394.262   3
   3  -1  -3 10201.1 463.278   7
   3  -1  -3 9483.73 457.641   4
   3  -1  -2 31087.7 800.107   9
   3  -1  -2 29943.1 773.896   3
   3  -1  -2 30320.5 861.854   5
   3  -1  -2 29771.0 849.128   7
   3  -1  -1 50610.8 1125.88   3
   3  -1  -1 51491.9 1205.89   5
   3  -1  -1 50905.0 1150.70   9
   3  -1   0 8902.42 356.992   9
   3  -1   0 8777.12 344.106   3
   3  -1   0 8747.63 370.388   5
   3  -1   1 7551.65 321.905   3
   3  -1   1 7569.08 329.413   1
   3  -1   2 52081.9 1178.50   2
   3  -1   2 50969.9 1177.59   3
   3  -1   2 48425.8 1137.66   1
   3  -1   3 24720.8 686.222   1
   3  -1   3 24616.8 743.341   3
   3  -1   3 23892.5 711.412   2
   3  -1   4 12626.1 529.481   3
   3  -1   5 19868.0 737.373   3
   3  -1   6 4326.52 347.026   3
   3  -1   7 7203.70 500.260   3
   3   0 -12 674.566 232.617   4
   3   0 -11 1484.74 274.227   9
   3   0 -11 1725.45 328.094   4
   3   0 -10 2600.93 340.772   9
   3   0 -10 3151.38 419.836   4
   3   0  -9 5983.66 500.024   9
   3   0  -9 5435.71 505.729   4
   3   0  -8 8788.59 571.423   9
   3   0  -8 8413.18 603.476   7
   3   0  -8 8100.47 586.244   4
   3   0  -7 3585.65 340.395   9
   3   0  -7 3537.29 357.711   7
   3   0  -7 3210.45 353.131   4
   3   0  -6 3123.19 313.716   7
   3   0  -6 3235.42 319.982   4
   3   0  -6 3035.86 292.790   9
   3   0  -5 12955.4 511.529   3
   3   0  -5 13702.5 598.124   9
   3   0  -5 13283.4 619.169   7
   3   0  -5 12839.8 608.784   4
   3   0  -4 6029.81 301.417   3
   3   0  -4 6671.46 373.744   9
   3   0  -4 6217.08 379.912   7
   3   0  -4 6305.75 380.224   4
   3   0  -3 4995.69 244.384   3
   3   0  -3 4711.80 319.218   5
   3   0  -3 4851.39 293.502   9
   3   0  -3 4894.44 308.413   7
   3   0  -3 5145.65 315.439   4
   3   0  -2 45092.9 987.008   3
   3   0  -2 46324.4 1113.59   9
   3   0  -2 44944.6 1156.51   5
   3   0  -2 45736.6 1114.83   7
   3   0  -1 42692.1 915.845   3
   3   0  -1 43515.2 1067.64   5
   3   0  -1 42934.4 1036.08   9
   3   0  -1 43431.4 1021.52   7
   3   0   0 9182.37 370.162   9
   3   0   0 8937.64 303.924   3
   3   0   0 9090.38 377.698   5
   3   0   1 3467.72 219.263   9
   3   0   1 3252.88 181.888   3
   3   0   1 3638.44 229.189   2
   3   0   2 29430.0 791.388   2
   3   0   2 27749.7 727.595   3
   3   0   2 28497.6 713.810   1
   3   0   3 24280.3 635.721   1
   3   0   3 25911.4 721.838   3
   3   0   3 24931.5 740.171   2
   3   0   4 19330.7 648.891   3
   3   0   4 18914.0 535.865   1
   3   0   5 19612.1 711.695   3
   3   0   6 1532.05 206.745   3
   3   1 -12 157.977 133.395   9
   3   1 -11 239.201 148.724   9
   3   1 -11 262.050 152.725   4
   3   1 -10 4906.57 496.228   9
   3   1 -10 4894.98 505.716   4
   3   1  -9 13840.4 813.224   9
   3   1  -9 12558.5 784.236   4
   3   1  -8 5726.26 488.260   9
   3   1  -8 5831.97 493.912   4
   3   1  -7 3136.70 340.529   9
   3   1  -7 3147.03 346.281   7
   3   1  -7 3105.11 338.632   4
   3   1  -6 5770.69 434.741   9
   3   1  -6 6647.62 470.250   7
   3   1  -6 5624.00 419.814   4
   3   1  -5 9451.91 521.416   9
   3   1  -5 9185.35 516.871   7
   3   1  -5 8715.30 488.177   4
   3   1  -4 7236.79 423.300   9
   3   1  -4 7992.70 436.954   7
   3   1  -4 7828.62 422.142   4
   3   1  -3 12119.2 382.398   3
   3   1  -3 13306.2 545.339   9
   3   1  -3 13719.5 573.073   5
   3   1  -3 12192.7 345.952   8
   3   1  -3 13784.8 543.922   7
   3   1  -3 12817.8 507.440   4
   3   1  -2 50170.1 1219.19   9
   3   1  -2 51264.7 1248.85   5
   3   1  -2 46589.4 972.043   3
   3   1  -2 50360.6 1019.14   8
   3   1  -2 50943.2 1188.98   7
   3   1  -2 49720.4 1169.37   4
   3   1  -1 18610.2 602.383   9
   3   1  -1 18222.4 500.928   8
   3   1  -1 19214.3 613.486   5
   3   1  -1 18132.0 550.558   7
   3   1   0 506.781 91.3537   9
   3   1   0 493.872 74.4066   8
   3   1   0 353.867 75.9673   5
   3   1   0 391.248 63.4024   7
   3   1   1 44990.4 1073.99   9
   3   1   1 45910.2 1043.68   8
   3   1   1 45823.1 1067.49   5
   3   1   1 46481.0 1101.80   2
   3   1   1 44056.3 927.411   3
   3   1   2 53161.9 1230.40   2
   3   1   2 51143.5 1198.71   9
   3   1   2 52552.9 1195.17   8
   3   1   2 51273.9 1106.24   3
   3   1   3 14946.6 547.728   2
   3   1   3 15318.2 502.288   3
   3   1   4 21222.4 674.695   3
   3   1   5 26505.4 601.255   1
   3   1   5 24100.0 816.243   3
   3   1   6 6054.67 232.073   1
   3   2 -11 1803.15 327.953   9
   3   2 -10 35.1202 92.7782   9
   3   2  -9 2318.65 357.636   9
   3   2  -9 1531.81 274.836   4
   3   2  -8 3291.59 385.240   9
   3   2  -8 3422.79 373.773   4
   3   2  -7 1354.87 240.451   9
   3   2  -7 1494.49 237.101   4
   3   2  -6 3822.73 367.820   9
   3   2  -6 3864.43 346.932   4
   3   2  -5 2216.90 265.889   9
   3   2  -5 2526.53 261.990   4
   3   2  -4 5249.36 384.692   9
   3   2  -4 5237.95 366.222   7
   3   2  -4 5269.04 333.438   4
   3   2  -3 57118.5 1494.08   9
   3   2  -3 58658.2 1252.28   8
   3   2  -3 60745.5 1464.64   7
   3   2  -3 59713.9 1382.32   4
   3   2  -2 57092.3 1429.70   9
   3   2  -2 58773.0 1433.87   5
   3   2  -2 58730.8 1254.53   8
   3   2  -2 59462.3 1366.47   7
   3   2  -2 59143.1 1303.75   4
   3   2  -1 5362.75 311.192   9
   3   2  -1 5599.65 308.354   5
   3   2  -1 5314.84 257.179   8
   3   2  -1 5246.64 263.554   7
   3   2   0 5180.87 287.360   9
   3   2   0 5444.29 263.714   8
   3   2   0 5308.40 279.310   5
   3   2   0 5128.46 224.177   7
   3   2   1 29988.6 819.150   9
   3   2   1 31867.7 803.948   8
   3   2   1 30962.9 794.634   5
   3   2   1 31094.2 842.779   2
   3   2   1 28932.1 634.372   7
   3   2   2 13621.4 508.787   2
   3   2   2 13539.8 490.509   9
   3   2   2 14123.1 497.069   8
   3   2   3 9249.96 405.695   8
   3   2   3 9228.29 416.650   2
   3   2   4 35470.4 973.219   8
   3   3 -11 2755.64 426.660   9
   3   3 -10 644.599 212.435   9
   3   3  -9 438.860 197.224   9
   3   3  -8 1333.48 265.707   9
   3   3  -7 275.667 151.937   9
   3   3  -6 939.617 211.752   9
   3   3  -6 658.770 151.070   4
   3   3  -5 9984.37 598.215   9
   3   3  -5 8748.39 480.713   4
   3   3  -4 1344.65 214.639   9
   3   3  -4 1337.94 164.765   4
   3   3  -3 5764.89 394.561   9
   3   3  -3 5678.17 306.935   8
   3   3  -3 5741.02 307.130   4
   3   3  -2 39980.7 1137.79   9
   3   3  -2 38871.6 996.585   8
   3   3  -2 38737.0 925.913   4
   3   3  -1 13561.2 550.424   9
   3   3  -1 13442.1 517.249   5
   3   3  -1 13467.2 494.014   8
   3   3   0 11273.8 473.462   9
   3   3   0 11906.0 444.651   5
   3   3   0 11756.0 453.236   8
   3   3   1 19506.7 628.052   8
   3   3   1 19464.9 591.470   5
   3   3   1 19458.7 632.086   9
   3   3   2 3430.90 233.060   9
   3   3   2 3308.49 236.471   8
   3   3   2 3558.51 245.597   2
   3   3   2 3065.05 203.471   5
   3   3   3 34464.1 944.175   8
   3   3   3 33548.1 900.208   9
   3   3   3 34030.0 946.995   2
   3   3   4 94140.5 2040.36   8
   3   3   5 11169.9 505.889   8
   3   3   6 205.041 84.7108   8
   3   4 -10 786.329 241.209   9
   3   4  -9 434.016 183.605   9
   3   4  -8 1879.12 331.057   9
   3   4  -7 6368.17 553.999   9
   3   4  -6 3299.71 381.642   9
   3   4  -5 4377.93 413.182   9
   3   4  -4 6658.04 482.583   9
   3   4  -3 987.573 181.778   9
   3   4  -3 1047.62 148.173   8
   3   4  -2 1094.95 178.010   9
   3   4  -2 1156.48 157.050   8
   3   4  -1 4087.23 301.025   9
   3   4  -1 3186.51 241.764   5
   3   4  -1 3755.96 270.567   8
   3   4   0 2792.86 238.378   9
   3   4   0 2862.77 209.642   5
   3   4   0 3161.53 246.455   8
   3   4   1 13604.2 536.939   9
   3   4   1 14370.2 485.274   5
   3   4   1 14689.8 564.122   8
   3   4   2 6970.88 361.840   2
   3   4   2 6750.99 349.883   9
   3   4   2 7438.11 387.897   8
   3   4   2 6748.08 303.709   5
   3   4   3 4993.40 320.111   8
   3   4   3 4612.03 282.376   9
   3   4   3 4880.57 306.876   2
   3   4   4 50364.0 1315.59   8
   3   4   4 51964.1 1319.77   2
   3   4   5 33344.8 1007.05   8
   3   4   6 3294.35 284.642   8
   3   4   7 8044.61 467.356   8
   3   5  -9 735.389 222.882   9
   3   5  -8 242.370 142.014   9
   3   5  -7 5168.42 525.074   9
   3   5  -6 39160.6 1480.93   9
   3   5  -5 11748.6 718.473   9
   3   5  -4 542.899 167.020   9
   3   5  -3 2849.42 311.156   9
   3   5  -3 2595.96 265.288   8
   3   5  -2 2342.10 259.435   9
   3   5  -2 2437.84 241.837   8
   3   5  -1 9546.61 506.876   9
   3   5  -1 9492.53 489.422   8
   3   5   0 13871.5 507.415   5
   3   5   0 14372.7 607.246   8
   3   5   0 13553.0 580.196   9
   3   5   1 2522.14 227.421   9
   3   5   1 2440.86 183.424   5
   3   5   1 2219.76 227.147   8
   3   5   2 7925.67 437.400   8
   3   5   2 8120.22 404.787   2
   3   5   2 8330.28 336.375   5
   3   5   2 8392.82 407.175   9
   3   5   3 6170.69 358.651   2
   3   5   3 6486.04 345.291   9
   3   5   3 6843.14 404.749   8
   3   5   3 6730.27 295.515   5
   3   5   4 441.034 98.9123   9
   3   5   4 760.789 134.336   8
   3   5   4 601.164 115.379   2
   3   5   5 3210.91 287.742   8
   3   5   6 8567.81 487.594   8
   3   5   7 8226.18 487.842   8
   3   5   8 3386.15 316.052   8
   3   6  -8 376.857 167.899   9
   3   6  -7 274.046 166.701   9
   3   6  -6 7426.88 626.592   9
   3   6  -5 8273.46 620.896   9
   3   6  -4 1687.39 265.509   9
   3   6  -3 4211.51 396.241   9
   3   6  -3 3203.00 319.652   8
   3   6  -2 1261.44 204.941   9
   3   6  -2 1144.94 189.529   8
   3   6  -1 2363.41 263.028   9
   3   6  -1 2540.72 268.177   8
   3   6   0 70208.8 1726.18   9
   3   6   0 67657.6 1774.04   8
   3   6   1 60118.4 1508.90   9
   3   6   1 59572.2 1608.95   8
   3   6   2 834.230 130.141   9
   3   6   2 663.695 151.123   8
   3   6   3 1120.79 145.589   9
   3   6   3 1666.26 214.044   8
   3   6   3 1403.13 169.294   2
   3   6   4 3121.25 240.586   9
   3   6   4 3823.03 330.052   8
   3   6   4 3580.24 279.059   2
   3   6   5 1828.51 231.069   8
   3   6   6 8252.23 500.452   8
   3   6   7 3092.45 308.825   8
   3   6   8 415.594 127.171   8
   3   6   9 5057.54 420.291   8
   3   7  -8 659.505 232.623   9
   3   7  -7 2775.75 403.753   9
   3   7  -6-72.5337 154.177   9
   3   7  -5 291.869 148.310   9
   3   7  -4 721.932 202.244   9
   3   7  -3 1027.58 214.703   9
   3   7  -3 780.170 186.077   8
   3   7  -2 2501.44 309.617   9
   3   7  -2 2381.33 287.548   8
   3   7  -1 1168.78 195.132   9
   3   7  -1 1238.54 212.731   8
   3   7   0 8515.58 501.721   9
   3   7   0 8178.03 531.260   8
   3   7   1 44734.8 1266.89   9
   3   7   1 44289.9 1385.93   8
   3   7   2 12906.8 567.621   9
   3   7   2 14143.4 695.792   8
   3   7   3 1389.50 174.519   9
   3   7   3 1336.28 210.502   8
   3   7   3 1125.64 154.635   2
   3   7   4 3652.78 291.819   2
   3   7   4 4401.49 369.308   8
   3   7   4 3972.11 277.318   9
   3   7   5 2329.27 282.974   8
   3   7   6 18373.1 816.595   8
   3   7   7 39735.8 1303.69   8
   3   7   8 2503.89 296.935   8
   3   7   9 116.225 94.3554   8
   3   7  10 2075.22 289.425   8
   3   8  -7 1311.71 291.989   9
   3   8  -6 79.7883 92.8454   9
   3   8  -5 137.555 129.237   9
   3   8  -4 4479.27 475.606   9
   3   8  -3 2045.24 305.024   9
   3   8  -3 1836.25 282.748   8
   3   8  -2 61.0448 69.7857   9
   3   8  -2 458.236 166.715   8
   3   8  -1 5007.09 422.608   9
   3   8  -1 4846.97 439.092   8
   3   8   0 4111.75 354.669   9
   3   8   0 3622.23 379.191   8
   3   8   1 100.218 110.650   8
   3   8   1-17.3039 63.1648   9
   3   8   2 1074.50 168.161   9
   3   8   2 740.589 184.622   8
   3   8   3 2835.86 330.803   8
   3   8   4 4190.91 398.787   8
   3   8   5 3309.88 360.233   8
   3   8   6 4456.80 406.749   8
   3   8   7 25625.8 1044.66   8
   3   8   8 24613.9 1033.54   8
   3   8   9 980.398 211.145   8
   3   8  10 46.6699 91.4714   8
   3   9  -6 514.762 198.844   9
   3   9  -5-61.7784 100.944   9
   3   9  -4 1891.15 314.117   9
   3   9  -3 8354.73 638.932   8
   3   9  -3 9887.09 692.976   9
   3   9  -2 4397.04 439.318   9
   3   9  -2 4161.88 436.886   8
   3   9  -1 2147.60 296.639   9
   3   9  -1 2246.16 322.159   8
   3   9   0 2202.01 277.289   9
   3   9   0 2088.03 318.309   8
   3   9   1 445.115 170.671   8
   3   9   2 911.941 193.388   8
   3   9   3 6571.40 534.511   8
   3   9   4 184.423 118.582   8
   3   9   5 782.968 200.997   8
   3   9   6 9615.14 637.611   8
   3   9   7 1350.04 245.624   8
   3   9   8 324.842 135.609   8
   3   9   9 2958.38 368.683   8
   3   9  10 2200.07 321.246   8
   3  10  -4 907.662 233.268   9
   3  10  -3 2819.71 383.239   9
   3  10  -3 2368.22 367.956   8
   3  10  -2 3608.71 412.187   9
   3  10  -2 4444.24 488.771   8
   3  10  -1 1996.92 322.076   8
   3  10   0 552.933 199.272   8
   3  10   1 830.290 218.809   8
   3  10   2 2263.54 334.438   8
   3  10   3 10145.2 710.797   8
   3  10   4 7279.60 593.386   8
   3  10   5 899.055 228.714   8
   3  10   6 2535.80 340.313   8
   3  10   7 154.245 134.442   8
   3  10   8 668.384 206.859   8
   3  10   9 1064.58 242.053   8
   3  10  10 1370.63 267.996   8
   3  11  -3 455.086 188.258   8
   3  11  -2 656.860 222.200   8
   3  11  -1 871.478 232.350   8
   3  11   0 800.459 225.420   8
   3  11   1 843.590 246.176   8
   3  11   2 2909.67 411.863   8
   3  11   3 2942.82 405.448   8
   3  11   4 5016.53 525.153   8
   3  11   5 4363.10 484.082   8
   3  11   6 1442.94 290.123   8
   3  11   7-173.159 152.324   8
   3  11   8 355.593 164.240   8
   3  11   9 2914.73 399.137   8
   3  11  10 3453.81 433.646   8
   3  12  -1 647.190 225.270   8
   3  12   0 1402.09 320.467   8
   3  12   1 2005.47 363.140   8
   3  12   2 1591.83 323.349   8
   3  12   3 1987.26 350.634   8
   3  12   4 1212.95 279.333   8
   3  12   5 1269.91 278.384   8
   3  12   6 805.739 238.140   8
   3  12   7-43.3375 97.8348   8
   3  12   8 3197.70 432.177   8
   3  12   9 3193.15 427.732   8
   3  12  10 1655.34 320.543   8
   3  13   3 800.593 228.277   8
   3  13   4-82.9508 130.552   8
   3  13   5 55.0978 106.881   8
   3  13   6 1027.19 252.626   8
   3  13   7 1120.72 258.126   8
   4 -12  -4 847.149 229.777   3
   4 -12  -3 365.342 158.830   3
   4 -12  -2 2184.22 380.119   3
   4 -12  -1 1964.72 354.987   3
   4 -11  -8 1306.10 288.173   7
   4 -11  -7 198.636 165.452   3
   4 -11  -7 385.042 182.864   7
   4 -11  -6 2272.56 375.389   3
   4 -11  -5 4709.13 527.740   3
   4 -11  -4 4157.83 503.684   3
   4 -11  -3 4290.55 507.276   3
   4 -11  -2 2270.73 362.332   3
   4 -11  -1 3743.66 468.843   3
   4 -11   0 2473.68 378.388   3
   4 -11   1 348.740 177.877   3
   4 -11   2 232.286 136.759   3
   4 -10  -9 1046.45 275.598   3
   4 -10  -9 1008.54 263.660   7
   4 -10  -8 1692.35 352.800   3
   4 -10  -8 2059.83 341.104   7
   4 -10  -7 4277.57 499.699   3
   4 -10  -7 3567.05 460.775   7
   4 -10  -6 4318.52 497.913   3
   4 -10  -5 629.088 199.975   3
   4 -10  -4 23.8382 110.704   3
   4 -10  -3 5694.17 547.028   3
   4 -10  -2 11293.8 782.318   3
   4 -10  -1 694.112 203.151   3
   4 -10   0 976.062 231.063   3
   4 -10   1 5690.82 556.849   3
   4 -10   2 3613.26 440.105   3
   4 -10   3 2010.13 338.347   3
   4 -10   4 1357.15 286.914   3
   4  -9 -10 621.942 218.544   3
   4  -9 -10 632.876 239.782   7
   4  -9  -9 2673.85 402.417   3
   4  -9  -9 3727.62 467.344   7
   4  -9  -8 2846.77 419.317   3
   4  -9  -8 2534.55 373.670   7
   4  -9  -7 2034.29 349.023   3
   4  -9  -7 2118.53 343.435   7
   4  -9  -6 3953.38 461.267   3
   4  -9  -5 1429.59 284.448   3
   4  -9  -4 747.670 203.594   3
   4  -9  -3 1309.89 253.741   3
   4  -9  -2 3347.12 397.202   3
   4  -9  -1 2247.87 336.752   3
   4  -9   0 2719.27 368.580   3
   4  -9   1 3121.73 397.373   3
   4  -9   2 657.565 207.511   3
   4  -9   3 1586.19 292.882   3
   4  -9   4 10204.6 759.859   3
   4  -9   5 2519.31 379.813   3
   4  -9   6 234.683 146.216   3
   4  -8 -11 541.971 215.729   3
   4  -8 -11 407.214 192.935   7
   4  -8 -10 974.552 273.347   3
   4  -8 -10 1213.63 290.219   7
   4  -8  -9 4937.60 532.723   3
   4  -8  -9 5337.96 545.365   7
   4  -8  -8 5383.94 541.481   3
   4  -8  -8 5813.08 561.090   7
   4  -8  -7 911.517 232.998   3
   4  -8  -7 714.827 193.726   7
   4  -8  -6 176.176 150.847   3
   4  -8  -5 753.550 199.247   3
   4  -8  -4 1253.90 247.673   3
   4  -8  -3 8880.46 630.094   3
   4  -8  -2 5208.11 476.592   3
   4  -8  -1 1361.46 249.280   3
   4  -8   0 5155.09 475.278   3
   4  -8   1 4871.80 469.488   3
   4  -8   2 540.412 186.270   3
   4  -8   3 690.495 192.608   3
   4  -8   4 2430.66 361.169   3
   4  -8   5 2414.24 372.089   3
   4  -8   6 543.202 198.465   3
   4  -8   7 1185.93 282.701   3
   4  -7 -11 808.284 234.429   3
   4  -7 -11 955.197 264.029   7
   4  -7 -10 5459.48 558.878   3
   4  -7 -10 7418.13 656.418   7
   4  -7  -9 7009.63 616.896   3
   4  -7  -9 7984.59 664.638   7
   4  -7  -8 5223.56 504.732   3
   4  -7  -8 4906.13 508.497   7
   4  -7  -7 2093.21 328.492   3
   4  -7  -7 2063.08 317.104   7
   4  -7  -6 136.901 93.6961   3
   4  -7  -6 185.028 114.126   7
   4  -7  -5 535.626 182.231   3
   4  -7  -4 2442.37 317.217   3
   4  -7  -3 6065.87 482.873   3
   4  -7  -2 11243.5 668.290   3
   4  -7  -1 7667.10 553.378   3
   4  -7   0 2360.71 305.887   3
   4  -7   1 748.556 184.335   3
   4  -7   2 1286.16 227.551   3
   4  -7   3 8249.44 598.119   3
   4  -7   4 5576.77 505.535   3
   4  -7   5 91.4816 107.971   3
   4  -7   6 938.298 251.347   3
   4  -7   7 3659.28 455.245   3
   4  -7   8 988.150 276.464   3
   4  -6 -11 427.560 182.446   3
   4  -6 -11 784.210 245.106   7
   4  -6 -10 6868.53 615.286   3
   4  -6 -10 6720.85 633.184   7
   4  -6  -9 3931.30 448.618   3
   4  -6  -9 5253.68 524.902   7
   4  -6  -8 125.165 139.317   3
   4  -6  -8 76.9356 106.260   7
   4  -6  -7 6564.76 540.325   3
   4  -6  -7 6639.85 556.974   7
   4  -6  -6 20739.6 952.413   3
   4  -6  -6 17813.6 905.647   7
   4  -6  -5 2785.04 322.956   3
   4  -6  -4 5227.28 426.564   3
   4  -6  -4 5605.80 384.509   5
   4  -6  -3 17773.5 821.733   3
   4  -6  -3 20168.9 736.877   5
   4  -6  -2 11307.7 630.725   3
   4  -6  -2 11580.9 522.842   5
   4  -6  -1 7279.07 497.566   3
   4  -6   0 2381.51 224.862   5
   4  -6   0 1906.55 259.104   3
   4  -6   1 90.1037 78.4833   3
   4  -6   1 255.534 92.5369   5
   4  -6   2 2118.07 281.259   3
   4  -6   3 8786.31 581.144   3
   4  -6   4 7838.40 570.639   3
   4  -6   5 5387.55 488.806   3
   4  -6   6 1693.59 285.895   3
   4  -6   7 306.393 149.367   3
   4  -6   8-16.7240 107.168   3
   4  -6   9 1957.57 359.681   3
   4  -5 -11 1172.58 297.051   4
   4  -5 -11 1229.34 267.552   3
   4  -5 -11 1727.75 325.658   7
   4  -5 -10-134.845 121.314   4
   4  -5 -10 23.3364 116.170   3
   4  -5 -10-49.6897 124.321   7
   4  -5  -9-47.5647 125.925   4
   4  -5  -9-230.690 147.883   3
   4  -5  -9 40.6531 105.027   7
   4  -5  -8 5.27633 101.908   3
   4  -5  -8-33.4747 114.691   7
   4  -5  -7 1568.48 249.860   3
   4  -5  -7 1003.58 221.878   7
   4  -5  -6 16733.5 817.264   3
   4  -5  -6 17585.3 865.167   7
   4  -5  -5 10836.4 614.297   3
   4  -5  -5 10447.8 634.906   7
   4  -5  -4 8016.13 515.986   3
   4  -5  -4 8832.09 492.741   5
   4  -5  -3 25629.4 954.224   3
   4  -5  -3 25390.2 864.022   5
   4  -5  -2 4999.16 331.254   5
   4  -5  -2 4882.62 386.511   3
   4  -5  -1 4635.19 370.908   3
   4  -5  -1 4618.43 311.358   5
   4  -5   0 27362.9 987.985   3
   4  -5   0 26882.7 852.991   5
   4  -5   1 6741.26 459.003   3
   4  -5   1 6690.51 387.986   5
   4  -5   2 583.391 133.972   3
   4  -5   3 12255.3 659.586   3
   4  -5   4 11316.4 653.665   3
   4  -5   5 5566.76 471.423   3
   4  -5   6 3384.11 391.376   3
   4  -5   7-17.2113 97.2287   3
   4  -5   8 88.7344 151.269   3
   4  -5   9 2014.84 360.567   3
   4  -4 -12 1593.41 340.122   4
   4  -4 -12 2159.50 386.859   7
   4  -4 -11 11664.2 848.386   7
   4  -4 -11 11554.1 870.945   4
   4  -4 -10 2644.96 399.293   4
   4  -4 -10 1771.58 301.702   3
   4  -4 -10 2005.38 340.081   7
   4  -4  -9 4401.31 440.146   3
   4  -4  -9 4575.67 477.026   7
   4  -4  -9 4369.88 480.605   4
   4  -4  -8 115.846 134.602   4
   4  -4  -8 57.3389 80.8482   3
   4  -4  -8 110.888 125.095   7
   4  -4  -7 9727.93 607.423   3
   4  -4  -7 9786.24 648.069   7
   4  -4  -7 9426.94 653.755   4
   4  -4  -6 7645.57 512.687   3
   4  -4  -6 8168.28 558.287   7
   4  -4  -5 7262.56 474.829   3
   4  -4  -5 7118.32 499.747   7
   4  -4  -4 2987.01 290.769   3
   4  -4  -4 2707.95 271.349   5
   4  -4  -3 722.496 149.167   3
   4  -4  -3 968.904 150.627   5
   4  -4  -2 879.642 140.936   5
   4  -4  -2 920.178 151.595   3
   4  -4  -1 2322.31 244.769   3
   4  -4  -1 2205.65 213.163   5
   4  -4   0 28977.6 969.325   3
   4  -4   0 29427.1 893.489   5
   4  -4   1 38089.0 1172.16   3
   4  -4   1 38926.8 1089.21   5
   4  -4   2 9468.53 529.562   3
   4  -4   3 11566.0 598.927   3
   4  -4   4 16116.8 761.895   3
   4  -4   5 3135.18 340.609   3
   4  -4   6 7757.98 560.548   3
   4  -4   7 4931.24 462.634   3
   4  -4   8-99.3186 106.277   3
   4  -4   9 1288.07 285.148   3
   4  -3 -12 582.660 220.529   4
   4  -3 -12 1120.24 296.050   7
   4  -3 -11 1048.08 269.597   4
   4  -3 -11 1074.16 262.807   7
   4  -3 -10 10887.6 783.719   7
   4  -3 -10 10340.8 788.646   4
   4  -3  -9 4901.01 497.674   7
   4  -3  -9 4684.17 502.500   4
   4  -3  -8 1640.53 289.232   4
   4  -3  -8 1447.59 234.698   3
   4  -3  -8 1720.08 294.378   7
   4  -3  -7 8972.53 554.996   3
   4  -3  -7 8938.13 604.985   7
   4  -3  -7 8569.24 608.987   4
   4  -3  -6 7612.90 482.787   3
   4  -3  -6 7653.12 520.212   7
   4  -3  -6 6653.56 509.604   4
   4  -3  -5 20273.0 792.446   3
   4  -3  -5 19401.7 844.636   7
   4  -3  -4 33711.4 908.621   9
   4  -3  -4 31643.4 1010.41   3
   4  -3  -4 31057.6 1049.95   5
   4  -3  -4 30579.0 1070.94   7
   4  -3  -3 6315.25 324.155   9
   4  -3  -3 5642.12 361.600   3
   4  -3  -3 5585.50 374.557   5
   4  -3  -2 15309.2 614.205   3
   4  -3  -2 14420.6 603.162   5
   4  -3  -2 15509.8 541.104   9
   4  -3  -1 20121.4 721.518   3
   4  -3  -1 20781.9 720.682   5
   4  -3   0 34974.2 1035.54   1
   4  -3   0 35801.1 1039.21   3
   4  -3   0 34432.4 994.242   5
   4  -3   1 12451.9 559.114   3
   4  -3   1 11097.5 506.028   5
   4  -3   1 12651.8 551.025   1
   4  -3   2 14411.1 603.133   1
   4  -3   2 13504.9 602.178   3
   4  -3   3 4910.46 297.553   2
   4  -3   3 5187.47 369.224   3
   4  -3   3 4955.62 342.909   1
   4  -3   4 2768.54 232.104   2
   4  -3   4 3004.12 297.190   3
   4  -3   5 4156.02 365.840   3
   4  -3   6 6204.62 476.002   3
   4  -3   7 17892.2 880.709   3
   4  -3   8 10014.9 685.516   3
   4  -3   9 555.270 207.762   3
   4  -2 -12 139.105 162.093   4
   4  -2 -11 410.829 178.095   4
   4  -2 -11 320.266 168.553   7
   4  -2 -10 1989.81 345.817   4
   4  -2 -10 1974.29 335.254   7
   4  -2  -9 5904.49 549.656   7
   4  -2  -9 7165.64 611.142   4
   4  -2  -8 5259.23 485.691   7
   4  -2  -8 5064.85 494.293   4
   4  -2  -7 7402.03 472.866   3
   4  -2  -7 8023.51 476.411   9
   4  -2  -7 6629.84 519.254   7
   4  -2  -7 7309.25 556.099   4
   4  -2  -6 9744.08 524.576   3
   4  -2  -6 10322.2 512.853   9
   4  -2  -6 10474.8 615.344   7
   4  -2  -5 5609.13 370.363   3
   4  -2  -5 6236.05 367.909   9
   4  -2  -5 5497.94 416.148   7
   4  -2  -5 5626.14 438.430   4
   4  -2  -4 31239.6 896.926   9
   4  -2  -4 29944.1 925.085   3
   4  -2  -4 27978.0 999.730   5
   4  -2  -4 28492.1 997.842   7
   4  -2  -3 29775.3 893.539   3
   4  -2  -3 29388.3 971.247   5
   4  -2  -3 29702.7 863.028   9
   4  -2  -3 31204.3 989.512   7
   4  -2  -2 222.010 68.4887   9
   4  -2  -2 307.105 86.3993   3
   4  -2  -2 184.436 72.1861   5
   4  -2  -1 9555.46 417.632   9
   4  -2  -1 9550.98 429.972   3
   4  -2  -1 9269.52 453.272   5
   4  -2   0 40779.1 1072.57   3
   4  -2   0 39740.0 1088.11   5
   4  -2   1 19978.6 697.970   1
   4  -2   1 21698.1 708.716   3
   4  -2   1 19429.9 691.227   5
   4  -2   2 30729.5 915.834   3
   4  -2   2 29225.1 882.439   1
   4  -2   2 29884.9 863.853   2
   4  -2   3 1884.00 186.134   2
   4  -2   3 1980.10 197.473   1
   4  -2   3 1701.21 199.425   3
   4  -2   4 24104.6 799.898   1
   4  -2   4 24200.5 866.607   3
   4  -2   4 25705.2 814.006   2
   4  -2   5 363.683 110.596   3
   4  -2   5 475.840 107.803   2
   4  -2   6 29433.2 1071.78   3
   4  -2   7 6326.17 492.139   3
   4  -2   8 5176.01 476.075   3
   4  -2   9 3786.68 439.313   3
   4  -1 -12-121.864 128.621   4
   4  -1 -11 659.494 231.416   4
   4  -1 -10 3514.10 452.559   7
   4  -1 -10 2942.17 410.742   4
   4  -1  -9 3524.67 421.259   7
   4  -1  -9 2496.67 363.889   4
   4  -1  -8 2996.89 322.965   9
   4  -1  -8 2849.72 360.639   7
   4  -1  -8 2804.76 360.578   4
   4  -1  -7 597.380 155.827   4
   4  -1  -7 516.775 136.650   9
   4  -1  -7 891.634 212.326   7
   4  -1  -6 1837.25 261.024   4
   4  -1  -6 2289.92 252.423   9
   4  -1  -6 1720.24 256.210   7
   4  -1  -5 7634.67 410.572   3
   4  -1  -5 7737.44 442.733   9
   4  -1  -5 7816.30 496.170   7
   4  -1  -5 8038.02 509.545   4
   4  -1  -4 5100.09 309.713   3
   4  -1  -4 5422.11 341.684   9
   4  -1  -4 3909.88 344.240   5
   4  -1  -4 4784.70 360.979   7
   4  -1  -3 15624.0 587.318   9
   4  -1  -3 14793.3 536.480   3
   4  -1  -3 14482.2 641.103   5
   4  -1  -3 14934.0 626.028   7
   4  -1  -2 47337.3 1173.70   9
   4  -1  -2 44282.1 1091.20   3
   4  -1  -2 45236.0 1238.35   5
   4  -1  -2 44887.4 1206.71   7
   4  -1  -1 34405.3 941.299   9
   4  -1  -1 33343.2 875.202   3
   4  -1  -1 33961.0 987.610   5
   4  -1   0 25953.4 780.776   9
   4  -1   0 25665.2 736.442   3
   4  -1   0 25979.1 810.841   5
   4  -1   1 20348.0 640.599   3
   4  -1   1 19760.9 683.870   5
   4  -1   2 31913.7 882.295   1
   4  -1   2 31186.4 905.238   2
   4  -1   2 31114.8 877.380   3
   4  -1   3 39491.8 1074.43   2
   4  -1   3 39166.1 1020.17   1
   4  -1   3 39549.1 1075.83   3
   4  -1   4 302.404 95.7772   3
   4  -1   4 257.386 68.6832   1
   4  -1   4 169.442 68.8521   2
   4  -1   5 609.311 100.800   1
   4  -1   5 662.862 134.724   3
   4  -1   5 445.797 110.751   2
   4  -1   6 19068.1 804.095   3
   4  -1   7 11601.2 656.375   3
   4  -1   8 2514.80 331.681   3
   4   0 -11 1188.18 278.548   4
   4   0 -10 931.553 221.491   9
   4   0 -10 1183.97 269.073   4
   4   0  -9 1299.26 244.609   9
   4   0  -9 1031.08 241.335   7
   4   0  -9 891.129 242.029   4
   4   0  -8 9231.35 605.940   9
   4   0  -8 8744.19 645.653   7
   4   0  -8 7945.25 608.365   4
   4   0  -7 7225.16 504.437   9
   4   0  -7 7548.70 559.850   7
   4   0  -7 6562.92 513.331   4
   4   0  -6 371.063 132.124   4
   4   0  -6 438.175 130.877   9
   4   0  -6 374.765 131.959   7
   4   0  -5 384.366 130.010   4
   4   0  -5 494.739 136.532   9
   4   0  -5 583.076 141.438   7
   4   0  -4 16621.9 674.165   9
   4   0  -4 16877.0 747.907   5
   4   0  -4 14820.9 534.006   3
   4   0  -4 16538.8 700.386   7
   4   0  -4 16383.5 694.779   4
   4   0  -3 15662.3 618.975   9
   4   0  -3 14677.1 488.496   3
   4   0  -3 14332.2 647.943   5
   4   0  -3 15591.9 628.473   7
   4   0  -2 16031.8 608.328   9
   4   0  -2 15792.0 486.203   3
   4   0  -2 16648.8 657.225   5
   4   0  -2 16337.6 608.733   7
   4   0  -1 10987.0 472.237   9
   4   0  -1 10178.9 362.667   3
   4   0  -1 10317.4 482.354   5
   4   0  -1 10573.2 444.332   7
   4   0   0 2495.67 165.489   3
   4   0   0 2224.77 209.844   5
   4   0   0 2266.68 206.037   9
   4   0   1 27756.9 838.044   9
   4   0   1 27299.9 837.968   5
   4   0   1 28882.9 740.196   3
   4   0   2 24135.5 778.586   2
   4   0   2 23834.8 693.218   3
   4   0   3 5887.31 353.112   2
   4   0   3 6006.69 326.538   3
   4   0   4 35746.0 910.018   1
   4   0   4 36889.9 1023.86   3
   4   0   4 35680.5 1045.16   2
   4   0   5 52052.8 1185.42   1
   4   0   5 49966.7 1371.06   2
   4   0   5 51912.3 1384.25   3
   4   0   6 13903.3 653.272   3
   4   0   7 5534.73 431.136   3
   4   1 -11 1048.81 239.433   9
   4   1 -10 249.031 135.718   9
   4   1 -10-119.957 133.393   4
   4   1  -9 657.471 181.247   9
   4   1  -9 868.341 216.715   4
   4   1  -8 6641.32 537.058   9
   4   1  -8 4982.13 468.318   4
   4   1  -7 6828.25 521.563   9
   4   1  -7 6480.04 523.893   7
   4   1  -7 7181.39 533.023   4
   4   1  -6 1199.66 207.594   9
   4   1  -6 1135.56 215.631   7
   4   1  -6 1045.19 199.801   4
   4   1  -5 3684.17 339.911   9
   4   1  -5 4027.27 356.537   7
   4   1  -5 3590.21 326.812   4
   4   1  -4 11197.5 570.005   9
   4   1  -4 11508.5 576.987   7
   4   1  -4 11617.1 563.366   4
   4   1  -3 8025.41 456.902   9
   4   1  -3 8980.15 502.604   5
   4   1  -3 9015.58 465.567   7
   4   1  -2 14474.6 600.877   9
   4   1  -2 14729.4 623.737   5
   4   1  -2 14282.4 442.322   8
   4   1  -2 15469.4 580.026   7
   4   1  -1 27275.4 840.973   9
   4   1  -1 27669.6 709.312   8
   4   1  -1 28193.6 861.803   5
   4   1  -1 27596.8 772.609   7
   4   1   0 171.234 70.0941   9
   4   1   0 70.4203 52.1856   8
   4   1   0 177.072 65.4195   5
   4   1   0 191.886 39.7707   3
   4   1   0 232.484 61.1513   7
   4   1   1 5052.44 312.908   9
   4   1   1 5408.99 320.580   5
   4   1   1 4939.42 225.480   3
   4   1   2 23760.0 771.483   9
   4   1   2 25298.5 808.003   2
   4   1   2 24348.0 659.556   3
   4   1   3 23294.9 782.529   2
   4   1   3 23476.5 693.507   3
   4   1   4 12677.6 516.786   3
   4   1   4 12359.4 551.490   2
   4   1   5 23867.4 853.598   2
   4   1   5 25513.4 844.470   3
   4   1   6 5781.62 398.337   3
   4   2 -11 1379.25 302.390   9
   4   2 -10 1158.37 257.994   9
   4   2  -9 2796.59 386.522   9
   4   2  -8 4481.73 465.596   9
   4   2  -7 1829.21 286.751   9
   4   2  -7 2512.50 311.072   4
   4   2  -6 1633.45 262.651   9
   4   2  -6 1982.90 265.080   4
   4   2  -5 7774.79 525.223   9
   4   2  -5 8130.61 521.166   7
   4   2  -5 6960.37 452.903   4
   4   2  -4 5711.52 423.050   9
   4   2  -4 6347.91 424.695   7
   4   2  -4 6361.07 394.753   4
   4   2  -3 3368.25 297.758   9
   4   2  -3 2640.69 277.370   5
   4   2  -3 3105.45 268.761   7
   4   2  -2 16868.2 686.390   9
   4   2  -2 16820.4 686.100   5
   4   2  -2 16874.9 531.718   8
   4   2  -2 17236.3 624.803   7
   4   2  -1 24985.5 834.191   9
   4   2  -1 25092.6 827.244   5
   4   2  -1 26010.7 721.798   8
   4   2  -1 24207.8 727.647   7
   4   2   0 6791.98 382.596   9
   4   2   0 7492.46 352.223   8
   4   2   0 7371.73 390.004   5
   4   2   0 7432.39 313.146   7
   4   2   1 899.251 138.665   9
   4   2   1 940.433 127.368   8
   4   2   1 1033.89 141.019   5
   4   2   1 921.594 92.2966   7
   4   2   1 947.448 80.1613   3
   4   2   2 12061.1 518.528   9
   4   2   2 13973.8 530.613   8
   4   2   2 12877.9 548.723   2
   4   2   2 12646.0 509.464   5
   4   2   2 11753.3 338.784   7
   4   2   2 12772.3 408.079   3
   4   2   3 23416.3 792.637   2
   4   2   3 22783.6 759.578   8
   4   2   3 23171.2 678.119   3
   4   2   4 14039.2 599.059   2
   4   3 -10 1861.86 341.794   9
   4   3  -9 8050.04 677.136   9
   4   3  -8 3294.08 420.776   9
   4   3  -7 1128.74 236.023   9
   4   3  -6 2936.89 357.425   9
   4   3  -5 5794.29 475.785   9
   4   3  -4 4684.03 403.025   9
   4   3  -3 3787.55 341.529   9
   4   3  -2 16155.6 710.495   9
   4   3  -2 17674.8 713.733   5
   4   3  -2 17864.7 603.897   8
   4   3  -2 18816.6 671.754   7
   4   3  -1 13140.7 597.114   9
   4   3  -1 13396.4 574.411   5
   4   3  -1 13564.4 518.945   8
   4   3  -1 13060.7 496.409   7
   4   3   0 1337.83 176.981   9
   4   3   0 1630.44 173.910   8
   4   3   0 1310.61 164.464   5
   4   3   0 1395.00 130.089   7
   4   3   1 17018.6 647.510   9
   4   3   1 17897.2 626.997   8
   4   3   1 18050.3 622.453   5
   4   3   1 15555.5 438.469   7
   4   3   2 30907.9 917.814   8
   4   3   2 30004.7 929.443   9
   4   3   2 30807.3 881.093   5
   4   3   2 31912.9 962.015   2
   4   3   3 12373.6 556.168   2
   4   3   3 11626.6 517.955   9
   4   3   3 12267.3 536.744   8
   4   3   4 10730.3 518.826   8
   4   3   4 11171.1 532.286   2
   4   3   5 15002.1 643.003   8
   4   4  -9 1151.35 285.527   9
   4   4  -8 2424.34 370.296   9
   4   4  -7 887.628 211.472   9
   4   4  -6 2669.83 357.886   9
   4   4  -5 1492.42 252.777   9
   4   4  -4 1636.07 252.068   9
   4   4  -3 20689.2 887.338   9
   4   4  -2 27020.0 984.616   9
   4   4  -2 28083.8 873.028   8
   4   4  -1 4727.12 361.972   9
   4   4  -1 4183.72 317.973   5
   4   4  -1 4333.98 303.333   8
   4   4   0 2238.42 237.456   9
   4   4   0 2201.67 212.931   5
   4   4   0 2015.57 204.693   8
   4   4   1 13703.0 598.141   9
   4   4   1 14752.2 556.554   5
   4   4   1 14405.3 589.851   8
   4   4   2 13543.5 584.856   9
   4   4   2 14498.2 604.319   8
   4   4   2 15279.6 559.403   5
   4   4   2 14532.8 614.049   2
   4   4   3 4813.41 330.856   9
   4   4   3 5217.26 353.674   2
   4   4   3 4936.40 346.068   8
   4   4   3 5466.61 314.769   5
   4   4   4 12703.9 552.061   9
   4   4   4 13413.5 602.601   8
   4   4   5 16683.2 702.695   8
   4   4   6 2206.36 254.507   8
   4   4   7 2437.74 274.777   8
   4   5  -9 153.547 125.775   9
   4   5  -8 465.657 194.858   9
   4   5  -7 49.9943 125.618   9
   4   5  -6 28.0613 112.806   9
   4   5  -5 3572.47 405.233   9
   4   5  -4 1307.16 244.616   9
   4   5  -3 2391.51 296.592   9
   4   5  -2 19248.0 842.204   9
   4   5  -2 19348.7 758.733   8
   4   5  -1 8321.95 510.621   9
   4   5  -1 8596.15 476.337   8
   4   5   0 4495.59 351.216   9
   4   5   0 5071.92 327.198   5
   4   5   0 5256.98 365.569   8
   4   5   1 10485.8 529.340   9
   4   5   1 11176.5 479.720   5
   4   5   1 11642.1 557.524   8
   4   5   2 2684.05 254.426   9
   4   5   2 2887.90 223.646   5
   4   5   2 2968.93 284.358   8
   4   5   3 8627.22 457.938   9
   4   5   3 9860.45 518.661   8
   4   5   3 9458.65 419.047   5
   4   5   4 37665.4 1098.33   9
   4   5   4 37084.8 1170.84   8
   4   5   4 39749.8 1034.19   5
   4   5   5 12021.1 602.516   8
   4   5   6 258.653 105.435   8
   4   5   7 3336.67 330.662   8
   4   5   8 11102.7 623.418   8
   4   6  -8 609.302 235.596   9
   4   6  -7 3056.48 419.348   9
   4   6  -6 962.515 237.066   9
   4   6  -5 1586.50 283.690   9
   4   6  -4 4164.92 436.705   9
   4   6  -3 718.757 186.083   9
   4   6  -2 241.530 120.648   9
   4   6  -2 203.614 106.932   8
   4   6  -1 1362.34 222.345   9
   4   6  -1 2191.45 261.052   8
   4   6   0 2432.24 264.664   8
   4   6   0 1760.24 239.125   9
   4   6   1 6274.30 418.839   9
   4   6   1 6504.37 444.869   8
   4   6   2 3840.25 340.739   8
   4   6   2 2869.96 273.796   9
   4   6   3 1741.56 203.500   9
   4   6   3 1775.32 237.766   8
   4   6   4 24280.6 841.256   9
   4   6   4 23946.5 930.959   8
   4   6   5 21774.9 890.957   8
   4   6   6 2046.94 267.287   8
   4   6   7 4628.54 400.662   8
   4   6   8 4649.13 411.832   8
   4   6   9 1735.10 259.157   8
   4   7  -7 1415.14 306.161   9
   4   7  -6 17714.2 1039.11   9
   4   7  -5 8168.96 667.791   9
   4   7  -4 293.663 137.530   9
   4   7  -3 870.307 210.616   9
   4   7  -2 762.184 191.466   9
   4   7  -2 902.644 191.128   8
   4   7  -1 4074.45 386.150   9
   4   7  -1 3543.71 358.304   8
   4   7   0 4776.59 401.463   9
   4   7   0 4529.78 400.117   8
   4   7   1 277.128 112.262   9
   4   7   1 220.326 114.975   8
   4   7   2 3079.66 296.548   9
   4   7   2 2872.66 322.661   8
   4   7   3 5475.18 383.170   9
   4   7   3 5480.16 431.664   8
   4   7   4 515.310 118.594   9
   4   7   4 339.214 131.155   8
   4   7   5 1514.36 237.222   8
   4   7   6 5523.89 457.422   8
   4   7   7 5226.88 449.527   8
   4   7   8 2710.56 330.104   8
   4   7   9 452.915 167.171   8
   4   7  10 5590.99 490.110   8
   4   8  -6 3470.04 463.439   9
   4   8  -5 6716.94 621.340   9
   4   8  -4 668.883 199.420   9
   4   8  -3 1515.85 273.382   9
   4   8  -2 714.634 186.242   9
   4   8  -2 891.449 207.879   8
   4   8  -1 780.455 196.094   8
   4   8  -1 594.379 168.034   9
   4   8   0 21681.1 936.130   9
   4   8   0 21773.1 992.293   8
   4   8   1 27649.9 1026.18   9
   4   8   1 25541.9 1087.23   8
   4   8   2 1096.18 188.530   9
   4   8   2 980.822 205.772   8
   4   8   3 568.150 128.170   9
   4   8   3 421.017 148.782   8
   4   8   4 1493.94 260.139   8
   4   8   5 348.371 139.633   8
   4   8   6 3509.19 377.633   8
   4   8   7 1941.36 293.525   8
   4   8   8 282.725 130.876   8
   4   8   9 2637.07 339.865   8
   4   8  10 2280.58 327.095   8
   4   9  -5 249.838 141.579   9
   4   9  -4 337.639 150.457   9
   4   9  -3 250.973 148.838   9
   4   9  -2 1740.13 292.736   9
   4   9  -2 1542.84 266.200   8
   4   9  -1 439.469 158.330   9
   4   9  -1 577.263 189.860   8
   4   9   0 2246.37 318.246   8
   4   9   0 2379.93 304.295   9
   4   9   1 20498.3 897.095   9
   4   9   1 20043.8 992.232   8
   4   9   2 10003.3 672.406   8
   4   9   3 533.936 181.896   8
   4   9   4 1575.92 270.590   8
   4   9   5 901.800 232.504   8
   4   9   6 6843.10 562.816   8
   4   9   7 19389.5 977.716   8
   4   9   8 2034.44 316.037   8
   4   9   9 312.072 172.824   8
   4   9  10 1434.17 278.970   8
   4   9  11 113.065 139.482   8
   4  10  -4 1560.99 308.276   9
   4  10  -3 1067.34 249.083   9
   4  10  -2 286.614 141.000   9
   4  10  -2 157.216 108.307   8
   4  10  -1 1488.58 267.655   9
   4  10  -1 1819.40 321.438   8
   4  10   0 1711.04 297.010   8
   4  10   1 105.923 113.848   8
   4  10   2 590.578 210.040   8
   4  10   3 798.044 214.333   8
   4  10   4 1785.96 308.997   8
   4  10   5 2369.46 355.166   8
   4  10   6 1162.86 254.529   8
   4  10   7 10897.0 752.365   8
   4  10   8 17111.3 962.941   8
   4  10   9 1688.14 310.000   8
   4  10  10-14.3605 110.419   8
   4  10  11 647.558 199.610   8
   4  11  -2 1509.91 305.104   8
   4  11  -1 985.446 262.816   8
   4  11   0 1441.29 309.981   8
   4  11   1-208.899 179.073   8
   4  11   2 0.46153 118.201   8
   4  11   3 1909.41 341.581   8
   4  11   4 118.968 113.317   8
   4  11   5 131.907 161.769   8
   4  11   6 3632.94 452.789   8
   4  11   7 1480.14 302.077   8
   4  11   8 334.864 188.337   8
   4  11   9 1914.85 340.072   8
   4  11  10 1482.29 299.229   8
   4  11  11 1493.99 308.652   8
   4  12   0 237.297 163.563   8
   4  12   1 328.172 159.037   8
   4  12   2 688.629 233.702   8
   4  12   3 3918.61 495.952   8
   4  12   4 3272.68 445.873   8
   4  12   5 585.979 209.043   8
   4  12   6 1299.99 278.276   8
   4  12   7 800.159 240.058   8
   4  12   8 719.546 227.780   8
   4  12   9 409.598 165.141   8
   5 -11  -5 794.846 235.903   3
   5 -11  -4 2680.44 421.887   3
   5 -11  -3 106.966 121.302   3
   5 -11  -2 301.244 208.333   3
   5 -11  -1-265.537 161.914   3
   5 -11   0 1479.80 320.486   3
   5 -10  -7 3383.59 459.972   3
   5 -10  -7 3148.18 442.704   7
   5 -10  -6 889.058 249.201   3
   5 -10  -5 845.360 219.224   3
   5 -10  -4 1990.22 345.320   3
   5 -10  -3 492.674 214.845   3
   5 -10  -2 1587.84 314.676   3
   5 -10  -1 2337.34 376.010   3
   5 -10   0 119.652 124.357   3
   5 -10   1 9.65124 113.150   3
   5 -10   2 3921.39 475.199   3
   5 -10   3 385.536 186.561   3
   5  -9  -9 4387.37 534.448   3
   5  -9  -9 4314.27 524.810   7
   5  -9  -8 4533.69 532.345   3
   5  -9  -8 4456.59 526.516   7
   5  -9  -7 159.489 155.392   3
   5  -9  -7 13.4398 130.920   7
   5  -9  -6 1424.87 288.874   3
   5  -9  -6 1416.84 301.318   7
   5  -9  -5 5416.90 548.567   3
   5  -9  -4 4119.70 471.421   3
   5  -9  -3 4483.70 492.813   3
   5  -9  -2 3150.69 419.422   3
   5  -9  -1 5059.88 531.664   3
   5  -9   0 3155.09 417.572   3
   5  -9   1 223.852 145.994   3
   5  -9   2 241.551 152.493   3
   5  -9   3 1155.75 287.748   3
   5  -9   4 901.507 252.412   3
   5  -9   5 1075.41 298.057   3
   5  -8 -10-230.571 181.439   3
   5  -8  -9 923.918 264.742   3
   5  -8  -9 1402.49 315.326   7
   5  -8  -8 2583.39 397.812   3
   5  -8  -8 2281.08 381.101   7
   5  -8  -7 2031.63 338.035   3
   5  -8  -7 2453.66 378.876   7
   5  -8  -6 4239.27 466.228   3
   5  -8  -6 5133.84 541.057   7
   5  -8  -5 1808.75 306.368   3
   5  -8  -4 0.79288 100.934   3
   5  -8  -3 5922.43 534.185   3
   5  -8  -2 19238.7 993.727   3
   5  -8  -1 1345.20 264.973   3
   5  -8   0 482.703 189.183   3
   5  -8   1 7161.64 601.358   3
   5  -8   2 5887.40 545.022   3
   5  -8   3 3466.22 432.059   3
   5  -8   4 2360.52 361.583   3
   5  -8   5 1246.89 281.221   3
   5  -8   6 3220.33 443.825   3
   5  -7 -10 798.322 263.206   3
   5  -7 -10 692.163 240.158   7
   5  -7  -9 2971.04 413.097   3
   5  -7  -9 2792.48 411.695   7
   5  -7  -8 2182.63 349.779   3
   5  -7  -8 2445.61 386.215   7
   5  -7  -7 2909.44 385.422   3
   5  -7  -7 2558.18 381.935   7
   5  -7  -6 5168.21 500.837   3
   5  -7  -6 5750.68 547.335   7
   5  -7  -5 2166.11 322.889   3
   5  -7  -4 179.152 122.443   3
   5  -7  -3 1215.46 229.672   3
   5  -7  -2 5930.73 504.424   3
   5  -7  -1 3487.42 386.562   3
   5  -7   0 2350.82 322.447   3
   5  -7   1 5162.72 484.868   3
   5  -7   2 1537.63 271.461   3
   5  -7   3 2170.32 324.970   3
   5  -7   4 15382.0 897.353   3
   5  -7   5 6522.84 595.927   3
   5  -7   6 181.514 149.646   3
   5  -7   7 1957.07 355.254   3
   5  -7   8 2510.44 410.896   3
   5  -6 -10 489.540 204.738   7
   5  -6  -9 2650.73 375.064   3
   5  -6  -9 2724.38 399.193   7
   5  -6  -8 5524.65 527.828   3
   5  -6  -8 5970.34 571.503   7
   5  -6  -7 1996.97 309.805   3
   5  -6  -7 1697.90 304.585   7
   5  -6  -6 1169.02 238.633   3
   5  -6  -6 651.941 187.785   7
   5  -6  -5 421.572 164.837   3
   5  -6  -5 273.630 131.472   7
   5  -6  -4 1539.80 255.164   3
   5  -6  -4 1700.03 240.682   5
   5  -6  -3 11018.4 658.553   3
   5  -6  -3 10706.6 582.530   5
   5  -6  -2 6227.94 491.301   3
   5  -6  -2 7338.93 454.339   5
   5  -6  -1 1797.45 265.184   3
   5  -6  -1 1711.60 215.963   5
   5  -6   0 5996.99 485.359   3
   5  -6   0 6177.46 415.512   5
   5  -6   1 8623.64 581.761   3
   5  -6   1 8244.23 485.849   5
   5  -6   2 1313.77 201.980   5
   5  -6   2 1495.20 254.569   3
   5  -6   3 699.267 216.359   3
   5  -6   4 4078.90 430.089   3
   5  -6   5 5009.59 494.573   3
   5  -6   6 991.660 242.391   3
   5  -6   7 747.154 235.717   3
   5  -6   8 2876.47 430.607   3
   5  -6   9 1403.45 337.625   3
   5  -5 -11 1170.49 306.138   7
   5  -5 -10 4392.29 529.677   7
   5  -5  -9 6051.66 597.836   7
   5  -5  -8 5796.52 519.119   3
   5  -5  -8 5143.22 526.977   7
   5  -5  -7 2973.31 359.250   3
   5  -5  -7 3127.85 394.120   7
   5  -5  -6 212.552 125.365   3
   5  -5  -6 240.609 133.194   7
   5  -5  -5 282.467 132.408   3
   5  -5  -5 474.264 156.422   7
   5  -5  -4 2683.96 306.892   3
   5  -5  -4 2838.38 311.086   5
   5  -5  -3 7580.76 509.491   3
   5  -5  -3 7123.68 468.018   5
   5  -5  -2 11757.8 646.027   3
   5  -5  -2 13022.7 621.614   5
   5  -5  -1 8570.95 547.161   3
   5  -5  -1 9712.15 521.351   5
   5  -5   0 4547.66 394.663   3
   5  -5   0 4464.69 347.769   5
   5  -5   1 1365.73 217.894   3
   5  -5   1 1433.34 193.644   5
   5  -5   2 1111.35 177.878   5
   5  -5   2 795.943 187.441   3
   5  -5   3 8389.96 574.544   3
   5  -5   4 9842.44 646.925   3
   5  -5   5 486.261 159.118   3
   5  -5   6 230.905 142.008   3
   5  -5   7 3496.56 436.104   3
   5  -5   8 2067.75 361.521   3
   5  -5   9 366.217 221.847   3
   5  -5  10 892.037 256.293   3
   5  -4 -11 771.852 246.042   7
   5  -4 -10 4562.20 532.862   7
   5  -4  -9 7981.08 673.846   7
   5  -4  -8 197.487 127.649   7
   5  -4  -7 3926.86 399.055   3
   5  -4  -7 3486.83 412.260   7
   5  -4  -6 16709.3 808.903   3
   5  -4  -6 18085.8 909.293   7
   5  -4  -5 3078.82 322.152   3
   5  -4  -5 2803.53 324.609   5
   5  -4  -5 3495.74 377.310   7
   5  -4  -4 3778.66 345.212   3
   5  -4  -4 3656.26 352.111   5
   5  -4  -4 3007.87 334.133   7
   5  -4  -3 15196.6 702.416   3
   5  -4  -3 14280.6 690.943   5
   5  -4  -2 12955.8 634.514   3
   5  -4  -2 12699.3 620.400   5
   5  -4  -1 8978.15 522.870   3
   5  -4  -1 9609.71 521.513   5
   5  -4   0 4632.37 373.599   3
   5  -4   0 5408.47 379.721   5
   5  -4   1 439.713 134.716   3
   5  -4   1 274.980 88.5358   5
   5  -4   2 1214.69 197.305   3
   5  -4   3 9120.47 562.362   3
   5  -4   4 11969.2 675.128   3
   5  -4   5 6411.20 507.719   3
   5  -4   6 2960.76 354.824   3
   5  -4   7 1671.03 295.145   3
   5  -4   8 364.090 175.984   3
   5  -4   9 1366.19 299.353   3
   5  -4  10 2133.34 411.336   3
   5  -3 -11 1709.22 354.473   7
   5  -3 -10 264.588 159.048   7
   5  -3  -9 25.1654 108.074   7
   5  -3  -8 49.2372 102.798   7
   5  -3  -7 381.672 167.738   7
   5  -3  -6 14439.3 703.383   3
   5  -3  -6 14359.6 786.007   7
   5  -3  -5 15859.0 711.888   3
   5  -3  -5 13650.6 747.544   5
   5  -3  -5 14984.0 775.230   7
   5  -3  -4 6971.93 441.966   3
   5  -3  -4 5937.42 455.131   5
   5  -3  -4 7240.87 405.218   9
   5  -3  -4 6045.84 465.844   7
   5  -3  -3 22966.3 780.713   9
   5  -3  -3 23553.0 852.462   3
   5  -3  -3 23092.8 907.984   5
   5  -3  -2 9454.40 499.522   3
   5  -3  -2 9024.33 518.316   5
   5  -3  -1 4425.03 335.010   3
   5  -3  -1 4682.39 356.080   5
   5  -3   0 23843.1 857.273   3
   5  -3   0 23708.5 860.173   5
   5  -3   1 8582.16 484.520   3
   5  -3   1 8058.41 469.779   5
   5  -3   2 797.787 153.192   3
   5  -3   3 11165.0 591.198   3
   5  -3   4 13756.2 687.376   3
   5  -3   5 6189.09 467.718   3
   5  -3   6 6736.28 522.234   3
   5  -3   7 436.100 159.533   3
   5  -3   8 44.9843 117.194   3
   5  -3   9 2034.98 354.741   3
   5  -2 -11 7481.06 711.674   7
   5  -2 -10 4124.08 516.331   7
   5  -2  -9 3284.48 432.118   7
   5  -2  -8 496.901 174.076   7
   5  -2  -7 6196.19 530.347   7
   5  -2  -6 6915.31 453.254   9
   5  -2  -6 6637.99 524.368   7
   5  -2  -5 5986.92 402.898   9
   5  -2  -5 5543.35 447.807   7
   5  -2  -4 2768.24 261.379   9
   5  -2  -4 3003.80 267.668   3
   5  -2  -4 3159.02 328.399   5
   5  -2  -4 3077.63 321.111   7
   5  -2  -3 1967.84 216.136   9
   5  -2  -3 2053.18 214.716   3
   5  -2  -3 2221.55 271.687   5
   5  -2  -3 2085.71 249.873   7
   5  -2  -2 2609.55 237.290   9
   5  -2  -2 2450.76 225.191   3
   5  -2  -2 2416.32 266.101   5
   5  -2  -1 693.269 125.444   9
   5  -2  -1 859.806 141.152   3
   5  -2  -1 959.249 162.667   5
   5  -2   0 20106.1 721.445   3
   5  -2   0 19692.6 775.457   5
   5  -2   1 45844.9 1242.56   3
   5  -2   1 44801.2 1283.59   5
   5  -2   2 13334.4 589.923   3
   5  -2   3 9642.80 511.201   3
   5  -2   3 9024.41 471.523   2
   5  -2   4 14211.9 621.833   2
   5  -2   4 14839.8 681.823   3
   5  -2   5 4757.78 391.703   3
   5  -2   6 7926.51 535.116   3
   5  -2   7 5744.99 483.297   3
   5  -2   8 153.323 112.295   3
   5  -2   9 945.544 248.722   3
   5  -1 -11 482.743 195.325   4
   5  -1 -10 6761.15 652.944   7
   5  -1 -10 6432.67 619.874   4
   5  -1  -9 2569.83 382.884   4
   5  -1  -9 2956.89 405.631   7
   5  -1  -8 332.860 131.934   4
   5  -1  -8 676.762 185.176   7
   5  -1  -7 6672.79 491.162   9
   5  -1  -7 6796.28 552.460   7
   5  -1  -6 5946.06 440.324   9
   5  -1  -6 5634.52 480.538   7
   5  -1  -5 11240.4 584.645   9
   5  -1  -5 11156.8 642.173   7
   5  -1  -4 26425.0 913.884   9
   5  -1  -4 23466.6 984.089   5
   5  -1  -4 24723.2 951.618   7
   5  -1  -3 1349.30 179.656   9
   5  -1  -3 1319.14 153.867   3
   5  -1  -3 1070.63 191.979   5
   5  -1  -3 1069.29 177.905   7
   5  -1  -2 19124.7 717.603   9
   5  -1  -2 18817.4 634.421   3
   5  -1  -2 18815.3 780.249   5
   5  -1  -2 17091.8 707.001   7
   5  -1  -1 7978.56 438.267   9
   5  -1  -1 8695.84 403.985   3
   5  -1  -1 8913.87 495.264   5
   5  -1   0 33218.1 1002.06   9
   5  -1   0 32456.4 914.242   3
   5  -1   0 32871.4 1045.55   5
   5  -1   1 13146.1 594.004   5
   5  -1   1 12892.5 524.238   3
   5  -1   2 13690.4 616.197   5
   5  -1   2 13268.2 548.216   3
   5  -1   3 7449.52 438.118   2
   5  -1   3 8617.50 449.404   3
   5  -1   4 3854.76 285.433   1
   5  -1   4 3913.67 314.688   3
   5  -1   5 4147.47 293.489   1
   5  -1   5 4476.83 363.053   3
   5  -1   6 3938.63 361.260   3
   5  -1   7 17898.9 862.736   3
   5  -1   8 13206.2 780.288   3
   5   0 -10 497.119 193.587   4
   5   0  -9 4086.77 473.017   4
   5   0  -9 5067.38 491.980   9
   5   0  -9 4914.89 538.572   7
   5   0  -8 5436.50 490.139   9
   5   0  -8 6273.67 566.284   7
   5   0  -8 5744.44 530.428   4
   5   0  -7 5606.73 474.557   9
   5   0  -7 5331.79 496.609   7
   5   0  -6 6298.37 481.753   9
   5   0  -6 6959.98 534.210   7
   5   0  -5 3909.20 359.359   9
   5   0  -5 4341.03 389.566   7
   5   0  -4 16514.8 817.632   5
   5   0  -4 18663.8 775.205   9
   5   0  -4 17738.3 781.865   7
   5   0  -3 22395.2 841.229   9
   5   0  -3 23233.8 926.497   5
   5   0  -3 21648.8 833.672   7
   5   0  -2-33.2310 51.5303   9
   5   0  -2-52.7229 83.2786   5
   5   0  -2 38.1126 47.5626   7
   5   0  -1 2936.72 264.961   9
   5   0  -1 2956.30 199.547   3
   5   0  -1 3125.62 296.888   5
   5   0  -1 3196.70 260.691   7
   5   0   0 28244.3 925.036   9
   5   0   0 28910.6 963.210   5
   5   0   0 28774.0 773.837   3
   5   0   1 13368.7 587.045   9
   5   0   1 13633.9 601.234   5
   5   0   1 12634.4 475.484   3
   5   0   2 22415.9 809.615   5
   5   0   2 21992.5 702.627   3
   5   0   3 5639.77 339.543   3
   5   0   4 16204.6 651.367   3
   5   0   5 210.833 91.0412   3
   5   0   6 25594.9 963.337   3
   5   0   7 9382.69 592.441   3
   5   1 -10 1301.35 276.044   9
   5   1  -9 2300.82 346.639   9
   5   1  -8 2328.32 331.555   4
   5   1  -8 3035.99 372.707   9
   5   1  -7 376.329 141.670   4
   5   1  -7 399.727 137.039   9
   5   1  -7 510.800 165.391   7
   5   1  -6 1032.64 213.074   9
   5   1  -6 1033.31 202.558   7
   5   1  -5 4932.27 422.199   9
   5   1  -5 5024.94 419.709   7
   5   1  -4 2576.28 291.029   9
   5   1  -4 2587.67 284.563   7
   5   1  -3 7002.07 459.945   9
   5   1  -3 7401.71 499.346   5
   5   1  -3 7094.54 442.608   7
   5   1  -2 32179.0 1055.61   9
   5   1  -2 31418.0 1084.22   5
   5   1  -2 32932.9 1001.75   7
   5   1  -1 26814.5 918.437   9
   5   1  -1 25633.2 917.225   5
   5   1  -1 25427.6 808.144   7
   5   1   0 16841.2 695.408   5
   5   1   0 17490.2 697.384   9
   5   1   0 17067.5 594.893   7
   5   1   1 13035.9 593.127   9
   5   1   1 13849.6 605.491   5
   5   1   1 13150.3 440.852   3
   5   1   1 13267.0 481.603   7
   5   1   2 19439.8 741.255   9
   5   1   2 18319.4 720.570   5
   5   1   2 19321.8 600.227   3
   5   1   3 31617.9 887.122   3
   5   1   4 550.476 111.514   3
   5   1   5 2399.55 250.601   3
   5   1   6 11693.6 602.977   3
   5   2 -10 886.626 244.913   9
   5   2  -9 720.299 209.435   9
   5   2  -8 3791.24 446.111   9
   5   2  -7 4532.93 457.480   9
   5   2  -6 143.063 114.399   9
   5   2  -6 81.3314 124.636   7
   5   2  -5 125.629 110.101   9
   5   2  -5 120.618 105.590   7
   5   2  -4 6476.84 482.750   9
   5   2  -4 6404.26 455.165   7
   5   2  -3 7103.30 484.803   9
   5   2  -3 7651.03 517.758   5
   5   2  -3 7093.76 445.807   7
   5   2  -2 11637.8 600.534   9
   5   2  -2 11317.0 603.283   5
   5   2  -2 11551.5 536.067   7
   5   2  -1 10344.4 548.657   9
   5   2  -1 10539.1 446.625   8
   5   2  -1 9640.35 528.919   5
   5   2  -1 10384.1 463.579   7
   5   2   0 1890.57 230.184   9
   5   2   0 1722.54 183.264   8
   5   2   0 1392.26 194.491   5
   5   2   0 1681.16 161.818   7
   5   2   1 14750.6 644.424   9
   5   2   1 14303.6 574.641   8
   5   2   1 14531.2 623.780   5
   5   2   1 14077.6 468.248   7
   5   2   2 18309.8 740.770   9
   5   2   2 19917.6 716.652   8
   5   2   2 19041.6 724.473   5
   5   2   2 19096.5 566.104   3
   5   2   3 3817.95 305.561   5
   5   2   3 4061.02 255.221   3
   5   2   4 21020.6 720.401   3
   5   3  -9 249.412 115.958   9
   5   3  -8 2316.16 361.742   9
   5   3  -7 4366.80 484.480   9
   5   3  -6 1166.53 251.066   9
   5   3  -5 702.397 178.417   9
   5   3  -4 4342.95 414.969   9
   5   3  -3 6395.71 475.582   9
   5   3  -3 6456.04 431.410   7
   5   3  -2 7446.22 503.220   9
   5   3  -2 6977.00 473.067   5
   5   3  -2 7846.04 433.825   7
   5   3  -1 11664.5 608.457   9
   5   3  -1 11077.7 580.258   5
   5   3  -1 12222.8 517.880   8
   5   3  -1 12854.9 521.261   7
   5   3   0 446.982 123.975   9
   5   3   0 412.231 96.2256   8
   5   3   0 426.104 115.623   5
   5   3   1 1176.54 177.979   9
   5   3   1 1431.83 181.160   8
   5   3   1 1182.24 173.705   5
   5   3   2 7988.26 472.285   9
   5   3   2 9300.21 476.454   8
   5   3   2 8409.10 456.270   5
   5   3   3 11999.5 580.275   9
   5   3   3 11770.2 570.362   8
   5   3   3 11118.1 532.799   5
   5   3   4 7929.29 474.918   8
   5   4  -8 2843.02 417.481   9
   5   4  -7 1575.08 295.177   9
   5   4  -6 720.315 207.951   9
   5   4  -5 3474.38 410.275   9
   5   4  -4 4004.27 414.944   9
   5   4  -3 1757.71 269.830   9
   5   4  -2 4300.64 394.445   9
   5   4  -2 4635.29 388.037   5
   5   4  -1 9470.25 572.111   9
   5   4  -1 10451.7 564.375   5
   5   4  -1 10653.3 515.891   8
   5   4   0 6325.94 439.872   9
   5   4   0 6681.18 424.782   5
   5   4   0 6747.99 406.841   8
   5   4   1 655.560 150.568   9
   5   4   1 988.472 160.255   8
   5   4   1 860.291 150.900   5
   5   4   2 2270.92 254.457   9
   5   4   2 2252.76 246.551   8
   5   4   2 2758.38 254.829   5
   5   4   3 12045.4 596.924   9
   5   4   3 11706.8 588.549   8
   5   4   3 12154.3 550.359   5
   5   4   4 9985.22 537.811   9
   5   4   4 10377.4 565.542   8
   5   4   4 11594.1 540.117   5
   5   4   5 7836.86 497.808   8
   5   4   6 1648.02 248.993   8
   5   5  -8 2243.38 386.815   9
   5   5  -7 479.164 205.024   9
   5   5  -6 1117.62 246.343   9
   5   5  -5 3704.13 433.765   9
   5   5  -4 2946.91 376.050   9
   5   5  -3 932.026 206.455   9
   5   5  -2 4185.71 406.146   9
   5   5  -1 7230.18 507.215   9
   5   5  -1 7570.38 481.087   5
   5   5  -1 7068.20 443.849   8
   5   5   0 1504.78 229.353   9
   5   5   0 1731.17 212.903   5
   5   5   0 1699.20 217.218   8
   5   5   1 5201.94 404.466   9
   5   5   1 5507.24 367.762   5
   5   5   1 5066.51 380.927   8
   5   5   2 13760.2 662.238   9
   5   5   2 13281.1 651.553   8
   5   5   2 15324.9 623.999   5
   5   5   3 7630.21 478.587   9
   5   5   3 8122.39 507.409   8
   5   5   3 9048.16 462.970   5
   5   5   4 5217.76 393.487   9
   5   5   4 5950.29 433.640   8
   5   5   4 5903.02 369.759   5
   5   5   5 5868.90 446.571   8
   5   5   6 3425.95 350.005   8
   5   5   7 1389.61 252.349   8
   5   6  -7 335.397 176.573   9
   5   6  -6 1496.55 309.384   9
   5   6  -5 830.591 229.659   9
   5   6  -4 818.641 230.338   9
   5   6  -3 7320.69 580.081   9
   5   6  -2 12844.4 752.618   9
   5   6  -1 2804.81 335.583   9
   5   6  -1 2644.17 288.828   8
   5   6   0 805.698 181.606   9
   5   6   0 908.840 171.489   8
   5   6   1 5852.17 439.869   8
   5   6   1 4859.86 404.737   9
   5   6   2 9782.31 568.890   9
   5   6   2 9861.16 580.851   8
   5   6   3 3631.36 330.129   9
   5   6   3 2906.55 318.828   8
   5   6   4 3395.80 320.306   9
   5   6   4 4107.03 377.301   8
   5   6   5 7204.70 511.335   8
   5   6   6 2765.81 330.051   8
   5   6   7 1653.06 266.403   8
   5   6   8 7569.19 563.799   8
   5   7  -6 4.64395 134.963   9
   5   7  -5 1124.30 293.890   9
   5   7  -4 343.223 170.516   9
   5   7  -3 892.176 227.536   9
   5   7  -2 10280.4 692.530   9
   5   7  -1 4060.73 423.010   9
   5   7  -1 4326.76 401.450   8
   5   7   0 1614.00 255.373   9
   5   7   0 1760.89 255.339   8
   5   7   1 4596.16 418.735   8
   5   7   1 4922.32 423.558   9
   5   7   2 2703.55 305.139   9
   5   7   2 2034.39 285.720   8
   5   7   3 2166.88 271.413   9
   5   7   3 2544.04 319.317   8
   5   7   4 13107.3 662.696   9
   5   7   4 13703.7 743.642   8
   5   7   5 6887.76 462.273   9
   5   7   5 7153.42 535.552   8
   5   7   6 346.994 134.910   8
   5   7   7 1699.56 276.157   8
   5   7   8 6079.53 521.405   8
   5   7   9 4988.78 481.281   8
   5   8  -5 124.345 128.981   9
   5   8  -4 1894.60 341.222   9
   5   8  -3 728.605 212.608   9
   5   8  -2 22.0694 84.0666   9
   5   8  -1 718.853 192.685   9
   5   8  -1 575.230 168.846   8
   5   8   0 1286.78 236.638   9
   5   8   0 912.188 203.212   8
   5   8   1 3081.16 344.823   9
   5   8   1 3084.30 360.042   8
   5   8   2 1615.18 242.940   9
   5   8   2 1521.63 266.711   8
   5   8   3 306.835 114.561   9
   5   8   3 420.609 139.337   8
   5   8   4 9507.66 566.913   9
   5   8   4 9565.37 643.343   8
   5   8   5 13004.2 772.516   8
   5   8   6 1462.45 263.395   8
   5   8   7 1327.73 256.376   8
   5   8   8 3630.96 419.416   8
   5   8   9 1829.37 305.144   8
   5   8  10 2523.51 378.364   8
   5   9  -4 775.906 230.440   9
   5   9  -3 760.894 224.169   9
   5   9  -2 377.805 159.642   9
   5   9  -1 869.933 210.837   9
   5   9  -1 1030.56 221.971   8
   5   9   0 1931.01 291.242   9
   5   9   0 1237.96 253.039   8
   5   9   1 81.3646 78.9098   9
   5   9   1-19.6966 97.8890   8
   5   9   2 776.823 188.182   9
   5   9   2 862.186 234.513   8
   5   9   3 3085.20 395.170   8
   5   9   4 588.538 171.072   8
   5   9   5 576.049 185.954   8
   5   9   6 2424.17 350.068   8
   5   9   7 2872.99 393.350   8
   5   9   8 1509.49 285.007   8
   5   9   9 315.050 173.064   8
   5   9  10 1884.48 337.039   8
   5   9  11 7305.49 636.717   8
   5  10  -3 214.110 140.455   9
   5  10  -2 437.591 192.233   9
   5  10  -1 280.389 146.435   9
   5  10  -1 319.503 161.108   8
   5  10   0 6339.57 590.477   8
   5  10   1 9440.32 718.286   8
   5  10   2 477.666 175.192   8
   5  10   3 262.823 166.393   8
   5  10   4 644.960 197.556   8
   5  10   5 329.496 164.405   8
   5  10   6 1085.40 252.778   8
   5  10   7 1166.09 276.495   8
   5  10   8 179.714 179.022   8
   5  10   9 621.266 219.415   8
   5  10  10 1769.99 325.858   8
   5  10  11 1049.25 260.579   8
   5  11   0 285.268 174.718   8
   5  11   1 8641.09 717.301   8
   5  11   2 5899.78 581.705   8
   5  11   3 996.857 269.226   8
   5  11   4 220.749 160.396   8
   5  11   5 35.4556 115.315   8
   5  11   6 2424.02 390.753   8
   5  11   7 8443.43 712.012   8
   5  11   8 782.309 250.958   8
   5  11   9 16.9047 112.628   8
   5  11  10 639.262 228.398   8
   5  12   2 534.357 205.799   8
   5  12   3 614.244 224.857   8
   5  12   4 839.770 258.521   8
   5  12   5 1553.26 313.449   8
   5  12   6 458.934 231.212   8
   5  12   7 4795.27 556.409   8
   6 -10  -5 9818.10 794.900   3
   6 -10  -4 1312.37 296.209   3
   6 -10  -3 598.995 205.464   3
   6 -10  -2 1152.27 284.318   3
   6 -10  -1 900.226 261.391   3
   6 -10   0 4019.95 513.205   3
   6 -10   1 6270.71 629.940   3
   6  -9  -7 917.730 243.471   3
   6  -9  -7 1119.49 286.668   7
   6  -9  -6 766.793 243.540   3
   6  -9  -6 827.820 257.223   7
   6  -9  -5 1274.68 297.816   3
   6  -9  -4 3402.96 448.047   3
   6  -9  -3 297.684 189.067   3
   6  -9  -2 340.974 166.625   3
   6  -9  -1 196.208 176.619   3
   6  -9   0 2117.83 367.381   3
   6  -9   1 18571.5 1069.64   3
   6  -9   2 8294.40 714.117   3
   6  -9   3 9.67357 127.268   3
   6  -8  -8 2801.30 404.036   3
   6  -8  -8 2878.16 432.751   7
   6  -8  -7 3594.15 458.645   3
   6  -8  -7 4639.72 538.372   7
   6  -8  -6 1278.91 277.548   3
   6  -8  -6 700.904 217.162   7
   6  -8  -5 107.042 123.386   3
   6  -8  -4 2476.13 377.395   3
   6  -8  -3 979.048 255.974   3
   6  -8  -2 1527.10 289.197   3
   6  -8  -1 2614.81 373.476   3
   6  -8   0 80.8176 126.775   3
   6  -8   1 159.052 151.908   3
   6  -8   2 6972.81 621.813   3
   6  -8   3 620.420 217.687   3
   6  -8   4 60.5774 116.723   3
   6  -8   5 1438.33 317.692   3
   6  -7  -8 6113.84 579.967   3
   6  -7  -8 6702.77 650.024   7
   6  -7  -7 842.738 232.203   3
   6  -7  -7 334.123 170.686   7
   6  -7  -6 761.659 221.109   3
   6  -7  -6 777.964 236.502   7
   6  -7  -5 5327.36 516.463   3
   6  -7  -5 5504.32 559.296   7
   6  -7  -4 5024.26 494.867   3
   6  -7  -3 4879.18 485.623   3
   6  -7  -2 3325.88 396.156   3
   6  -7  -1 6160.46 543.770   3
   6  -7   0 6077.02 544.512   3
   6  -7   1-153.259 134.951   3
   6  -7   2-20.2258 106.413   3
   6  -7   3 1716.27 306.734   3
   6  -7   4 519.199 173.096   3
   6  -7   5 1311.73 289.200   3
   6  -7   6 454.058 191.358   3
   6  -7   7 67.1896 127.222   3
   6  -6  -9 845.757 227.669   7
   6  -6  -8 2587.75 403.699   7
   6  -6  -7 1506.21 275.663   3
   6  -6  -7 1397.68 286.627   7
   6  -6  -6 2970.78 371.154   3
   6  -6  -6 3494.97 441.005   7
   6  -6  -5 3205.20 385.482   3
   6  -6  -5 3849.88 452.082   7
   6  -6  -4-56.0785 83.2843   3
   6  -6  -3 3706.21 368.632   5
   6  -6  -3 3354.34 379.845   3
   6  -6  -2 21238.4 1003.94   3
   6  -6  -2 22865.7 951.440   5
   6  -6  -1 5098.27 464.105   3
   6  -6  -1 5112.41 417.157   5
   6  -6   0 411.625 146.489   3
   6  -6   0 616.959 156.062   5
   6  -6   1 7375.80 507.389   5
   6  -6   1 7029.88 564.191   3
   6  -6   2 7687.63 520.066   5
   6  -6   2 6339.06 536.264   3
   6  -6   3 4040.99 445.766   3
   6  -6   4 3442.05 421.920   3
   6  -6   5 2109.49 349.835   3
   6  -6   6 3369.53 451.141   3
   6  -6   7 852.883 246.995   3
   6  -6   8 319.665 208.575   3
   6  -5  -9 2763.09 418.149   7
   6  -5  -8 1976.62 345.445   7
   6  -5  -7 1771.48 316.383   7
   6  -5  -6 5487.08 488.451   3
   6  -5  -6 6149.83 561.194   7
   6  -5  -5 3841.94 393.643   3
   6  -5  -5 4704.40 458.902   5
   6  -5  -5 4216.99 452.813   7
   6  -5  -4 425.330 152.767   3
   6  -5  -4 275.208 148.599   5
   6  -5  -4 291.251 146.689   7
   6  -5  -3 760.807 183.943   3
   6  -5  -3 810.339 173.154   5
   6  -5  -2 8107.62 561.259   3
   6  -5  -2 7178.16 506.534   5
   6  -5  -1 5677.38 469.883   3
   6  -5  -1 6179.53 459.465   5
   6  -5   0 1606.51 258.477   3
   6  -5   0 2039.05 254.744   5
   6  -5   1 4249.44 380.040   5
   6  -5   1 4375.42 416.668   3
   6  -5   2 4122.40 373.842   5
   6  -5   2 3989.66 400.541   3
   6  -5   3 2387.92 292.910   5
   6  -5   3 2560.39 331.570   3
   6  -5   4 18439.0 941.272   3
   6  -5   5 10486.8 724.870   3
   6  -5   6 435.689 175.777   3
   6  -5   7 3092.59 418.691   3
   6  -5   8 3098.72 441.145   3
   6  -5   9 213.972 161.402   3
   6  -4 -10 700.700 212.266   7
   6  -4  -9 2322.23 383.990   7
   6  -4  -8 4310.86 494.485   7
   6  -4  -7 2626.62 372.101   7
   6  -4  -6 1502.64 277.828   7
   6  -4  -5 641.391 181.989   5
   6  -4  -5 832.842 183.071   3
   6  -4  -5 321.524 153.833   7
   6  -4  -4 786.484 179.105   3
   6  -4  -4 1155.66 232.948   5
   6  -4  -4 1195.10 237.296   7
   6  -4  -3 9881.81 587.360   3
   6  -4  -3 9695.01 611.690   5
   6  -4  -2 9426.58 566.910   3
   6  -4  -2 8084.64 539.557   5
   6  -4  -1 1076.00 198.054   3
   6  -4  -1 1316.94 209.213   5
   6  -4   0 5304.18 420.802   3
   6  -4   0 4158.95 376.152   5
   6  -4   1 11201.3 624.362   5
   6  -4   1 11602.4 649.275   3
   6  -4   2 2207.07 273.379   5
   6  -4   2 2580.29 310.489   3
   6  -4   3 159.033 98.3586   5
   6  -4   3 213.357 111.077   3
   6  -4   4 4313.43 417.477   3
   6  -4   5 9445.94 653.519   3
   6  -4   6 1259.12 258.923   3
   6  -4   7 503.486 183.175   3
   6  -4   8 2444.00 391.987   3
   6  -4   9 2253.57 381.493   3
   6  -4  10 2616.88 449.476   3
   6  -3 -10 2670.15 438.463   7
   6  -3  -9 4604.79 528.809   7
   6  -3  -8 4234.05 495.155   7
   6  -3  -7 3526.20 423.802   7
   6  -3  -6 241.929 129.616   7
   6  -3  -5 31.6495 97.8610   5
   6  -3  -5 12.8386 108.751   7
   6  -3  -4 2008.09 287.728   5
   6  -3  -4 1986.84 285.292   7
   6  -3  -3 6001.28 405.675   9
   6  -3  -3 6883.12 454.501   3
   6  -3  -3 6636.95 504.456   5
   6  -3  -3 5602.38 457.671   7
   6  -3  -2 9045.83 519.410   3
   6  -3  -2 8677.99 561.877   5
   6  -3  -1 8233.74 493.697   3
   6  -3  -1 7701.07 520.416   5
   6  -3   0 6705.10 444.304   3
   6  -3   0 6501.78 465.845   5
   6  -3   1 3405.26 329.893   5
   6  -3   1 3129.94 308.117   3
   6  -3   2 914.820 179.677   5
   6  -3   2 765.126 169.181   3
   6  -3   3 6529.51 470.626   3
   6  -3   4 13367.6 721.429   3
   6  -3   5 861.584 189.058   3
   6  -3   6 82.1191 110.576   3
   6  -3   7 4203.47 449.580   3
   6  -3   8 2548.22 376.953   3
   6  -3   9 360.899 181.085   3
   6  -2 -10 3045.90 456.149   7
   6  -2  -9 6013.18 611.987   7
   6  -2  -8 699.938 221.158   7
   6  -2  -7 1663.01 298.280   7
   6  -2  -6 10309.9 696.431   7
   6  -2  -5 2555.60 287.025   9
   6  -2  -5 3124.37 377.055   5
   6  -2  -5 2756.09 347.651   7
   6  -2  -4 2068.32 251.130   9
   6  -2  -4 2641.93 339.617   5
   6  -2  -4 2170.21 289.498   7
   6  -2  -3 10840.0 570.408   9
   6  -2  -3 10207.7 635.368   5
   6  -2  -3 9475.54 586.000   7
   6  -2  -2 10008.2 536.895   9
   6  -2  -2 10209.6 513.693   3
   6  -2  -2 9086.97 581.978   5
   6  -2  -2 8965.64 550.621   7
   6  -2  -1 10164.2 514.050   3
   6  -2  -1 9378.47 570.618   5
   6  -2   0 6423.86 459.860   5
   6  -2   0 6373.92 403.031   3
   6  -2   1 260.808 78.8560   5
   6  -2   1 336.474 100.018   3
   6  -2   2 605.412 153.202   5
   6  -2   2 369.223 118.880   3
   6  -2   3 8928.84 524.131   3
   6  -2   4 13996.9 697.652   3
   6  -2   5 5626.91 452.746   3
   6  -2   6 2529.81 325.040   3
   6  -2   7 2842.17 358.707   3
   6  -2   8 510.655 183.593   3
   6  -2   9 465.045 198.288   3
   6  -1  -9 413.589 191.767   7
   6  -1  -8 284.004 166.997   7
   6  -1  -7 106.170 103.615   7
   6  -1  -6 9322.30 600.549   9
   6  -1  -6 8732.03 637.500   7
   6  -1  -5 14620.1 743.230   9
   6  -1  -5 15429.2 815.534   7
   6  -1  -4 5752.21 436.915   9
   6  -1  -4 4963.76 465.276   5
   6  -1  -4 5064.49 435.711   7
   6  -1  -3 14592.2 689.881   9
   6  -1  -3 14588.2 772.733   5
   6  -1  -3 12467.8 666.702   7
   6  -1  -2 10051.7 558.602   9
   6  -1  -2 10770.3 631.431   5
   6  -1  -2 10890.2 587.204   7
   6  -1  -1 3948.96 333.214   9
   6  -1  -1 3730.95 358.776   5
   6  -1  -1 4160.70 339.487   7
   6  -1   0 15505.1 702.139   9
   6  -1   0 17659.4 784.837   5
   6  -1   0 16637.7 634.626   3
   6  -1   1 7712.28 503.744   5
   6  -1   1 8739.15 444.928   3
   6  -1   2 353.100 122.138   5
   6  -1   2 305.203 90.7423   3
   6  -1   3 8278.61 524.803   5
   6  -1   3 8270.55 474.460   3
   6  -1   4 13085.1 633.495   3
   6  -1   5 4072.81 362.898   3
   6  -1   6 7606.06 530.345   3
   6  -1   7 1643.30 270.997   3
   6  -1   8-36.6369 89.3061   3
   6   0  -9 1494.83 322.547   7
   6   0  -8 822.186 206.951   9
   6   0  -8 1751.98 314.843   7
   6   0  -7 2116.61 305.452   9
   6   0  -7 2461.56 360.808   7
   6   0  -6 5486.48 471.143   9
   6   0  -6 4964.24 470.910   7
   6   0  -5 4379.75 405.932   9
   6   0  -5 3780.84 397.424   7
   6   0  -4 2733.07 308.388   9
   6   0  -4 1875.35 293.373   5
   6   0  -4 1850.24 260.276   7
   6   0  -3 1678.43 237.320   9
   6   0  -3 1831.79 283.870   5
   6   0  -3 1755.92 236.217   7
   6   0  -2 4173.95 357.677   9
   6   0  -2 4192.54 392.292   5
   6   0  -2 3582.36 321.126   7
   6   0  -1 596.784 144.869   9
   6   0  -1 652.933 167.485   5
   6   0  -1 801.667 147.974   7
   6   0   0 7210.62 464.496   9
   6   0   0 6995.38 478.562   5
   6   0   1 34467.5 1139.60   9
   6   0   1 34475.5 1173.44   5
   6   0   1 35308.0 969.290   3
   6   0   2 15993.1 732.157   5
   6   0   2 16222.9 619.542   3
   6   0   3 6021.89 438.779   5
   6   0   3 6136.27 380.819   3
   6   0   4 11104.9 556.659   3
   6   0   5 6174.84 434.152   3
   6   0   6 8143.08 533.790   3
   6   0   7 5222.05 463.367   3
   6   0   8 87.0809 101.197   3
   6   1  -9 2442.46 370.480   9
   6   1  -8 213.503 161.459   9
   6   1  -7 2963.44 380.422   9
   6   1  -7 3509.21 431.781   7
   6   1  -6 4076.18 424.894   9
   6   1  -6 4510.39 457.567   7
   6   1  -5 4309.47 422.382   9
   6   1  -5 4175.31 414.375   7
   6   1  -4 14219.9 757.114   9
   6   1  -4 12503.4 772.225   5
   6   1  -4 14494.5 735.944   7
   6   1  -3 76.3287 97.8633   9
   6   1  -3 69.0510 104.718   5
   6   1  -3 146.702 97.9085   7
   6   1  -2 13041.3 678.616   9
   6   1  -2 12761.5 706.098   5
   6   1  -2 13059.7 622.912   7
   6   1  -1 1398.57 212.263   9
   6   1  -1 1417.31 228.961   5
   6   1  -1 1199.65 174.047   7
   6   1   0 19630.6 822.217   9
   6   1   0 18546.0 815.026   5
   6   1   0 19305.6 695.870   7
   6   1   1 12189.7 625.233   9
   6   1   1 11182.2 607.338   5
   6   1   2 10529.6 576.439   9
   6   1   2 9663.20 556.579   5
   6   1   3 6365.40 443.623   5
   6   1   3 6873.20 376.992   3
   6   1   4 4637.09 334.917   3
   6   1   5 5463.63 397.957   3
   6   1   6 2769.52 307.032   3
   6   2  -9 2397.35 382.501   9
   6   2  -8 3547.81 456.223   9
   6   2  -7 3534.41 436.987   9
   6   2  -6 3797.93 432.134   9
   6   2  -6 4271.72 448.262   7
   6   2  -5 1998.76 308.278   9
   6   2  -5 1773.66 277.113   7
   6   2  -4 8555.81 603.613   9
   6   2  -4 9004.11 576.821   7
   6   2  -3 15216.1 792.651   9
   6   2  -3 15749.5 826.335   5
   6   2  -3 16251.5 741.511   7
   6   2  -2 56.3668 92.6107   9
   6   2  -2 251.059 136.028   5
   6   2  -2 117.074 80.9950   7
   6   2  -1-18.3224 69.1248   9
   6   2  -1 228.171 114.784   5
   6   2   0 18908.2 817.196   9
   6   2   0 17343.5 787.296   5
   6   2   1 9835.36 564.417   9
   6   2   1 8296.41 519.680   5
   6   2   2 9233.97 546.774   9
   6   2   2 9380.78 541.129   5
   6   2   3 6233.60 437.421   5
   6   2   4 6505.25 453.668   5
   6   2   4 6312.92 385.448   3
   6   3  -8 2272.50 368.542   9
   6   3  -7 471.463 176.030   9
   6   3  -6 382.610 182.590   9
   6   3  -5 3057.28 392.382   9
   6   3  -4 1381.56 251.422   9
   6   3  -3 2253.39 306.397   9
   6   3  -3 2273.13 318.655   5
   6   3  -2 16488.6 820.439   9
   6   3  -2 16416.0 817.612   5
   6   3  -1 16803.2 815.111   9
   6   3  -1 16744.0 796.812   5
   6   3   0 10203.4 604.048   9
   6   3   0 10085.4 513.333   8
   6   3   0 9986.45 582.795   5
   6   3   1 5944.00 449.710   9
   6   3   1 6224.63 408.750   8
   6   3   1 6411.37 443.824   5
   6   3   2 8413.01 527.051   9
   6   3   2 7869.73 473.053   8
   6   3   2 7599.18 484.231   5
   6   3   3 18273.0 813.931   9
   6   3   3 19551.5 803.655   8
   6   3   3 19321.0 801.768   5
   6   3   4 1146.47 189.560   5
   6   4  -7 2598.14 401.967   9
   6   4  -6 51.6641 91.8080   9
   6   4  -5-27.1800 110.441   9
   6   4  -4 2513.64 348.124   9
   6   4  -3 2540.88 347.272   9
   6   4  -2 5943.96 504.101   9
   6   4  -2 6364.31 501.968   5
   6   4  -1 9416.37 612.408   9
   6   4  -1 10067.7 610.742   5
   6   4   0 1393.63 231.342   9
   6   4   0 1491.05 199.894   8
   6   4   0 1197.61 206.989   5
   6   4   1 5944.56 457.765   9
   6   4   1 5479.61 397.990   8
   6   4   1 5715.82 420.263   5
   6   4   2 10606.0 622.206   9
   6   4   2 12313.4 625.589   8
   6   4   2 11813.9 608.339   5
   6   4   3 2346.44 286.286   9
   6   4   3 2141.95 264.387   8
   6   4   3 2271.32 257.787   5
   6   4   4 9887.00 584.020   8
   6   4   4 9429.02 538.752   5
   6   4   5 24227.7 979.298   8
   6   4   5 23867.9 918.746   5
   6   5  -7 2950.03 447.230   9
   6   5  -6 1535.71 306.941   9
   6   5  -5 396.929 184.216   9
   6   5  -4 1552.89 293.346   9
   6   5  -3 3215.14 394.151   9
   6   5  -2 3964.38 422.310   9
   6   5  -1 4690.64 447.084   9
   6   5  -1 5162.53 440.220   5
   6   5   0 247.963 128.239   9
   6   5   0 226.525 108.927   8
   6   5   0 353.294 138.001   5
   6   5   1 740.431 171.885   9
   6   5   1 681.619 159.770   8
   6   5   1 622.982 140.310   5
   6   5   2 2637.62 313.520   9
   6   5   2 3636.11 349.263   8
   6   5   2 3713.97 332.660   5
   6   5   3 5601.64 451.034   9
   6   5   3 5428.56 437.916   8
   6   5   3 5705.35 408.746   5
   6   5   4 2557.67 301.322   9
   6   5   4 2730.12 281.140   5
   6   5   4 2822.80 319.405   8
   6   5   5 16250.2 803.708   8
   6   5   5 15766.1 717.085   5
   6   5   6 10519.6 645.924   8
   6   5   6 10592.0 587.012   5
   6   6  -6 797.015 271.389   9
   6   6  -5 836.801 240.268   9
   6   6  -4 1714.24 337.782   9
   6   6  -3 924.208 246.750   9
   6   6  -2 1446.03 265.211   9
   6   6  -1 3490.22 396.910   9
   6   6   0 3592.80 390.406   9
   6   6   0 3861.98 370.936   8
   6   6   1 1057.24 226.715   9
   6   6   1 476.847 157.112   8
   6   6   2 274.663 113.602   9
   6   6   2 398.574 142.495   8
   6   6   3 3559.98 367.593   9
   6   6   3 3834.43 381.186   8
   6   6   4 6854.13 500.613   9
   6   6   4 7191.16 529.517   8
   6   6   5 5574.48 473.681   8
   6   6   6 1251.74 237.078   8
   6   6   7 307.599 142.946   8
   6   6   8 1157.34 238.276   8
   6   7  -5 1318.58 294.022   9
   6   7  -4 2334.10 371.843   9
   6   7  -3 486.182 199.404   9
   6   7  -2 586.225 179.638   9
   6   7  -1 2704.02 352.953   9
   6   7   0 987.985 222.100   9
   6   7   0 1215.10 226.470   8
   6   7   1 2054.06 300.873   9
   6   7   1 2582.25 324.431   8
   6   7   2 4755.95 441.739   9
   6   7   2 4907.49 452.228   8
   6   7   3 4691.30 430.008   9
   6   7   3 5123.51 465.988   8
   6   7   4 3537.79 365.692   9
   6   7   4 3621.67 395.804   8
   6   7   5 2868.54 363.289   8
   6   7   6 1830.25 303.748   8
   6   7   7 792.215 218.785   8
   6   7   8 190.667 144.924   8
   6   7   9 830.553 224.308   8
   6   8  -4 863.824 259.693   9
   6   8  -3 3057.78 418.649   9
   6   8  -2 4341.74 492.102   9
   6   8  -1 2223.79 343.385   9
   6   8   0 386.237 163.222   9
   6   8   0 241.783 144.880   8
   6   8   1 1686.07 289.308   9
   6   8   1 2462.04 339.884   8
   6   8   2 4205.43 426.810   9
   6   8   2 4718.99 466.091   8
   6   8   3 2322.53 310.494   9
   6   8   3 2829.34 368.812   8
   6   8   4 1239.02 234.133   9
   6   8   4 1236.00 254.878   8
   6   8   5 2303.36 299.187   9
   6   8   5 2059.26 322.962   8
   6   8   6 1185.91 255.278   8
   6   8   7 829.641 232.154   8
   6   8   8 3793.54 449.380   8
   6   8   9 2563.75 389.762   8
   6   9  -3 346.957 167.084   9
   6   9  -2 4083.33 489.042   9
   6   9  -1 2925.29 403.924   9
   6   9   0 613.755 189.062   9
   6   9   0 694.559 194.958   8
   6   9   1 917.819 222.410   9
   6   9   1 1180.25 253.826   8
   6   9   2 1391.97 260.279   9
   6   9   2 1844.54 313.725   8
   6   9   3 1038.97 212.843   9
   6   9   3 1154.15 258.973   8
   6   9   4 4316.76 473.907   8
   6   9   5 3593.56 450.333   8
   6   9   6 571.160 176.866   8
   6   9   7 464.013 196.605   8
   6   9   8 2963.58 416.983   8
   6   9   9 4181.24 494.133   8
   6   9  10 1984.85 345.515   8
   6  10  -1 255.840 157.357   9
   6  10   0 175.323 109.740   9
   6  10   1 1472.26 303.534   8
   6  10   2 1020.39 250.224   8
   6  10   3 131.939 114.710   8
   6  10   4 3542.15 457.482   8
   6  10   5 7663.80 670.670   8
   6  10   6 1469.76 314.830   8
   6  10   7 93.5385 114.407   8
   6  10   8 2255.47 383.100   8
   6  10   9 1487.41 321.169   8
   6  10  10 1022.30 266.281   8
   6  11   1-266.839 155.113   8
   6  11   2 158.134 101.942   8
   6  11   3 945.495 249.597   8
   6  11   4 756.096 238.943   8
   6  11   5 915.194 246.310   8
   6  11   6 1773.24 361.625   8
   6  11   7 2292.46 397.844   8
   6  11   8 1797.18 349.456   8
   7  -9  -4 6385.33 639.417   3
   7  -9  -3 2681.83 421.541   3
   7  -9  -2 552.811 223.664   3
   7  -9  -1 340.097 168.318   3
   7  -9   0 1964.21 351.523   3
   7  -9   1 166.561 172.395   3
   7  -8  -6 1550.51 321.514   3
   7  -8  -6 2617.66 426.185   7
   7  -8  -5 12735.0 880.361   3
   7  -8  -5 13022.1 922.110   7
   7  -8  -4 3458.02 451.045   3
   7  -8  -3 671.643 222.225   3
   7  -8  -2 1040.66 261.366   3
   7  -8  -1 1521.84 301.912   3
   7  -8   0 3784.81 469.334   3
   7  -8   1 5416.49 565.771   3
   7  -8   2 5883.64 593.231   3
   7  -8   3 4092.26 502.603   3
   7  -8   4 64.4315 110.669   3
   7  -7  -7 1164.32 299.034   7
   7  -7  -6 750.641 229.254   3
   7  -7  -6 942.980 250.698   7
   7  -7  -5 725.570 211.497   3
   7  -7  -5 459.155 199.194   7
   7  -7  -4 3813.10 450.911   3
   7  -7  -3 388.587 158.154   3
   7  -7  -2 690.526 219.895   3
   7  -7  -1 363.251 155.190   3
   7  -7   0 797.583 207.281   3
   7  -7   1 17241.8 985.941   3
   7  -7   2 14181.7 893.662   3
   7  -7   3 442.785 172.421   3
   7  -7   4 528.223 212.278   3
   7  -7   5 1468.10 322.112   3
   7  -6  -7 4368.05 530.527   7
   7  -6  -6 1403.58 298.477   7
   7  -6  -5 197.356 150.606   3
   7  -6  -5 22.5744 97.3510   7
   7  -6  -4 1121.64 237.562   3
   7  -6  -4 1150.36 257.844   7
   7  -6  -3 1619.74 277.240   3
   7  -6  -2 2114.93 333.042   3
   7  -6  -1 3057.98 379.372   3
   7  -6   0 352.939 179.786   3
   7  -6   1 42.9065 82.9377   3
   7  -6   2 9717.79 707.472   3
   7  -6   3 1672.12 304.572   3
   7  -6   4 0.44559 117.949   3
   7  -6   5 2009.72 363.725   3
   7  -6   6 978.173 272.478   3
   7  -6   7 4959.42 568.908   3
   7  -5  -8 7654.08 704.395   7
   7  -5  -7 992.586 257.763   7
   7  -5  -6 226.710 97.2180   7
   7  -5  -5 3790.16 442.943   5
   7  -5  -5 3872.59 460.924   7
   7  -5  -4 5336.89 508.825   5
   7  -5  -4 5476.12 487.447   3
   7  -5  -4 5534.54 536.795   7
   7  -5  -3 6955.42 565.649   5
   7  -5  -3 6621.22 533.398   3
   7  -5  -2 4079.92 423.659   5
   7  -5  -2 4009.42 415.697   3
   7  -5  -1 5910.21 492.327   5
   7  -5  -1 5248.43 468.187   3
   7  -5   0 7961.21 579.793   5
   7  -5   0 8369.60 602.580   3
   7  -5   1 249.848 127.418   5
   7  -5   1 171.186 124.213   3
   7  -5   2 442.033 143.111   5
   7  -5   2 102.170 113.983   3
   7  -5   3 881.934 201.698   5
   7  -5   3 950.869 222.802   3
   7  -5   4 1864.65 290.032   5
   7  -5   4 1802.30 311.422   3
   7  -5   5 2052.33 338.097   3
   7  -5   6 356.512 147.197   3
   7  -5   7-73.7575 116.730   3
   7  -5   8 4931.90 566.288   3
   7  -4  -8 3048.59 436.826   7
   7  -4  -7 2214.87 368.912   7
   7  -4  -6 1378.94 276.247   7
   7  -4  -5 3322.80 425.691   5
   7  -4  -5 3469.93 424.850   7
   7  -4  -4 183.334 122.133   5
   7  -4  -4 506.671 196.664   7
   7  -4  -3 2655.57 357.524   5
   7  -4  -3 2459.70 347.463   7
   7  -4  -2 21330.4 1010.61   5
   7  -4  -2 22398.6 965.478   3
   7  -4  -1 6553.75 524.139   5
   7  -4  -1 8448.74 563.026   3
   7  -4   0 845.013 208.620   5
   7  -4   0 1029.84 209.675   3
   7  -4   1 5562.17 478.248   5
   7  -4   1 5722.99 467.280   3
   7  -4   2 5272.75 461.327   5
   7  -4   2 4996.44 444.319   3
   7  -4   3 3526.83 384.727   5
   7  -4   3 3297.58 376.852   3
   7  -4   4 4036.00 420.963   5
   7  -4   4 4936.07 474.854   3
   7  -4   5 2246.19 327.825   3
   7  -4   6 3559.40 432.213   3
   7  -4   7 1241.74 278.406   3
   7  -4   8 528.320 221.460   3
   7  -4   9 237.993 160.876   3
   7  -3  -8 1099.55 268.753   7
   7  -3  -7 607.771 206.684   7
   7  -3  -6 4243.62 477.145   7
   7  -3  -5 5272.00 538.531   5
   7  -3  -5 4553.85 469.565   7
   7  -3  -4 375.341 174.789   5
   7  -3  -4 256.832 117.759   7
   7  -3  -3 271.281 122.476   5
   7  -3  -3 371.690 147.456   7
   7  -3  -2 6055.14 516.962   5
   7  -3  -2 6337.12 507.791   7
   7  -3  -1 9037.56 613.770   5
   7  -3  -1 8906.44 544.782   3
   7  -3   0 1421.31 239.556   5
   7  -3   0 1279.40 210.615   3
   7  -3   1 2668.98 323.425   5
   7  -3   1 2277.68 277.848   3
   7  -3   2 4619.66 431.926   5
   7  -3   2 5412.97 437.947   3
   7  -3   3 3621.44 384.303   5
   7  -3   3 3855.13 380.122   3
   7  -3   4 14251.1 801.047   5
   7  -3   4 15464.1 813.837   3
   7  -3   5 12417.7 754.515   3
   7  -3   6 633.380 203.352   3
   7  -3   7 2293.19 353.521   3
   7  -3   8 3277.58 445.437   3
   7  -3   9 94.5951 150.457   3
   7  -2  -8 2258.96 378.119   7
   7  -2  -7 1764.53 329.531   7
   7  -2  -6 2036.67 332.683   7
   7  -2  -5 714.739 194.282   7
   7  -2  -4 374.799 131.268   9
   7  -2  -4 403.075 172.990   5
   7  -2  -4 353.788 142.446   7
   7  -2  -3 5497.23 441.424   9
   7  -2  -3 5932.78 531.545   5
   7  -2  -3 5994.17 490.524   7
   7  -2  -2 8387.34 542.326   9
   7  -2  -2 8118.76 597.847   5
   7  -2  -2 7742.04 546.506   7
   7  -2  -1 553.770 144.114   5
   7  -2   0 1728.36 260.830   5
   7  -2   1 9066.74 611.071   5
   7  -2   1 9710.33 546.185   3
   7  -2   2 4111.54 397.090   5
   7  -2   2 4393.45 366.872   3
   7  -2   3 209.688 100.615   3
   7  -2   3 185.108 114.650   5
   7  -2   4 2985.29 328.661   3
   7  -2   4 2780.79 341.751   5
   7  -2   5 11958.4 701.683   3
   7  -2   6 3684.27 411.769   3
   7  -2   7 250.385 146.830   3
   7  -2   8 2095.58 355.928   3
   7  -2   9 2479.41 397.684   3
   7  -1  -8 2218.18 368.302   7
   7  -1  -7 3184.84 429.725   7
   7  -1  -6 585.724 190.248   7
   7  -1  -5 8.69090 75.2294   9
   7  -1  -5 1.50186 97.5773   7
   7  -1  -4 841.641 188.946   9
   7  -1  -4 611.850 188.336   5
   7  -1  -4 679.444 178.971   7
   7  -1  -3 4844.66 424.937   9
   7  -1  -3 4124.44 447.225   5
   7  -1  -3 5058.82 435.226   7
   7  -1  -2 6409.44 483.982   9
   7  -1  -2 6954.92 555.552   5
   7  -1  -2 6276.41 472.360   7
   7  -1  -1 4048.95 376.418   9
   7  -1  -1 4555.29 435.903   5
   7  -1  -1 4436.47 380.285   7
   7  -1   0 5453.72 466.758   5
   7  -1   1 5266.10 455.911   5
   7  -1   2 690.061 180.874   5
   7  -1   2 909.522 165.357   3
   7  -1   3 3695.36 377.033   5
   7  -1   3 3481.75 326.588   3
   7  -1   4 10111.8 645.411   5
   7  -1   4 11148.0 615.043   3
   7  -1   5 1771.40 257.042   3
   7  -1   6 192.779 111.335   3
   7  -1   7 2680.38 354.571   3
   7  -1   8 3001.60 398.484   3
   7   0  -8 835.895 234.694   7
   7   0  -7 1312.70 253.880   9
   7   0  -7 1276.55 284.295   7
   7   0  -6 6124.03 537.822   9
   7   0  -6 6195.54 567.886   7
   7   0  -5 2031.96 301.802   9
   7   0  -5 1599.97 271.377   7
   7   0  -4 865.793 185.361   9
   7   0  -4 749.613 214.090   5
   7   0  -4 804.625 191.712   7
   7   0  -3 5594.21 481.986   9
   7   0  -3 7189.57 583.033   5
   7   0  -3 6624.97 494.226   7
   7   0  -2 6193.76 480.088   9
   7   0  -2 4946.63 466.446   5
   7   0  -2 5072.15 412.013   7
   7   0  -1 6295.63 479.404   9
   7   0  -1 5984.04 493.813   5
   7   0  -1 5938.36 424.123   7
   7   0   0 6112.64 473.240   9
   7   0   0 5987.69 494.199   5
   7   0   1 323.420 129.901   5
   7   0   2 24.5521 97.0283   5
   7   0   3 5314.44 452.489   5
   7   0   4 12196.0 699.933   5
   7   0   4 11968.8 612.276   3
   7   0   5 5246.13 421.979   3
   7   0   6 1449.19 242.218   3
   7   0   7 2621.49 341.174   3
   7   1  -8 510.980 186.852   9
   7   1  -7 138.929 124.951   9
   7   1  -7 89.8992 127.479   7
   7   1  -6 2732.70 374.369   9
   7   1  -6 3165.25 400.467   7
   7   1  -5 10224.7 707.734   9
   7   1  -5 11489.6 731.766   7
   7   1  -4 4410.46 454.880   9
   7   1  -4 4153.33 482.360   5
   7   1  -4 4505.15 425.956   7
   7   1  -3 6279.40 517.566   9
   7   1  -3 7312.66 598.853   5
   7   1  -3 6665.89 492.149   7
   7   1  -2 7519.66 551.619   9
   7   1  -2 7375.51 581.312   5
   7   1  -1 3299.17 358.433   9
   7   1  -1 3260.64 367.343   5
   7   1   0 11027.5 653.854   9
   7   1   0 10075.1 640.972   5
   7   1   1 5222.99 437.018   9
   7   1   1 4401.82 414.505   5
   7   1   2-99.1011 115.378   5
   7   1   3 3438.04 359.298   5
   7   1   4 10059.7 629.313   5
   7   1   5 3329.03 318.758   3
   7   1   6 5104.68 430.260   3
   7   2  -7 862.463 243.902   9
   7   2  -6 2191.31 353.717   9
   7   2  -5 3465.70 428.309   9
   7   2  -4 1582.22 280.248   9
   7   2  -3 852.109 213.590   9
   7   2  -3 1029.18 232.681   5
   7   2  -2 3360.71 389.290   9
   7   2  -2 3185.98 374.325   5
   7   2  -1 1017.16 211.950   9
   7   2  -1 1205.10 231.540   5
   7   2   0 2113.56 293.174   9
   7   2   0 2463.80 310.373   5
   7   2   1 18207.6 870.934   9
   7   2   1 18904.8 877.875   5
   7   2   2 13030.7 720.289   9
   7   2   2 14417.7 748.362   5
   7   2   3 4051.67 385.756   5
   7   2   4 5402.21 453.191   5
   7   2   5 3879.96 381.165   5
   7   3  -7 565.368 227.094   9
   7   3  -6 2545.54 385.319   9
   7   3  -5 2249.45 356.452   9
   7   3  -4 5613.09 544.211   9
   7   3  -3 269.340 146.984   9
   7   3  -3 62.4680 114.956   5
   7   3  -2 5958.86 529.258   9
   7   3  -2 5953.29 521.701   5
   7   3  -1 150.372 88.0875   9
   7   3  -1 53.4639 106.841   5
   7   3   0 8279.60 589.554   9
   7   3   0 8766.23 597.296   5
   7   3   1 6513.27 514.350   9
   7   3   1 5703.29 471.012   5
   7   3   2 7351.78 547.189   9
   7   3   2 7902.46 540.974   5
   7   3   3 4659.51 429.244   9
   7   3   3 4881.42 421.846   5
   7   3   4 3194.25 339.442   5
   7   3   5 5041.31 438.292   5
   7   4  -6 2165.58 374.206   9
   7   4  -5 1741.68 334.461   9
   7   4  -4 2629.83 387.219   9
   7   4  -3 9595.49 705.981   9
   7   4  -2 139.596 120.931   9
   7   4  -2 181.815 137.304   5
   7   4  -1 546.072 178.509   9
   7   4  -1 391.164 154.282   5
   7   4   0 6521.95 538.769   9
   7   4   0 7050.36 535.958   5
   7   4   1 7230.70 556.315   9
   7   4   1 6473.95 463.493   8
   7   4   1 6608.54 504.665   5
   7   4   2 3500.03 382.576   9
   7   4   2 3523.02 346.594   8
   7   4   2 4221.74 393.093   5
   7   4   3 3104.03 357.016   9
   7   4   3 3557.11 357.384   5
   7   4   4 1809.15 262.721   5
   7   4   5 829.849 192.514   5
   7   4   6 6523.09 505.145   5
   7   5  -5 1259.09 295.501   9
   7   5  -4 879.133 237.332   9
   7   5  -3 1080.23 255.541   9
   7   5  -2 7985.38 644.576   9
   7   5  -1 7819.67 629.940   9
   7   5  -1 9683.72 659.842   5
   7   5   0 5924.43 527.103   9
   7   5   0 6125.49 500.659   5
   7   5   1 2465.78 329.084   9
   7   5   1 3053.30 332.747   8
   7   5   1 3076.36 344.270   5
   7   5   2 2674.34 346.497   9
   7   5   2 2506.34 306.715   8
   7   5   2 2312.83 299.519   5
   7   5   3 8586.97 613.530   9
   7   5   3 10089.9 628.647   8
   7   5   3 9446.15 589.893   5
   7   5   4 1315.63 244.247   9
   7   5   4 2200.69 307.209   8
   7   5   4 1804.19 255.852   5
   7   5   5 4480.81 446.745   8
   7   5   5 4702.21 414.359   5
   7   5   6 264.540 117.377   5
   7   5   7 11981.6 696.159   5
   7   6  -4 1044.06 264.727   9
   7   6  -3 924.302 239.510   9
   7   6  -2 1662.40 318.248   9
   7   6  -1 6817.59 596.787   9
   7   6   0 1550.22 285.288   9
   7   6   1 2075.75 316.027   9
   7   6   1 1787.57 267.840   8
   7   6   2 4974.77 477.422   9
   7   6   2 4733.02 438.442   8
   7   6   3 1414.31 253.146   9
   7   6   3 1818.94 290.963   8
   7   6   4 4231.28 429.223   9
   7   6   4 4191.71 431.090   8
   7   6   5 11564.3 729.641   8
   7   6   6 4803.17 482.293   8
   7   7  -3 1735.24 346.299   9
   7   7  -2 1972.08 346.002   9
   7   7  -1 2127.76 346.327   9
   7   7   0 304.111 152.849   9
   7   7   1 528.751 176.221   9
   7   7   1 441.655 159.948   8
   7   7   2 967.960 228.386   9
   7   7   2 1433.06 263.116   8
   7   7   3 2561.73 347.848   9
   7   7   3 2544.32 351.620   8
   7   7   4 789.521 185.739   9
   7   7   4 1515.87 287.987   8
   7   7   5 8708.36 657.440   8
   7   7   6 9427.36 692.568   8
   7   7   7 1097.62 266.513   8
   7   8  -2 1137.46 263.381   9
   7   8  -1 707.121 208.550   9
   7   8   0 1058.17 258.243   9
   7   8   1 264.217 119.537   9
   7   8   1 341.120 153.553   8
   7   8   2-3.67348 94.4287   9
   7   8   2-57.2731 137.933   8
   7   8   3 1008.24 231.490   9
   7   8   3 718.811 205.211   8
   7   8   4 2566.22 348.251   9
   7   8   4 3690.75 442.168   8
   7   8   5 2995.16 404.885   8
   7   8   6 1374.03 275.602   8
   7   8   7-33.7256 124.156   8
   7   8   8 203.114 174.308   8
   7   9  -1 1158.19 277.188   9
   7   9   0 587.014 198.450   9
   7   9   1 895.463 242.132   9
   7   9   2 1492.87 281.836   9
   7   9   2 1833.40 320.959   8
   7   9   3 958.500 237.297   9
   7   9   3 1375.31 286.092   8
   7   9   4 1665.20 318.813   8
   7   9   5 1084.50 261.274   8
   7   9   6 702.765 223.526   8
   7   9   7 412.491 195.133   8
   7   9   8 150.308 147.204   8
   7   9   9-24.6803 126.893   8
   7  10   1 188.811 135.260   9
   7  10   2 1930.13 341.900   8
   7  10   3 1290.30 293.024   8
   7  10   4 536.774 188.545   8
   7  10   5 421.212 194.158   8
   7  10   6 613.780 216.668   8
   7  10   7 548.986 238.534   8
   7  10   8 2293.85 392.781   8
   8  -8  -3 781.902 244.180   3
   8  -8  -2 121.136 133.102   3
   8  -8  -1 1610.22 314.632   3
   8  -8   0 1395.06 303.133   3
   8  -7  -4 8049.62 721.828   7
   8  -7  -3 3797.42 461.624   3
   8  -7  -2 302.798 144.866   3
   8  -7  -1 26.6269 89.6310   3
   8  -7   0 2683.63 387.244   3
   8  -7   1 341.448 170.903   3
   8  -7   2 975.625 249.391   3
   8  -7   3 2297.47 376.180   3
   8  -6  -5 12908.1 910.035   7
   8  -6  -4 5325.52 570.291   7
   8  -6  -3 445.096 188.644   7
   8  -6  -2 807.093 213.054   3
   8  -6  -1 1337.76 270.591   3
   8  -6   0 2933.45 391.605   3
   8  -6   1 4234.17 475.032   3
   8  -6   2 4873.62 513.164   3
   8  -6   3 5845.74 581.415   3
   8  -6   4 173.355 174.572   3
   8  -6   5 661.014 225.526   3
   8  -5  -6 672.314 216.990   7
   8  -5  -5 683.460 215.483   7
   8  -5  -4 4723.75 517.160   5
   8  -5  -4 5389.79 555.558   7
   8  -5  -3 336.177 147.582   5
   8  -5  -3 350.177 157.916   7
   8  -5  -2 437.724 170.033   5
   8  -5  -1 714.783 191.474   5
   8  -5  -1 926.806 209.938   3
   8  -5   0 835.691 220.555   5
   8  -5   0 617.291 189.576   3
   8  -5   1 11198.4 752.077   5
   8  -5   1 15689.8 874.479   3
   8  -5   2 13268.3 833.969   5
   8  -5   2 19466.2 1005.06   3
   8  -5   3 1749.25 303.132   5
   8  -5   3 1780.35 304.599   3
   8  -5   4 426.538 182.546   3
   8  -5   4 1051.82 247.454   5
   8  -5   5 728.140 221.043   3
   8  -5   5 661.400 197.778   5
   8  -5   6 514.466 202.023   3
   8  -5   6 579.315 176.357   5
   8  -5   7 2116.30 345.780   5
   8  -4  -6 2530.17 389.483   7
   8  -4  -5 113.981 127.402   7
   8  -4  -4 38.8288 119.705   5
   8  -4  -4 215.698 165.732   7
   8  -4  -3 1214.55 262.804   5
   8  -4  -3 1183.42 272.427   7
   8  -4  -2 1889.97 318.457   5
   8  -4  -2 1635.90 295.889   7
   8  -4  -1 2327.27 340.282   5
   8  -4   0 137.107 120.742   5
   8  -4   1 74.8965 101.484   5
   8  -4   1 38.6768 78.5191   3
   8  -4   2 11684.7 763.824   5
   8  -4   2 13480.6 785.899   3
   8  -4   3 3933.40 426.959   3
   8  -4   3 3448.99 416.689   5
   8  -4   4 355.331 163.146   3
   8  -4   4 128.093 115.694   5
   8  -4   5 1947.44 326.316   3
   8  -4   5 1929.97 327.029   5
   8  -4   6 2107.02 362.878   3
   8  -4   6 1862.07 317.509   5
   8  -4   7 2734.83 419.356   3
   8  -3  -7 1335.29 320.762   7
   8  -3  -6 748.626 225.014   7
   8  -3  -5 2027.99 344.663   7
   8  -3  -4 2929.59 418.951   5
   8  -3  -4 3061.27 390.549   7
   8  -3  -3 4761.96 511.444   5
   8  -3  -3 3986.47 435.422   7
   8  -3  -2 4025.85 462.632   5
   8  -3  -2 3708.37 419.895   7
   8  -3  -1 3788.41 425.799   5
   8  -3  -1 3597.39 395.233   7
   8  -3   0 7419.82 604.849   5
   8  -3   1 541.163 172.833   5
   8  -3   2 1012.05 231.202   5
   8  -3   2 482.097 136.238   3
   8  -3   3 528.122 157.445   3
   8  -3   3 292.294 115.780   5
   8  -3   4 1200.52 240.156   3
   8  -3   4 1833.25 311.288   5
   8  -3   5 2230.34 336.517   3
   8  -3   5 1858.40 313.992   5
   8  -3   6 351.520 149.270   3
   8  -3   6 732.663 217.708   5
   8  -3   7-67.7510 101.376   3
   8  -3   8 4648.24 546.968   3
   8  -2  -7 1548.77 319.690   7
   8  -2  -6 723.438 221.142   7
   8  -2  -5 2116.75 336.856   7
   8  -2  -4 471.807 184.932   5
   8  -2  -4 721.080 192.685   7
   8  -2  -3 2087.62 347.925   5
   8  -2  -3 1315.38 247.119   7
   8  -2  -2 13357.3 849.848   5
   8  -2  -2 13301.1 774.956   7
   8  -2  -1 8292.07 644.610   5
   8  -2  -1 8431.70 589.530   7
   8  -2   0 978.995 235.096   5
   8  -2   1 4288.09 449.771   5
   8  -2   2 3262.90 396.955   5
   8  -2   3 1559.29 245.809   3
   8  -2   3 1636.37 283.532   5
   8  -2   4 4386.07 456.798   5
   8  -2   4 4558.81 432.724   3
   8  -2   5 1799.37 286.001   3
   8  -2   5 2044.29 339.424   5
   8  -2   6 1994.54 317.657   3
   8  -2   6 2058.87 335.899   5
   8  -2   7 2056.76 340.681   3
   8  -2   8 272.917 124.469   3
   8  -2   9 299.592 212.206   3
   8  -1  -7 231.372 134.145   7
   8  -1  -6 2050.25 352.493   7
   8  -1  -5 3667.04 432.634   7
   8  -1  -4 798.113 208.271   9
   8  -1  -4 633.959 216.952   5
   8  -1  -4 815.696 209.142   7
   8  -1  -3-29.1869 78.7260   9
   8  -1  -3 23.7339 135.037   5
   8  -1  -3 263.576 149.451   7
   8  -1  -2 3247.66 373.539   9
   8  -1  -2 3431.21 432.541   5
   8  -1  -2 2929.93 343.932   7
   8  -1  -1 8098.57 646.649   5
   8  -1   0 1407.61 276.136   5
   8  -1   1 1013.00 236.886   5
   8  -1   2 3290.92 388.188   5
   8  -1   3 3682.90 418.315   5
   8  -1   4 11242.7 734.870   5
   8  -1   5 11951.4 776.300   5
   8  -1   5 12455.0 724.447   3
   8  -1   6 1375.71 261.634   3
   8  -1   6 896.669 224.266   5
   8  -1   7 1874.46 301.718   3
   8  -1   8 2142.96 355.360   3
   8   0  -7 505.805 193.913   7
   8   0  -6 1328.17 267.087   9
   8   0  -6 1020.79 240.356   7
   8   0  -5 1194.02 251.444   9
   8   0  -5 719.117 201.368   7
   8   0  -4 64.5828 93.2545   9
   8   0  -4 470.013 192.898   5
   8   0  -3 2510.01 340.336   9
   8   0  -3 2430.32 382.694   5
   8   0  -2 4457.80 458.575   9
   8   0  -2 5313.61 531.705   5
   8   0  -1 1232.40 240.163   9
   8   0  -1 839.257 228.152   5
   8   0   0 500.181 175.239   5
   8   0   1 5383.32 500.901   5
   8   0   2 4582.94 459.794   5
   8   0   3 226.803 122.586   5
   8   0   4 1200.16 236.485   5
   8   0   5 9339.64 668.656   5
   8   0   6 5227.10 508.355   5
   8   0   6 4697.94 449.800   3
   8   0   7 144.223 127.748   3
   8   1  -6 216.959 136.430   9
   8   1  -5 136.865 99.4174   9
   8   1  -4 149.311 125.383   9
   8   1  -3 3011.67 382.816   9
   8   1  -3 2712.45 407.864   5
   8   1  -2 4261.72 452.003   9
   8   1  -2 4393.70 486.978   5
   8   1  -1 2242.93 329.307   9
   8   1  -1 2317.60 342.389   5
   8   1   0 2177.45 313.224   9
   8   1   0 2505.17 344.548   5
   8   1   1 3510.90 403.864   5
   8   1   2 1125.07 239.788   5
   8   1   3 1474.56 263.624   5
   8   1   4 5520.88 495.686   5
   8   1   5 1927.80 307.104   5
   8   1   6 3.87951 128.420   5
   8   2  -6 2509.56 385.020   9
   8   2  -5 691.668 218.220   9
   8   2  -4 448.232 185.145   9
   8   2  -3 3083.44 402.975   9
   8   2  -3 3034.51 418.611   5
   8   2  -2 2654.03 377.929   9
   8   2  -2 3656.72 450.714   5
   8   2  -1 2828.23 374.993   9
   8   2  -1 3262.55 415.213   5
   8   2   0 3103.31 381.068   9
   8   2   0 3085.35 385.868   5
   8   2   1 510.614 164.728   9
   8   2   1 866.522 210.095   5
   8   2   2 52.2674 111.253   5
   8   2   3 2133.54 311.327   5
   8   2   4 8038.62 601.562   5
   8   2   5 4142.74 433.282   5
   8   2   6 676.442 177.347   5
   8   3  -5 5243.21 563.711   9
   8   3  -4 3421.88 464.985   9
   8   3  -3 3099.38 413.286   9
   8   3  -2 3139.79 411.716   9
   8   3  -2 3939.75 467.604   5
   8   3  -1 2033.16 324.811   9
   8   3  -1 1889.49 314.983   5
   8   3   0 6300.79 560.065   9
   8   3   0 6238.67 552.631   5
   8   3   1 2468.94 351.733   9
   8   3   1 2914.03 370.058   5
   8   3   2 96.0111 92.0490   9
   8   3   2 81.0989 108.823   5
   8   3   3 1816.40 282.964   5
   8   3   4 6954.83 555.494   5
   8   3   5 1581.51 268.469   5
   8   3   6 2948.79 365.806   5
   8   3   7 3407.20 401.253   5
   8   4  -5 1622.66 335.372   9
   8   4  -4 1169.75 290.862   9
   8   4  -3 570.477 188.705   9
   8   4  -2 1586.29 311.973   9
   8   4  -2 1308.74 277.299   5
   8   4  -1 1073.36 246.852   9
   8   4  -1 1842.00 328.313   5
   8   4   0 802.069 227.464   9
   8   4   0 670.177 195.359   5
   8   4   1 7543.59 614.584   9
   8   4   1 7678.68 596.997   5
   8   4   2 8096.50 627.124   9
   8   4   2 8618.02 620.618   5
   8   4   3 2932.34 374.345   9
   8   4   3 3112.89 371.554   5
   8   4   4 3346.53 380.099   5
   8   4   5 2265.24 322.743   5
   8   4   6 3247.39 380.696   5
   8   4   7 3718.53 421.100   5
   8   4   8-23.9186 114.675   5
   8   5  -4 1725.34 351.510   9
   8   5  -3 331.373 195.477   9
   8   5  -2 2140.43 363.845   9
   8   5  -1-106.387 126.136   9
   8   5  -1 45.5934 123.953   5
   8   5   0 2221.21 349.992   9
   8   5   0 2606.35 363.580   5
   8   5   1 2586.97 370.717   9
   8   5   1 3140.24 384.503   5
   8   5   2 4911.87 492.419   9
   8   5   2 5247.45 482.355   5
   8   5   3 2783.91 378.450   9
   8   5   3 4278.57 429.335   5
   8   5   4 1746.12 278.297   5
   8   5   5 2843.22 351.562   5
   8   5   6 2116.91 308.992   5
   8   5   7 2725.79 349.830   5
   8   5   8 5136.92 491.844   5
   8   5   9 1744.75 300.110   5
   8   6  -3 4163.19 529.552   9
   8   6  -2-62.4920 136.990   9
   8   6  -1 1105.86 275.535   9
   8   6   0 1863.64 320.410   9
   8   6   1 4357.32 492.572   9
   8   6   2 1138.76 255.467   9
   8   6   2 2044.65 314.347   8
   8   6   3 1593.77 305.705   9
   8   6   3 1523.25 273.556   8
   8   6   4 281.446 170.962   8
   8   7  -1 4523.88 536.392   9
   8   7   0 2515.74 396.508   9
   8   7   1 1664.38 314.072   9
   8   7   2 1223.40 266.489   9
   8   7   3 3380.35 435.289   9
   8   7   3 3508.52 425.340   8
   8   7   4 1707.86 301.807   9
   8   7   4 1327.60 277.701   8
   8   7   5 2306.48 363.925   8
   8   7   6 138.299 116.095   8
   8   8   0 1559.65 320.972   9
   8   8   1 131.443 133.777   9
   8   8   2 1894.56 331.069   9
   8   8   3 816.112 232.050   9
   8   8   3 688.890 211.657   8
   8   8   4 1202.06 266.535   9
   8   8   4 2328.91 368.960   8
   8   8   5 4402.11 497.339   8
   8   8   6 2387.20 385.785   8
   8   8   7 1227.91 284.983   8
   8   9   2 213.186 131.535   9
   8   9   3 1246.24 275.520   9
   8   9   3 1012.01 256.481   8
   8   9   4 232.094 145.921   9
   8   9   4 499.858 204.981   8
   8   9   5 3545.73 475.973   8
   8   9   6 5589.91 595.013   8
   8   9   7 1785.48 353.062   8
   9  -6  -2 55.1116 110.797   7
   9  -6   1 309.820 167.554   3
   9  -6   2 469.795 182.258   3
   9  -5  -4 5319.44 595.476   5
   9  -5  -3 5414.77 578.334   5
   9  -5  -3 4665.47 524.692   7
   9  -5  -2 374.204 188.976   5
   9  -5  -2 287.706 155.510   7
   9  -5  -1 57.8921 115.559   5
   9  -5   0 1825.92 324.783   5
   9  -5   1 936.782 261.596   5
   9  -5   2 606.866 202.322   5
   9  -5   2 605.880 195.259   3
   9  -5   3 1874.09 325.715   3
   9  -5   3 2085.24 349.458   5
   9  -5   4 348.246 176.760   3
   9  -5   4 360.814 172.238   5
   9  -4  -4 7684.01 708.560   5
   9  -4  -4 6374.44 611.492   7
   9  -4  -3 923.437 251.719   5
   9  -4  -3 610.482 220.353   7
   9  -4  -2 931.354 249.934   5
   9  -4  -2 980.093 240.161   7
   9  -4  -1 1182.29 275.098   5
   9  -4  -1 894.095 219.101   7
   9  -4   0 2244.57 357.229   5
   9  -4   1 3779.08 459.941   5
   9  -4   2 4245.08 493.871   5
   9  -4   3 5530.33 555.363   5
   9  -4   4 441.494 176.277   3
   9  -4   4 442.528 186.526   5
   9  -4   5 818.753 221.037   3
   9  -4   5 1009.29 263.939   5
   9  -4   6 137.886 124.059   3
   9  -3  -5 183.327 135.905   7
   9  -3  -4 5016.73 573.879   5
   9  -3  -4 4582.44 508.476   7
   9  -3  -3 276.066 175.348   5
   9  -3  -3 264.139 137.796   7
   9  -3  -2 141.660 152.410   5
   9  -3  -1 1541.56 301.390   5
   9  -3   0 550.289 198.722   5
   9  -3   1 7978.67 667.045   5
   9  -3   2 20226.2 1087.90   5
   9  -3   3 3697.32 450.336   5
   9  -3   4 99.6728 113.712   5
   9  -3   5 538.222 185.645   3
   9  -3   5 596.781 185.246   5
   9  -3   6 217.108 154.984   3
   9  -3   6 238.458 165.409   5
   9  -3   7 1176.49 275.511   3
   9  -2  -4 566.680 254.169   5
   9  -2  -3 1079.63 288.318   5
   9  -2  -2 1068.25 302.258   5
   9  -2  -1 2410.63 386.670   5
   9  -2   0-88.7235 135.779   5
   9  -2   1-1.34344 119.553   5
   9  -2   2 10252.3 756.676   5
   9  -2   3 5661.86 564.224   5
   9  -2   4 163.471 120.908   5
   9  -2   5 1377.78 306.669   5
   9  -2   6 2306.21 368.839   5
   9  -2   7 1747.01 320.594   3
   9  -2   7 2224.82 364.125   5
   9  -2   8 5894.74 598.301   3
   9  -1  -4 971.725 298.792   5
   9  -1  -3 2709.44 364.334   9
   9  -1  -3 2961.50 445.383   5
   9  -1  -2 3229.59 454.137   5
   9  -1  -1 1995.22 362.072   5
   9  -1   0 4407.66 492.606   5
   9  -1   1 1465.61 298.638   5
   9  -1   2 800.156 224.523   5
   9  -1   3-25.5884 95.8472   5
   9  -1   4 1098.45 260.145   5
   9  -1   5 1587.62 318.222   5
   9  -1   6 302.768 155.986   5
   9  -1   7 169.722 105.612   5
   9  -1   8 4890.87 555.036   5
   9   0  -4 846.995 240.027   9
   9   0  -3 924.176 233.662   9
   9   0  -3 1316.83 323.354   5
   9   0  -2 7594.23 630.445   9
   9   0  -2 8347.28 719.341   5
   9   0  -1 5781.25 585.839   5
   9   0   0 967.415 249.359   5
   9   0   1 2906.88 404.389   5
   9   0   2 1950.29 333.584   5
   9   0   3 618.795 215.974   5
   9   0   4 2912.12 400.403   5
   9   0   5 2370.53 360.787   5
   9   0   6 1223.03 284.809   5
   9   0   7 2330.01 376.431   5
   9   0   8 289.716 195.267   5
   9   1  -4 958.794 243.497   9
   9   1  -3 236.565 141.681   9
   9   1  -3-94.4856 121.225   5
   9   1  -2 1282.31 274.229   9
   9   1  -2 1209.19 293.149   5
   9   1  -1 5239.31 532.556   9
   9   1  -1 5454.60 564.707   5
   9   1   0 1487.43 301.235   5
   9   1   1 433.160 185.001   5
   9   1   2 2263.33 352.703   5
   9   1   3 2994.78 410.433   5
   9   1   4 7551.35 631.720   5
   9   1   5 9748.59 728.675   5
   9   1   6 899.991 225.231   5
   9   1   7 1431.55 286.894   5
   9   1   8 3295.19 451.842   5
   9   2  -4 487.316 193.665   9
   9   2  -3 777.661 241.438   9
   9   2  -3 458.232 198.531   5
   9   2  -2 1770.14 322.859   9
   9   2  -2 2671.48 413.078   5
   9   2  -1 831.260 237.284   9
   9   2  -1 1019.68 250.291   5
   9   2   0 401.540 173.955   9
   9   2   0 337.105 153.539   5
   9   2   1 1697.26 310.992   5
   9   2   2 3127.52 419.152   5
   9   2   3 970.734 253.709   5
   9   2   4 636.735 205.321   5
   9   2   5 6789.96 606.485   5
   9   2   6 5423.17 541.137   5
   9   2   7 295.948 141.801   5
   9   2   8 802.924 225.607   5
   9   2   9 2458.86 382.229   5
   9   3  -3 1218.06 291.163   9
   9   3  -2 3086.14 438.129   9
   9   3  -2 2745.58 435.654   5
   9   3  -1 1464.08 295.840   9
   9   3  -1 1387.19 313.875   5
   9   3   0 869.715 241.552   9
   9   3   0 1000.56 261.678   5
   9   3   1 2337.89 360.542   9
   9   3   1 1933.83 327.843   5
   9   3   2 1686.64 294.012   5
   9   3   3 1048.22 247.166   5
   9   3   4 2775.49 390.920   5
   9   3   5 940.275 230.844   5
   9   3   6 75.9073 105.315   5
   9   3   7 1244.77 264.878   5
   9   3   8 1153.33 263.327   5
   9   3   9 784.724 233.256   5
   9   4  -2 2169.54 370.605   9
   9   4  -1 920.324 258.862   9
   9   4  -1 1063.91 261.965   5
   9   4   0 1554.77 322.513   9
   9   4   0 2164.08 363.257   5
   9   4   1 1141.81 284.665   9
   9   4   1 713.629 229.016   5
   9   4   2 43.8383 99.3626   9
   9   4   2-2.56897 120.668   5
   9   4   3 689.291 208.941   5
   9   4   4 4056.62 456.298   5
   9   4   5 3049.29 402.018   5
   9   4   6 114.862 96.8464   5
   9   4   7 321.989 154.751   5
   9   4   8 1593.52 297.826   5
   9   4   9 1015.45 242.957   5
   9   5  -1 613.782 217.125   9
   9   5  -1 737.531 243.082   5
   9   5   0 3130.07 439.513   9
   9   5   0 2596.31 384.463   5
   9   5   1 2142.75 356.885   9
   9   5   1 1939.88 337.988   5
   9   5   2 79.3262 125.342   9
   9   5   2-131.234 123.483   5
   9   5   3-9.61368 101.228   5
   9   5   4 4245.10 463.527   5
   9   5   5 1495.20 282.838   5
   9   5   6 1235.37 248.264   5
   9   5   7 2133.09 337.987   5
   9   5   8 173.445 98.5244   5
   9   5   9 188.542 153.153   5
   9   6   0 292.397 194.070   9
   9   6   1 3243.58 448.725   9
   9   6   2 4524.15 516.001   9
   9   6   3 1337.45 283.340   9
   9   7   2 2605.44 402.487   9
   9   7   3 2912.59 425.393   9
  10  -3   1 637.930 198.379   5
  10  -3   2 170.526 172.757   5
  10  -2  -1 604.234 239.241   5
  10  -2   0 1004.12 285.739   5
  10  -2   1 2663.58 415.763   5
  10  -2   2 2458.33 406.835   5
  10  -2   3 4843.17 555.724   5
  10  -2   4 887.305 256.364   5
  10  -1  -1 816.760 267.513   5
  10  -1   0 699.437 247.487   5
  10  -1   1 5103.27 571.227   5
  10  -1   2 15638.5 1003.42   5
  10  -1   3 4468.71 531.873   5
  10  -1   4 487.434 221.140   5
  10  -1   5 263.354 164.234   5
  10   0  -1 1391.57 319.883   5
  10   0   0 117.163 183.227   5
  10   0   1 240.243 135.398   5
  10   0   2 6666.83 647.041   5
  10   0   3 7457.97 678.180   5
  10   0   4 57.5958 127.820   5
  10   0   5 772.980 225.434   5
  10   1  -1 1491.19 350.549   5
  10   1   0 2452.98 401.036   5
  10   1   1 1070.43 290.923   5
  10   1   2 263.483 159.541   5
  10   1   3-28.2598 113.784   5
  10   1   4 587.251 224.507   5
  10   1   5 1186.85 294.157   5
  10   1   6 1954.80 379.616   5
  10   2  -1 3302.40 457.856   9
  10   2  -1 3815.90 510.650   5
  10   2   0 1334.96 317.987   5
  10   2   1 2452.38 410.300   5
  10   2   2 1320.11 287.126   5
  10   2   3 68.8059 128.126   5
  10   2   4 1047.59 265.478   5
  10   2   5 2166.10 349.032   5
  10   2   6 657.893 244.868   5
  10   3   0 1758.76 336.187   9
  10   3   0 1488.51 338.611   5
  10   3   1 378.262 202.634   5
  10   3   2 937.415 254.143   5
  10   3   3 1385.99 294.277   5
  10   3   4 3747.32 468.526   5
  10   3   5 5860.98 588.216   5
  10   3   6 715.551 215.759   5
  10   4   1 637.069 227.748   5
  10   4   2 1575.93 324.440   5
  10   4   3 546.663 185.966   5
  10   4   4 367.456 179.425   5
  10   4   5 3131.36 428.228   5
  10   4   6 3517.21 468.336   5
  10   5   2 927.935 268.709   5
  10   5   3 358.870 172.145   5
  10   5   4 1324.36 272.400   5
  10   5   5 785.797 229.615   5
  10   5   6 226.766 146.151   5
   0   0   0    0.00    0.00   0
TITL crystal2 in P1 
REM P1 (#1 in standard setting)
CELL 0.71073   6.243256   8.088371   8.621924  71.5406  79.5730  85.9860
ZERR    1.00   0.000425   0.000557   0.000697   0.0068   0.0062   0.0058
LATT -1
SFAC C H N O Cu
UNIT 14.00 16.00 2.00 4.00 1.00
TREF
HKLF 4
END


;
loop_
_symmetry_equiv_pos_as_xyz
'x, y, z'
'-x, -y, -z'
loop_
_atom_site_label
_atom_site_type_symbol
_atom_site_fract_x
_atom_site_fract_y
_atom_site_fract_z
_atom_site_U_iso_or_equiv
_atom_site_adp_type
_atom_site_occupancy
_atom_site_symmetry_multiplicity
_atom_site_calc_flag
_atom_site_refinement_flags
Cu1 Cu 0.5 0.5 0.5 0.01187(7) Uani 1 2 d S
C1 C 0.8379(2) 0.32047(17) 0.68366(16) 0.0119(2) Uani 1 1 d .
O1 O 0.65119(16) 0.40929(14) 0.67842(12) 0.01452(18) Uani 1 1 d .
C2 C 0.9635(2) 0.27743(17) 0.54560(16) 0.0121(2) Uani 1 1 d .
C21 C 0.9019(2) 0.32469(17) 0.38094(16) 0.0123(2) Uani 1 1 d .
C22 C 1.0536(2) 0.2824(2) 0.24114(17) 0.0160(2) Uani 1 1 d .
H22A H 1.048 0.1574 0.2561 0.024 Uiso 1 1 calc R
H22B H 1.2026 0.3134 0.2411 0.024 Uiso 1 1 calc R
H22C H 1.009 0.3489 0.1353 0.024 Uiso 1 1 calc R
N21 N 0.71588(18) 0.40147(15) 0.35605(14) 0.01249(19) Uani 1 1 d .
O21 O 0.67173(16) 0.43506(14) 0.19570(12) 0.01584(19) Uani 1 1 d .
H21 H 0.5532 0.4903 0.1872 0.024 Uiso 1 1 calc R
C3 C 1.1597(2) 0.18220(17) 0.57114(17) 0.0133(2) Uani 1 1 d .
H3 H 1.2444 0.1526 0.4802 0.016 Uiso 1 1 calc R
C4 C 1.2352(2) 0.12978(17) 0.72013(17) 0.0135(2) Uani 1 1 d .
C41 C 1.4416(2) 0.02213(19) 0.74165(19) 0.0173(2) Uani 1 1 d .
H41A H 1.4093 -0.101 0.765 0.026 Uiso 1 1 calc R
H41B H 1.5007 0.0369 0.8342 0.026 Uiso 1 1 calc R
H41C H 1.5488 0.0607 0.6397 0.026 Uiso 1 1 calc R
C5 C 1.1094(2) 0.17554(18) 0.85296(17) 0.0141(2) Uani 1 1 d .
H5 H 1.1579 0.1428 0.957 0.017 Uiso 1 1 calc R
C6 C 0.9162(2) 0.26751(18) 0.83440(17) 0.0139(2) Uani 1 1 d .
H6 H 0.8337 0.2958 0.9268 0.017 Uiso 1 1 calc R
loop_
_atom_site_aniso_label
_atom_site_aniso_U_11
_atom_site_aniso_U_22
_atom_site_aniso_U_33
_atom_site_aniso_U_23
_atom_site_aniso_U_13
_atom_site_aniso_U_12
Cu1 0.01131(10) 0.01374(11) 0.01114(11) -0.00484(8) -0.00253(7) 0.00226(7)
C1 0.0112(5) 0.0120(5) 0.0121(5) -0.0034(4) -0.0018(4) -0.0003(4)
O1 0.0127(4) 0.0194(5) 0.0123(4) -0.0064(4) -0.0037(3) 0.0051(3)
C2 0.0126(5) 0.0122(5) 0.0118(5) -0.0039(4) -0.0024(4) 0.0000(4)
C21 0.0121(5) 0.0122(5) 0.0133(5) -0.0052(4) -0.0021(4) 0.0005(4)
C22 0.0146(5) 0.0216(6) 0.0133(6) -0.0082(5) -0.0030(4) 0.0036(5)
N21 0.0134(4) 0.0152(5) 0.0098(4) -0.0046(4) -0.0036(4) 0.0011(4)
O21 0.0158(4) 0.0219(5) 0.0123(4) -0.0080(4) -0.0062(3) 0.0059(4)
C3 0.0126(5) 0.0142(5) 0.0135(5) -0.0048(4) -0.0025(4) 0.0012(4)
C4 0.0119(5) 0.0128(5) 0.0157(6) -0.0040(4) -0.0032(4) 0.0010(4)
C41 0.0152(5) 0.0173(6) 0.0202(6) -0.0061(5) -0.0061(5) 0.0046(5)
C5 0.0147(5) 0.0137(5) 0.0135(5) -0.0031(4) -0.0036(4) 0.0002(4)
C6 0.0147(5) 0.0156(6) 0.0113(5) -0.0040(4) -0.0028(4) 0.0013(4)
loop_
_atom_type_symbol
_atom_type_description
_atom_type_scat_dispersion_real
_atom_type_scat_dispersion_imag
_atom_type_scat_source
C C 0.0033 0.0016 'International Tables Vol C Tables 4.2.6.8 and 6.1.1.4'
H H 0 0 'International Tables Vol C Tables 4.2.6.8 and 6.1.1.4'
N N 0.0061 0.0033 'International Tables Vol C Tables 4.2.6.8 and 6.1.1.4'
O O 0.0106 0.006 'International Tables Vol C Tables 4.2.6.8 and 6.1.1.4'
Cu Cu 0.3201 1.2651 'International Tables Vol C Tables 4.2.6.8 and 6.1.1.4'
loop_
_exptl_crystal_face_index_h
_exptl_crystal_face_index_k
_exptl_crystal_face_index_l
_exptl_crystal_face_perp_dist
0 0 1 0.0489
0 0 -1 0.0234
0 2 1 0.0317
0 -2 -1 0.0254
1 0 0 0.146
-1 0 0 0.148
loop_
_geom_angle_atom_site_label_1
_geom_angle_atom_site_label_2
_geom_angle_atom_site_label_3
_geom_angle
_geom_angle_site_symmetry_1
_geom_angle_site_symmetry_3
O1 Cu1 O1 180 2_666 .
O1 Cu1 N21 91.73(5) 2_666 2_666
O1 Cu1 N21 88.27(5) . 2_666
O1 Cu1 N21 88.27(5) 2_666 .
O1 Cu1 N21 91.73(5) . .
N21 Cu1 N21 180 2_666 .
O1 C1 C6 117.36(11) . .
O1 C1 C2 124.19(12) . .
C6 C1 C2 118.44(12) . .
C1 O1 Cu1 128.94(9) . .
C3 C2 C1 117.36(12) . .
C3 C2 C21 118.32(11) . .
C1 C2 C21 124.32(12) . .
N21 C21 C2 119.97(11) . .
N21 C21 C22 120.15(12) . .
C2 C21 C22 119.88(12) . .
C21 C22 H22A 109.5 . .
C21 C22 H22B 109.5 . .
H22A C22 H22B 109.5 . .
C21 C22 H22C 109.5 . .
H22A C22 H22C 109.5 . .
H22B C22 H22C 109.5 . .
C21 N21 O21 114.87(10) . .
C21 N21 Cu1 130.35(9) . .
O21 N21 Cu1 114.44(8) . .
N21 O21 H21 109.5 . .
C4 C3 C2 123.87(12) . .
C4 C3 H3 118.1 . .
C2 C3 H3 118.1 . .
C3 C4 C5 117.46(12) . .
C3 C4 C41 121.42(12) . .
C5 C4 C41 121.09(13) . .
C4 C41 H41A 109.5 . .
C4 C41 H41B 109.5 . .
H41A C41 H41B 109.5 . .
C4 C41 H41C 109.5 . .
H41A C41 H41C 109.5 . .
H41B C41 H41C 109.5 . .
C6 C5 C4 120.81(13) . .
C6 C5 H5 119.6 . .
C4 C5 H5 119.6 . .
C5 C6 C1 122.05(12) . .
C5 C6 H6 119 . .
C1 C6 H6 119 . .
loop_
_geom_bond_atom_site_label_1
_geom_bond_atom_site_label_2
_geom_bond_distance
_geom_bond_site_symmetry_2
Cu1 O1 1.8734(10) 2_666
Cu1 O1 1.8734(10) .
Cu1 N21 1.9654(11) 2_666
Cu1 N21 1.9654(11) .
C1 O1 1.3258(16) .
C1 C6 1.3999(19) .
C1 C2 1.4282(18) .
C2 C3 1.4140(19) .
C2 C21 1.4640(19) .
C21 N21 1.2980(17) .
C21 C22 1.5065(18) .
C22 H22A 0.98 .
C22 H22B 0.98 .
C22 H22C 0.98 .
N21 O21 1.3967(15) .
O21 H21 0.84 .
C3 C4 1.378(2) .
C3 H3 0.95 .
C4 C5 1.4027(19) .
C4 C41 1.5100(19) .
C41 H41A 0.98 .
C41 H41B 0.98 .
C41 H41C 0.98 .
C5 C6 1.3796(19) .
C5 H5 0.95 .
C6 H6 0.95 .
loop_
_geom_hbond_atom_site_label_D
_geom_hbond_atom_site_label_H
_geom_hbond_atom_site_label_A
_geom_hbond_distance_DH
_geom_hbond_distance_HA
_geom_hbond_distance_DA
_geom_hbond_angle_DHA
_geom_hbond_site_symmetry_A
O21 H21 O1 0.84 1.88 2.5584(14) 136.5 2_666
