#------------------------------------------------------------------------------
#$Date: 2019-11-17 15:35:04 +0200 (Sun, 17 Nov 2019) $
#$Revision: 230913 $
#$URL: file:///home/coder/svn-repositories/cod/cif/7/22/98/7229847.cif $
#------------------------------------------------------------------------------
#
# This file is available in the Crystallography Open Database (COD),
# http://www.crystallography.net/
#
# All data on this site have been placed in the public domain by the
# contributors.
#
data_7229847
loop_
_publ_author_name
'Cappuccino, C.'
'Mazzeo, P. P.'
'Salzillo, T.'
'Venuti, E.'
'Giunchi, A.'
'Della Valle, R. G.'
'Brillante, A.'
'Bettini, C.'
'Melucci, M.'
'Maini, L.'
_publ_section_title
;
 A synergic approach of X-ray powder diffraction and Raman spectroscopy
 for crystal structure determination of 2,3-thienoimide capped
 oligothiophenes.
;
_journal_issue                   5
_journal_name_full               'Physical chemistry chemical physics : PCCP'
_journal_page_first              3630
_journal_page_last               3636
_journal_paper_doi               10.1039/c7cp06679a
_journal_volume                  20
_journal_year                    2018
_chemical_formula_moiety         'C32 H32 N2 O4 S4'
_chemical_formula_sum            'C32 H32 N2 O4 S4'
_chemical_formula_weight         636.87
_space_group_IT_number           2
_space_group_name_Hall           '-P 1'
_space_group_name_H-M_alt        'P -1'
_symmetry_cell_setting           triclinic
_symmetry_space_group_name_Hall  '-P 1'
_symmetry_space_group_name_H-M   'P -1'
_audit_update_record
;
2017-09-01 deposited with the CCDC.
2018-01-02 downloaded from the CCDC.
;
_cell_angle_alpha                87.035(5)
_cell_angle_beta                 84.310(4)
_cell_angle_gamma                85.513(4)
_cell_formula_units_Z            1
_cell_length_a                   4.914(6)
_cell_length_b                   5.655(7)
_cell_length_c                   28.95(3)
_cell_measurement_temperature    298
_cell_volume                     797.3(16)
_diffrn_ambient_temperature      298
_diffrn_measurement_device_type  'transimission geometry'
_diffrn_radiation_probe          x-ray
_diffrn_radiation_type           synchrotron
_diffrn_radiation_wavelength     0.775375
_exptl_crystal_density_diffrn    1.327
_pd_char_colour                  orange
_pd_meas_number_of_points        8195
_pd_proc_2theta_range_inc        0.0036
_pd_proc_2theta_range_max        29.99880
_pd_proc_2theta_range_min        0.5004
_pd_proc_ls_prof_R_factor        0.0281
_pd_proc_ls_prof_wR_expected     0.0032
_pd_proc_ls_prof_wR_factor       0.0338
_refine_ls_goodness_of_fit_all   10.53259
_refine_ls_hydrogen_treatment    noref
_refine_ls_number_parameters     80
_refine_ls_R_I_factor            0.0171
_refine_ls_shift/su_max          0
_reflns_d_resolution_high        1.4747
_reflns_limit_h_max              3
_reflns_limit_h_min              0
_reflns_limit_k_max              3
_reflns_limit_k_min              -3
_reflns_limit_l_max              19
_reflns_limit_l_min              -18
_reflns_number_total             520
_cod_data_source_file            c7cp06679a2.cif
_cod_data_source_block           C6NT4N
_cod_depositor_comments
;
The following automatic conversions were performed:

'_symmetry_cell_setting' value 'Triclinic' changed to 'triclinic'
according to
/home/data/users/saulius/crontab/automatic-downloads/rss-feeds/RSC/lib/dictionaries/cif_core.dic
dictionary named 'cif_core.dic' version 2.4.2 from 2011-04-26.

Automatic conversion script
Id: cif_fix_values 4973 2017-02-22 13:04:09Z antanas 

 Adding full bibliography for 7229847--7229848.cif.
;
_cod_original_cell_volume        797(2)
_cod_original_sg_symbol_H-M      P-1
_cod_database_code               7229847
loop_
_symmetry_equiv_pos_as_xyz
'x, y, z '
'-x, -y, -z '
loop_
_atom_site_label
_atom_site_type_symbol
_atom_site_symmetry_multiplicity
_atom_site_fract_x
_atom_site_fract_y
_atom_site_fract_z
_atom_site_occupancy
_atom_site_B_iso_or_equiv
C1 C 2 0.03033514 -0.04112818 0.02325277 1 3
S1 S 2 0.2558096 0.1102352 0.05159239 1 3
C2 C 2 -0.05750441 -0.2241498 0.05121278 1 3
C4 C 2 0.2244278 -0.08148755 0.1019534 1 3
C3 C 2 0.04950416 -0.2446126 0.09401565 1 3
C5 C 2 0.3887211 -0.01042629 0.1356768 1 3
C6 C 2 0.4345719 -0.1169303 0.1785066 1 3
S2 S 2 0.5662099 0.2466446 0.1242208 1 3
C7 C 2 0.6116221 0.00498375 0.2025254 1 3
C10 C 2 0.694967 0.2033649 0.1764058 1 3
C8 C 2 0.7373459 -0.01106684 0.2467304 1 3
C9 C 2 0.8756798 0.3122687 0.204845 1 3
N1 N 2 0.8971758 0.1845647 0.2455569 1 3
O1 O 2 0.7152927 -0.1576336 0.2786215 1 3
O2 O 2 0.9988788 0.4894838 0.1970232 1 3
C11 C 2 1.058013 0.2364701 0.2830279 1 5
C12 C 2 0.8879286 0.358167 0.3223015 1 5
C13 C 2 0.9877371 0.2959598 0.3691153 1 5
C14 C 2 1.031707 0.5084695 0.3957901 1 5
C15 C 2 0.7702728 0.6438511 0.4135568 1 5
C16 C 2 0.8221602 0.8003928 0.4525171 1 5
H2 H 2 -0.227675 -0.329077 0.042163 1 3
H3 H 2 -0.042465 -0.368226 0.121755 1 3
H6 H 2 0.305418 -0.271135 0.194827 1 3
H16B H 2 0.990614 0.925594 0.437991 1 3
H16C H 2 0.644991 0.916791 0.462549 1 3
H16A H 2 0.899336 0.699319 0.480378 1 3
H15A H 2 0.612543 0.536369 0.426106 1 3
H15B H 2 0.703821 0.762644 0.383719 1 3
H14B H 2 1.158964 0.612335 0.373645 1 3
H14A H 2 1.131919 0.440301 0.426862 1 3
H13A H 2 1.158591 0.173316 0.367085 1 3
H13B H 2 0.811053 0.196885 0.391305 1 3
H12A H 2 0.666875 0.310995 0.323721 1 3
H12B H 2 0.897248 0.5403 0.31587 1 3
H11B H 2 1.214434 0.321874 0.271198 1 3
H11A H 2 1.128721 0.048635 0.300089 1 3
loop_
_pd_proc_point_id
_pd_meas_2theta_scan
_pd_proc_intensity_total
_pd_calc_intensity_total
_pd_proc_ls_weight
1 0.50040 0.00000 230.30334 0.00000
2 0.50400 0.00000 232.89397 0.00000
3 0.50760 0.00000 233.76601 0.00000
4 0.51120 0.00000 236.25891 0.00000
5 0.51480 0.00000 235.93610 0.00000
6 0.51840 0.00000 239.07027 0.00000
7 0.52200 0.00000 240.10514 0.00000
8 0.52560 0.00000 243.53589 0.00000
9 0.52920 0.00000 245.41125 0.00000
10 0.53280 0.00000 247.37235 0.00000
11 0.53640 0.00000 246.84621 0.00000
12 0.54000 0.00000 250.75505 0.00000
13 0.54360 0.00000 252.06311 0.00000
14 0.54720 0.00000 253.19010 0.00000
15 0.55080 0.00000 255.52448 0.00000
16 0.55440 0.00000 257.51349 0.00000
17 0.55800 0.00000 258.72926 0.00000
18 0.56160 0.00000 260.19405 0.00000
19 0.56520 0.00000 261.48599 0.00000
20 0.56880 0.00000 263.33156 0.00000
21 0.57240 0.00000 264.30558 0.00000
22 0.57600 0.00000 266.28468 0.00000
23 0.57960 0.00000 267.73135 0.00000
24 0.58320 0.00000 267.76616 0.00000
25 0.58680 0.00000 271.02530 0.00000
26 0.59040 0.00000 270.36305 0.00000
27 0.59400 0.00000 272.12316 0.00000
28 0.59760 0.00000 275.05264 0.00000
29 0.60120 0.00000 275.04247 0.00000
30 0.60480 0.00000 275.21127 0.00000
31 0.60840 0.00000 278.36580 0.00000
32 0.61200 0.00000 280.54966 0.00000
33 0.61560 0.00000 280.43008 0.00000
34 0.61920 0.00000 281.49797 0.00000
35 0.62280 0.00000 283.81763 0.00000
36 0.62640 0.00000 285.15219 0.00000
37 0.63000 0.00000 286.69538 0.00000
38 0.63360 0.00000 287.84879 0.00000
39 0.63720 0.00000 289.50728 0.00000
40 0.64080 0.00000 289.64233 0.00000
41 0.64440 0.00000 289.08741 0.00000
42 0.64800 0.00000 291.35014 0.00000
43 0.65160 0.00000 292.01734 0.00000
44 0.65520 0.00000 293.26343 0.00000
45 0.65880 0.00000 292.84940 0.00000
46 0.66240 0.00000 294.79375 0.00000
47 0.66600 0.00000 294.99035 0.00000
48 0.66960 0.00000 296.48888 0.00000
49 0.67320 0.00000 296.79116 0.00000
50 0.67680 0.00000 298.53627 0.00000
51 0.68040 0.00000 299.25494 0.00000
52 0.68400 0.00000 298.86668 0.00000
53 0.68760 0.00000 299.02586 0.00000
54 0.69120 0.00000 299.66072 0.00000
55 0.69480 0.00000 299.43449 0.00000
56 0.69840 0.00000 299.40242 0.00000
57 0.70200 0.00000 300.86902 0.00000
58 0.70560 0.00000 300.89983 0.00000
59 0.70920 0.00000 303.13545 0.00000
60 0.71280 0.00000 305.17841 0.00000
61 0.71640 0.00000 304.14411 0.00000
62 0.72000 0.00000 304.60995 0.00000
63 0.72360 0.00000 305.00796 0.00000
64 0.72720 0.00000 305.61404 0.00000
65 0.73080 0.00000 307.34391 0.00000
66 0.73440 0.00000 308.62109 0.00000
67 0.73800 0.00000 308.48728 0.00000
68 0.74160 0.00000 308.09977 0.00000
69 0.74520 0.00000 309.72899 0.00000
70 0.74880 0.00000 311.21333 0.00000
71 0.75240 0.00000 311.51390 0.00000
72 0.75600 0.00000 312.23315 0.00000
73 0.75960 0.00000 312.38062 0.00000
74 0.76320 0.00000 314.19301 0.00000
75 0.76680 0.00000 314.43188 0.00000
76 0.77040 0.00000 315.03104 0.00000
77 0.77400 0.00000 316.46701 0.00000
78 0.77760 0.00000 314.56674 0.00000
79 0.78120 0.00000 315.11841 0.00000
80 0.78480 0.00000 315.00290 0.00000
81 0.78840 0.00000 315.36487 0.00000
82 0.79200 0.00000 316.25781 0.00000
83 0.79560 0.00000 316.66189 0.00000
84 0.79920 0.00000 317.50281 0.00000
85 0.80280 0.00000 317.55301 0.00000
86 0.80640 0.00000 318.07620 0.00000
87 0.81000 0.00000 319.77204 0.00000
88 0.81360 0.00000 318.05513 0.00000
89 0.81720 0.00000 319.11469 0.00000
90 0.82080 0.00000 320.57515 0.00000
91 0.82440 0.00000 321.64530 0.00000
92 0.82800 0.00000 321.59640 0.00000
93 0.83160 0.00000 322.00747 0.00000
94 0.83520 0.00000 321.32603 0.00000
95 0.83880 0.00000 322.25302 0.00000
96 0.84240 0.00000 323.63758 0.00000
97 0.84600 0.00000 324.19905 0.00000
98 0.84960 0.00000 323.76573 0.00000
99 0.85320 0.00000 324.34728 0.00000
100 0.85680 0.00000 326.21011 0.00000
101 0.86040 0.00000 326.52254 0.00000
102 0.86400 0.00000 327.92889 0.00000
103 0.86760 0.00000 326.56695 0.00000
104 0.87120 0.00000 328.28660 0.00000
105 0.87480 0.00000 327.21547 0.00000
106 0.87840 0.00000 328.91170 0.00000
107 0.88200 0.00000 327.48859 0.00000
108 0.88560 0.00000 328.41901 0.00000
109 0.88920 0.00000 329.84789 0.00000
110 0.89280 0.00000 329.77287 0.00000
111 0.89640 0.00000 330.80240 0.00000
112 0.90000 0.00000 331.54845 0.00000
113 0.90360 0.00000 331.41133 0.00000
114 0.90720 0.00000 332.22196 0.00000
115 0.91080 0.00000 332.80071 0.00000
116 0.91440 0.00000 332.99298 0.00000
117 0.91800 0.00000 332.49157 0.00000
118 0.92160 0.00000 332.89190 0.00000
119 0.92520 0.00000 333.64224 0.00000
120 0.92880 0.00000 335.93385 0.00000
121 0.93240 0.00000 335.03334 0.00000
122 0.93600 0.00000 334.21700 0.00000
123 0.93960 0.00000 337.07310 0.00000
124 0.94320 0.00000 337.23803 0.00000
125 0.94680 0.00000 338.64971 0.00000
126 0.95040 0.00000 337.72228 0.00000
127 0.95400 0.00000 337.75522 0.00000
128 0.95760 0.00000 337.79395 0.00000
129 0.96120 0.00000 339.67089 0.00000
130 0.96480 0.00000 341.19644 0.00000
131 0.96840 0.00000 340.55672 0.00000
132 0.97200 0.00000 341.27818 0.00000
133 0.97560 0.00000 342.04471 0.00000
134 0.97920 0.00000 341.83825 0.00000
135 0.98280 0.00000 343.42465 0.00000
136 0.98640 0.00000 345.41691 0.00000
137 0.99000 0.00000 343.51537 0.00000
138 0.99360 0.00000 346.42678 0.00000
139 0.99720 0.00000 349.57647 0.00000
140 1.00080 0.00000 349.07188 0.00000
141 1.00440 0.00000 347.85733 0.00000
142 1.00800 0.00000 350.52284 0.00000
143 1.01160 0.00000 351.96130 0.00000
144 1.01520 0.00000 354.21313 0.00000
145 1.01880 0.00000 356.37909 0.00000
146 1.02240 0.00000 357.03343 0.00000
147 1.02600 0.00000 358.67121 0.00000
148 1.02960 0.00000 362.25991 0.00000
149 1.03320 0.00000 365.59769 0.00000
150 1.03680 0.00000 369.98847 0.00000
151 1.04040 0.00000 372.94410 0.00000
152 1.04400 0.00000 380.09163 0.00000
153 1.04760 0.00000 386.45982 0.00000
154 1.05120 0.00000 391.34582 0.00000
155 1.05480 0.00000 398.52219 0.00000
156 1.05840 0.00000 412.08239 0.00000
157 1.06200 0.00000 428.95631 0.00000
158 1.06560 0.00000 452.42072 0.00000
159 1.06920 0.00000 485.27564 0.00000
160 1.07280 0.00000 506.80328 0.00000
161 1.07640 0.00000 482.34144 0.00000
162 1.08000 0.00000 431.14215 0.00000
163 1.08360 0.00000 393.16588 0.00000
164 1.08720 0.00000 378.98297 0.00000
165 1.09080 0.00000 376.15453 0.00000
166 1.09440 0.00000 372.54904 0.00000
167 1.09800 0.00000 370.41522 0.00000
168 1.10160 0.00000 371.85631 0.00000
169 1.10520 0.00000 372.61239 0.00000
170 1.10880 0.00000 372.08430 0.00000
171 1.11240 0.00000 371.64064 0.00000
172 1.11600 0.00000 374.80209 0.00000
173 1.11960 0.00000 375.94059 0.00000
174 1.12320 0.00000 375.26067 0.00000
175 1.12680 0.00000 377.77059 0.00000
176 1.13040 0.00000 377.87598 0.00000
177 1.13400 0.00000 379.68921 0.00000
178 1.13760 382.76104 380.65850 0.83994
179 1.14120 383.03782 378.83741 0.84887
180 1.14480 383.31781 379.63933 0.84240
181 1.14840 383.60119 380.25270 0.84257
182 1.15200 383.88813 382.40978 0.83682
183 1.15560 384.17881 382.78290 0.83295
184 1.15920 384.47343 384.36469 0.83233
185 1.16280 384.77219 385.90122 0.85016
186 1.16640 385.07532 386.00241 0.93243
187 1.17000 385.38304 387.05016 0.92320
188 1.17360 385.69559 388.36479 0.91782
189 1.17720 386.01324 388.09795 0.90757
190 1.18080 386.33624 389.10758 0.91009
191 1.18440 386.66489 391.15500 0.89547
192 1.18800 386.99950 391.57401 0.90397
193 1.19160 387.34039 390.88763 0.89810
194 1.19520 387.68790 391.87232 0.90112
195 1.19880 388.04239 393.42333 0.89105
196 1.20240 388.40425 396.63477 0.88805
197 1.20600 388.77390 396.10317 0.88617
198 1.20960 389.15177 395.83882 0.89180
199 1.21320 389.53833 395.99636 0.88694
200 1.21680 389.93408 398.13261 0.88582
201 1.22040 390.33955 399.66633 0.87857
202 1.22400 390.75531 399.46577 0.88166
203 1.22760 391.18197 403.01146 0.87146
204 1.23120 391.62018 403.78656 0.87282
205 1.23480 392.07063 404.82938 0.86897
206 1.23840 392.53408 404.71285 0.86812
207 1.24200 393.01132 405.23092 0.86850
208 1.24560 393.50322 408.07093 0.86053
209 1.24920 394.01072 407.88739 0.86306
210 1.25280 394.53480 408.83584 0.86000
211 1.25640 395.07655 409.65425 0.86156
212 1.26000 395.63713 410.40070 0.85338
213 1.26360 396.21781 412.53301 0.85346
214 1.26720 396.81995 413.55403 0.84714
215 1.27080 397.44502 413.97812 0.85108
216 1.27440 398.09463 414.09775 0.84724
217 1.27800 398.77053 417.33815 0.84563
218 1.28160 399.47461 417.33584 0.83826
219 1.28520 400.20896 420.17746 0.83705
220 1.28880 400.97582 420.14767 0.83396
221 1.29240 401.77767 423.34556 0.82896
222 1.29600 402.61724 425.53104 0.82315
223 1.29960 403.49749 427.91287 0.82481
224 1.30320 404.42170 428.78505 0.82161
225 1.30680 405.39349 429.76423 0.81932
226 1.31040 406.41684 432.70631 0.81351
227 1.31400 407.49617 433.55432 0.81347
228 1.31760 408.63638 435.06802 0.80710
229 1.32120 409.84290 437.40223 0.80269
230 1.32480 411.12182 440.60063 0.79924
231 1.32840 412.47993 440.89074 0.79692
232 1.33200 413.92482 443.96790 0.79177
233 1.33560 415.46506 445.93592 0.78462
234 1.33920 417.11029 448.67602 0.78641
235 1.34280 418.87142 451.81414 0.77506
236 1.34640 420.76084 454.26653 0.77311
237 1.35000 422.79268 455.85277 0.76854
238 1.35360 424.98309 459.01430 0.76838
239 1.35720 427.35063 461.78681 0.75920
240 1.36080 429.91675 466.88221 0.75670
241 1.36440 432.70630 469.52565 0.74896
242 1.36800 435.74829 474.13861 0.74535
243 1.37160 439.07674 475.12903 0.73792
244 1.37520 442.73183 480.67360 0.73171
245 1.37880 446.76132 484.63308 0.72305
246 1.38240 451.22244 490.41488 0.71666
247 1.38600 456.18436 495.26384 0.70722
248 1.38960 461.73159 504.14014 0.69920
249 1.39320 467.96908 512.11311 0.68530
250 1.39680 475.03140 519.26473 0.67802
251 1.40040 483.10328 527.63218 0.66671
252 1.40400 492.47194 536.34493 0.65333
253 1.40760 503.65851 548.88330 0.63990
254 1.41120 517.71313 564.59341 0.61929
255 1.41480 536.77583 585.42571 0.59796
256 1.41840 564.93271 613.43223 0.37909
257 1.42200 609.17309 655.36501 0.41554
258 1.42560 679.93578 712.59901 0.16240
259 1.42920 790.56558 827.10457 0.17957
260 1.43280 955.24138 932.47524 0.08117
261 1.43640 1185.66615 1164.24021 0.08450
262 1.44000 1488.09360 1323.69848 0.04758
263 1.44360 1863.00745 1689.77014 0.03758
264 1.44720 2307.70178 1943.56243 0.02912
265 1.45080 2819.73367 2477.67669 0.01756
266 1.45440 3399.64959 2864.95246 0.01952
267 1.45800 4052.54938 3526.00144 0.01048
268 1.46160 4788.79203 4102.73612 0.01200
269 1.46520 5624.44644 4930.61894 0.00650
270 1.46880 6581.95029 5805.39288 0.00654
271 1.47240 7691.05918 6956.88621 0.00381
272 1.47600 8989.59850 8336.56955 0.00326
273 1.47960 10522.11335 10083.29950 0.00210
274 1.48320 12331.03086 12274.29120 0.00153
275 1.48680 14430.11810 15097.62615 0.00104
276 1.49040 16751.02023 18530.80784 0.00080
277 1.49400 19072.54904 21765.87249 0.00117
278 1.49760 20977.11899 22990.65272 0.00362
279 1.50120 21897.65341 22341.95302 0.00159
280 1.50480 21294.89704 20671.39456 0.00147
281 1.50840 18958.29483 18724.44692 0.00127
282 1.51200 15292.44113 15995.85641 0.00114
283 1.51560 11189.72490 12657.85569 0.00113
284 1.51920 7501.46830 8776.69663 0.00137
285 1.52280 4698.92434 5082.16414 0.00226
286 1.52640 2855.56123 2577.12172 0.00634
287 1.53000 1787.57192 1515.68790 0.02006
288 1.53360 1228.79968 1093.41853 0.04975
289 1.53720 952.41610 894.05830 0.08471
290 1.54080 812.71561 769.47627 0.12323
291 1.54440 733.62934 692.46102 0.15329
292 1.54800 681.35567 637.47505 0.18674
293 1.55160 642.38832 593.07197 0.22251
294 1.55520 611.39087 560.41924 0.26943
295 1.55880 585.96384 536.01849 0.29355
296 1.56240 564.76047 516.44349 0.34113
297 1.56600 546.87778 498.10113 0.37661
298 1.56960 531.65467 486.40651 0.42964
299 1.57320 518.58897 473.98414 0.48863
300 1.57680 507.29197 465.53309 0.54926
301 1.58040 497.45885 458.48074 0.59585
302 1.58400 488.84779 449.18581 0.64112
303 1.58760 481.26496 443.60276 0.79245
304 1.59120 474.55357 437.58873 0.77739
305 1.59480 468.58566 433.04616 0.78715
306 1.59840 463.25596 430.69460 0.81336
307 1.60200 458.47724 427.05113 0.82703
308 1.60560 454.17669 422.75906 0.82919
309 1.60920 450.29317 420.89728 0.83984
310 1.61280 446.77504 418.65989 0.84127
311 1.61640 443.57841 414.73471 0.85628
312 1.62000 440.66580 413.35121 0.84973
313 1.62360 438.00506 412.72095 0.85307
314 1.62720 435.56845 410.27685 0.85585
315 1.63080 433.33195 410.28351 0.85946
316 1.63440 431.27470 408.66621 0.85771
317 1.63800 429.37847 408.19739 0.86353
318 1.64160 427.62729 407.83437 0.86290
319 1.64520 426.00714 404.31447 0.87203
320 1.64880 424.50563 404.12193 0.87035
321 1.65240 423.11182 403.30677 0.87425
322 1.65600 421.81598 402.64029 0.87323
323 1.65960 420.60948 401.63095 0.87868
324 1.66320 419.48460 401.69271 0.87855
325 1.66680 418.43444 402.86534 0.87345
326 1.67040 417.45281 401.19606 0.87719
327 1.67400 416.53414 399.89748 0.87745
328 1.67760 415.67343 399.98478 0.88328
329 1.68120 414.86614 401.21503 0.87356
330 1.68480 414.10819 400.05709 0.88007
331 1.68840 413.39586 398.25004 0.87877
332 1.69200 412.72579 400.03862 0.88460
333 1.69560 412.09490 399.46947 0.87802
334 1.69920 411.50040 400.06246 0.88062
335 1.70280 410.93974 398.05133 0.88044
336 1.70640 410.41058 400.55560 0.88267
337 1.71000 409.91078 398.89957 0.87919
338 1.71360 409.43839 397.56691 0.88436
339 1.71720 408.99159 397.75487 0.88330
340 1.72080 408.56873 397.45623 0.88511
341 1.72440 408.16829 397.30579 0.88237
342 1.72800 407.78885 397.07368 0.88510
343 1.73160 407.42910 397.86427 0.88200
344 1.73520 407.08785 397.39885 0.88576
345 1.73880 406.76398 397.25329 0.88475
346 1.74240 406.45646 396.68834 0.88665
347 1.74600 406.16432 397.33932 0.88474
348 1.74960 405.88667 398.44250 0.88252
349 1.75320 405.62269 399.55024 0.87861
350 1.75680 405.37159 397.19748 0.88319
351 1.76040 405.13267 397.06621 0.88618
352 1.76400 404.90525 395.96801 0.88634
353 1.76760 404.68870 397.78422 0.88484
354 1.77120 404.48243 395.93200 0.88308
355 1.77480 404.28590 397.75718 0.88560
356 1.77840 404.09860 396.48442 0.88369
357 1.78200 403.92003 395.32375 0.89247
358 1.78560 403.74976 396.76988 0.88065
359 1.78920 403.58735 396.90272 0.88836
360 1.79280 403.43241 397.17232 0.88412
361 1.79640 403.28457 398.19536 0.88428
362 1.80000 403.14346 394.79147 0.88800
363 1.80360 403.00877 396.76449 0.88980
364 1.80720 402.88017 396.14134 0.88720
365 1.81080 402.75737 397.68992 0.88747
366 1.81440 402.64010 397.10416 0.88669
367 1.81800 402.52810 396.63856 0.88992
368 1.82160 402.42110 396.10378 0.88726
369 1.82520 402.31889 396.52443 0.88459
370 1.82880 402.22124 396.14417 0.88649
371 1.83240 402.12793 395.35256 0.88926
372 1.83600 402.03878 396.52000 0.88648
373 1.83960 401.95358 395.84279 0.88559
374 1.84320 401.87217 397.22304 0.88439
375 1.84680 401.79438 396.15788 0.88334
376 1.85040 401.72003 396.34176 0.89131
377 1.85400 401.64909 396.11452 0.88572
378 1.85760 401.58176 395.65763 0.89215
379 1.86120 401.51801 395.95515 0.88506
380 1.86480 401.45783 396.28580 0.88899
381 1.86840 401.40126 394.99733 0.88562
382 1.87200 401.34844 396.41702 0.88847
383 1.87560 401.29962 396.66000 0.88498
384 1.87920 401.25539 397.59529 0.88727
385 1.88280 401.21668 395.84868 0.88603
386 1.88640 401.18491 395.65129 0.88861
387 1.89000 401.16352 397.12313 0.88272
388 1.89360 401.12105 396.93343 0.89064
389 1.89720 401.08055 396.31200 0.88492
390 1.90080 401.04193 396.67005 0.88669
391 1.90440 401.00510 397.66707 0.88113
392 1.90800 400.97000 397.14892 0.88510
393 1.91160 400.93656 396.29882 0.88779
394 1.91520 400.90470 396.60826 0.88805
395 1.91880 400.87436 396.62509 0.88689
396 1.92240 400.84548 396.05286 0.88485
397 1.92600 400.81801 398.34642 0.88373
398 1.92960 400.79187 397.76878 0.88122
399 1.93320 400.76703 396.21730 0.88758
400 1.93680 400.74342 396.56565 0.88286
401 1.94040 400.72100 398.14414 0.88379
402 1.94400 400.69971 398.14485 0.87690
403 1.94760 400.67952 397.27802 0.88772
404 1.95120 400.66037 398.18979 0.88072
405 1.95480 400.64223 397.46333 0.88661
406 1.95840 400.62505 397.50918 0.88059
407 1.96200 400.60880 395.87947 0.88661
408 1.96560 400.59343 396.74824 0.88056
409 1.96920 400.57892 398.01848 0.88347
410 1.97280 400.56522 399.20201 0.87549
411 1.97640 400.55230 398.50017 0.88340
412 1.98000 400.54013 397.59293 0.87892
413 1.98360 400.52869 397.76946 0.88375
414 1.98720 400.51793 397.75404 0.88083
415 1.99080 400.50783 396.90683 0.88466
416 1.99440 400.49836 397.23458 0.88245
417 1.99800 400.48951 397.89033 0.87887
418 2.00160 400.48123 397.77914 0.87997
419 2.00520 400.47351 395.24158 0.88814
420 2.00880 400.46632 396.71171 0.88469
421 2.01240 400.45964 396.71714 0.87979
422 2.01600 400.45345 398.18226 0.87943
423 2.01960 400.44772 398.60058 0.87549
424 2.02320 400.44244 397.41777 0.88380
425 2.02680 400.43759 395.76763 0.88172
426 2.03040 400.43314 398.27696 0.87854
427 2.03400 400.42908 398.36465 0.87415
428 2.03760 400.42539 398.63283 0.88067
429 2.04120 400.42206 397.32803 0.88097
430 2.04480 400.41906 398.26901 0.88043
431 2.04840 400.41638 397.69078 0.87357
432 2.05200 400.41401 397.71659 0.88457
433 2.05560 400.41193 395.80555 0.88409
434 2.05920 400.41013 396.36046 0.88922
435 2.06280 400.40859 398.11975 0.88395
436 2.06640 400.40730 399.08656 0.88286
437 2.07000 400.40624 397.25139 0.88190
438 2.07360 400.40541 397.18473 0.88253
439 2.07720 400.40478 398.66288 0.87938
440 2.08080 400.40436 396.34077 0.88521
441 2.08440 400.40413 397.38254 0.88324
442 2.08800 400.40408 397.74533 0.88078
443 2.09160 400.40419 397.41843 0.88401
444 2.09520 400.40446 398.50231 0.87887
445 2.09880 400.40487 398.79004 0.88008
446 2.10240 400.40542 399.79342 0.87838
447 2.10600 400.40611 399.50226 0.88099
448 2.10960 400.40691 401.86565 0.87020
449 2.11320 400.40782 403.25356 0.87489
450 2.11680 400.40883 403.38319 0.86932
451 2.12040 400.40994 408.81247 0.86245
452 2.12400 400.41113 409.07127 0.85438
453 2.12760 400.41240 414.03125 0.85070
454 2.13120 400.41375 418.01083 0.83860
455 2.13480 400.41516 425.79311 0.82697
456 2.13840 400.41662 434.45359 0.80474
457 2.14200 400.41814 447.78085 0.78704
458 2.14560 400.41970 461.61068 0.75876
459 2.14920 400.42131 469.22999 0.74863
460 2.15280 400.42294 469.43214 0.74434
461 2.15640 400.42460 466.84389 0.74949
462 2.16000 400.42628 459.35318 0.76254
463 2.16360 400.42798 455.58262 0.76814
464 2.16720 400.42968 449.97955 0.77840
465 2.17080 400.43140 440.92044 0.79384
466 2.17440 400.43311 430.05492 0.81406
467 2.17800 400.43482 419.28483 0.83319
468 2.18160 400.43652 409.01472 0.85785
469 2.18520 400.43820 403.98563 0.86502
470 2.18880 400.43987 401.39296 0.87399
471 2.19240 400.44152 398.76556 0.87782
472 2.19600 400.44314 399.56388 0.88086
473 2.19960 400.44473 399.38640 0.87537
474 2.20320 400.44629 399.90954 0.87932
475 2.20680 400.44781 398.92183 0.87767
476 2.21040 400.44930 398.37273 0.88368
477 2.21400 400.45073 399.65480 0.87409
478 2.21760 400.45213 400.94984 0.87972
479 2.22120 400.45347 397.16971 0.88051
480 2.22480 400.45475 397.17664 0.88619
481 2.22840 400.45599 397.10784 0.88167
482 2.23200 400.45716 397.90520 0.88240
483 2.23560 400.45827 398.54117 0.87939
484 2.23920 400.45932 398.96198 0.88124
485 2.24280 400.46030 399.44374 0.87887
486 2.24640 400.46121 398.69897 0.88097
487 2.25000 400.46205 400.00343 0.87525
488 2.25360 400.46282 399.72621 0.87564
489 2.25720 400.46351 398.48926 0.87842
490 2.26080 400.46413 398.05879 0.87744
491 2.26440 400.46466 398.43150 0.87748
492 2.26800 400.46511 398.19896 0.87790
493 2.27160 400.46548 399.15120 0.87997
494 2.27520 400.46576 396.94369 0.87949
495 2.27880 400.46596 397.95447 0.88090
496 2.28240 400.46607 399.18815 0.87543
497 2.28600 400.46609 398.75173 0.88021
498 2.28960 400.46602 397.86416 0.87667
499 2.29320 400.46585 398.94550 0.87928
500 2.29680 400.46559 398.61623 0.87386
501 2.30040 400.46524 399.26186 0.87769
502 2.30400 400.46479 397.76063 0.87838
503 2.30760 400.46424 399.81365 0.87726
504 2.31120 400.46360 399.80610 0.87158
505 2.31480 400.46285 400.57543 0.87440
506 2.31840 400.46200 400.00663 0.87079
507 2.32200 400.46106 400.51971 0.87264
508 2.32560 400.46001 399.02188 0.87562
509 2.32920 400.45886 399.43726 0.87464
510 2.33280 400.45760 397.51694 0.87869
511 2.33640 400.45624 398.27208 0.87571
512 2.34000 400.45478 400.09242 0.87488
513 2.34360 400.45321 398.71919 0.87563
514 2.34720 400.45154 398.71920 0.87579
515 2.35080 400.44976 398.23404 0.87542
516 2.35440 400.44787 397.76792 0.88201
517 2.35800 400.44588 399.17978 0.87343
518 2.36160 400.44378 399.82787 0.87902
519 2.36520 400.44157 397.12015 0.88113
520 2.36880 400.43926 399.99096 0.87959
521 2.37240 400.43684 399.39646 0.87357
522 2.37600 400.43431 398.39207 0.88019
523 2.37960 400.43168 397.48059 0.87864
524 2.38320 400.42894 398.33240 0.88271
525 2.38680 400.42609 399.17058 0.87244
526 2.39040 400.42314 399.43778 0.87792
527 2.39400 400.42008 398.92787 0.87411
528 2.39760 400.41691 400.17045 0.87524
529 2.40120 400.41364 399.10340 0.87742
530 2.40480 400.41026 398.30845 0.87802
531 2.40840 400.40678 397.09253 0.87716
532 2.41200 400.40319 397.67779 0.87931
533 2.41560 400.39911 397.85736 0.87787
534 2.41920 400.39370 397.44501 0.87967
535 2.42280 400.38683 398.19696 0.87806
536 2.42640 400.37839 399.54887 0.87353
537 2.43000 400.36827 400.27215 0.87520
538 2.43360 400.35631 400.25176 0.87217
539 2.43720 400.34235 399.74395 0.87465
540 2.44080 400.32618 397.16190 0.87652
541 2.44440 400.30755 398.28983 0.88185
542 2.44800 400.28617 398.64904 0.87066
543 2.45160 400.26166 397.51641 0.87856
544 2.45520 400.23353 396.54519 0.87710
545 2.45880 400.20117 399.38024 0.87936
546 2.46240 400.16374 397.88862 0.87468
547 2.46600 400.12006 399.45015 0.87899
548 2.46960 400.06841 398.61089 0.87659
549 2.47320 400.00729 399.96629 0.87592
550 2.47680 399.93756 400.42293 0.87069
551 2.48040 399.85432 398.57144 0.87771
552 2.48400 399.74163 398.38613 0.87354
553 2.48760 399.54111 398.70451 0.87885
554 2.49120 399.53654 399.53957 0.87389
555 2.49480 399.53631 400.05238 0.87888
556 2.49840 399.53595 398.40672 0.87814
557 2.50200 399.53546 398.02555 0.88094
558 2.50560 399.53484 397.41380 0.88337
559 2.50920 399.53409 397.91086 0.88021
560 2.51280 399.53323 399.66631 0.87757
561 2.51640 399.53225 398.96140 0.87650
562 2.52000 399.53115 399.27231 0.87958
563 2.52360 399.52995 397.47353 0.88064
564 2.52720 399.52864 399.19824 0.88052
565 2.53080 399.52722 398.15738 0.87627
566 2.53440 399.52571 397.68535 0.88422
567 2.53800 399.52409 399.09044 0.87555
568 2.54160 399.52239 399.78196 0.88045
569 2.54520 399.52060 398.44416 0.87998
570 2.54880 399.51873 399.62390 0.88081
571 2.55240 399.51677 398.36421 0.87756
572 2.55600 399.51474 397.58600 0.88557
573 2.55960 399.51265 397.87773 0.87743
574 2.56320 399.51048 400.09712 0.87693
575 2.56680 399.50826 399.89449 0.87365
576 2.57040 399.50598 399.33130 0.87809
577 2.57400 399.50364 398.42863 0.87535
578 2.57760 399.50127 399.04119 0.87415
579 2.58120 399.49885 399.42256 0.87578
580 2.58480 399.49640 399.77966 0.87630
581 2.58840 399.49392 401.05336 0.87391
582 2.59200 399.49142 400.24064 0.87457
583 2.59560 399.48891 398.20201 0.88034
584 2.59920 399.48638 397.85682 0.87939
585 2.60280 399.48385 399.46997 0.87812
586 2.60640 399.48133 400.56679 0.87261
587 2.61000 399.47882 398.29633 0.88418
588 2.61360 399.47633 399.17569 0.87657
589 2.61720 399.47386 399.21162 0.87936
590 2.62080 399.47143 399.68478 0.87183
591 2.62440 399.46905 399.44092 0.87824
592 2.62800 399.46672 397.60756 0.87783
593 2.63160 399.46445 398.94301 0.88204
594 2.63520 399.46225 397.75150 0.87816
595 2.63880 399.46013 399.05423 0.87752
596 2.64240 399.45811 398.81518 0.87704
597 2.64600 399.45618 399.59552 0.87830
598 2.64960 399.45437 398.67986 0.87542
599 2.65320 399.45269 400.89118 0.87355
600 2.65680 399.45114 399.99980 0.87244
601 2.66040 399.44974 397.92604 0.87843
602 2.66400 399.44851 398.44255 0.87851
603 2.66760 399.44746 398.30698 0.88058
604 2.67120 399.44659 399.33428 0.87796
605 2.67480 399.44594 399.43477 0.87466
606 2.67840 399.44550 399.05039 0.87904
607 2.68200 399.44531 398.53290 0.87850
608 2.68560 399.44537 400.76243 0.87737
609 2.68920 399.44571 400.25189 0.87436
610 2.69280 399.44635 400.68221 0.87589
611 2.69640 399.44730 399.91591 0.87151
612 2.70000 399.44859 400.17380 0.87629
613 2.70360 399.45023 399.53342 0.86881
614 2.70720 399.45226 398.77626 0.87767
615 2.71080 399.45470 397.54505 0.87374
616 2.71440 399.45757 399.23271 0.87557
617 2.71800 399.46090 399.40659 0.87365
618 2.72160 399.46472 399.71340 0.87876
619 2.72520 399.46906 400.27278 0.87071
620 2.72880 399.47396 400.41794 0.87429
621 2.73240 399.47944 398.85924 0.87531
622 2.73600 399.48554 400.13049 0.87667
623 2.73960 399.49231 399.43521 0.87429
624 2.74320 399.49977 398.28915 0.87885
625 2.74680 399.50799 398.99045 0.87810
626 2.75040 399.51699 400.41665 0.87483
627 2.75400 399.52683 400.79419 0.87456
628 2.75760 399.53756 398.63972 0.87921
629 2.76120 399.54924 399.15886 0.87730
630 2.76480 399.56191 399.68981 0.87460
631 2.76840 399.57565 399.88919 0.87958
632 2.77200 399.59053 397.45970 0.87972
633 2.77560 399.60660 400.06962 0.88057
634 2.77920 399.62395 399.80429 0.87339
635 2.78280 399.64265 398.25399 0.87971
636 2.78640 399.66286 398.50449 0.87457
637 2.79000 399.68474 399.08063 0.87900
638 2.79360 399.70844 399.44308 0.87642
639 2.79720 399.73414 399.99108 0.88029
640 2.80080 399.76212 397.74220 0.87796
641 2.80440 399.79283 400.01139 0.88014
642 2.80800 399.82755 398.08836 0.87670
643 2.81160 399.86085 400.37110 0.87872
644 2.81520 399.89651 400.36425 0.87176
645 2.81880 399.93472 399.66399 0.87859
646 2.82240 399.97569 399.72837 0.87553
647 2.82600 400.01958 399.26974 0.87748
648 2.82960 400.06662 398.23232 0.87828
649 2.83320 400.11704 399.08693 0.87848
650 2.83680 400.17107 397.84926 0.87993
651 2.84040 400.22899 398.26293 0.87903
652 2.84400 400.29110 400.59261 0.87576
653 2.84760 400.35771 400.73854 0.87165
654 2.85120 400.42917 401.93244 0.87229
655 2.85480 400.50588 399.62491 0.87706
656 2.85840 400.58824 400.35660 0.87696
657 2.86200 400.67673 399.11959 0.87438
658 2.86560 400.77186 401.80984 0.87571
659 2.86920 400.87420 400.59004 0.86935
660 2.87280 400.98436 398.71785 0.88093
661 2.87640 401.10304 397.93667 0.87543
662 2.88000 401.23100 399.26588 0.88068
663 2.88360 401.36912 399.10541 0.87881
664 2.88720 401.51834 400.79355 0.87513
665 2.89080 401.67973 398.94598 0.87370
666 2.89440 401.85449 401.60292 0.87533
667 2.89800 402.04398 400.65669 0.87101
668 2.90160 402.24971 402.21775 0.87106
669 2.90520 402.47341 400.91916 0.87109
670 2.90880 402.71704 400.87057 0.87487
671 2.91240 402.98282 400.46389 0.87523
672 2.91600 403.27330 401.39013 0.87454
673 2.91960 403.59140 400.00199 0.87666
674 2.92320 403.94049 399.99563 0.87514
675 2.92680 404.32445 400.99728 0.87363
676 2.93040 404.74781 400.69167 0.87571
677 2.93400 405.21582 401.01608 0.87602
678 2.93760 405.73469 402.67335 0.86583
679 2.94120 406.31170 402.21939 0.87228
680 2.94480 406.95549 401.95522 0.86991
681 2.94840 407.67638 403.55873 0.86962
682 2.95200 408.48675 404.11805 0.86520
683 2.95560 409.40159 404.94595 0.87019
684 2.95920 410.43915 403.98938 0.86308
685 2.96280 411.62191 405.07283 0.86379
686 2.96640 412.97786 406.96145 0.85857
687 2.97000 414.54254 406.05951 0.86802
688 2.97360 416.36262 408.49745 0.85363
689 2.97720 418.50304 409.71497 0.85693
690 2.98080 421.06183 410.33790 0.84949
691 2.98440 424.20083 415.12420 0.84634
692 2.98800 428.20408 418.11711 0.83794
693 2.99160 433.57812 421.79944 0.83054
694 2.99520 441.20180 426.07313 0.82141
695 2.99880 452.51701 436.83316 0.80233
696 3.00240 469.72692 450.28522 0.77612
697 3.00600 495.94747 469.20344 0.58529
698 3.00960 535.24808 502.23720 0.48970
699 3.01320 592.50703 549.02312 0.27419
700 3.01680 673.00710 620.44461 0.24351
701 3.02040 781.76338 713.90565 0.13573
702 3.02400 922.54171 861.57553 0.10645
703 3.02760 1096.17839 1041.69484 0.06526
704 3.03120 1297.81625 1311.73331 0.05124
705 3.03480 1513.57871 1607.48337 0.04441
706 3.03840 1718.38546 1869.42234 0.06120
707 3.04200 1877.14630 1988.19913 0.14462
708 3.04560 1951.08650 1967.92181 0.13410
709 3.04920 1910.37707 1883.28637 0.08927
710 3.05280 1752.49191 1743.18946 0.07574
711 3.05640 1512.87611 1557.35532 0.05994
712 3.06000 1247.45029 1311.76479 0.05585
713 3.06360 1003.32684 1039.21686 0.05952
714 3.06720 806.51399 779.57815 0.07813
715 3.07080 663.90482 598.54464 0.13948
716 3.07440 569.55439 504.89551 0.31903
717 3.07800 511.53751 464.03240 0.57850
718 3.08160 477.47414 442.65063 0.78993
719 3.08520 457.58914 432.02941 0.80940
720 3.08880 445.46014 424.90209 0.82387
721 3.09240 437.42149 420.91698 0.83529
722 3.09600 431.59018 416.91100 0.84008
723 3.09960 427.05564 411.65011 0.85131
724 3.10320 423.37501 410.47203 0.85232
725 3.10680 420.31377 408.52790 0.86110
726 3.11040 417.72972 406.29195 0.86122
727 3.11400 415.52545 408.78006 0.85987
728 3.11760 413.62896 405.82332 0.86022
729 3.12120 411.98491 404.03505 0.87082
730 3.12480 410.54989 401.14395 0.87289
731 3.12840 409.28941 401.24838 0.87608
732 3.13200 408.17577 400.04762 0.87510
733 3.13560 407.18653 402.77042 0.87536
734 3.13920 406.30335 401.75470 0.87170
735 3.14280 405.51115 401.83695 0.87376
736 3.14640 404.79743 401.36446 0.87077
737 3.15000 404.15173 401.51878 0.87658
738 3.15360 403.56530 399.95926 0.87532
739 3.15720 403.03073 400.91945 0.87464
740 3.16080 402.54174 399.98990 0.87312
741 3.16440 402.09296 398.79423 0.87925
742 3.16800 401.67979 396.77997 0.88253
743 3.17160 401.29826 398.36498 0.87918
744 3.17520 400.94496 398.77085 0.87983
745 3.17880 400.61689 398.71407 0.87793
746 3.18240 400.31147 398.15420 0.88392
747 3.18600 400.02641 395.55582 0.88490
748 3.18960 399.75972 399.02800 0.87547
749 3.19320 399.50965 398.78312 0.87623
750 3.19680 399.27463 397.52246 0.88334
751 3.20040 399.05330 398.86627 0.87559
752 3.20400 398.84442 398.93203 0.88057
753 3.20760 398.64691 396.83048 0.88154
754 3.21120 398.45978 397.72163 0.87958
755 3.21480 398.28218 396.79161 0.87641
756 3.21840 398.11330 398.79559 0.88426
757 3.22200 397.95245 396.11559 0.87927
758 3.22560 397.79899 396.75550 0.88655
759 3.22920 397.65234 396.22169 0.88242
760 3.23280 397.51199 398.16393 0.88253
761 3.23640 397.37745 399.20344 0.87835
762 3.24000 397.24831 400.51543 0.87371
763 3.24360 397.12417 401.63253 0.87107
764 3.24720 397.00466 400.82082 0.87823
765 3.25080 396.88948 401.20442 0.87331
766 3.25440 396.77831 400.60894 0.87525
767 3.25800 396.67089 401.28192 0.87390
768 3.26160 396.56696 399.09463 0.87787
769 3.26520 396.46630 398.53670 0.88045
770 3.26880 396.36868 400.46947 0.87222
771 3.27240 396.27393 399.08985 0.87802
772 3.27600 396.18184 397.59111 0.88150
773 3.27960 396.09227 397.96209 0.88296
774 3.28320 396.00505 397.42185 0.88059
775 3.28680 395.92004 397.46373 0.88249
776 3.29040 395.83711 396.25090 0.87991
777 3.29400 395.75613 396.68341 0.88615
778 3.29760 395.67700 397.18060 0.87724
779 3.30120 395.59960 396.71429 0.88295
780 3.30480 395.52383 396.34399 0.88066
781 3.30840 395.44961 396.87155 0.88308
782 3.31200 395.37685 395.02574 0.88282
783 3.31560 395.30546 395.79984 0.88692
784 3.31920 395.23538 395.36747 0.88258
785 3.32280 395.16653 394.43207 0.88901
786 3.32640 395.09884 393.59495 0.88639
787 3.33000 395.03226 397.03954 0.87848
788 3.33360 394.96673 397.18038 0.88134
789 3.33720 394.90218 396.17279 0.88123
790 3.34080 394.83858 395.76247 0.88349
791 3.34440 394.77587 395.10174 0.88381
792 3.34800 394.71401 395.62158 0.88490
793 3.35160 394.65295 397.63005 0.87811
794 3.35520 394.59267 396.96293 0.88367
795 3.35880 394.53310 395.32157 0.88338
796 3.36240 394.47424 397.77236 0.88269
797 3.36600 394.41603 395.18419 0.88260
798 3.36960 394.35845 396.16443 0.88659
799 3.37320 394.30146 395.42494 0.88160
800 3.37680 394.24505 396.43940 0.88537
801 3.38040 394.18918 394.62683 0.88353
802 3.38400 394.13382 395.39789 0.88672
803 3.38760 394.07896 394.85116 0.88231
804 3.39120 394.02457 397.18818 0.88271
805 3.39480 393.97063 395.68698 0.88100
806 3.39840 393.91712 396.57016 0.88374
807 3.40200 393.86402 395.54420 0.88220
808 3.40560 393.81130 394.51993 0.88731
809 3.40920 393.75897 395.85409 0.88035
810 3.41280 393.70698 397.57927 0.87931
811 3.41640 393.65534 397.19736 0.88003
812 3.42000 393.60403 395.34496 0.88272
813 3.42360 393.55303 393.60203 0.88773
814 3.42720 393.50233 394.27552 0.88494
815 3.43080 393.45191 393.79536 0.88782
816 3.43440 393.40176 396.13555 0.88153
817 3.43800 393.35188 397.87143 0.88091
818 3.44160 393.30224 396.41475 0.87796
819 3.44520 393.25285 396.13621 0.88542
820 3.44880 393.20368 394.55159 0.88473
821 3.45240 393.15474 395.44684 0.88577
822 3.45600 393.10600 394.81224 0.88014
823 3.45960 393.05747 395.90913 0.88533
824 3.46320 393.00913 395.73351 0.88054
825 3.46680 392.96097 395.55285 0.88602
826 3.47040 392.91299 396.06966 0.87888
827 3.47400 392.86518 398.11647 0.88189
828 3.47760 392.81753 395.38181 0.88337
829 3.48120 392.77004 395.73247 0.88561
830 3.48480 392.72270 393.54205 0.88738
831 3.48840 392.67550 394.67764 0.88518
832 3.49200 392.62843 394.31490 0.88227
833 3.49560 392.58150 394.85414 0.88871
834 3.49920 392.53470 393.92359 0.89750
835 3.50280 392.48801 394.48605 0.89448
836 3.50640 392.44144 395.65321 0.88988
837 3.51000 392.39499 394.23038 0.88909
838 3.51360 392.34864 393.61061 0.89054
839 3.51720 392.30239 393.98283 0.89080
840 3.52080 392.25624 394.13368 0.88853
841 3.52440 392.21018 393.03002 0.88886
842 3.52800 392.16421 394.52570 0.89074
843 3.53160 392.11833 393.93496 0.88492
844 3.53520 392.07253 396.31276 0.88630
845 3.53880 392.02681 394.53328 0.88506
846 3.54240 391.98117 394.08689 0.89064
847 3.54600 391.93560 394.97586 0.88544
848 3.54960 391.89009 394.22747 0.89493
849 3.55320 391.84466 395.00370 0.88593
850 3.55680 391.79929 394.76950 0.89283
851 3.56040 391.75398 393.82690 0.88740
852 3.56400 391.70873 395.60114 0.88976
853 3.56760 391.66353 395.97894 0.88140
854 3.57120 391.61839 395.77068 0.88443
855 3.57480 391.57330 394.34038 0.88706
856 3.57840 391.52826 392.85423 0.89400
857 3.58200 391.48327 393.01251 0.89219
858 3.58560 391.43832 393.42519 0.89295
859 3.58920 391.39341 393.85530 0.88899
860 3.59280 391.34855 394.28705 0.88767
861 3.59640 391.30372 394.26685 0.88979
862 3.60000 391.25894 395.90069 0.88373
863 3.60360 391.21419 394.21309 0.89141
864 3.60720 391.16947 393.64778 0.88988
865 3.61080 391.12479 394.52734 0.89083
866 3.61440 391.08014 391.91674 0.88975
867 3.61800 391.03552 395.39566 0.89150
868 3.62160 390.99092 394.30303 0.88448
869 3.62520 390.94636 394.93789 0.88985
870 3.62880 390.90182 393.63353 0.88669
871 3.63240 390.85730 395.29888 0.88863
872 3.63600 390.81281 392.38291 0.89101
873 3.63960 390.76834 394.46207 0.88891
874 3.64320 390.72390 393.11064 0.88802
875 3.64680 390.67947 394.42666 0.88978
876 3.65040 390.63507 392.66141 0.89022
877 3.65400 390.59068 393.66449 0.89051
878 3.65760 390.54631 393.36991 0.88831
879 3.66120 390.50195 393.45993 0.88917
880 3.66480 390.45762 394.37987 0.88669
881 3.66840 390.41330 394.47245 0.88832
882 3.67200 390.36899 394.68383 0.88691
883 3.67560 390.32469 393.13880 0.88999
884 3.67920 390.28041 393.27897 0.88998
885 3.68280 390.23615 394.11817 0.88674
886 3.68640 390.19189 393.69613 0.88987
887 3.69000 390.14764 393.39621 0.88989
888 3.69360 390.10341 394.58250 0.88967
889 3.69720 390.05918 393.82694 0.88955
890 3.70080 390.01497 393.23757 0.89413
891 3.70440 389.97076 392.67330 0.88890
892 3.70800 389.92657 392.92799 0.89451
893 3.71160 389.88238 392.20907 0.88920
894 3.71520 389.83819 393.10055 0.89313
895 3.71880 389.79402 392.15327 0.88980
896 3.72240 389.74985 393.48294 0.89221
897 3.72600 389.70569 393.20635 0.88909
898 3.72960 389.66154 393.53011 0.89290
899 3.73320 389.61739 391.72578 0.89189
900 3.73680 389.57324 393.16625 0.89353
901 3.74040 389.52910 392.97982 0.88798
902 3.74400 389.48497 393.44245 0.89193
903 3.74760 389.44084 391.89290 0.89571
904 3.75120 389.39672 391.67091 0.89990
905 3.75480 389.35260 393.30264 0.88994
906 3.75840 389.30848 391.76337 0.89277
907 3.76200 389.26437 392.06620 0.89016
908 3.76560 389.22026 393.54183 0.88675
909 3.76920 389.17615 393.32681 0.88933
910 3.77280 389.13205 393.21395 0.88743
911 3.77640 389.08795 392.97317 0.89137
912 3.78000 389.04386 390.74711 0.89236
913 3.78360 388.99976 393.76329 0.88961
914 3.78720 388.95567 394.81850 0.88438
915 3.79080 388.91159 393.54393 0.88796
916 3.79440 388.86750 393.22829 0.88542
917 3.79800 388.82342 393.90456 0.89222
918 3.80160 388.77934 392.48582 0.88823
919 3.80520 388.73527 394.09831 0.89207
920 3.80880 388.69119 393.38574 0.88645
921 3.81240 388.64712 392.87370 0.89360
922 3.81600 388.60305 393.15616 0.88843
923 3.81960 388.55899 393.04610 0.89059
924 3.82320 388.51493 390.61251 0.89007
925 3.82680 388.47087 392.38945 0.89117
926 3.83040 388.42681 393.02883 0.88744
927 3.83400 388.38275 392.87631 0.89076
928 3.83760 388.33870 393.78970 0.88623
929 3.84120 388.29465 393.45540 0.88712
930 3.84480 388.25061 393.16339 0.88899
931 3.84840 388.20657 394.44041 0.88372
932 3.85200 388.16253 393.96050 0.88816
933 3.85560 388.11849 392.86547 0.88788
934 3.85920 388.07446 391.85533 0.89184
935 3.86280 388.03043 391.36435 0.88908
936 3.86640 387.98641 392.60021 0.89274
937 3.87000 387.94239 391.01914 0.89040
938 3.87360 387.89837 392.65223 0.89411
939 3.87720 387.85436 391.03590 0.89292
940 3.88080 387.81035 391.65480 0.89375
941 3.88440 387.76635 391.18468 0.89336
942 3.88800 387.72235 393.63886 0.88999
943 3.89160 387.67836 393.62640 0.88494
944 3.89520 387.63437 393.33107 0.88931
945 3.89880 387.59039 392.43976 0.89068
946 3.90240 387.54641 392.80058 0.89373
947 3.90600 387.50244 392.72234 0.88962
948 3.90960 387.45848 391.19907 0.89377
949 3.91320 387.41452 391.42781 0.89122
950 3.91680 387.37057 391.71318 0.89385
951 3.92040 387.32662 391.67493 0.89364
952 3.92400 387.28269 391.25761 0.89251
953 3.92760 387.23876 394.09490 0.88794
954 3.93120 387.19484 392.10242 0.89233
955 3.93480 387.15093 388.28557 0.90147
956 3.93840 387.10702 389.65398 0.89351
957 3.94200 387.06313 391.86796 0.89165
958 3.94560 387.01924 390.42930 0.89520
959 3.94920 386.97537 389.65028 0.90273
960 3.95280 386.93150 390.01819 0.89510
961 3.95640 386.88765 390.88809 0.89923
962 3.96000 386.84388 389.78703 0.89500
963 3.96360 386.80023 391.31721 0.89445
964 3.96720 386.75678 389.34690 0.89363
965 3.97080 386.71371 390.72565 0.89591
966 3.97440 386.67138 389.39015 0.88914
967 3.97800 386.62761 391.16077 0.89403
968 3.98160 386.58384 389.73885 0.89171
969 3.98520 386.54009 390.89189 0.89707
970 3.98880 386.49636 391.83194 0.89358
971 3.99240 386.45264 391.58517 0.89339
972 3.99600 386.40894 391.32521 0.89325
973 3.99960 386.36525 390.35729 0.89845
974 4.00320 386.32158 391.70878 0.89215
975 4.00680 386.27792 391.79722 0.89371
976 4.01040 386.23428 391.48944 0.89495
977 4.01400 386.19066 390.74825 0.89539
978 4.01760 386.14706 391.59607 0.89323
979 4.02120 386.10348 390.55249 0.89165
980 4.02480 386.05992 389.93765 0.89652
981 4.02840 386.01637 390.40187 0.89608
982 4.03200 385.97285 392.14504 0.89403
983 4.03560 385.92935 389.69446 0.89734
984 4.03920 385.88588 391.14401 0.89489
985 4.04280 385.84242 389.40966 0.89315
986 4.04640 385.79899 391.66726 0.89512
987 4.05000 385.75559 390.58574 0.89653
988 4.05360 385.71221 391.12322 0.89848
989 4.05720 385.66885 390.31635 0.89426
990 4.06080 385.62553 389.71056 0.89801
991 4.06440 385.58223 389.99054 0.89411
992 4.06800 385.53896 390.50806 0.89725
993 4.07160 385.49571 390.30221 0.89116
994 4.07520 385.45250 390.60544 0.89514
995 4.07880 385.40932 388.98706 0.89566
996 4.08240 385.36618 389.86255 0.89752
997 4.08600 385.32306 390.66968 0.89320
998 4.08960 385.27998 390.39905 0.89516
999 4.09320 385.23694 390.25597 0.89388
1000 4.09680 385.19393 390.47136 0.89584
1001 4.10040 385.15096 389.37606 0.89749
1002 4.10400 385.10803 391.20398 0.89178
1003 4.10760 385.06514 389.94627 0.89735
1004 4.11120 385.02228 389.64182 0.89342
1005 4.11480 384.97948 389.79353 0.89897
1006 4.11840 384.93671 389.29095 0.89495
1007 4.12200 384.89399 391.06033 0.89425
1008 4.12560 384.85132 389.36217 0.89556
1009 4.12920 384.80869 390.10648 0.89882
1010 4.13280 384.76612 390.14870 0.89165
1011 4.13640 384.72359 390.84682 0.89361
1012 4.14000 384.68112 389.14792 0.89304
1013 4.14360 384.63870 390.86539 0.89458
1014 4.14720 384.59634 389.00830 0.89548
1015 4.15080 384.55404 389.84734 0.89861
1016 4.15440 384.51179 388.15348 0.89916
1017 4.15800 384.46961 389.27391 0.89656
1018 4.16160 384.42749 389.90577 0.89152
1019 4.16520 384.38543 389.16074 0.89758
1020 4.16880 384.34345 388.88769 0.89792
1021 4.17240 384.30153 389.48800 0.89772
1022 4.17600 384.25969 389.18410 0.89656
1023 4.17960 384.21788 389.44222 0.89655
1024 4.18320 384.17575 390.35938 0.89432
1025 4.18680 384.13317 388.50618 0.89521
1026 4.19040 384.09004 389.05650 0.89699
1027 4.19400 384.04621 389.83434 0.89136
1028 4.19760 384.00147 389.63557 0.89670
1029 4.20120 383.95550 389.21516 0.89473
1030 4.20480 383.90773 390.57803 0.89385
1031 4.20840 383.85716 388.60298 0.89170
1032 4.21200 383.80289 389.56063 0.89829
1033 4.21560 383.73555 388.88386 0.89242
1034 4.21920 383.69466 389.49898 0.89616
1035 4.22280 383.65445 387.18766 0.89433
1036 4.22640 383.61435 391.04022 0.89248
1037 4.23000 383.57437 390.75687 0.88913
1038 4.23360 383.53451 389.79416 0.89581
1039 4.23720 383.49479 389.01173 0.89467
1040 4.24080 383.45519 390.35254 0.89095
1041 4.24440 383.41574 389.47409 0.89229
1042 4.24800 383.37643 390.54053 0.89636
1043 4.25160 383.33727 389.75150 0.89343
1044 4.25520 383.29826 389.00019 0.89816
1045 4.25880 383.25943 389.14475 0.89680
1046 4.26240 383.22076 389.80566 0.89488
1047 4.26600 383.18227 388.71103 0.89672
1048 4.26960 383.14396 388.55491 0.89445
1049 4.27320 383.10586 388.28322 0.89412
1050 4.27680 383.06795 387.70741 0.89520
1051 4.28040 383.03026 388.75742 0.89546
1052 4.28400 382.99278 388.33173 0.89159
1053 4.28760 382.95554 390.34748 0.89278
1054 4.29120 382.91855 389.20382 0.89037
1055 4.29480 382.88181 390.05558 0.89441
1056 4.29840 382.84533 389.50619 0.88661
1057 4.30200 382.80913 389.67018 0.89416
1058 4.30560 382.77323 388.97874 0.89158
1059 4.30920 382.73764 388.89377 0.89625
1060 4.31280 382.70237 387.85216 0.89257
1061 4.31640 382.66744 389.44532 0.89299
1062 4.32000 382.63287 388.42899 0.89108
1063 4.32360 382.59867 388.78391 0.89590
1064 4.32720 382.56487 387.67429 0.89419
1065 4.33080 382.53149 389.23666 0.89514
1066 4.33440 382.49855 388.47772 0.89479
1067 4.33800 382.46608 388.64076 0.89765
1068 4.34160 382.43410 387.70339 0.89563
1069 4.34520 382.40264 388.88250 0.89425
1070 4.34880 382.37173 389.95496 0.89344
1071 4.35240 382.34140 389.38073 0.89246
1072 4.35600 382.31169 389.12742 0.89758
1073 4.35960 382.28264 389.84062 0.89131
1074 4.36320 382.25428 390.32203 0.89356
1075 4.36680 382.22666 389.29728 0.89161
1076 4.37040 382.19984 389.61612 0.89668
1077 4.37400 382.17385 387.59194 0.89342
1078 4.37760 382.14875 388.32968 0.89767
1079 4.38120 382.12462 387.97465 0.89210
1080 4.38480 382.10150 388.68792 0.90103
1081 4.38840 382.07947 386.78122 0.89865
1082 4.39200 382.05862 388.53504 0.89727
1083 4.39560 382.03902 388.35681 0.89162
1084 4.39920 382.02077 389.29888 0.89455
1085 4.40280 382.00397 388.69792 0.89428
1086 4.40640 381.98873 387.85797 0.89867
1087 4.41000 381.97518 386.74617 0.89478
1088 4.41360 381.96344 389.20683 0.89194
1089 4.41720 381.95367 386.39969 0.89715
1090 4.42080 381.94603 386.09996 0.89728
1091 4.42440 381.94071 386.02878 0.89731
1092 4.42800 381.93789 387.35641 0.89806
1093 4.43160 381.93782 386.74841 0.89790
1094 4.43520 381.94074 387.48229 0.89684
1095 4.43880 381.94692 388.37911 0.89495
1096 4.44240 381.95668 386.05628 0.90119
1097 4.44600 381.97036 387.41846 0.89956
1098 4.44960 381.98837 386.39548 0.90021
1099 4.45320 382.01114 388.37132 0.89853
1100 4.45680 382.03918 389.76662 0.89000
1101 4.46040 382.07306 389.17448 0.89635
1102 4.46400 382.11343 388.23924 0.89612
1103 4.46760 382.16102 389.39730 0.89838
1104 4.47120 382.21669 388.05368 0.89351
1105 4.47480 382.28141 386.96466 0.90305
1106 4.47840 382.35631 388.17234 0.89675
1107 4.48200 382.44271 389.22474 0.89691
1108 4.48560 382.54212 388.27084 0.89512
1109 4.48920 382.65634 387.03758 0.90035
1110 4.49280 382.78749 386.79513 0.89833
1111 4.49640 382.93811 387.63297 0.90132
1112 4.50000 383.11131 387.71137 0.90278
1113 4.50360 383.31100 388.34911 0.90093
1114 4.50720 383.54232 387.07615 0.89784
1115 4.51080 383.81238 387.95048 0.89893
1116 4.51440 384.13156 387.29130 0.89955
1117 4.51800 384.51577 388.47634 0.89636
1118 4.52160 384.99013 389.28310 0.89276
1119 4.52520 385.59473 390.32808 0.88973
1120 4.52880 386.39313 389.92072 0.89097
1121 4.53240 387.48391 390.09246 0.89068
1122 4.53600 389.01484 389.61521 0.89513
1123 4.53960 391.19820 390.88881 0.88985
1124 4.54320 394.32352 393.51542 0.88567
1125 4.54680 398.76233 392.56391 0.88312
1126 4.55040 404.95732 396.93691 0.87853
1127 4.55400 413.38828 400.97582 0.86481
1128 4.55760 424.50878 408.32373 0.85554
1129 4.56120 438.65265 413.98000 0.83595
1130 4.56480 455.91647 431.08508 0.80709
1131 4.56840 476.03359 451.91566 0.69179
1132 4.57200 498.26524 484.57856 0.48625
1133 4.57560 521.34180 526.75807 0.40450
1134 4.57920 543.48721 575.72081 0.33983
1135 4.58280 562.54955 619.00009 0.43619
1136 4.58640 576.25754 643.82482 0.53856
1137 4.59000 582.62743 649.57096 0.53090
1138 4.59360 580.50092 642.33066 0.53754
1139 4.59720 570.02358 620.58455 0.51182
1140 4.60080 552.70966 589.81816 0.45914
1141 4.60440 530.94516 550.21744 0.37581
1142 4.60800 507.26086 505.69320 0.45734
1143 4.61160 483.81166 464.90402 0.48468
1144 4.61520 462.17003 432.06000 0.69816
1145 4.61880 443.31078 411.53523 0.84662
1146 4.62240 427.67727 403.11193 0.86198
1147 4.62600 415.28571 399.99477 0.86964
1148 4.62960 405.85056 396.18054 0.87477
1149 4.63320 398.91300 392.70940 0.88918
1150 4.63680 393.95348 390.02018 0.88835
1151 4.64040 390.47504 389.68538 0.89469
1152 4.64400 388.05276 389.71955 0.88727
1153 4.64760 386.35346 389.90317 0.89405
1154 4.65120 385.13376 387.81988 0.89514
1155 4.65480 384.22631 387.62071 0.89883
1156 4.65840 383.52163 386.07996 0.89610
1157 4.66200 382.95085 387.49252 0.89758
1158 4.66560 382.47171 386.67924 0.89689
1159 4.66920 382.05844 386.80577 0.89943
1160 4.67280 381.69508 387.59254 0.89559
1161 4.67640 381.37130 387.42839 0.89933
1162 4.68000 381.08003 385.03414 0.90094
1163 4.68360 380.81612 386.60269 0.89926
1164 4.68720 380.57559 386.14425 0.90102
1165 4.69080 380.35526 384.31180 0.90463
1166 4.69440 380.15250 385.92746 0.90255
1167 4.69800 379.96509 385.99410 0.90121
1168 4.70160 379.79119 384.80274 0.90453
1169 4.70520 379.62920 386.67249 0.89818
1170 4.70880 379.47776 385.54899 0.90309
1171 4.71240 379.33569 384.75204 0.90184
1172 4.71600 379.20198 384.31853 0.90639
1173 4.71960 379.07574 385.31416 0.89773
1174 4.72320 378.95621 386.02102 0.90094
1175 4.72680 378.84270 385.25024 0.90009
1176 4.73040 378.73465 385.38864 0.90490
1177 4.73400 378.63151 384.72392 0.89914
1178 4.73760 378.53283 384.83208 0.90696
1179 4.74120 378.43820 384.47910 0.90381
1180 4.74480 378.34727 385.18831 0.90592
1181 4.74840 378.25971 385.30185 0.89950
1182 4.75200 378.17524 385.76450 0.90240
1183 4.75560 378.09359 385.17697 0.89990
1184 4.75920 378.01453 385.12440 0.90485
1185 4.76280 377.93787 382.61541 0.90810
1186 4.76640 377.86340 384.48051 0.90575
1187 4.77000 377.79097 385.85495 0.89780
1188 4.77360 377.72042 385.39116 0.90063
1189 4.77720 377.65160 384.48115 0.90126
1190 4.78080 377.58441 383.93954 0.90677
1191 4.78440 377.51872 384.17433 0.90605
1192 4.78800 377.45442 384.22630 0.90554
1193 4.79160 377.39143 386.53662 0.90119
1194 4.79520 377.32965 382.78661 0.90566
1195 4.79880 377.26900 384.87889 0.90850
1196 4.80240 377.20942 383.29448 0.90404
1197 4.80600 377.15084 383.03437 0.91197
1198 4.80960 377.09319 381.81101 0.91011
1199 4.81320 377.03642 383.78749 0.90775
1200 4.81680 376.98048 383.43193 0.90747
1201 4.82040 376.92531 383.61439 0.91310
1202 4.82400 376.87087 383.44919 0.90658
1203 4.82760 376.81713 384.02273 0.91453
1204 4.83120 376.76404 383.64245 0.91639
1205 4.83480 376.71156 384.63507 0.89221
1206 4.83840 376.65967 384.18819 0.82172
1207 4.84200 376.60834 384.29835 0.82184
1208 4.84560 376.55753 384.08816 0.81764
1209 4.84920 376.50722 383.62957 0.82120
1210 4.85280 376.45738 382.94480 0.82254
1211 4.85640 376.40800 383.03065 0.82554
1212 4.86000 376.35904 383.90298 0.82250
1213 4.86360 376.31050 384.21203 0.82094
1214 4.86720 376.26234 382.66578 0.82387
1215 4.87080 376.21456 383.45401 0.82177
1216 4.87440 376.16714 382.99971 0.82536
1217 4.87800 376.12005 381.72514 0.82787
1218 4.88160 376.07329 382.92661 0.83288
1219 4.88520 376.02685 381.74581 0.82969
1220 4.88880 375.98071 383.60852 0.83270
1221 4.89240 375.93485 383.06841 0.83489
1222 4.89600 375.88927 383.92801 0.84957
1223 4.89960 375.84396 381.38310 0.77421
1224 4.90320 375.79890 385.39202 0.67794
1225 4.90680 375.75409 382.57656 0.67918
1226 4.91040 375.70952 384.16976 0.67873
1227 4.91400 375.66517 383.73775 0.67763
1228 4.91760 375.62105 382.87628 0.68189
1229 4.92120 375.57714 382.84614 0.68033
1230 4.92480 375.53343 382.77943 0.68208
1231 4.92840 375.48993 383.01117 0.67952
1232 4.93200 375.44662 382.62138 0.68248
1233 4.93560 375.40349 383.10297 0.68099
1234 4.93920 375.36055 382.20068 0.68041
1235 4.94280 375.31778 381.84168 0.68380
1236 4.94640 375.27518 384.07442 0.67869
1237 4.95000 375.23275 383.50372 0.68113
1238 4.95360 375.19048 381.87082 0.68000
1239 4.95720 375.14836 382.51003 0.68073
1240 4.96080 375.10640 382.44648 0.67738
1241 4.96440 375.06459 381.48413 0.68347
1242 4.96800 375.02292 380.41984 0.68046
1243 4.97160 374.98139 382.76336 0.68052
1244 4.97520 374.94000 381.45910 0.67945
1245 4.97880 374.89874 382.93365 0.68452
1246 4.98240 374.85761 381.07892 0.68051
1247 4.98600 374.81662 382.33241 0.68681
1248 4.98960 374.77574 382.03851 0.68421
1249 4.99320 374.73499 383.03428 0.68256
1250 4.99680 374.69436 382.90069 0.68075
1251 5.00040 374.65385 382.60334 0.68451
1252 5.00400 374.61345 382.21438 0.68059
1253 5.00760 374.57316 381.72791 0.68412
1254 5.01120 374.53299 381.02772 0.68412
1255 5.01480 374.49292 380.14464 0.68895
1256 5.01840 374.45296 381.98454 0.68405
1257 5.02200 374.41311 382.27015 0.68067
1258 5.02560 374.37336 382.47417 0.68211
1259 5.02920 374.33370 381.26579 0.68386
1260 5.03280 374.29415 380.86153 0.68362
1261 5.03640 374.25470 382.58349 0.68176
1262 5.04000 374.21534 381.70221 0.68639
1263 5.04360 374.17608 381.81859 0.68186
1264 5.04720 374.13691 382.29820 0.68594
1265 5.05080 374.09783 381.73035 0.68044
1266 5.05440 374.05885 380.49426 0.68791
1267 5.05800 374.01995 380.60578 0.68409
1268 5.06160 373.98115 381.89031 0.68631
1269 5.06520 373.94243 378.85048 0.68722
1270 5.06880 373.90380 382.03030 0.68794
1271 5.07240 373.86525 380.75740 0.68413
1272 5.07600 373.82679 381.27715 0.69170
1273 5.07960 373.78841 379.83776 0.69817
1274 5.08320 373.75011 381.23476 0.70458
1275 5.08680 373.71190 381.79403 0.61290
1276 5.09040 373.67376 379.45370 0.63755
1277 5.09400 373.63571 380.01320 0.77956
1278 5.09760 373.59774 379.03932 0.77185
1279 5.10120 373.55984 381.10853 0.76002
1280 5.10480 373.52202 380.94082 0.75385
1281 5.10840 373.48428 379.29329 0.75645
1282 5.11200 373.44662 379.38324 0.75321
1283 5.11560 373.40903 379.12861 0.75605
1284 5.11920 373.37152 378.72385 0.75316
1285 5.12280 373.33408 379.17323 0.75680
1286 5.12640 373.29672 380.64375 0.75116
1287 5.13000 373.25943 380.80945 0.75571
1288 5.13360 373.22222 377.90593 0.75901
1289 5.13720 373.18508 378.65047 0.76246
1290 5.14080 373.14801 378.33220 0.76382
1291 5.14440 373.11101 378.20328 0.77805
1292 5.14800 373.07408 380.15810 0.77561
1293 5.15160 373.03722 378.51289 0.60957
1294 5.15520 373.00044 378.34178 0.60846
1295 5.15880 372.96373 379.75880 0.65611
1296 5.16240 372.92708 379.05419 0.69140
1297 5.16600 372.89051 378.33213 0.68871
1298 5.16960 372.85400 378.61766 0.68562
1299 5.17320 372.81756 380.05762 0.68054
1300 5.17680 372.78120 379.60542 0.67833
1301 5.18040 372.74490 378.99993 0.68079
1302 5.18400 372.70867 379.79541 0.67893
1303 5.18760 372.67250 378.50344 0.67953
1304 5.19120 372.63641 379.25864 0.67920
1305 5.19480 372.60038 378.73370 0.67889
1306 5.19840 372.56442 378.82379 0.67997
1307 5.20200 372.52852 378.47034 0.67888
1308 5.20560 372.49269 378.32046 0.68124
1309 5.20920 372.45693 378.45273 0.67924
1310 5.21280 372.42124 377.37397 0.68623
1311 5.21640 372.38561 378.79185 0.68030
1312 5.22000 372.35005 378.73259 0.68147
1313 5.22360 372.31455 378.87325 0.67668
1314 5.22720 372.27912 379.79548 0.68016
1315 5.23080 372.24375 378.75669 0.67844
1316 5.23440 372.20845 378.60036 0.68171
1317 5.23800 372.17322 378.11722 0.67975
1318 5.24160 372.13805 379.02220 0.68075
1319 5.24520 372.10294 379.21621 0.67835
1320 5.24880 372.06790 379.58536 0.68181
1321 5.25240 372.03293 377.24032 0.68203
1322 5.25600 371.99802 378.43109 0.68150
1323 5.25960 371.96317 377.86857 0.68214
1324 5.26320 371.92839 380.68056 0.67752
1325 5.26680 371.89369 378.32641 0.68192
1326 5.27040 371.85911 378.34158 0.68081
1327 5.27400 371.82467 378.87833 0.68054
1328 5.27760 371.79056 376.85294 0.68451
1329 5.28120 371.75624 378.17715 0.68314
1330 5.28480 371.72185 378.27006 0.67984
1331 5.28840 371.68752 378.90562 0.68216
1332 5.29200 371.65325 377.84114 0.68185
1333 5.29560 371.61905 377.10781 0.68449
1334 5.29920 371.58491 376.77431 0.68221
1335 5.30280 371.55084 377.52650 0.68485
1336 5.30640 371.51683 377.34710 0.68271
1337 5.31000 371.48289 377.17880 0.68539
1338 5.31360 371.44900 374.73433 0.68519
1339 5.31720 371.41519 377.79369 0.68377
1340 5.32080 371.38143 376.66143 0.68079
1341 5.32440 371.34774 377.83621 0.68369
1342 5.32800 371.31412 376.59534 0.68153
1343 5.33160 371.28055 378.11482 0.68380
1344 5.33520 371.24706 377.01555 0.68228
1345 5.33880 371.21362 377.68880 0.68537
1346 5.34240 371.18025 376.56169 0.81423
1347 5.34600 371.14695 376.17169 0.85909
1348 5.34960 371.11370 376.68323 0.84984
1349 5.35320 371.08053 377.53390 0.84026
1350 5.35680 371.04741 376.92606 0.84037
1351 5.36040 371.01436 375.15802 0.83986
1352 5.36400 370.98138 375.64085 0.83854
1353 5.36760 370.94845 376.15012 0.83961
1354 5.37120 370.91560 375.47097 0.84111
1355 5.37480 370.88280 375.87814 0.84078
1356 5.37840 370.85007 376.46294 0.84732
1357 5.38200 370.81741 375.49916 0.85168
1358 5.38560 370.78481 375.97390 0.81902
1359 5.38920 370.75227 375.26623 0.75182
1360 5.39280 370.71980 374.63322 0.75518
1361 5.39640 370.68740 377.57339 0.74703
1362 5.40000 370.65505 376.60749 0.75044
1363 5.40360 370.62278 375.53329 0.75122
1364 5.40720 370.59057 375.93823 0.76348
1365 5.41080 370.55842 375.02786 0.83814
1366 5.41440 370.52634 375.77991 0.83140
1367 5.41800 370.49455 376.63210 0.82560
1368 5.42160 370.46373 378.25864 0.82448
1369 5.42520 370.43467 377.04834 0.82524
1370 5.42880 370.41013 377.32315 0.82563
1371 5.43240 370.38286 376.61966 0.82749
1372 5.43600 370.35122 376.96007 0.82942
1373 5.43960 370.31964 377.71719 0.83204
1374 5.44320 370.28813 377.61115 0.83834
1375 5.44680 370.25668 378.62706 0.84662
1376 5.45040 370.22531 377.66398 0.75982
1377 5.45400 370.19399 377.27571 0.67614
1378 5.45760 370.16275 377.27546 0.67337
1379 5.46120 370.13157 375.84253 0.68138
1380 5.46480 370.10046 376.89852 0.67848
1381 5.46840 370.06941 376.98082 0.67917
1382 5.47200 370.03843 376.04421 0.67995
1383 5.47560 370.00752 375.23675 0.68180
1384 5.47920 369.97668 375.25022 0.68182
1385 5.48280 369.94590 374.01269 0.68321
1386 5.48640 369.91519 376.56840 0.67772
1387 5.49000 369.88456 375.82202 0.68084
1388 5.49360 369.85409 374.84930 0.68130
1389 5.49720 369.82385 375.25037 0.67974
1390 5.50080 369.79407 375.23220 0.68296
1391 5.50440 369.76456 376.84137 0.67849
1392 5.50800 369.73427 376.58947 0.67948
1393 5.51160 369.70404 375.71047 0.68093
1394 5.51520 369.67389 375.70918 0.67987
1395 5.51880 369.64380 373.95881 0.68206
1396 5.52240 369.61378 374.99537 0.68088
1397 5.52600 369.58383 375.70724 0.68002
1398 5.52960 369.55396 374.56706 0.68360
1399 5.53320 369.52415 376.15400 0.68178
1400 5.53680 369.49441 376.43807 0.68037
1401 5.54040 369.46474 374.65274 0.68216
1402 5.54400 369.43515 375.02024 0.68394
1403 5.54760 369.40562 374.77943 0.68178
1404 5.55120 369.37617 373.94406 0.68519
1405 5.55480 369.34679 372.92183 0.68463
1406 5.55840 369.31747 373.01568 0.68529
1407 5.56200 369.28824 372.93874 0.68382
1408 5.56560 369.25907 373.70709 0.68167
1409 5.56920 369.22998 371.72441 0.68728
1410 5.57280 369.20096 374.14589 0.68314
1411 5.57640 369.17201 373.99857 0.68181
1412 5.58000 369.14313 373.96003 0.68423
1413 5.58360 369.11433 374.11164 0.68432
1414 5.58720 369.08561 375.32176 0.68133
1415 5.59080 369.05696 375.32426 0.68039
1416 5.59440 369.02838 373.43515 0.68478
1417 5.59800 368.99988 373.54280 0.68539
1418 5.60160 368.97145 373.42202 0.68625
1419 5.60520 368.94310 372.81829 0.68638
1420 5.60880 368.91483 373.77653 0.68491
1421 5.61240 368.88792 372.86528 0.68979
1422 5.61600 368.86548 373.16195 0.68573
1423 5.61960 368.85176 372.29239 0.68939
1424 5.62320 368.86353 374.05205 0.68364
1425 5.62680 368.84514 375.20694 0.68127
1426 5.63040 368.81754 373.66035 0.68553
1427 5.63400 368.79002 375.09335 0.68564
1428 5.63760 368.76258 373.69914 0.68351
1429 5.64120 368.73523 374.48118 0.72355
1430 5.64480 368.70795 373.53869 0.86352
1431 5.64840 368.68076 373.90191 0.85161
1432 5.65200 368.65365 372.16648 0.85086
1433 5.65560 368.62663 373.94136 0.83928
1434 5.65920 368.59969 372.29035 0.84383
1435 5.66280 368.57283 373.27894 0.83684
1436 5.66640 368.54606 373.68706 0.83970
1437 5.67000 368.51938 370.05326 0.84481
1438 5.67360 368.49278 373.07995 0.83881
1439 5.67720 368.46627 373.17089 0.83676
1440 5.68080 368.43985 373.38746 0.83780
1441 5.68440 368.41352 372.50074 0.83823
1442 5.68800 368.38727 371.08659 0.84166
1443 5.69160 368.36112 372.31046 0.83772
1444 5.69520 368.33506 374.12482 0.83435
1445 5.69880 368.30910 373.68674 0.83387
1446 5.70240 368.28323 373.66678 0.83554
1447 5.70600 368.25745 372.99716 0.83508
1448 5.70960 368.23177 372.48501 0.89254
1449 5.71320 368.20618 372.25218 0.92214
1450 5.71680 368.18069 373.18254 0.91664
1451 5.72040 368.15530 373.58485 0.91331
1452 5.72400 368.13002 373.09503 0.91207
1453 5.72760 368.10483 373.13949 0.91178
1454 5.73120 368.07974 372.11135 0.91418
1455 5.73480 368.05476 372.94375 0.91139
1456 5.73840 368.02989 371.10624 0.91379
1457 5.74200 368.00512 370.99181 0.91502
1458 5.74560 367.98046 371.57889 0.91075
1459 5.74920 367.95592 372.48791 0.91305
1460 5.75280 367.93148 372.83209 0.90963
1461 5.75640 367.90716 373.28579 0.90884
1462 5.76000 367.88295 372.24058 0.90943
1463 5.76360 367.85886 372.31910 0.91147
1464 5.76720 367.83489 371.24412 0.91336
1465 5.77080 367.81104 372.22989 0.91173
1466 5.77440 367.78732 371.24498 0.91302
1467 5.77800 367.76372 371.67848 0.91333
1468 5.78160 367.74025 371.82207 0.91295
1469 5.78520 367.71691 373.29266 0.91092
1470 5.78880 367.69371 373.28431 0.90944
1471 5.79240 367.67064 372.14613 0.91479
1472 5.79600 367.64772 371.19146 0.91594
1473 5.79960 367.62493 371.55373 0.91769
1474 5.80320 367.60230 372.14532 0.91305
1475 5.80680 367.57981 372.04767 0.91307
1476 5.81040 367.55747 373.82308 0.90942
1477 5.81400 367.53530 371.74538 0.91409
1478 5.81760 367.51328 372.40999 0.91263
1479 5.82120 367.49143 371.14266 0.91852
1480 5.82480 367.46976 372.14480 0.91631
1481 5.82840 367.44827 372.00777 0.92254
1482 5.83200 367.42701 371.90973 0.93107
1483 5.83560 367.40604 370.92631 0.91566
1484 5.83920 367.38552 370.67368 0.83419
1485 5.84280 367.36478 369.73021 0.83454
1486 5.84640 367.34423 372.55741 0.82908
1487 5.85000 367.32390 373.45024 0.82510
1488 5.85360 367.30379 370.83506 0.83116
1489 5.85720 367.28391 370.83468 0.83154
1490 5.86080 367.26426 372.71112 0.82798
1491 5.86440 367.24485 371.30848 0.83101
1492 5.86800 367.22569 369.55674 0.83496
1493 5.87160 367.20680 371.32348 0.83027
1494 5.87520 367.18818 371.69314 0.83065
1495 5.87880 367.16984 370.48012 0.83372
1496 5.88240 367.15181 370.71779 0.83740
1497 5.88600 367.13408 370.33475 0.83770
1498 5.88960 367.11667 369.25708 0.84230
1499 5.89320 367.09961 370.33742 0.84670
1500 5.89680 367.08290 371.98237 0.85334
1501 5.90040 367.06656 373.45789 0.79885
1502 5.90400 367.05061 370.66826 0.68224
1503 5.90760 367.03508 370.88619 0.68308
1504 5.91120 367.01998 369.39649 0.68381
1505 5.91480 367.00533 370.88020 0.68260
1506 5.91840 366.99117 370.84472 0.68210
1507 5.92200 366.97752 370.12330 0.68629
1508 5.92560 366.96441 368.94916 0.68305
1509 5.92920 366.95186 369.88982 0.68675
1510 5.93280 366.93993 370.04655 0.68241
1511 5.93640 366.92864 370.70968 0.68293
1512 5.94000 366.91803 368.09251 0.68406
1513 5.94360 366.90816 369.68918 0.68326
1514 5.94720 366.89907 371.19552 0.67799
1515 5.95080 366.89082 371.43011 0.68289
1516 5.95440 366.88346 368.74983 0.68303
1517 5.95800 366.87706 369.22426 0.68572
1518 5.96160 366.87169 369.31029 0.68230
1519 5.96520 366.86744 369.82730 0.68392
1520 5.96880 366.86439 369.75380 0.68338
1521 5.97240 366.86263 368.66034 0.68685
1522 5.97600 366.86228 369.19222 0.68353
1523 5.97960 366.86345 371.38145 0.68021
1524 5.98320 366.86628 370.37636 0.68152
1525 5.98680 366.87092 369.07048 0.68188
1526 5.99040 366.87753 370.95233 0.67911
1527 5.99400 366.88629 370.02279 0.68226
1528 5.99760 366.89742 370.87038 0.68072
1529 6.00120 366.91115 370.08444 0.68018
1530 6.00480 366.92776 370.25971 0.68347
1531 6.00840 366.94753 369.40862 0.67901
1532 6.01200 366.97082 369.19148 0.68484
1533 6.01560 366.99801 370.40147 0.67906
1534 6.01920 367.02957 371.68031 0.67946
1535 6.02280 367.06600 371.96200 0.67753
1536 6.02640 367.10791 370.47887 0.68277
1537 6.03000 367.15602 370.64456 0.67947
1538 6.03360 367.21119 369.49864 0.68466
1539 6.03720 367.27447 369.78999 0.68083
1540 6.04080 367.34724 369.10479 0.68479
1541 6.04440 367.43128 369.84137 0.68000
1542 6.04800 367.52909 371.18754 0.68039
1543 6.05160 367.64424 369.23949 0.68153
1544 6.05520 367.78200 370.56223 0.68205
1545 6.05880 367.95019 370.17900 0.68118
1546 6.06240 368.16055 370.19233 0.67978
1547 6.06600 368.43046 369.81186 0.68095
1548 6.06960 368.78501 370.07810 0.68047
1549 6.07320 369.25970 370.75924 0.68164
1550 6.07680 369.89666 370.95012 0.68046
1551 6.08040 370.75968 370.34313 0.68414
1552 6.08400 371.92434 369.58452 0.68402
1553 6.08760 373.47948 368.83965 0.68607
1554 6.09120 375.52287 369.16127 0.69733
1555 6.09480 378.15321 368.68355 0.86573
1556 6.09840 381.45844 369.37149 0.85617
1557 6.10200 385.50058 370.50132 0.84935
1558 6.10560 390.29844 369.47559 0.84017
1559 6.10920 395.80983 370.27660 0.84076
1560 6.11280 401.91509 371.60996 0.83312
1561 6.11640 408.40391 373.56395 0.83221
1562 6.12000 414.96756 374.60456 0.82649
1563 6.12360 421.20075 377.82111 0.82132
1564 6.12720 426.62058 379.76617 0.81606
1565 6.13080 430.71335 381.85616 0.81412
1566 6.13440 433.01698 381.45789 0.81146
1567 6.13800 433.22962 382.67034 0.80956
1568 6.14160 431.30469 382.59319 0.80688
1569 6.14520 427.47566 379.66289 0.81722
1570 6.14880 422.18701 376.60881 0.82329
1571 6.15240 415.97203 373.13166 0.83031
1572 6.15600 409.34397 374.11472 0.82845
1573 6.15960 402.73447 372.88283 0.86837
1574 6.16320 396.47267 370.81291 0.92479
1575 6.16680 390.78557 368.42246 0.92195
1576 6.17040 385.80702 368.20560 0.92595
1577 6.17400 381.59072 368.14099 0.91804
1578 6.17760 378.12609 367.65135 0.92215
1579 6.18120 375.35574 367.01827 0.91847
1580 6.18480 373.19316 368.19478 0.92032
1581 6.18840 371.53854 367.88351 0.91410
1582 6.19200 370.29144 368.65830 0.91582
1583 6.19560 369.35965 366.92648 0.91744
1584 6.19920 368.66419 367.61152 0.92032
1585 6.20280 368.14120 367.40479 0.91578
1586 6.20640 367.74150 368.22509 0.91730
1587 6.21000 367.42876 368.20607 0.91426
1588 6.21360 367.17713 368.18706 0.91899
1589 6.21720 366.96870 366.78376 0.91792
1590 6.22080 366.79139 367.83393 0.92034
1591 6.22440 366.63709 367.84598 0.91661
1592 6.22800 366.50042 368.42872 0.91586
1593 6.23160 366.37772 367.22032 0.91885
1594 6.23520 366.26647 367.94799 0.91661
1595 6.23880 366.16483 369.23281 0.91447
1596 6.24240 366.07143 367.10819 0.91870
1597 6.24600 365.98519 368.30908 0.91828
1598 6.24960 365.90525 367.20268 0.91620
1599 6.25320 365.83088 367.44856 0.92224
1600 6.25680 365.76147 367.06185 0.91772
1601 6.26040 365.69648 366.12866 0.92466
1602 6.26400 365.63545 366.10787 0.91825
1603 6.26760 365.57800 367.63624 0.91966
1604 6.27120 365.52376 367.69965 0.91416
1605 6.27480 365.47244 367.64968 0.91815
1606 6.27840 365.42376 366.57769 0.91980
1607 6.28200 365.37747 367.70340 0.92039
1608 6.28560 365.33338 366.79301 0.91458
1609 6.28920 365.29129 366.94342 0.91828
1610 6.29280 365.25103 367.05550 0.91613
1611 6.29640 365.21245 368.93375 0.91604
1612 6.30000 365.17542 366.58454 0.91785
1613 6.30360 365.13981 367.51346 0.92047
1614 6.30720 365.10552 367.72507 0.91931
1615 6.31080 365.07245 368.47114 0.91445
1616 6.31440 365.04051 365.77870 0.92009
1617 6.31800 365.00961 366.62631 0.91930
1618 6.32160 364.97970 366.80168 0.92012
1619 6.32520 364.95069 366.59373 0.91839
1620 6.32880 364.92253 366.93903 0.91994
1621 6.33240 364.89517 365.95513 0.92181
1622 6.33600 364.86855 367.34931 0.91893
1623 6.33960 364.84263 366.68715 0.91586
1624 6.34320 364.81737 367.07782 0.92077
1625 6.34680 364.79272 365.86255 0.92116
1626 6.35040 364.76866 367.14559 0.92350
1627 6.35400 364.74515 367.44912 0.91557
1628 6.35760 364.72216 365.66272 0.92549
1629 6.36120 364.69964 366.43861 0.91854
1630 6.36480 364.67747 366.97043 0.92082
1631 6.36840 364.65559 365.89591 0.92011
1632 6.37200 364.63390 368.11068 0.91675
1633 6.37560 364.61228 366.51711 0.91962
1634 6.37920 364.59045 367.80309 0.92230
1635 6.38280 364.56782 367.41401 0.91908
1636 6.38640 364.54614 367.10339 0.92255
1637 6.39000 364.52684 368.07823 0.91632
1638 6.39360 364.50786 368.61634 0.91639
1639 6.39720 364.48918 367.62534 0.91770
1640 6.40080 364.47079 367.10275 0.92031
1641 6.40440 364.45269 367.15533 0.92016
1642 6.40800 364.43488 367.46630 0.91804
1643 6.41160 364.41740 367.97033 0.91762
1644 6.41520 364.40031 366.91862 0.91896
1645 6.41880 364.38372 367.06188 0.92158
1646 6.42240 364.36689 366.57361 0.91872
1647 6.42600 364.35029 365.57240 0.92507
1648 6.42960 364.33391 366.55432 0.91996
1649 6.43320 364.31774 366.79915 0.92397
1650 6.43680 364.30178 366.69633 0.91777
1651 6.44040 364.28602 366.01666 0.92296
1652 6.44400 364.27046 366.03834 0.91973
1653 6.44760 364.25509 367.11279 0.92237
1654 6.45120 364.23990 365.99683 0.91986
1655 6.45480 364.22490 365.42625 0.92547
1656 6.45840 364.21007 365.14639 0.92128
1657 6.46200 364.19541 367.00957 0.92217
1658 6.46560 364.18092 365.87099 0.92233
1659 6.46920 364.16660 365.98162 0.92647
1660 6.47280 364.15244 365.95345 0.92151
1661 6.47640 364.13843 366.72892 0.92166
1662 6.48000 364.12458 366.32369 0.92074
1663 6.48360 364.11088 365.02498 0.92454
1664 6.48720 364.09733 365.79730 0.92302
1665 6.49080 364.08392 365.60881 0.92314
1666 6.49440 364.07066 366.58553 0.91999
1667 6.49800 364.05754 366.67186 0.91817
1668 6.50160 364.04455 366.51512 0.92263
1669 6.50520 364.03170 365.85690 0.92031
1670 6.50880 364.01899 367.46654 0.92024
1671 6.51240 364.00640 367.70637 0.91308
1672 6.51600 363.99395 366.19316 0.92180
1673 6.51960 363.98163 364.14555 0.92321
1674 6.52320 363.96943 366.93490 0.92270
1675 6.52680 363.95739 363.78133 0.92675
1676 6.53040 363.94560 365.47917 0.92559
1677 6.53400 363.93422 365.42439 0.91865
1678 6.53760 363.92323 365.06925 0.92486
1679 6.54120 363.91193 367.45989 0.91399
1680 6.54480 363.90152 367.47542 0.92017
1681 6.54840 363.89313 366.04900 0.91924
1682 6.55200 363.88546 367.45800 0.91807
1683 6.55560 363.87436 366.86802 0.91692
1684 6.55920 363.86337 366.88250 0.91916
1685 6.56280 363.85249 366.62542 0.91784
1686 6.56640 363.84173 366.32237 0.91890
1687 6.57000 363.83107 366.83262 0.91680
1688 6.57360 363.82053 366.76879 0.91670
1689 6.57720 363.81009 366.57283 0.91948
1690 6.58080 363.79976 364.86990 0.92323
1691 6.58440 363.78954 365.18952 0.92215
1692 6.58800 363.77942 364.83401 0.91879
1693 6.59160 363.76941 366.04432 0.92183
1694 6.59520 363.75950 363.26137 0.92671
1695 6.59880 363.74970 364.66823 0.92802
1696 6.60240 363.74000 365.86699 0.91698
1697 6.60600 363.73041 365.42706 0.92490
1698 6.60960 363.72092 363.66254 0.92624
1699 6.61320 363.71152 363.85365 0.93148
1700 6.61680 363.70223 366.06313 0.91908
1701 6.62040 363.69305 365.58237 0.92383
1702 6.62400 363.68396 365.07153 0.92137
1703 6.62760 363.67497 364.97105 0.92768
1704 6.63120 363.66608 364.57069 0.92520
1705 6.63480 363.65729 365.82626 0.92768
1706 6.63840 363.64860 364.92223 0.92089
1707 6.64200 363.64001 365.07168 0.92622
1708 6.64560 363.63151 364.80032 0.92561
1709 6.64920 363.62312 365.17862 0.92646
1710 6.65280 363.61482 364.27546 0.92808
1711 6.65640 363.60661 363.76290 0.92974
1712 6.66000 363.59851 364.14967 0.92706
1713 6.66360 363.59050 365.13563 0.92362
1714 6.66720 363.58259 365.82418 0.92340
1715 6.67080 363.57477 364.47681 0.92618
1716 6.67440 363.56706 365.62759 0.92619
1717 6.67800 363.55943 365.57432 0.92123
1718 6.68160 363.55190 365.72535 0.92624
1719 6.68520 363.54452 364.19192 0.92763
1720 6.68880 363.53756 364.07083 0.93278
1721 6.69240 363.53144 363.21544 0.92296
1722 6.69600 363.52757 366.15788 0.92453
1723 6.69960 363.52058 365.43113 0.92046
1724 6.70320 363.51364 365.06706 0.92958
1725 6.70680 363.50679 364.32261 0.92284
1726 6.71040 363.50004 363.89835 0.92983
1727 6.71400 363.49338 363.54144 0.92694
1728 6.71760 363.48681 366.10152 0.92470
1729 6.72120 363.48034 362.82077 0.92707
1730 6.72480 363.47397 365.10436 0.92336
1731 6.72840 363.46768 364.16873 0.92585
1732 6.73200 363.46150 365.00118 0.92715
1733 6.73560 363.45540 365.78105 0.92244
1734 6.73920 363.44940 363.86778 0.92559
1735 6.74280 363.44351 364.52306 0.92467
1736 6.74640 363.43789 364.69225 0.92458
1737 6.75000 363.43277 364.91263 0.92406
1738 6.75360 363.42898 364.68516 0.92445
1739 6.75720 363.42425 364.66552 0.92626
1740 6.76080 363.41919 363.23558 0.92581
1741 6.76440 363.41495 364.34668 0.92549
1742 6.76800 363.41031 365.43658 0.91846
1743 6.77160 363.40518 363.49810 0.93067
1744 6.77520 363.40013 362.78787 0.92598
1745 6.77880 363.39519 364.55864 0.92733
1746 6.78240 363.39034 364.85761 0.92245
1747 6.78600 363.38558 364.32292 0.92895
1748 6.78960 363.38091 364.07684 0.92287
1749 6.79320 363.37635 363.76233 0.92913
1750 6.79680 363.37187 364.92920 0.92125
1751 6.80040 363.36750 365.04487 0.92431
1752 6.80400 363.36353 363.95363 0.92373
1753 6.80760 363.36100 363.65980 0.92896
1754 6.81120 363.36172 362.75783 0.92698
1755 6.81480 363.36603 365.18786 0.92187
1756 6.81840 363.36217 364.52263 0.92036
1757 6.82200 363.35841 363.97390 0.92282
1758 6.82560 363.35474 364.69095 0.92203
1759 6.82920 363.35117 363.61093 0.92773
1760 6.83280 363.34770 364.70291 0.92470
1761 6.83640 363.34432 365.54655 0.91805
1762 6.84000 363.34104 364.28306 0.92438
1763 6.84360 363.33785 362.60283 0.92621
1764 6.84720 363.33477 364.13891 0.92539
1765 6.85080 363.33178 364.99025 0.91850
1766 6.85440 363.32888 364.13597 0.92455
1767 6.85800 363.32609 362.99507 0.92511
1768 6.86160 363.32339 363.51148 0.92785
1769 6.86520 363.32079 363.48643 0.92240
1770 6.86880 363.31829 363.32189 0.92839
1771 6.87240 363.31589 363.12543 0.92380
1772 6.87600 363.31358 364.60799 0.92240
1773 6.87960 363.31138 362.81498 0.92510
1774 6.88320 363.30927 361.20394 0.93435
1775 6.88680 363.30726 361.31302 0.92749
1776 6.89040 363.30536 363.67256 0.92493
1777 6.89400 363.30355 363.22141 0.92461
1778 6.89760 363.30184 363.96157 0.92626
1779 6.90120 363.30024 362.11048 0.92825
1780 6.90480 363.29873 364.10605 0.92492
1781 6.90840 363.29733 363.84648 0.92447
1782 6.91200 363.29602 363.42246 0.92524
1783 6.91560 363.29482 363.85006 0.92510
1784 6.91920 363.29372 364.28044 0.92388
1785 6.92280 363.29273 363.22620 0.92692
1786 6.92640 363.29183 362.91379 0.92479
1787 6.93000 363.29104 364.15295 0.92648
1788 6.93360 363.29036 363.70520 0.92497
1789 6.93720 363.28977 365.77321 0.92102
1790 6.94080 363.28929 362.60489 0.92495
1791 6.94440 363.28892 364.49454 0.92388
1792 6.94800 363.28865 363.30939 0.92382
1793 6.95160 363.28849 365.76495 0.92369
1794 6.95520 363.28843 362.99565 0.92378
1795 6.95880 363.28848 364.46898 0.92556
1796 6.96240 363.28863 362.59711 0.92309
1797 6.96600 363.28889 364.53829 0.92461
1798 6.96960 363.28926 362.01784 0.92699
1799 6.97320 363.28974 362.50986 0.92964
1800 6.97680 363.29032 363.37830 0.92416
1801 6.98040 363.29102 363.03378 0.92808
1802 6.98400 363.29182 364.84503 0.91947
1803 6.98760 363.29273 365.05066 0.92154
1804 6.99120 363.29376 362.83053 0.92474
1805 6.99480 363.29489 363.88955 0.92481
1806 6.99840 363.29614 363.26381 0.92456
1807 7.00200 363.29750 363.34802 0.92517
1808 7.00560 363.29897 364.06743 0.92283
1809 7.00920 363.30055 364.76541 0.91856
1810 7.01280 363.30225 363.36059 0.92429
1811 7.01640 363.30406 362.61017 0.92253
1812 7.02000 363.30599 363.33958 0.92784
1813 7.02360 363.30803 362.40156 0.92295
1814 7.02720 363.31019 362.12039 0.93387
1815 7.03080 363.31247 362.83868 0.92595
1816 7.03440 363.31486 362.94883 0.92958
1817 7.03800 363.31737 360.97830 0.92999
1818 7.04160 363.32000 363.84363 0.92886
1819 7.04520 363.32275 363.48251 0.92453
1820 7.04880 363.32562 363.37277 0.93027
1821 7.05240 363.32861 362.63237 0.92475
1822 7.05600 363.33173 363.20686 0.93058
1823 7.05960 363.33496 364.18347 0.92413
1824 7.06320 363.33832 363.49976 0.92650
1825 7.06680 363.34180 363.21705 0.92544
1826 7.07040 363.34541 363.69749 0.92728
1827 7.07400 363.34914 362.83454 0.92865
1828 7.07760 363.35300 362.48652 0.92936
1829 7.08120 363.35699 364.26464 0.92506
1830 7.08480 363.36111 363.14379 0.92658
1831 7.08840 363.36535 362.49134 0.92630
1832 7.09200 363.36973 362.61340 0.92626
1833 7.09560 363.37424 364.00780 0.92471
1834 7.09920 363.37888 363.46227 0.92440
1835 7.10280 363.38365 362.38554 0.92940
1836 7.10640 363.38855 363.08462 0.92405
1837 7.11000 363.39360 364.30002 0.92679
1838 7.11360 363.39878 363.23961 0.92523
1839 7.11720 363.40409 363.10539 0.92945
1840 7.12080 363.40955 362.92345 0.92648
1841 7.12440 363.41514 364.72781 0.92401
1842 7.12800 363.42088 362.38055 0.92742
1843 7.13160 363.42676 362.45483 0.93097
1844 7.13520 363.43278 363.48029 0.92385
1845 7.13880 363.43894 364.26594 0.92680
1846 7.14240 363.44526 362.61333 0.92481
1847 7.14600 363.45172 364.20195 0.92553
1848 7.14960 363.45833 363.86205 0.92251
1849 7.15320 363.46508 362.50010 0.92998
1850 7.15680 363.47199 362.16064 0.92801
1851 7.16040 363.47906 362.07260 0.92965
1852 7.16400 363.48628 362.87623 0.92745
1853 7.16760 363.49365 362.35971 0.92719
1854 7.17120 363.50118 362.31277 0.92848
1855 7.17480 363.50887 361.46553 0.92857
1856 7.17840 363.51672 362.09038 0.92996
1857 7.18200 363.52474 361.74485 0.93035
1858 7.18560 363.53292 362.21764 0.93391
1859 7.18920 363.54126 363.28168 0.92453
1860 7.19280 363.54978 363.77053 0.92775
1861 7.19640 363.55846 363.05670 0.92514
1862 7.20000 363.56732 363.88518 0.92819
1863 7.20360 363.57634 362.02753 0.92825
1864 7.20720 363.58559 363.43608 0.93068
1865 7.21080 363.59516 362.26011 0.92564
1866 7.21440 363.60532 364.41861 0.92601
1867 7.21800 363.61551 363.57736 0.92489
1868 7.22160 363.62545 361.49421 0.93500
1869 7.22520 363.63560 361.84598 0.92718
1870 7.22880 363.64601 363.78105 0.92492
1871 7.23240 363.65666 363.02036 0.92598
1872 7.23600 363.66735 362.40782 0.92973
1873 7.23960 363.67825 363.47526 0.92568
1874 7.24320 363.68934 364.13078 0.92416
1875 7.24680 363.70063 362.75319 0.92898
1876 7.25040 363.71213 362.32475 0.92794
1877 7.25400 363.72384 362.34084 0.92863
1878 7.25760 363.73576 361.72459 0.92982
1879 7.26120 363.74789 362.66213 0.92864
1880 7.26480 363.76024 363.37349 0.92397
1881 7.26840 363.77281 363.82653 0.92816
1882 7.27200 363.78560 362.30104 0.92743
1883 7.27560 363.79862 363.02263 0.93032
1884 7.27920 363.81187 361.49727 0.93064
1885 7.28280 363.82535 361.86973 0.93394
1886 7.28640 363.83908 360.59068 0.93157
1887 7.29000 363.85304 361.69476 0.93252
1888 7.29360 363.86725 362.01445 0.92768
1889 7.29720 363.88171 362.71040 0.93484
1890 7.30080 363.89656 361.69977 0.92959
1891 7.30440 363.91221 362.85971 0.93012
1892 7.30800 363.92952 360.71854 0.93288
1893 7.31160 363.94699 362.18475 0.93185
1894 7.31520 363.96277 363.07898 0.92636
1895 7.31880 363.97884 361.78120 0.93383
1896 7.32240 363.99518 361.77829 0.93083
1897 7.32600 364.01182 362.84737 0.92895
1898 7.32960 364.02875 362.12485 0.93157
1899 7.33320 364.04597 361.36320 0.93252
1900 7.33680 364.06350 362.66050 0.92825
1901 7.34040 364.08134 362.26180 0.92755
1902 7.34400 364.09950 361.65055 0.93141
1903 7.34760 364.11798 361.04997 0.93113
1904 7.35120 364.13679 361.80153 0.93437
1905 7.35480 364.15594 362.16995 0.92676
1906 7.35840 364.17543 363.79436 0.92932
1907 7.36200 364.19527 362.83329 0.92614
1908 7.36560 364.21547 362.61491 0.93242
1909 7.36920 364.23603 362.56868 0.92593
1910 7.37280 364.25697 361.57827 0.93102
1911 7.37640 364.27830 361.95374 0.92877
1912 7.38000 364.30001 362.62138 0.93353
1913 7.38360 364.32213 362.85882 0.92449
1914 7.38720 364.34466 362.88395 0.92723
1915 7.39080 364.36761 363.26854 0.92395
1916 7.39440 364.39099 363.12134 0.92897
1917 7.39800 364.41482 361.73155 0.92920
1918 7.40160 364.43909 362.25525 0.92997
1919 7.40520 364.46384 360.98166 0.93157
1920 7.40880 364.48906 361.10818 0.93450
1921 7.41240 364.51477 360.60975 0.93303
1922 7.41600 364.54098 361.82948 0.92851
1923 7.41960 364.56771 363.22334 0.92715
1924 7.42320 364.59497 362.41985 0.92893
1925 7.42680 364.62277 361.33193 0.93041
1926 7.43040 364.65114 362.94677 0.92525
1927 7.43400 364.68009 363.33221 0.92663
1928 7.43760 364.70964 361.47307 0.93005
1929 7.44120 364.73980 361.44274 0.93396
1930 7.44480 364.77059 361.82897 0.92657
1931 7.44840 364.80203 360.84499 0.93558
1932 7.45200 364.83415 363.53627 0.92338
1933 7.45560 364.86696 363.74932 0.92752
1934 7.45920 364.90050 360.86556 0.92762
1935 7.46280 364.93478 363.36781 0.92753
1936 7.46640 364.96982 361.50326 0.92854
1937 7.47000 365.00567 362.99839 0.93049
1938 7.47360 365.04234 362.00605 0.92555
1939 7.47720 365.07986 362.24072 0.92925
1940 7.48080 365.11827 361.26730 0.92967
1941 7.48440 365.15761 362.44260 0.93025
1942 7.48800 365.19790 361.25939 0.93055
1943 7.49160 365.23919 361.39788 0.93209
1944 7.49520 365.28151 361.89124 0.92956
1945 7.49880 365.32492 362.95879 0.92593
1946 7.50240 365.36945 363.04836 0.92843
1947 7.50600 365.41516 361.31258 0.93419
1948 7.50960 365.46210 362.31692 0.93174
1949 7.51320 365.51033 364.04200 0.92339
1950 7.51680 365.55990 364.09397 0.92588
1951 7.52040 365.61090 361.70919 0.93010
1952 7.52400 365.66337 360.80543 0.93882
1953 7.52760 365.71741 360.54132 0.93291
1954 7.53120 365.77310 363.04459 0.92870
1955 7.53480 365.83052 363.00722 0.92536
1956 7.53840 365.88978 362.36380 0.93315
1957 7.54200 365.95098 362.30863 0.92609
1958 7.54560 366.01424 362.44885 0.93207
1959 7.54920 366.07970 359.87752 0.93248
1960 7.55280 366.14749 361.91035 0.93342
1961 7.55640 366.21777 361.15123 0.93114
1962 7.56000 366.29072 361.57474 0.93300
1963 7.56360 366.36654 362.72626 0.92696
1964 7.56720 366.44544 361.57000 0.93472
1965 7.57080 366.52769 361.21379 0.93355
1966 7.57440 366.61358 362.66753 0.93049
1967 7.57800 366.70347 363.90428 0.92587
1968 7.58160 366.79778 363.53458 0.92822
1969 7.58520 366.89709 362.92550 0.92827
1970 7.58880 367.00211 362.36680 0.92929
1971 7.59240 367.11383 362.68187 0.92869
1972 7.59600 367.23360 361.13430 0.93456
1973 7.59960 367.36331 362.64259 0.93389
1974 7.60320 367.50564 361.77736 0.92858
1975 7.60680 367.66429 363.82230 0.92419
1976 7.61040 367.84433 361.55684 0.92938
1977 7.61400 368.05263 363.79311 0.92857
1978 7.61760 368.29811 363.27580 0.92504
1979 7.62120 368.59211 363.37332 0.92894
1980 7.62480 368.94850 362.44424 0.92498
1981 7.62840 369.38345 364.09417 0.92735
1982 7.63200 369.91494 363.28068 0.92375
1983 7.63560 370.56213 365.14367 0.92489
1984 7.63920 371.34378 365.21716 0.91841
1985 7.64280 372.27781 364.81628 0.92473
1986 7.64640 373.36471 366.71221 0.91735
1987 7.65000 374.61030 368.45241 0.91424
1988 7.65360 376.00640 371.18104 0.90378
1989 7.65720 377.53070 372.84476 0.90386
1990 7.66080 379.14533 374.31541 0.89785
1991 7.66440 380.79500 379.06234 0.88765
1992 7.66800 382.40593 384.25386 0.87494
1993 7.67160 383.88707 386.90460 0.86822
1994 7.67520 385.13578 390.66171 0.86048
1995 7.67880 386.05068 394.86458 0.85197
1996 7.68240 386.55150 395.66921 0.85204
1997 7.68600 386.60049 394.96720 0.85026
1998 7.68960 386.21484 393.05361 0.85871
1999 7.69320 385.46231 388.85878 0.86260
2000 7.69680 384.44215 385.37487 0.87567
2001 7.70040 383.26212 380.81839 0.88145
2002 7.70400 382.02146 377.11581 0.89507
2003 7.70760 380.80254 374.57500 0.89487
2004 7.71120 379.66872 372.40866 0.90516
2005 7.71480 378.66537 369.16340 0.90818
2006 7.71840 377.82169 366.84623 0.91883
2007 7.72200 377.15303 368.27392 0.91209
2008 7.72560 376.66338 369.57943 0.91349
2009 7.72920 376.34803 369.08434 0.91016
2010 7.73280 376.19635 369.49898 0.91382
2011 7.73640 376.19442 370.14056 0.90789
2012 7.74000 376.32736 372.40001 0.90337
2013 7.74360 376.58130 375.20459 0.89596
2014 7.74720 376.94480 374.84668 0.89808
2015 7.75080 377.41000 375.14923 0.89679
2016 7.75440 377.97346 377.20610 0.89410
2017 7.75800 378.63711 379.25960 0.88855
2018 7.76160 379.40932 381.71290 0.88090
2019 7.76520 380.30661 386.11498 0.87275
2020 7.76880 381.35613 385.22085 0.87352
2021 7.77240 382.59911 388.10181 0.86847
2022 7.77600 384.09564 389.81270 0.85951
2023 7.77960 385.93044 395.59560 0.85356
2024 7.78320 388.21962 400.93878 0.83894
2025 7.78680 391.11766 408.29196 0.82612
2026 7.79040 394.82350 409.32229 0.81965
2027 7.79400 399.58422 419.19126 0.80602
2028 7.79760 405.69427 426.78186 0.78674
2029 7.80120 413.48820 437.49761 0.77151
2030 7.80480 423.32478 446.22279 0.75264
2031 7.80840 435.56135 462.68624 0.73070
2032 7.81200 450.51818 476.34636 0.70562
2033 7.81560 468.43418 493.66253 0.68190
2034 7.81920 489.41687 512.63205 0.65464
2035 7.82280 513.39013 533.31821 0.54972
2036 7.82640 540.04336 559.67226 0.59953
2037 7.83000 568.78428 583.84216 0.54799
2038 7.83360 598.69711 606.59013 0.51865
2039 7.83720 628.51083 630.10293 0.50310
2040 7.84080 656.59393 653.62982 0.51273
2041 7.84440 681.01274 668.70649 0.49957
2042 7.84800 699.70667 677.12344 0.49532
2043 7.85160 710.81455 679.95717 0.49211
2044 7.85520 713.10282 681.43256 0.49284
2045 7.85880 706.32907 674.06951 0.49721
2046 7.86240 691.33695 663.39906 0.50846
2047 7.86600 669.81282 648.67169 0.51633
2048 7.86960 643.84542 632.27813 0.53213
2049 7.87320 615.51416 611.81081 0.54821
2050 7.87680 586.63674 596.65864 0.56329
2051 7.88040 558.67183 577.96679 0.57868
2052 7.88400 532.71201 562.19415 0.59868
2053 7.88760 509.51239 543.85302 0.61612
2054 7.89120 489.52892 527.50906 0.63815
2055 7.89480 472.95970 513.83366 0.65190
2056 7.89840 459.78910 499.04245 0.67465
2057 7.90200 449.83354 483.51533 0.69378
2058 7.90560 442.78686 470.89252 0.71355
2059 7.90920 438.26153 459.38593 0.72923
2060 7.91280 435.82279 451.28172 0.74409
2061 7.91640 435.01368 443.58152 0.75838
2062 7.92000 435.37136 436.90883 0.76810
2063 7.92360 436.43666 430.95184 0.77799
2064 7.92720 437.76707 426.59912 0.78604
2065 7.93080 438.95581 422.09524 0.79627
2066 7.93440 439.66704 417.28804 0.80356
2067 7.93800 439.67942 415.53790 0.80859
2068 7.94160 438.91881 412.06084 0.81572
2069 7.94520 437.45778 409.10034 0.82502
2070 7.94880 435.47759 405.59385 0.82811
2071 7.95240 433.21155 407.50404 0.82818
2072 7.95600 430.89582 404.43463 0.83035
2073 7.95960 428.74071 405.07015 0.83227
2074 7.96320 426.92048 404.77351 0.82879
2075 7.96680 425.57405 407.12833 0.82714
2076 7.97040 424.81066 408.96033 0.81936
2077 7.97400 424.71806 411.75945 0.81786
2078 7.97760 425.37328 412.96262 0.81112
2079 7.98120 426.85636 419.49891 0.80177
2080 7.98480 429.26781 425.79807 0.78710
2081 7.98840 432.75007 433.53670 0.77510
2082 7.99200 437.51319 441.16567 0.76019
2083 7.99560 443.86413 453.00052 0.74135
2084 7.99920 452.23855 466.86789 0.71763
2085 8.00280 463.23262 480.78905 0.69793
2086 8.00640 477.63058 499.55010 0.67140
2087 8.01000 496.42240 519.44536 0.56777
2088 8.01360 520.80401 547.72747 0.54609
2089 8.01720 552.15300 578.65086 0.45813
2090 8.02080 591.96842 618.14460 0.40131
2091 8.02440 641.75779 663.01061 0.31460
2092 8.02800 702.88812 723.01692 0.27430
2093 8.03160 776.46237 787.54414 0.24655
2094 8.03520 863.05979 870.15947 0.19688
2095 8.03880 962.53566 964.37517 0.15017
2096 8.04240 1073.80641 1079.21689 0.13440
2097 8.04600 1194.64675 1198.27569 0.11251
2098 8.04960 1321.50377 1331.03560 0.10221
2099 8.05320 1449.34155 1454.68603 0.10321
2100 8.05680 1571.56987 1572.46942 0.10723
2101 8.06040 1680.19316 1671.23948 0.11524
2102 8.06400 1766.40223 1747.82182 0.13944
2103 8.06760 1821.80266 1784.38854 0.18406
2104 8.07120 1840.18675 1793.26028 0.18427
2105 8.07480 1819.25301 1761.22676 0.16142
2106 8.07840 1761.37659 1704.38167 0.14033
2107 8.08200 1672.92051 1624.64681 0.10792
2108 8.08560 1562.47740 1528.93171 0.11230
2109 8.08920 1438.99294 1427.72252 0.10050
2110 8.09280 1310.48377 1323.61383 0.11784
2111 8.09640 1183.46818 1227.85486 0.12049
2112 8.10000 1062.86738 1129.04672 0.13925
2113 8.10360 952.11460 1037.73931 0.15632
2114 8.10720 853.32787 949.07561 0.17587
2115 8.11080 767.50051 864.72658 0.19584
2116 8.11440 694.70377 787.01419 0.24633
2117 8.11800 634.30034 718.42555 0.28743
2118 8.12160 585.16000 657.03278 0.33700
2119 8.12520 545.86279 603.51058 0.39011
2120 8.12880 514.87534 555.98174 0.46806
2121 8.13240 490.68969 522.21840 0.60319
2122 8.13600 471.92042 492.20629 0.65505
2123 8.13960 457.36182 469.75392 0.71703
2124 8.14320 446.01115 450.64783 0.74389
2125 8.14680 437.06644 437.05539 0.77229
2126 8.15040 429.90778 422.82409 0.79235
2127 8.15400 424.06980 414.38456 0.81188
2128 8.15760 419.21163 406.11331 0.82610
2129 8.16120 415.08833 399.86135 0.84163
2130 8.16480 411.52608 397.18280 0.84545
2131 8.16840 408.40217 393.56193 0.85382
2132 8.17200 405.62965 388.64551 0.86433
2133 8.17560 403.14609 383.70968 0.87499
2134 8.17920 400.90565 381.49364 0.88082
2135 8.18280 398.87375 380.91869 0.87970
2136 8.18640 397.02344 380.05476 0.88485
2137 8.19000 395.33310 377.28326 0.88909
2138 8.19360 393.78490 376.49827 0.89601
2139 8.19720 392.36388 376.32857 0.89198
2140 8.20080 391.05726 376.27294 0.89474
2141 8.20440 389.85405 374.79976 0.89426
2142 8.20800 388.74476 375.05834 0.89783
2143 8.21160 387.72116 372.79909 0.89808
2144 8.21520 386.77609 372.78442 0.90498
2145 8.21880 385.90368 373.41982 0.89826
2146 8.22240 385.09905 374.54510 0.89826
2147 8.22600 384.35845 373.23627 0.89521
2148 8.22960 383.67934 374.47216 0.89709
2149 8.23320 383.06059 374.73058 0.89371
2150 8.23680 382.50262 376.16081 0.89144
2151 8.24040 382.00766 375.66196 0.89016
2152 8.24400 381.57992 375.89369 0.89427
2153 8.24760 381.22572 376.15202 0.89336
2154 8.25120 380.95348 376.49740 0.89278
2155 8.25480 380.77349 377.61468 0.88747
2156 8.25840 380.69736 378.06039 0.88586
2157 8.26200 380.73716 380.36531 0.88267
2158 8.26560 380.90416 383.90367 0.87236
2159 8.26920 381.20726 384.93011 0.87096
2160 8.27280 381.65112 385.25246 0.87126
2161 8.27640 382.23425 389.62189 0.86430
2162 8.28000 382.94701 390.94180 0.85658
2163 8.28360 383.76972 393.26725 0.85623
2164 8.28720 384.67092 396.49825 0.84397
2165 8.29080 385.60574 398.34210 0.84601
2166 8.29440 386.51493 400.64761 0.83405
2167 8.29800 387.32561 403.91403 0.83158
2168 8.30160 387.95569 404.69754 0.82484
2169 8.30520 388.32397 405.09246 0.82992
2170 8.30880 388.36656 403.70282 0.82905
2171 8.31240 388.05462 404.76803 0.83107
2172 8.31600 387.39991 404.45345 0.82892
2173 8.31960 386.45488 401.48051 0.83750
2174 8.32320 385.29641 399.34527 0.83932
2175 8.32680 384.00784 398.98663 0.84159
2176 8.33040 382.66570 395.95465 0.84623
2177 8.33400 381.33319 396.48242 0.84588
2178 8.33760 380.05867 395.57163 0.84721
2179 8.34120 378.87646 393.21318 0.85188
2180 8.34480 377.80848 391.22807 0.85813
2181 8.34840 376.86593 387.70167 0.86581
2182 8.35200 376.05119 384.82657 0.87313
2183 8.35560 375.35971 383.30773 0.87135
2184 8.35920 374.78196 382.93547 0.87705
2185 8.36280 374.30533 380.62577 0.87968
2186 8.36640 373.91576 379.35031 0.88513
2187 8.37000 373.59912 376.21077 0.88860
2188 8.37360 373.34220 375.56261 0.89303
2189 8.37720 373.13331 374.54581 0.89115
2190 8.38080 372.96259 374.19388 0.89717
2191 8.38440 372.82206 373.40417 0.89534
2192 8.38800 372.70547 373.00424 0.90157
2193 8.39160 372.60810 371.42555 0.89928
2194 8.39520 372.52650 369.03342 0.91074
2195 8.39880 372.45817 368.77295 0.90898
2196 8.40240 372.40139 369.35400 0.90985
2197 8.40600 372.35500 367.92049 0.90939
2198 8.40960 372.31823 367.17273 0.91461
2199 8.41320 372.29063 365.78388 0.91691
2200 8.41680 372.27193 365.25710 0.91616
2201 8.42040 372.26207 366.44007 0.91240
2202 8.42400 372.26108 366.93482 0.91213
2203 8.42760 372.26914 366.13828 0.91627
2204 8.43120 372.28652 365.34449 0.91657
2205 8.43480 372.31358 367.37785 0.91393
2206 8.43840 372.35081 366.75962 0.91231
2207 8.44200 372.39881 367.26288 0.91435
2208 8.44560 372.45832 365.73613 0.91386
2209 8.44920 372.53026 366.56304 0.91537
2210 8.45280 372.61574 365.30131 0.91296
2211 8.45640 372.71619 365.82963 0.91617
2212 8.46000 372.83339 364.27826 0.91443
2213 8.46360 372.96971 365.15809 0.91824
2214 8.46720 373.12828 365.79344 0.91357
2215 8.47080 373.31344 366.77813 0.91484
2216 8.47440 373.53120 366.60771 0.91204
2217 8.47800 373.79000 366.42316 0.91938
2218 8.48160 374.10171 366.90402 0.91196
2219 8.48520 374.48289 367.67674 0.91169
2220 8.48880 374.95632 367.31724 0.90884
2221 8.49240 375.55276 368.19821 0.91146
2222 8.49600 376.31273 367.53967 0.91182
2223 8.49960 377.28807 369.11211 0.90888
2224 8.50320 378.54298 369.38866 0.90987
2225 8.50680 380.15393 370.50075 0.90922
2226 8.51040 382.20809 373.07463 0.90081
2227 8.51400 384.79965 375.19382 0.89631
2228 8.51760 388.02382 376.97818 0.89145
2229 8.52120 391.96836 379.33018 0.88406
2230 8.52480 396.70288 383.65335 0.87544
2231 8.52840 402.26655 387.66075 0.86421
2232 8.53200 408.65500 397.24104 0.84717
2233 8.53560 415.80714 405.50222 0.82582
2234 8.53920 423.59238 416.48533 0.80583
2235 8.54280 431.79842 425.74153 0.78351
2236 8.54640 440.12007 438.07916 0.76772
2237 8.55000 448.15204 449.37303 0.74309
2238 8.55360 455.39395 459.83525 0.73079
2239 8.55720 461.28179 466.34773 0.71536
2240 8.56080 465.26031 470.94425 0.71105
2241 8.56440 466.89447 471.15874 0.70920
2242 8.56800 465.98600 470.22002 0.71287
2243 8.57160 462.63714 463.15813 0.72220
2244 8.57520 457.22140 457.81595 0.73166
2245 8.57880 450.27740 448.29578 0.74551
2246 8.58240 442.38470 438.28771 0.76548
2247 8.58600 434.07293 427.29753 0.78376
2248 8.58960 425.77821 418.55041 0.79970
2249 8.59320 417.83358 410.38823 0.81681
2250 8.59680 410.47550 401.46041 0.83435
2251 8.60040 403.85532 394.05440 0.85034
2252 8.60400 398.05156 389.26979 0.85826
2253 8.60760 393.08257 382.94687 0.87573
2254 8.61120 388.91950 377.37564 0.88638
2255 8.61480 385.49942 375.46352 0.89586
2256 8.61840 382.73795 370.69027 0.90291
2257 8.62200 380.54050 368.58698 0.91344
2258 8.62560 378.81139 368.21751 0.90738
2259 8.62920 377.46067 366.63657 0.91759
2260 8.63280 376.40834 365.36984 0.91610
2261 8.63640 375.58655 365.72997 0.91958
2262 8.64000 374.93999 364.29184 0.91741
2263 8.64360 374.42510 363.30673 0.92560
2264 8.64720 374.00859 362.71071 0.92284
2265 8.65080 373.66568 361.67019 0.92873
2266 8.65440 373.37827 361.42423 0.92500
2267 8.65800 373.13336 363.53252 0.92037
2268 8.66160 372.92166 363.96439 0.92040
2269 8.66520 372.73655 363.51482 0.92077
2270 8.66880 372.57326 362.73100 0.92185
2271 8.67240 372.42831 363.75226 0.91963
2272 8.67600 372.29908 363.09630 0.92091
2273 8.67960 372.18354 364.25396 0.92011
2274 8.68320 372.08008 365.59530 0.91746
2275 8.68680 371.98739 363.89554 0.91934
2276 8.69040 371.90436 363.70169 0.92310
2277 8.69400 371.83007 362.56630 0.92270
2278 8.69760 371.76370 362.64224 0.92537
2279 8.70120 371.70456 362.65618 0.92087
2280 8.70480 371.65203 363.38585 0.92213
2281 8.70840 371.60558 361.83781 0.92256
2282 8.71200 371.56476 361.81427 0.92843
2283 8.71560 371.52997 363.71149 0.92066
2284 8.71920 371.50274 363.00265 0.92612
2285 8.72280 371.48466 362.93990 0.91726
2286 8.72640 371.46251 364.25942 0.92366
2287 8.73000 371.44431 362.43642 0.92143
2288 8.73360 371.42981 362.55476 0.92575
2289 8.73720 371.41883 362.02624 0.92372
2290 8.74080 371.41117 362.89181 0.92577
2291 8.74440 371.40670 362.43514 0.92647
2292 8.74800 371.40527 362.39050 0.92816
2293 8.75160 371.40677 361.10879 0.92750
2294 8.75520 371.41109 362.76320 0.92648
2295 8.75880 371.41816 363.03564 0.92657
2296 8.76240 371.42790 362.63790 0.92548
2297 8.76600 371.44025 363.52522 0.92520
2298 8.76960 371.45518 364.51501 0.91863
2299 8.77320 371.47266 364.10374 0.92147
2300 8.77680 371.49267 363.46440 0.92086
2301 8.78040 371.51520 364.41186 0.92240
2302 8.78400 371.54026 364.36360 0.91842
2303 8.78760 371.56788 363.93315 0.92033
2304 8.79120 371.59809 363.39664 0.91994
2305 8.79480 371.63093 363.59601 0.92474
2306 8.79840 371.66648 362.92895 0.92116
2307 8.80200 371.70482 363.40605 0.92382
2308 8.80560 371.74609 364.37061 0.91714
2309 8.80920 371.79064 365.22678 0.92098
2310 8.81280 371.83927 362.52490 0.92364
2311 8.81640 371.89002 364.17995 0.92326
2312 8.82000 371.94415 364.77355 0.91988
2313 8.82360 372.00201 364.48655 0.92478
2314 8.82720 372.06387 364.43402 0.91989
2315 8.83080 372.13008 364.94693 0.91553
2316 8.83440 372.20106 365.30669 0.91158
2317 8.83800 372.27737 366.32594 0.91127
2318 8.84160 372.35976 366.69431 0.91077
2319 8.84520 372.44921 366.51069 0.91001
2320 8.84880 372.54707 366.53917 0.91113
2321 8.85240 372.65523 367.59843 0.90912
2322 8.85600 372.77624 368.09603 0.90942
2323 8.85960 372.91361 366.62748 0.91097
2324 8.86320 373.07203 366.91204 0.91527
2325 8.86680 373.25766 366.87598 0.91161
2326 8.87040 373.47839 367.73505 0.91005
2327 8.87400 373.74403 368.43248 0.90600
2328 8.87760 374.06632 370.84658 0.90531
2329 8.88120 374.45878 368.84897 0.90666
2330 8.88480 374.93619 371.98101 0.90303
2331 8.88840 375.51383 371.91710 0.89729
2332 8.89200 376.20620 374.98707 0.89488
2333 8.89560 377.02554 372.47460 0.89652
2334 8.89920 377.97995 373.79864 0.89799
2335 8.90280 379.07141 374.92826 0.89232
2336 8.90640 380.29373 378.79149 0.88445
2337 8.91000 381.63055 378.03054 0.88253
2338 8.91360 383.05327 380.14351 0.88016
2339 8.91720 384.51916 382.21088 0.87401
2340 8.92080 385.96972 384.90131 0.87006
2341 8.92440 387.33039 386.30213 0.86619
2342 8.92800 388.51381 387.59417 0.86354
2343 8.93160 389.42905 387.91530 0.86224
2344 8.93520 389.99941 388.17381 0.85900
2345 8.93880 390.18259 390.49439 0.85643
2346 8.94240 389.98112 389.02840 0.85832
2347 8.94600 389.42295 390.26568 0.85970
2348 8.94960 388.60314 390.43953 0.85667
2349 8.95320 387.61637 390.78621 0.85989
2350 8.95680 386.55340 391.47542 0.85425
2351 8.96040 385.49167 394.16705 0.85380
2352 8.96400 384.49252 392.82695 0.85447
2353 8.96760 383.60195 393.84133 0.85261
2354 8.97120 382.85271 394.58484 0.84289
2355 8.97480 382.26670 398.40756 0.83703
2356 8.97840 381.85755 398.43899 0.83685
2357 8.98200 381.63339 398.81556 0.83995
2358 8.98560 381.59994 400.10948 0.83399
2359 8.98920 381.76378 402.43849 0.83198
2360 8.99280 382.13591 406.29535 0.82282
2361 8.99640 382.73525 407.30854 0.82178
2362 9.00000 383.59219 410.53727 0.81471
2363 9.00360 384.75175 413.89237 0.80716
2364 9.00720 386.27631 415.83107 0.80218
2365 9.01080 388.24698 420.27223 0.79582
2366 9.01440 390.76520 425.67268 0.78552
2367 9.01800 393.95071 429.72487 0.77905
2368 9.02160 397.93822 433.23536 0.77239
2369 9.02520 402.87082 437.97625 0.76497
2370 9.02880 408.89019 445.08294 0.75492
2371 9.03240 416.12321 449.16883 0.74557
2372 9.03600 424.66510 457.49489 0.73377
2373 9.03960 434.55973 464.63867 0.71924
2374 9.04320 445.77785 473.00393 0.71258
2375 9.04680 458.19497 480.57479 0.69510
2376 9.05040 471.57187 489.74007 0.68333
2377 9.05400 485.54157 495.99886 0.67163
2378 9.05760 499.60712 504.67741 0.66621
2379 9.06120 513.15219 508.89250 0.65699
2380 9.06480 525.46274 515.29635 0.65268
2381 9.06840 535.75897 519.34694 0.64620
2382 9.07200 543.24857 521.62799 0.64584
2383 9.07560 547.21602 521.77984 0.64242
2384 9.07920 547.19118 518.49912 0.64736
2385 9.08280 543.08197 514.63216 0.64672
2386 9.08640 535.24369 510.79220 0.65039
2387 9.09000 524.40552 503.43070 0.66221
2388 9.09360 511.49419 494.92457 0.67484
2389 9.09720 497.44742 485.21672 0.68928
2390 9.10080 483.08767 475.99357 0.70148
2391 9.10440 469.06899 467.09002 0.71518
2392 9.10800 455.87272 456.43240 0.73006
2393 9.11160 443.82482 448.46681 0.74567
2394 9.11520 433.11867 441.55253 0.75619
2395 9.11880 423.83780 433.05496 0.77260
2396 9.12240 415.97782 427.51426 0.78010
2397 9.12600 409.46787 424.79560 0.78918
2398 9.12960 404.19134 418.00553 0.79898
2399 9.13320 400.00510 414.01932 0.81014
2400 9.13680 396.75628 408.44771 0.81750
2401 9.14040 394.29592 405.02546 0.82936
2402 9.14400 392.48900 402.12313 0.82990
2403 9.14760 391.22119 401.39422 0.83466
2404 9.15120 390.40260 397.95991 0.83953
2405 9.15480 389.96948 394.75637 0.85069
2406 9.15840 389.88442 393.63466 0.84720
2407 9.16200 390.13561 390.81239 0.85741
2408 9.16560 390.73494 391.71031 0.85334
2409 9.16920 391.71243 391.45758 0.85584
2410 9.17280 393.12225 391.08552 0.85567
2411 9.17640 395.03168 390.82738 0.85780
2412 9.18000 397.51792 391.54730 0.85505
2413 9.18360 400.66128 392.92031 0.85180
2414 9.18720 404.53655 392.81013 0.85214
2415 9.19080 409.20289 393.90462 0.84817
2416 9.19440 414.69266 395.86122 0.84763
2417 9.19800 420.99971 399.03522 0.83920
2418 9.20160 428.06773 403.97526 0.83087
2419 9.20520 435.77878 409.67588 0.81825
2420 9.20880 443.94187 419.89067 0.80044
2421 9.21240 452.28216 428.37549 0.78331
2422 9.21600 460.43379 442.72721 0.75689
2423 9.21960 467.94515 452.90437 0.73453
2424 9.22320 474.31133 462.21806 0.72474
2425 9.22680 479.04783 471.57199 0.70767
2426 9.23040 481.80179 475.56834 0.70613
2427 9.23400 482.46469 476.21505 0.70123
2428 9.23760 481.22851 473.55598 0.70576
2429 9.24120 478.54923 469.77675 0.71158
2430 9.24480 475.03730 465.35918 0.72084
2431 9.24840 471.33354 457.00216 0.73007
2432 9.25200 468.01798 453.12604 0.73891
2433 9.25560 465.56324 448.56047 0.74193
2434 9.25920 464.31876 447.79350 0.74608
2435 9.26280 464.50893 449.84714 0.74321
2436 9.26640 466.23492 453.96270 0.73523
2437 9.27000 469.47657 461.48976 0.72420
2438 9.27360 474.09452 469.93385 0.70791
2439 9.27720 479.83500 479.78206 0.69994
2440 9.28080 486.34297 489.02890 0.68423
2441 9.28440 493.19247 499.31599 0.67130
2442 9.28800 499.94344 509.36501 0.65443
2443 9.29160 506.22374 519.02794 0.64793
2444 9.29520 511.81620 525.80233 0.63527
2445 9.29880 516.71766 534.51781 0.62793
2446 9.30240 521.14824 540.90077 0.61404
2447 9.30600 525.51703 548.34038 0.61132
2448 9.30960 530.36344 550.72535 0.60729
2449 9.31320 536.28356 561.16942 0.59854
2450 9.31680 543.84260 569.90963 0.58660
2451 9.32040 553.48228 578.60117 0.57854
2452 9.32400 565.43943 588.96540 0.56549
2453 9.32760 579.68585 600.03337 0.55654
2454 9.33120 595.88678 607.59970 0.54919
2455 9.33480 613.37057 621.06125 0.53827
2456 9.33840 631.10915 626.25819 0.53129
2457 9.34200 647.72710 638.93748 0.52196
2458 9.34560 661.57966 646.10297 0.51752
2459 9.34920 670.94848 648.17287 0.51619
2460 9.35280 674.36622 647.58189 0.51511
2461 9.35640 670.98751 644.97349 0.51737
2462 9.36000 660.83080 637.77331 0.52528
2463 9.36360 644.76308 629.19354 0.53036
2464 9.36720 624.22110 616.52118 0.54413
2465 9.37080 600.83469 600.70329 0.55758
2466 9.37440 576.13171 582.29431 0.54647
2467 9.37800 551.38396 564.23710 0.59273
2468 9.38160 527.56684 546.42147 0.61013
2469 9.38520 505.37692 530.18560 0.62490
2470 9.38880 485.26657 516.23032 0.64813
2471 9.39240 467.48279 500.32156 0.66545
2472 9.39600 452.10292 486.30279 0.68875
2473 9.39960 439.06909 474.64850 0.70361
2474 9.40320 428.22352 463.33968 0.72494
2475 9.40680 419.34220 454.53932 0.73386
2476 9.41040 412.16577 446.59831 0.74926
2477 9.41400 406.42538 440.19620 0.75921
2478 9.41760 401.86265 432.98991 0.77347
2479 9.42120 398.24323 426.22981 0.78173
2480 9.42480 395.36434 420.22108 0.79705
2481 9.42840 393.05748 416.73569 0.80215
2482 9.43200 391.18739 411.97268 0.81299
2483 9.43560 389.64871 408.59831 0.81922
2484 9.43920 388.36146 405.50130 0.82616
2485 9.44280 387.26613 404.17831 0.82857
2486 9.44640 386.31917 400.13852 0.83573
2487 9.45000 385.48895 396.79114 0.84525
2488 9.45360 384.75253 394.62496 0.84630
2489 9.45720 384.09320 394.40491 0.84876
2490 9.46080 383.49856 395.84640 0.84208
2491 9.46440 382.95925 393.41320 0.85289
2492 9.46800 382.46801 392.40149 0.85142
2493 9.47160 382.01903 392.11368 0.85861
2494 9.47520 381.60756 389.88559 0.85869
2495 9.47880 381.22963 390.81023 0.86124
2496 9.48240 380.88183 388.87755 0.86122
2497 9.48600 380.56125 386.28666 0.86814
2498 9.48960 380.26532 385.52005 0.86636
2499 9.49320 379.99180 383.42464 0.87641
2500 9.49680 379.73870 380.75713 0.88022
2501 9.50040 379.50426 379.34020 0.88609
2502 9.50400 379.28691 377.94837 0.88605
2503 9.50760 379.08525 376.88912 0.89325
2504 9.51120 378.89801 376.78427 0.89334
2505 9.51480 378.72408 374.53414 0.90055
2506 9.51840 378.56244 374.69845 0.89611
2507 9.52200 378.41219 373.89215 0.89569
2508 9.52560 378.27250 373.28035 0.89926
2509 9.52920 378.14264 373.95549 0.89813
2510 9.53280 378.02193 372.15386 0.90336
2511 9.53640 377.90976 374.08197 0.89538
2512 9.54000 377.80561 374.76894 0.89629
2513 9.54360 377.70901 373.50051 0.89782
2514 9.54720 377.61939 372.37545 0.90337
2515 9.55080 377.53640 373.03502 0.89739
2516 9.55440 377.45969 372.34456 0.90340
2517 9.55800 377.38890 371.08395 0.90158
2518 9.56160 377.32374 372.68088 0.90343
2519 9.56520 377.26393 371.09913 0.90098
2520 9.56880 377.20923 372.26299 0.90267
2521 9.57240 377.15940 371.24520 0.90456
2522 9.57600 377.11425 370.18978 0.91228
2523 9.57960 377.07361 369.71719 0.90903
2524 9.58320 377.03731 371.01085 0.90937
2525 9.58680 377.00521 368.57271 0.91172
2526 9.59040 376.97720 370.55996 0.91108
2527 9.59400 376.95318 371.06616 0.90615
2528 9.59760 376.93307 371.31090 0.90506
2529 9.60120 376.91679 371.19956 0.90471
2530 9.60480 376.90429 370.49288 0.90656
2531 9.60840 376.89556 370.36999 0.90921
2532 9.61200 376.89057 370.37154 0.90642
2533 9.61560 376.88933 370.71570 0.90940
2534 9.61920 376.89186 371.12316 0.90618
2535 9.62280 376.89821 373.69524 0.90175
2536 9.62640 376.90844 371.02561 0.90423
2537 9.63000 376.92263 372.66977 0.90619
2538 9.63360 376.94090 373.02016 0.90088
2539 9.63720 376.96338 377.50051 0.89078
2540 9.64080 376.99024 377.65218 0.88899
2541 9.64440 377.02169 380.29825 0.88626
2542 9.64800 377.05795 382.44699 0.87635
2543 9.65160 377.09933 387.26630 0.87137
2544 9.65520 377.14614 393.30870 0.85484
2545 9.65880 377.19881 396.17569 0.84996
2546 9.66240 377.25783 400.32720 0.83761
2547 9.66600 377.32382 404.22020 0.83184
2548 9.66960 377.39754 404.37827 0.82921
2549 9.67320 377.48000 404.47713 0.83261
2550 9.67680 377.57253 402.36451 0.83462
2551 9.68040 377.67689 399.44885 0.84246
2552 9.68400 377.79550 394.80154 0.85076
2553 9.68760 377.93163 391.38983 0.85767
2554 9.69120 378.08973 390.05468 0.86110
2555 9.69480 378.27578 384.27331 0.87456
2556 9.69840 378.49773 383.61238 0.87498
2557 9.70200 378.76583 383.25409 0.87390
2558 9.70560 379.09309 381.08819 0.88204
2559 9.70920 379.49545 380.06755 0.88021
2560 9.71280 379.99183 381.70569 0.88177
2561 9.71640 380.60380 381.75802 0.87669
2562 9.72000 381.35482 385.16658 0.87406
2563 9.72360 382.26898 384.25792 0.86895
2564 9.72720 383.36923 385.51557 0.87071
2565 9.73080 384.67506 387.94148 0.86229
2566 9.73440 386.19986 389.96596 0.86248
2567 9.73800 387.94791 389.34801 0.85829
2568 9.74160 389.91116 392.05389 0.85573
2569 9.74520 392.06585 394.63402 0.84838
2570 9.74880 394.36879 398.49453 0.84370
2571 9.75240 396.75354 400.75724 0.83443
2572 9.75600 399.12721 403.61580 0.83105
2573 9.75960 401.37019 403.28416 0.83214
2574 9.76320 403.34295 405.73908 0.82769
2575 9.76680 404.90362 408.99751 0.81938
2576 9.77040 405.93588 409.76554 0.81766
2577 9.77400 406.37811 411.41307 0.81459
2578 9.77760 406.23910 412.28931 0.81408
2579 9.78120 405.59180 411.88707 0.81572
2580 9.78480 404.55112 411.81765 0.81394
2581 9.78840 403.25090 413.76962 0.80992
2582 9.79200 401.83018 415.97548 0.80558
2583 9.79560 400.42824 414.72896 0.81095
2584 9.79920 399.18245 415.51932 0.80612
2585 9.80280 398.22546 415.74206 0.81013
2586 9.80640 397.68199 414.58668 0.80502
2587 9.81000 397.66650 415.18969 0.81171
2588 9.81360 398.28181 416.43161 0.80399
2589 9.81720 399.61766 418.48204 0.80631
2590 9.82080 401.74799 420.28979 0.80304
2591 9.82440 404.72650 419.63268 0.80970
2592 9.82800 408.58039 424.06114 0.80180
2593 9.83160 413.30267 428.02811 0.74841
2594 9.83520 418.84332 430.91052 0.70624
2595 9.83880 425.09960 433.69893 0.70417
2596 9.84240 431.90511 437.83075 0.69770
2597 9.84600 439.01769 440.21792 0.69635
2598 9.84960 446.10765 441.96616 0.69268
2599 9.85320 452.75217 447.48030 0.68431
2600 9.85680 458.44899 449.00989 0.68215
2601 9.86040 462.66634 450.72447 0.68002
2602 9.86400 464.93695 451.30267 0.67825
2603 9.86760 464.96778 449.10694 0.68174
2604 9.87120 462.74094 449.86800 0.68159
2605 9.87480 458.51309 448.85430 0.68347
2606 9.87840 452.73604 446.79978 0.68875
2607 9.88200 445.93723 441.94277 0.69704
2608 9.88560 438.61817 437.79612 0.70521
2609 9.88920 431.19873 432.43858 0.71256
2610 9.89280 424.00138 428.41658 0.72564
2611 9.89640 417.25687 422.85490 0.73545
2612 9.90000 411.11702 420.08786 0.75194
2613 9.90360 405.66783 413.01608 0.69729
2614 9.90720 400.94334 411.36486 0.61320
2615 9.91080 396.92524 407.12577 0.61387
2616 9.91440 393.57367 403.78971 0.62357
2617 9.91800 390.82514 399.39792 0.62962
2618 9.92160 388.60328 397.98352 0.63490
2619 9.92520 386.82774 396.10953 0.63572
2620 9.92880 385.42041 393.30013 0.63985
2621 9.93240 384.30975 393.06783 0.63877
2622 9.93600 383.43337 392.02663 0.64005
2623 9.93960 382.73900 391.93705 0.64106
2624 9.94320 382.18442 392.89493 0.64063
2625 9.94680 381.73651 391.92375 0.64364
2626 9.95040 381.37000 393.49214 0.64021
2627 9.95400 381.06599 394.19261 0.64152
2628 9.95760 380.81059 394.28608 0.63975
2629 9.96120 380.59369 398.58452 0.63495
2630 9.96480 380.40797 401.53844 0.62873
2631 9.96840 380.24809 404.93913 0.62378
2632 9.97200 380.11014 408.40280 0.61188
2633 9.97560 379.99117 411.21226 0.61245
2634 9.97920 379.88893 410.99498 0.60920
2635 9.98280 379.80168 413.26584 0.61129
2636 9.98640 379.72799 408.18409 0.61375
2637 9.99000 379.66673 403.60596 0.62645
2638 9.99360 379.61694 398.40637 0.63031
2639 9.99720 379.57785 394.42164 0.63887
2640 10.00080 379.54879 392.49593 0.64076
2641 10.00440 379.52923 388.38747 0.64746
2642 10.00800 379.51872 383.54862 0.65391
2643 10.01160 379.51692 381.52949 0.65953
2644 10.01520 379.52356 380.57675 0.65867
2645 10.01880 379.53842 381.41268 0.65863
2646 10.02240 379.56139 379.55580 0.66351
2647 10.02600 379.59239 378.97067 0.66659
2648 10.02960 379.63144 378.27144 0.66892
2649 10.03320 379.67860 376.81975 0.66901
2650 10.03680 379.73399 375.85611 0.67188
2651 10.04040 379.79782 375.19837 0.67279
2652 10.04400 379.87034 376.40012 0.67284
2653 10.04760 379.95208 378.03353 0.66442
2654 10.05120 380.04407 376.59432 0.67055
2655 10.05480 380.14736 372.91584 0.67290
2656 10.05840 380.25922 375.27760 0.67281
2657 10.06200 380.38312 375.86921 0.66884
2658 10.06560 380.51776 377.71181 0.67124
2659 10.06920 380.66530 377.29153 0.67214
2660 10.07280 380.82682 375.93837 0.67645
2661 10.07640 381.00353 376.78092 0.67559
2662 10.08000 381.19685 377.86713 0.66891
2663 10.08360 381.40843 374.74120 0.59493
2664 10.08720 381.64016 376.39161 0.59322
2665 10.09080 381.89433 376.55498 0.64727
2666 10.09440 382.17350 376.55864 0.76619
2667 10.09800 382.48193 375.91391 0.75622
2668 10.10160 382.82352 376.42326 0.75068
2669 10.10520 383.20392 377.11267 0.74456
2670 10.10880 383.63064 377.91647 0.74374
2671 10.11240 384.11382 377.92588 0.74124
2672 10.11600 384.66735 377.89064 0.73816
2673 10.11960 385.31025 379.16565 0.73668
2674 10.12320 386.06854 377.58276 0.74252
2675 10.12680 386.97742 377.18008 0.74433
2676 10.13040 388.08373 379.35723 0.73739
2677 10.13400 389.44850 379.85047 0.74064
2678 10.13760 391.14950 381.65595 0.73414
2679 10.14120 393.28291 381.36660 0.73971
2680 10.14480 395.96066 381.02754 0.73992
2681 10.14840 399.30925 384.58214 0.74414
2682 10.15200 403.47015 384.81762 0.74999
2683 10.15560 408.58562 390.76463 0.57631
2684 10.15920 414.78920 392.90339 0.56663
2685 10.16280 422.19125 396.69739 0.56234
2686 10.16640 430.86192 404.88074 0.54868
2687 10.17000 440.81253 417.78339 0.56294
2688 10.17360 451.97569 430.68210 0.59618
2689 10.17720 464.18429 450.82330 0.44247
2690 10.18080 477.14838 481.73954 0.36903
2691 10.18440 490.43014 521.05228 0.29230
2692 10.18800 503.42112 562.12167 0.27942
2693 10.19160 515.33595 602.61381 0.27667
2694 10.19520 525.25003 634.62673 0.39473
2695 10.19880 532.21244 653.62519 0.38437
2696 10.20240 535.43864 657.49532 0.38118
2697 10.20600 534.52687 648.74316 0.38583
2698 10.20960 529.59050 623.69237 0.30137
2699 10.21320 521.22353 587.33046 0.34152
2700 10.21680 510.31873 549.44146 0.30467
2701 10.22040 497.84426 512.43968 0.38290
2702 10.22400 484.67759 481.61121 0.42504
2703 10.22760 471.52766 456.10725 0.50498
2704 10.23120 458.92269 437.67352 0.57608
2705 10.23480 447.22862 421.77279 0.59725
2706 10.23840 436.67533 410.48935 0.61547
2707 10.24200 427.37946 401.04708 0.62990
2708 10.24560 419.36896 394.38630 0.64270
2709 10.24920 412.60313 389.56888 0.64339
2710 10.25280 406.99070 388.70857 0.65121
2711 10.25640 402.40833 385.44603 0.65334
2712 10.26000 398.71651 385.78626 0.65444
2713 10.26360 395.77275 381.83767 0.66010
2714 10.26720 393.44149 381.48964 0.66220
2715 10.27080 391.60066 380.13894 0.66294
2716 10.27440 390.14479 378.66732 0.66540
2717 10.27800 388.98636 378.13747 0.66688
2718 10.28160 388.05464 376.94953 0.66989
2719 10.28520 387.29250 378.11469 0.66641
2720 10.28880 386.67363 379.77059 0.66336
2721 10.29240 386.15846 377.29544 0.66713
2722 10.29600 385.72442 375.22945 0.67158
2723 10.29960 385.35524 376.69398 0.67074
2724 10.30320 385.03909 378.51819 0.66629
2725 10.30680 384.76731 376.34343 0.67040
2726 10.31040 384.53348 377.41149 0.66761
2727 10.31400 384.33276 376.36755 0.67067
2728 10.31760 384.16138 377.10233 0.66623
2729 10.32120 384.01640 379.03800 0.66634
2730 10.32480 383.89542 377.50742 0.66846
2731 10.32840 383.79649 377.73823 0.66965
2732 10.33200 383.71799 376.95308 0.66940
2733 10.33560 383.65858 377.85487 0.66996
2734 10.33920 383.61715 377.95337 0.66811
2735 10.34280 383.59279 379.41358 0.81572
2736 10.34640 383.58476 379.06341 0.82901
2737 10.35000 383.59245 378.34268 0.82600
2738 10.35360 383.61539 378.83070 0.81854
2739 10.35720 383.65327 378.36625 0.81775
2740 10.36080 383.70592 378.15131 0.81512
2741 10.36440 383.77322 378.32220 0.81719
2742 10.36800 383.85515 381.38233 0.81128
2743 10.37160 383.95177 380.43700 0.81670
2744 10.37520 384.06314 379.67996 0.81802
2745 10.37880 384.19021 381.47339 0.81931
2746 10.38240 384.33419 380.27990 0.76497
2747 10.38600 384.49521 381.15617 0.73307
2748 10.38960 384.67434 382.79329 0.72917
2749 10.39320 384.87296 381.02972 0.73157
2750 10.39680 385.09286 381.71424 0.73230
2751 10.40040 385.33635 381.13993 0.73037
2752 10.40400 385.60642 384.02532 0.72940
2753 10.40760 385.90684 385.20227 0.72515
2754 10.41120 386.24237 387.12645 0.72132
2755 10.41480 386.61885 386.22258 0.71840
2756 10.41840 387.04330 387.12940 0.72375
2757 10.42200 387.52393 388.61308 0.79950
2758 10.42560 388.06999 388.23638 0.80912
2759 10.42920 388.69153 388.09133 0.80167
2760 10.43280 389.39888 390.32572 0.79691
2761 10.43640 390.20207 391.16722 0.79092
2762 10.44000 391.10998 394.00990 0.78908
2763 10.44360 392.12939 394.08021 0.78953
2764 10.44720 393.26403 396.22598 0.79146
2765 10.45080 394.51342 397.95317 0.79392
2766 10.45440 395.87172 400.47447 0.71159
2767 10.45800 397.32642 402.48611 0.62400
2768 10.46160 398.85695 401.72406 0.62807
2769 10.46520 400.43354 406.23814 0.61931
2770 10.46880 402.01749 410.84187 0.61218
2771 10.47240 403.56469 412.58281 0.61095
2772 10.47600 405.03414 412.52238 0.61033
2773 10.47960 406.40118 416.64864 0.60539
2774 10.48320 407.67108 420.87707 0.59785
2775 10.48680 408.88650 424.99237 0.59422
2776 10.49040 410.12546 429.60221 0.58747
2777 10.49400 411.49299 434.50652 0.58162
2778 10.49760 413.11355 437.10883 0.57443
2779 10.50120 415.12936 444.63016 0.56872
2780 10.50480 417.70508 451.02246 0.56009
2781 10.50840 421.03682 461.97217 0.54849
2782 10.51200 425.36217 470.86620 0.53579
2783 10.51560 430.96768 480.59913 0.52713
2784 10.51920 438.19739 492.73177 0.51306
2785 10.52280 447.44926 507.44038 0.49887
2786 10.52640 459.18752 523.22989 0.48184
2787 10.53000 473.94736 543.60059 0.46339
2788 10.53360 492.19776 562.08235 0.44502
2789 10.53720 514.40768 584.95516 0.38171
2790 10.54080 540.96194 611.65771 0.37046
2791 10.54440 572.10071 635.68276 0.39377
2792 10.54800 607.85215 662.65689 0.34079
2793 10.55160 647.95955 692.85861 0.36268
2794 10.55520 691.80142 718.41497 0.35098
2795 10.55880 738.30099 744.39405 0.33248
2796 10.56240 785.82533 768.71485 0.32727
2797 10.56600 832.09371 793.79656 0.28643
2798 10.56960 874.15675 813.03381 0.30922
2799 10.57320 908.56032 828.31529 0.30382
2800 10.57680 931.81283 842.99617 0.29940
2801 10.58040 941.15071 849.32190 0.29561
2802 10.58400 935.34705 849.68937 0.29738
2803 10.58760 915.13363 843.55855 0.29816
2804 10.59120 882.96162 829.25222 0.30401
2805 10.59480 842.24850 806.69769 0.31126
2806 10.59840 796.54126 784.16086 0.32179
2807 10.60200 748.95454 756.31389 0.29372
2808 10.60560 701.93461 726.71837 0.34722
2809 10.60920 657.25496 696.74768 0.33335
2810 10.61280 616.10510 665.88199 0.31508
2811 10.61640 579.19544 635.51344 0.33308
2812 10.62000 546.85163 610.38678 0.39022
2813 10.62360 519.09645 584.92139 0.38944
2814 10.62720 495.72385 561.82697 0.44945
2815 10.63080 476.36757 543.68047 0.46532
2816 10.63440 460.56381 524.21417 0.48371
2817 10.63800 447.80565 509.88675 0.49384
2818 10.64160 437.58811 496.99356 0.55587
2819 10.64520 429.44652 482.44430 0.65464
2820 10.64880 422.98311 470.57615 0.66534
2821 10.65240 417.76382 460.52735 0.67545
2822 10.65600 413.53828 450.74834 0.68883
2823 10.65960 410.07429 447.29747 0.69253
2824 10.66320 407.19201 441.64904 0.69751
2825 10.66680 404.75561 434.52646 0.71016
2826 10.67040 402.66425 429.61785 0.71692
2827 10.67400 400.84393 421.71861 0.73384
2828 10.67760 399.24064 418.98866 0.73465
2829 10.68120 397.81484 415.30564 0.74239
2830 10.68480 396.53740 412.56213 0.74581
2831 10.68840 395.38653 408.81270 0.75522
2832 10.69200 394.34569 405.72900 0.75826
2833 10.69560 393.40211 404.88430 0.76039
2834 10.69920 392.54586 401.73796 0.76497
2835 10.70280 391.76913 400.40843 0.76977
2836 10.70640 391.06583 398.66189 0.77121
2837 10.71000 390.43119 399.19518 0.77068
2838 10.71360 389.86152 396.81665 0.77319
2839 10.71720 389.35387 392.94180 0.78241
2840 10.72080 388.90578 392.57669 0.81978
2841 10.72440 388.51497 392.28833 0.87080
2842 10.72800 388.17897 391.16504 0.87026
2843 10.73160 387.89481 390.93983 0.86652
2844 10.73520 387.65862 388.95818 0.86689
2845 10.73880 387.46525 387.91291 0.86771
2846 10.74240 387.30783 388.27264 0.86854
2847 10.74600 387.17724 386.63233 0.86896
2848 10.74960 387.06173 386.59859 0.87113
2849 10.75320 386.94683 385.99989 0.87105
2850 10.75680 386.81622 385.81809 0.87228
2851 10.76040 386.65393 384.77783 0.87293
2852 10.76400 386.44763 385.07371 0.87539
2853 10.76760 386.19195 383.63852 0.87538
2854 10.77120 385.88964 383.71465 0.87787
2855 10.77480 385.55018 382.61588 0.87676
2856 10.77840 385.18645 383.58986 0.87964
2857 10.78200 384.81173 382.51517 0.88104
2858 10.78560 384.43748 381.07397 0.88515
2859 10.78920 384.07333 380.91948 0.88471
2860 10.79280 383.72627 381.98164 0.88486
2861 10.79640 383.40104 382.19453 0.87913
2862 10.80000 383.10053 379.91960 0.88544
2863 10.80360 382.82600 380.02347 0.88813
2864 10.80720 382.57738 380.67387 0.88694
2865 10.81080 382.35359 381.16072 0.88461
2866 10.81440 382.15288 381.04318 0.88628
2867 10.81800 381.97304 380.38762 0.88876
2868 10.82160 381.81171 380.23478 0.89168
2869 10.82520 381.66667 380.26794 0.89242
2870 10.82880 381.53634 379.03638 0.90189
2871 10.83240 381.41890 379.95544 0.86273
2872 10.83600 381.30958 379.56997 0.81249
2873 10.83960 381.20888 380.18075 0.81388
2874 10.84320 381.11559 377.34729 0.81712
2875 10.84680 381.02872 378.85338 0.81653
2876 10.85040 380.94748 378.62379 0.81452
2877 10.85400 380.87125 379.93672 0.81546
2878 10.85760 380.79954 378.33074 0.81740
2879 10.86120 380.73195 379.14719 0.81596
2880 10.86480 380.66816 378.44291 0.81567
2881 10.86840 380.60791 379.57511 0.81468
2882 10.87200 380.55099 380.30288 0.81284
2883 10.87560 380.49720 380.59339 0.81299
2884 10.87920 380.44639 378.80404 0.81523
2885 10.88280 380.39842 379.44366 0.81715
2886 10.88640 380.35317 379.32256 0.81529
2887 10.89000 380.31052 379.37379 0.81930
2888 10.89360 380.27037 379.96274 0.82181
2889 10.89720 380.23263 382.77889 0.82258
2890 10.90080 380.19722 383.43916 0.82572
2891 10.90440 380.16407 383.59880 0.77999
2892 10.90800 380.13311 381.85952 0.66408
2893 10.91160 380.10429 384.11357 0.65981
2894 10.91520 380.07754 384.58956 0.66001
2895 10.91880 380.05282 385.43117 0.65662
2896 10.92240 380.03010 384.74325 0.65820
2897 10.92600 380.00932 382.71503 0.66048
2898 10.92960 379.99047 384.03402 0.66122
2899 10.93320 379.97352 383.18375 0.66042
2900 10.93680 379.95843 382.30313 0.66410
2901 10.94040 379.94520 380.60237 0.66189
2902 10.94400 379.93381 379.97909 0.66518
2903 10.94760 379.92426 378.89764 0.66635
2904 10.95120 379.91654 380.04592 0.66678
2905 10.95480 379.91064 380.13221 0.66596
2906 10.95840 379.90658 380.44531 0.66618
2907 10.96200 379.90436 379.01082 0.66534
2908 10.96560 379.90403 380.22112 0.66525
2909 10.96920 379.90585 379.73196 0.66570
2910 10.97280 379.91039 379.61756 0.66750
2911 10.97640 379.91572 380.60893 0.66602
2912 10.98000 379.92300 379.87129 0.66922
2913 10.98360 379.93226 380.28044 0.66571
2914 10.98720 379.94355 380.04874 0.66642
2915 10.99080 379.95692 378.92697 0.66698
2916 10.99440 379.97241 379.67452 0.66437
2917 10.99800 379.99009 379.66893 0.66521
2918 11.00160 380.01003 380.17383 0.66716
2919 11.00520 380.03228 378.90370 0.66743
2920 11.00880 380.05693 379.77835 0.66647
2921 11.01240 380.08408 380.75786 0.66609
2922 11.01600 380.11380 381.23422 0.66349
2923 11.01960 380.14621 383.17019 0.66074
2924 11.02320 380.18141 382.20577 0.66077
2925 11.02680 380.21953 383.18227 0.66132
2926 11.03040 380.26071 382.63151 0.66075
2927 11.03400 380.30508 384.84392 0.65734
2928 11.03760 380.35281 382.79624 0.65927
2929 11.04120 380.40407 383.85904 0.65947
2930 11.04480 380.45905 383.61142 0.65732
2931 11.04840 380.51796 384.90664 0.66007
2932 11.05200 380.58094 385.69843 0.65692
2933 11.05560 380.64802 384.94510 0.66037
2934 11.05920 380.71912 386.97234 0.65332
2935 11.06280 380.79325 389.90138 0.65049
2936 11.06640 380.87511 390.17980 0.64853
2937 11.07000 380.96304 391.16478 0.64795
2938 11.07360 381.05698 393.34736 0.64148
2939 11.07720 381.15733 398.51137 0.63389
2940 11.08080 381.26455 398.43972 0.63606
2941 11.08440 381.37917 399.33737 0.63557
2942 11.08800 381.50172 401.19235 0.63098
2943 11.09160 381.63285 402.11746 0.65824
2944 11.09520 381.77321 401.17041 0.79170
2945 11.09880 381.92359 401.68599 0.78007
2946 11.10240 382.08482 404.07842 0.77008
2947 11.10600 382.25783 402.77026 0.76996
2948 11.10960 382.44368 401.32433 0.77389
2949 11.11320 382.64353 403.49692 0.76599
2950 11.11680 382.85870 398.57416 0.77820
2951 11.12040 383.09065 397.54090 0.77593
2952 11.12400 383.34106 399.11691 0.77498
2953 11.12760 383.61180 393.85397 0.78513
2954 11.13120 383.90501 393.28217 0.78692
2955 11.13480 384.22313 390.48055 0.79082
2956 11.13840 384.56896 389.88778 0.79217
2957 11.14200 384.94576 389.19855 0.79083
2958 11.14560 385.35738 390.32236 0.79198
2959 11.14920 385.80841 387.11209 0.79602
2960 11.15280 386.30444 388.56603 0.79359
2961 11.15640 386.85247 386.65034 0.79623
2962 11.16000 387.46146 385.41022 0.80367
2963 11.16360 388.14315 385.06805 0.79748
2964 11.16720 388.91319 386.71712 0.79584
2965 11.17080 389.79275 385.20727 0.82036
2966 11.17440 390.81056 385.03853 0.89033
2967 11.17800 392.00551 385.13340 0.88814
2968 11.18160 393.42976 385.69678 0.88133
2969 11.18520 395.15204 388.23989 0.87598
2970 11.18880 397.26101 386.94051 0.86965
2971 11.19240 399.86795 388.31686 0.87036
2972 11.19600 403.10804 388.68135 0.86678
2973 11.19960 407.13949 391.59621 0.86379
2974 11.20320 412.13944 393.44477 0.85309
2975 11.20680 418.29585 396.82903 0.85109
2976 11.21040 425.79507 397.13799 0.84644
2977 11.21400 434.80496 402.59183 0.83894
2978 11.21760 445.45394 409.42316 0.82215
2979 11.22120 457.80683 420.51895 0.80046
2980 11.22480 471.83751 431.46383 0.77727
2981 11.22840 487.39794 450.29842 0.68286
2982 11.23200 504.18159 469.85146 0.61103
2983 11.23560 521.68048 497.96243 0.47326
2984 11.23920 539.13736 533.26692 0.41604
2985 11.24280 555.50090 569.04363 0.43396
2986 11.24640 569.48287 597.21333 0.56301
2987 11.25000 579.68201 617.27437 0.54380
2988 11.25360 584.87882 627.38574 0.53780
2989 11.25720 584.39069 623.27558 0.53982
2990 11.26080 578.31379 612.87566 0.52127
2991 11.26440 567.49439 585.00540 0.45071
2992 11.26800 553.24600 551.08238 0.45045
2993 11.27160 536.98923 519.29735 0.50914
2994 11.27520 519.98734 491.63611 0.56777
2995 11.27880 503.23167 465.18345 0.66486
2996 11.28240 487.43554 445.05035 0.75917
2997 11.28600 473.07609 430.21996 0.78289
2998 11.28960 460.45536 419.38407 0.80634
2999 11.29320 449.76165 413.23739 0.81574
3000 11.29680 440.89361 405.50521 0.83401
3001 11.30040 433.84476 401.14440 0.84322
3002 11.30400 428.50646 399.74721 0.85005
3003 11.30760 424.71429 397.88282 0.84965
3004 11.31120 422.27724 396.52692 0.85313
3005 11.31480 420.98903 393.32903 0.85748
3006 11.31840 420.63429 394.77791 0.85702
3007 11.32200 420.98909 395.15921 0.85362
3008 11.32560 421.81746 394.93511 0.85497
3009 11.32920 422.86742 396.50009 0.84981
3010 11.33280 423.87423 397.33160 0.85158
3011 11.33640 424.57993 397.55926 0.85002
3012 11.34000 424.77259 395.38256 0.85488
3013 11.34360 424.33336 396.79626 0.85051
3014 11.34720 423.26511 396.96278 0.84906
3015 11.35080 421.68195 398.48596 0.84865
3016 11.35440 419.76470 398.00449 0.84727
3017 11.35800 417.70897 400.15390 0.84368
3018 11.36160 415.68920 401.19303 0.84157
3019 11.36520 413.84453 402.72415 0.84350
3020 11.36880 412.27986 404.49806 0.83365
3021 11.37240 411.07345 408.63517 0.82772
3022 11.37600 410.28604 407.11813 0.82812
3023 11.37960 409.96968 413.05869 0.81928
3024 11.38320 410.17654 416.21904 0.80944
3025 11.38680 410.96783 422.62653 0.79946
3026 11.39040 412.42292 427.01960 0.78824
3027 11.39400 414.64837 434.82781 0.77499
3028 11.39760 417.78589 442.26256 0.76059
3029 11.40120 422.01807 449.71006 0.75024
3030 11.40480 427.57045 456.29223 0.73779
3031 11.40840 434.70826 469.50740 0.71883
3032 11.41200 443.72649 482.22782 0.69843
3033 11.41560 454.93224 497.21760 0.67777
3034 11.41920 468.61918 511.22770 0.65840
3035 11.42280 485.03443 530.62595 0.63396
3036 11.42640 504.33895 546.48752 0.61551
3037 11.43000 526.56223 562.52610 0.60005
3038 11.43360 551.55040 579.58732 0.58017
3039 11.43720 578.90490 597.69904 0.56164
3040 11.44080 607.90752 613.04025 0.54727
3041 11.44440 637.43288 630.04089 0.53266
3042 11.44800 665.87088 643.27119 0.52277
3043 11.45160 691.12110 655.59027 0.51044
3044 11.45520 710.76245 664.97193 0.50459
3045 11.45880 722.48057 672.21268 0.49974
3046 11.46240 724.69106 675.87433 0.49798
3047 11.46600 717.08334 673.92162 0.49684
3048 11.46960 700.74397 671.73529 0.49981
3049 11.47320 677.77340 661.73922 0.50533
3050 11.47680 650.64346 647.80418 0.51899
3051 11.48040 621.64962 633.46812 0.52963
3052 11.48400 592.62961 618.01160 0.52393
3053 11.48760 564.91074 600.12339 0.55886
3054 11.49120 539.37225 578.80308 0.57873
3055 11.49480 516.53621 559.86965 0.59859
3056 11.49840 496.64961 542.82418 0.62141
3057 11.50200 479.75081 527.29688 0.63853
3058 11.50560 465.72427 511.84102 0.65957
3059 11.50920 454.34824 496.22524 0.67821
3060 11.51280 445.33780 486.97967 0.69106
3061 11.51640 438.38441 476.93647 0.70701
3062 11.52000 433.19198 466.29269 0.72063
3063 11.52360 429.50750 457.48344 0.73885
3064 11.52720 427.14210 450.69214 0.74875
3065 11.53080 425.97787 446.24387 0.75716
3066 11.53440 425.96000 440.13696 0.76565
3067 11.53800 427.07892 438.17812 0.77144
3068 11.54160 429.34904 432.60282 0.77831
3069 11.54520 432.78804 434.63032 0.77729
3070 11.54880 437.39732 434.90255 0.77522
3071 11.55240 443.14273 437.10599 0.77366
3072 11.55600 449.93407 440.31371 0.76405
3073 11.55960 457.60171 446.84275 0.75662
3074 11.56320 465.86872 454.98548 0.74064
3075 11.56680 474.31986 465.08019 0.72779
3076 11.57040 482.37878 474.83239 0.70943
3077 11.57400 489.31676 486.73278 0.69459
3078 11.57760 494.32989 495.51610 0.68091
3079 11.58120 496.70224 502.36867 0.67256
3080 11.58480 496.01847 504.34532 0.67023
3081 11.58840 492.31171 500.98604 0.67308
3082 11.59200 486.05367 493.09649 0.68152
3083 11.59560 477.99025 482.73849 0.69871
3084 11.59920 468.93006 468.68790 0.71923
3085 11.60280 459.58710 453.77920 0.74252
3086 11.60640 450.51889 439.31587 0.77060
3087 11.61000 442.12612 427.43238 0.78944
3088 11.61360 434.67781 421.75710 0.80170
3089 11.61720 428.35239 411.69591 0.82032
3090 11.62080 423.24028 406.92364 0.83076
3091 11.62440 419.37585 401.43603 0.83902
3092 11.62800 416.74802 398.88009 0.84877
3093 11.63160 415.30912 398.07877 0.84701
3094 11.63520 414.98164 396.27097 0.85560
3095 11.63880 415.66187 395.90941 0.85081
3096 11.64240 417.21999 397.14822 0.85223
3097 11.64600 419.49588 398.53329 0.84768
3098 11.64960 422.29015 400.85369 0.84549
3099 11.65320 425.35154 403.45268 0.83551
3100 11.65680 428.36614 407.49341 0.82892
3101 11.66040 430.96111 409.46152 0.82169
3102 11.66400 432.73988 412.70825 0.81955
3103 11.66760 433.35765 415.54440 0.81198
3104 11.67120 432.61669 416.89201 0.80933
3105 11.67480 430.53098 413.80873 0.81277
3106 11.67840 427.31558 408.32846 0.82758
3107 11.68200 423.30635 404.30160 0.83391
3108 11.68560 418.86120 402.80592 0.83584
3109 11.68920 414.29036 398.05068 0.84700
3110 11.69280 409.82889 392.86089 0.85720
3111 11.69640 405.63799 390.52933 0.86522
3112 11.70000 401.81785 386.76871 0.87007
3113 11.70360 398.42168 385.74441 0.87599
3114 11.70720 395.46730 380.96011 0.88215
3115 11.71080 392.94642 383.87532 0.88403
3116 11.71440 390.83222 380.13926 0.88302
3117 11.71800 389.08589 379.69790 0.88867
3118 11.72160 387.66225 378.07350 0.88966
3119 11.72520 386.51445 379.50240 0.88974
3120 11.72880 385.59752 378.31927 0.89218
3121 11.73240 384.87079 378.76195 0.89348
3122 11.73600 384.29939 379.13233 0.88908
3123 11.73960 383.85467 376.93504 0.89399
3124 11.74320 383.51422 376.00095 0.89428
3125 11.74680 383.26129 376.02384 0.89825
3126 11.75040 383.08422 378.88042 0.88929
3127 11.75400 382.97573 377.05223 0.89455
3128 11.75760 382.93249 375.90694 0.89796
3129 11.76120 382.95480 376.92524 0.89732
3130 11.76480 383.04650 376.82541 0.89405
3131 11.76840 383.21542 376.06981 0.89704
3132 11.77200 383.47408 376.71707 0.89342
3133 11.77560 383.84611 377.72797 0.89047
3134 11.77920 384.35474 378.50573 0.89148
3135 11.78280 385.03436 377.80432 0.89116
3136 11.78640 385.92852 379.33690 0.88775
3137 11.79000 387.09027 379.39600 0.88894
3138 11.79360 388.58159 381.59097 0.88493
3139 11.79720 390.47158 381.73288 0.88122
3140 11.80080 392.83305 385.04401 0.87987
3141 11.80440 395.73744 388.41567 0.86668
3142 11.80800 399.24809 390.35188 0.86349
3143 11.81160 403.41195 392.22903 0.85746
3144 11.81520 408.24965 398.84934 0.84728
3145 11.81880 413.74368 404.66895 0.83093
3146 11.82240 419.82364 411.65899 0.81899
3147 11.82600 426.34703 420.13497 0.79948
3148 11.82960 433.07623 430.16277 0.78348
3149 11.83320 439.65725 439.22291 0.76651
3150 11.83680 445.61777 450.13790 0.74881
3151 11.84040 450.40932 457.43276 0.73554
3152 11.84400 453.51200 465.45000 0.72592
3153 11.84760 454.58965 468.80457 0.71753
3154 11.85120 453.60857 471.05535 0.71507
3155 11.85480 450.84770 466.81091 0.72159
3156 11.85840 446.77734 461.50646 0.73000
3157 11.86200 441.90150 455.99662 0.74029
3158 11.86560 436.63343 446.51021 0.75518
3159 11.86920 431.24696 438.29419 0.77076
3160 11.87280 425.89047 427.63672 0.78893
3161 11.87640 420.63540 423.04369 0.79933
3162 11.88000 415.53037 417.21519 0.80765
3163 11.88360 410.63612 411.85330 0.82057
3164 11.88720 406.02961 406.54653 0.82762
3165 11.89080 401.78602 402.57714 0.83811
3166 11.89440 397.95839 399.85298 0.84120
3167 11.89800 394.56832 397.95826 0.85050
3168 11.90160 391.61111 394.50629 0.85245
3169 11.90520 389.07293 391.46181 0.86236
3170 11.90880 386.90889 391.22698 0.86074
3171 11.91240 385.07704 389.30547 0.86770
3172 11.91600 383.53453 386.56967 0.87076
3173 11.91960 382.24020 385.10338 0.87784
3174 11.92320 381.15589 383.88711 0.87730
3175 11.92680 380.24718 384.19331 0.87877
3176 11.93040 379.48376 382.19538 0.88161
3177 11.93400 378.83947 380.54667 0.88690
3178 11.93760 378.29228 378.56538 0.89127
3179 11.94120 377.82398 377.81843 0.89089
3180 11.94480 377.41993 378.36359 0.89114
3181 11.94840 377.06860 376.22183 0.89687
3182 11.95200 376.76117 374.85980 0.90100
3183 11.95560 376.49109 376.46227 0.89327
3184 11.95920 376.25361 376.22295 0.89451
3185 11.96280 376.04548 375.52935 0.89736
3186 11.96640 375.86454 375.14786 0.90132
3187 11.97000 375.70942 375.77216 0.89397
3188 11.97360 375.57924 374.54183 0.90086
3189 11.97720 375.47336 373.83027 0.90039
3190 11.98080 375.39105 373.74310 0.90742
3191 11.98440 375.33126 374.93954 0.89606
3192 11.98800 375.29232 376.44183 0.89451
3193 11.99160 375.27157 374.59629 0.89482
3194 11.99520 375.26494 374.61185 0.89826
3195 11.99880 375.26646 373.32728 0.90101
3196 12.00240 375.26789 377.62287 0.89317
3197 12.00600 375.25879 375.17626 0.89755
3198 12.00960 375.22777 376.52243 0.89559
3199 12.01320 375.16494 376.17980 0.89402
3200 12.01680 375.06502 377.90130 0.89254
3201 12.02040 374.92926 376.49868 0.89522
3202 12.02400 374.76484 375.96350 0.89609
3203 12.02760 374.58217 375.26916 0.89643
3204 12.03120 374.39180 374.92018 0.89842
3205 12.03480 374.20248 373.91943 0.90082
3206 12.03840 374.02056 373.26600 0.90101
3207 12.04200 373.85013 373.76077 0.89986
3208 12.04560 373.69356 373.68788 0.89922
3209 12.04920 373.55193 373.50032 0.90382
3210 12.05280 373.42535 374.01764 0.89782
3211 12.05640 373.31328 373.07874 0.90402
3212 12.06000 373.21474 374.49253 0.89713
3213 12.06360 373.12846 375.00775 0.89872
3214 12.06720 373.05308 372.67398 0.90070
3215 12.07080 372.98725 374.60981 0.89911
3216 12.07440 372.92969 373.26726 0.89650
3217 12.07800 372.87932 371.66402 0.90574
3218 12.08160 372.83522 371.04767 0.90526
3219 12.08520 372.79701 371.86257 0.90794
3220 12.08880 372.76537 371.63673 0.90616
3221 12.09240 372.73662 372.58591 0.90558
3222 12.09600 372.71175 370.84138 0.90915
3223 12.09960 372.69096 371.27388 0.90706
3224 12.10320 372.67413 373.60192 0.90013
3225 12.10680 372.66124 371.94726 0.90403
3226 12.11040 372.65231 373.29255 0.90105
3227 12.11400 372.64739 372.69249 0.90634
3228 12.11760 372.64659 373.11772 0.90453
3229 12.12120 372.65003 371.28116 0.90768
3230 12.12480 372.65788 371.17240 0.90940
3231 12.12840 372.67034 370.76048 0.90974
3232 12.13200 372.68763 372.33990 0.90500
3233 12.13560 372.71000 372.28627 0.90284
3234 12.13920 372.73775 370.54512 0.91191
3235 12.14280 372.77121 370.51784 0.90764
3236 12.14640 372.81076 372.62305 0.90897
3237 12.15000 372.85681 372.79063 0.90259
3238 12.15360 372.90983 372.52312 0.90677
3239 12.15720 372.97036 373.55109 0.89884
3240 12.16080 373.03899 371.92754 0.91087
3241 12.16440 373.11639 372.85815 0.90260
3242 12.16800 373.20330 373.75646 0.90142
3243 12.17160 373.30057 372.21360 0.90528
3244 12.17520 373.40916 373.82793 0.90319
3245 12.17880 373.53015 374.89546 0.89937
3246 12.18240 373.66477 374.76884 0.90285
3247 12.18600 373.81442 374.95522 0.89841
3248 12.18960 373.98069 375.77696 0.89576
3249 12.19320 374.16544 377.33316 0.89126
3250 12.19680 374.37081 376.46867 0.89600
3251 12.20040 374.59933 374.53158 0.90123
3252 12.20400 374.85402 376.88013 0.89355
3253 12.20760 375.13855 379.30577 0.89053
3254 12.21120 375.45747 379.61278 0.88747
3255 12.21480 375.81662 379.18661 0.88961
3256 12.21840 376.22677 379.08921 0.88778
3257 12.22200 376.70966 383.13155 0.88074
3258 12.22560 377.25545 383.12099 0.87636
3259 12.22920 377.87707 385.15505 0.87616
3260 12.23280 378.60824 385.31166 0.87215
3261 12.23640 379.47784 385.57262 0.87360
3262 12.24000 380.52250 386.61340 0.86998
3263 12.24360 381.78749 390.05108 0.86463
3264 12.24720 383.32707 391.69674 0.85826
3265 12.25080 385.20393 396.29232 0.85032
3266 12.25440 387.48766 397.82030 0.84412
3267 12.25800 390.25184 401.31366 0.84130
3268 12.26160 393.56993 402.92462 0.83480
3269 12.26520 397.50990 408.63301 0.82371
3270 12.26880 402.12751 413.24174 0.81434
3271 12.27240 407.45779 417.58973 0.80526
3272 12.27600 413.50334 423.25496 0.79464
3273 12.27960 420.21782 428.45166 0.78627
3274 12.28320 427.48340 434.99982 0.77467
3275 12.28680 435.08627 443.43331 0.75938
3276 12.29040 442.70488 449.83148 0.74809
3277 12.29400 449.93816 457.44482 0.73614
3278 12.29760 456.39749 464.78639 0.72662
3279 12.30120 461.84695 470.47764 0.71418
3280 12.30480 466.31619 476.25330 0.70797
3281 12.30840 470.09787 478.13840 0.70318
3282 12.31200 473.61586 483.16756 0.69883
3283 12.31560 477.24039 482.85719 0.69440
3284 12.31920 481.13660 485.01892 0.69663
3285 12.32280 485.17977 486.39741 0.69031
3286 12.32640 488.93466 489.01838 0.69033
3287 12.33000 491.70443 489.33345 0.68520
3288 12.33360 492.67466 490.64453 0.68706
3289 12.33720 491.15221 487.49261 0.68931
3290 12.34080 486.82337 486.81259 0.69222
3291 12.34440 479.88973 482.68059 0.69425
3292 12.34800 470.98605 476.14322 0.70517
3293 12.35160 460.94267 471.65428 0.71001
3294 12.35520 450.54802 465.70404 0.72005
3295 12.35880 440.41487 460.87656 0.72902
3296 12.36240 430.95508 453.17932 0.74241
3297 12.36600 422.41036 448.51400 0.75044
3298 12.36960 414.89656 443.48745 0.75995
3299 12.37320 408.44152 438.12285 0.76790
3300 12.37680 403.01323 434.24592 0.77306
3301 12.38040 398.54058 430.02012 0.78487
3302 12.38400 394.92963 427.13943 0.78608
3303 12.38760 392.07693 427.18001 0.78573
3304 12.39120 389.88049 423.99299 0.79090
3305 12.39480 388.24730 422.46254 0.79754
3306 12.39840 387.10049 420.98880 0.79693
3307 12.40200 386.38358 421.75606 0.80055
3308 12.40560 386.06167 420.12765 0.79667
3309 12.40920 386.12270 421.80395 0.79466
3310 12.41280 386.57682 422.78230 0.79308
3311 12.41640 387.44937 424.54521 0.79467
3312 12.42000 388.78689 425.53017 0.79005
3313 12.42360 390.64496 428.80158 0.78353
3314 12.42720 393.08279 431.90960 0.77826
3315 12.43080 396.16117 437.09640 0.77225
3316 12.43440 399.92248 442.36659 0.75756
3317 12.43800 404.38362 449.94993 0.74632
3318 12.44160 409.52165 453.43775 0.73917
3319 12.44520 415.25276 457.58785 0.73361
3320 12.44880 421.40635 464.11094 0.72515
3321 12.45240 427.69596 469.97298 0.71489
3322 12.45600 433.70002 474.96643 0.70825
3323 12.45960 438.87589 478.03003 0.70220
3324 12.46320 442.63765 482.81423 0.69738
3325 12.46680 444.50321 483.75742 0.69273
3326 12.47040 444.23936 482.37431 0.69716
3327 12.47400 441.94102 478.79410 0.69898
3328 12.47760 437.99632 478.23254 0.70358
3329 12.48120 432.96806 471.04645 0.71089
3330 12.48480 427.45546 467.64584 0.71861
3331 12.48840 421.98983 459.30567 0.73004
3332 12.49200 416.98570 454.04589 0.73943
3333 12.49560 412.73764 448.57860 0.74673
3334 12.49920 409.43959 444.18173 0.75765
3335 12.50280 407.20748 439.64126 0.76153
3336 12.50640 406.09668 439.05605 0.76791
3337 12.51000 406.11229 436.64751 0.77058
3338 12.51360 407.21321 435.45329 0.77478
3339 12.51720 409.31069 434.84361 0.77458
3340 12.52080 412.26039 437.37839 0.76837
3341 12.52440 415.84073 442.48832 0.76111
3342 12.52800 419.73653 446.51766 0.75410
3343 12.53160 423.51893 451.42295 0.74599
3344 12.53520 426.65615 455.03043 0.73926
3345 12.53880 428.59051 456.80655 0.73580
3346 12.54240 428.88433 453.16710 0.74320
3347 12.54600 427.37392 452.11962 0.74640
3348 12.54960 424.23353 447.07608 0.75363
3349 12.55320 419.89483 439.53857 0.76715
3350 12.55680 414.88143 432.38438 0.77858
3351 12.56040 409.66773 426.98799 0.78858
3352 12.56400 404.61287 418.49249 0.80312
3353 12.56760 399.95727 413.13998 0.81814
3354 12.57120 395.84682 406.20696 0.82785
3355 12.57480 392.36009 400.87714 0.84349
3356 12.57840 389.52967 396.04303 0.84591
3357 12.58200 387.35705 392.35470 0.86014
3358 12.58560 385.82255 390.90399 0.86100
3359 12.58920 384.89220 388.75731 0.86773
3360 12.59280 384.52191 386.64215 0.86982
3361 12.59640 384.65931 388.70831 0.86873
3362 12.60000 385.24280 388.33275 0.86653
3363 12.60360 386.19729 388.99197 0.86552
3364 12.60720 387.42614 389.29643 0.86354
3365 12.61080 388.80004 390.80557 0.86254
3366 12.61440 390.14723 390.85820 0.86297
3367 12.61800 391.25570 391.47542 0.85902
3368 12.62160 391.90102 391.26971 0.85845
3369 12.62520 391.90365 392.00581 0.85789
3370 12.62880 391.19259 391.78630 0.86096
3371 12.63240 389.83281 388.70555 0.86553
3372 12.63600 387.99401 385.72575 0.87627
3373 12.63960 385.88395 383.54370 0.87555
3374 12.64320 383.68992 382.84538 0.87913
3375 12.64680 381.55141 378.80825 0.88920
3376 12.65040 379.55855 377.14365 0.89615
3377 12.65400 377.76207 374.74957 0.89693
3378 12.65760 376.18467 373.04301 0.90528
3379 12.66120 374.82996 371.98311 0.90037
3380 12.66480 373.68893 371.91949 0.90726
3381 12.66840 372.74456 370.81201 0.90625
3382 12.67200 371.97538 369.08069 0.91372
3383 12.67560 371.35823 366.59161 0.91768
3384 12.67920 370.87030 366.34920 0.92047
3385 12.68280 370.49052 366.74559 0.91723
3386 12.68640 370.20033 365.96266 0.92082
3387 12.69000 369.98389 363.79476 0.92342
3388 12.69360 369.82787 364.73076 0.92402
3389 12.69720 369.72079 365.09548 0.92128
3390 12.70080 369.65225 365.43135 0.91976
3391 12.70440 369.61193 364.57111 0.92197
3392 12.70800 369.58890 362.39240 0.92638
3393 12.71160 369.57170 362.18341 0.92966
3394 12.71520 369.54971 362.88293 0.92636
3395 12.71880 369.51570 364.33439 0.92185
3396 12.72240 369.46799 363.84282 0.91996
3397 12.72600 369.41063 363.47874 0.92398
3398 12.72960 369.35120 364.09159 0.92149
3399 12.73320 369.29791 363.58202 0.92599
3400 12.73680 369.25752 363.10971 0.92124
3401 12.74040 369.23485 364.30519 0.92430
3402 12.74400 369.23286 362.53827 0.92450
3403 12.74760 369.25320 364.15502 0.92510
3404 12.75120 369.29664 362.39825 0.92561
3405 12.75480 369.36337 364.12402 0.92528
3406 12.75840 369.45325 364.45466 0.92413
3407 12.76200 369.56545 363.93939 0.92906
3408 12.76560 369.69873 363.57401 0.92593
3409 12.76920 369.85049 362.49937 0.93113
3410 12.77280 370.03051 362.43814 0.93158
3411 12.77640 370.23315 363.38386 0.92893
3412 12.78000 370.45870 363.29254 0.92574
3413 12.78360 370.70784 363.58066 0.92872
3414 12.78720 370.98152 364.74578 0.92221
3415 12.79080 371.28096 363.52641 0.92630
3416 12.79440 371.60767 363.00832 0.92884
3417 12.79800 371.96348 362.50544 0.92880
3418 12.80160 372.35105 364.05258 0.92629
3419 12.80520 372.77310 362.56372 0.92612
3420 12.80880 373.22953 363.36281 0.92923
3421 12.81240 373.72511 365.08059 0.92141
3422 12.81600 374.26327 365.16088 0.92287
3423 12.81960 374.84786 365.47683 0.92134
3424 12.82320 375.48327 367.12795 0.91867
3425 12.82680 376.17444 365.40014 0.91593
3426 12.83040 376.92702 367.25886 0.91756
3427 12.83400 377.74747 367.07314 0.91805
3428 12.83760 378.64361 365.46407 0.92437
3429 12.84120 379.62543 368.03451 0.91215
3430 12.84480 380.69884 369.69785 0.91474
3431 12.84840 381.87785 370.17090 0.90834
3432 12.85200 383.17653 370.34756 0.90990
3433 12.85560 384.61169 370.08191 0.90758
3434 12.85920 386.20369 371.97209 0.90444
3435 12.86280 387.97722 373.18432 0.90010
3436 12.86640 389.96223 375.21872 0.89696
3437 12.87000 392.19503 376.94527 0.89245
3438 12.87360 394.71932 377.36146 0.89226
3439 12.87720 397.58732 378.43025 0.89093
3440 12.88080 400.86106 381.46862 0.88010
3441 12.88440 404.61381 384.61004 0.87709
3442 12.88800 408.93232 389.00460 0.86624
3443 12.89160 413.92006 391.56908 0.86275
3444 12.89520 419.70110 396.49271 0.84757
3445 12.89880 426.42526 403.36460 0.83838
3446 12.90240 434.27714 409.79672 0.82129
3447 12.90600 443.48049 420.99124 0.80060
3448 12.90960 454.30237 429.39956 0.77939
3449 12.91320 467.05646 441.75718 0.76442
3450 12.91680 482.11270 454.92280 0.73760
3451 12.92040 499.92530 473.54561 0.67779
3452 12.92400 521.08319 494.34288 0.67881
3453 12.92760 546.35567 521.54805 0.56933
3454 12.93120 576.67366 550.33234 0.52424
3455 12.93480 613.02164 586.84549 0.43425
3456 12.93840 656.25392 629.89123 0.33270
3457 12.94200 706.87365 682.64845 0.30594
3458 12.94560 764.79125 738.59593 0.25311
3459 12.94920 829.01502 805.82390 0.21245
3460 12.95280 897.22598 872.70875 0.20936
3461 12.95640 965.28166 942.72041 0.18684
3462 12.96000 1026.91571 1000.77685 0.26063
3463 12.96360 1074.19568 1039.89260 0.29903
3464 12.96720 1099.28805 1062.52891 0.31571
3465 12.97080 1097.25797 1061.09700 0.31308
3466 12.97440 1068.30648 1033.16825 0.28004
3467 12.97800 1017.69476 985.61256 0.23471
3468 12.98160 953.39059 922.63429 0.22108
3469 12.98520 883.25771 853.89157 0.22608
3470 12.98880 813.37696 783.31396 0.23485
3471 12.99240 747.69901 714.96047 0.28020
3472 12.99600 688.41602 657.71684 0.33468
3473 12.99960 636.48643 609.68246 0.36626
3474 13.00320 592.06464 568.50024 0.47853
3475 13.00680 554.79941 534.23740 0.52452
3476 13.01040 524.03635 507.25126 0.66353
3477 13.01400 498.96152 486.48792 0.68834
3478 13.01760 478.70762 468.09643 0.70633
3479 13.02120 462.42943 452.07065 0.74238
3480 13.02480 449.35780 440.97773 0.76392
3481 13.02840 438.82934 430.64349 0.77973
3482 13.03200 430.29610 423.78540 0.79413
3483 13.03560 423.32289 417.86788 0.80434
3484 13.03920 417.57522 411.60556 0.81678
3485 13.04280 412.80292 405.33721 0.82845
3486 13.04640 408.82323 403.02431 0.83540
3487 13.05000 405.50481 400.77075 0.84125
3488 13.05360 402.75388 397.08807 0.84476
3489 13.05720 400.50418 396.20431 0.85178
3490 13.06080 398.70800 393.68853 0.85743
3491 13.06440 397.32882 392.80556 0.86247
3492 13.06800 396.33487 392.38147 0.85838
3493 13.07160 395.69480 392.05383 0.86362
3494 13.07520 395.37869 392.06308 0.86011
3495 13.07880 395.36688 393.35107 0.85795
3496 13.08240 395.66355 391.78744 0.85819
3497 13.08600 396.30345 392.42258 0.86372
3498 13.08960 397.34130 390.81287 0.86041
3499 13.09320 398.82571 391.07887 0.86452
3500 13.09680 400.76766 391.58972 0.86017
3501 13.10040 403.11011 393.56663 0.85869
3502 13.10400 405.69751 394.94945 0.85328
3503 13.10760 408.24881 395.12404 0.85362
3504 13.11120 410.35526 393.45587 0.85530
3505 13.11480 411.54184 392.51099 0.85966
3506 13.11840 411.41030 395.03615 0.85415
3507 13.12200 409.80728 393.08688 0.86034
3508 13.12560 406.89804 392.45144 0.86094
3509 13.12920 403.08408 391.61659 0.85941
3510 13.13280 398.83033 391.77364 0.86124
3511 13.13640 394.52685 389.03249 0.86578
3512 13.14000 390.43674 386.52477 0.87055
3513 13.14360 386.70166 385.11088 0.87441
3514 13.14720 383.42449 385.68491 0.87476
3515 13.15080 380.60858 382.87060 0.87745
3516 13.15440 378.23440 381.95765 0.88383
3517 13.15800 376.26794 382.71143 0.87886
3518 13.16160 374.66605 380.30306 0.88610
3519 13.16520 373.38313 380.60861 0.88380
3520 13.16880 372.37612 379.76536 0.88846
3521 13.17240 371.60801 380.11901 0.88198
3522 13.17600 371.05012 378.75546 0.88876
3523 13.17960 370.68315 379.15908 0.88524
3524 13.18320 370.49735 380.68935 0.88770
3525 13.18680 370.49175 378.31312 0.88882
3526 13.19040 370.67274 380.26637 0.88914
3527 13.19400 371.05198 381.52086 0.88140
3528 13.19760 371.64371 382.06201 0.88416
3529 13.20120 372.46134 383.50134 0.88080
3530 13.20480 373.51303 385.33543 0.87583
3531 13.20840 374.79557 388.74437 0.86627
3532 13.21200 376.28515 394.65557 0.85462
3533 13.21560 377.92405 397.77279 0.85039
3534 13.21920 379.60409 402.16030 0.83999
3535 13.22280 381.15474 405.36324 0.83010
3536 13.22640 382.35352 407.39927 0.82591
3537 13.23000 382.97757 407.51869 0.82748
3538 13.23360 382.88884 404.87713 0.83281
3539 13.23720 382.10147 404.90372 0.83433
3540 13.24080 380.77516 400.76226 0.83959
3541 13.24440 379.13950 397.71257 0.85030
3542 13.24800 377.41032 394.34995 0.85073
3543 13.25160 375.74533 391.24887 0.86275
3544 13.25520 374.23989 388.56535 0.86529
3545 13.25880 372.94150 383.72897 0.88126
3546 13.26240 371.86621 384.03885 0.87599
3547 13.26600 371.01102 384.96496 0.87568
3548 13.26960 370.36197 389.58362 0.86377
3549 13.27320 369.89935 392.84933 0.85801
3550 13.27680 369.60122 393.04261 0.85472
3551 13.28040 369.44589 392.63857 0.85981
3552 13.28400 369.41353 389.91928 0.86232
3553 13.28760 369.48717 386.20166 0.87157
3554 13.29120 369.65314 381.73099 0.88178
3555 13.29480 369.90110 377.29613 0.89256
3556 13.29840 370.22378 374.23033 0.89945
3557 13.30200 370.61655 373.70507 0.89788
3558 13.30560 371.07704 374.28659 0.89695
3559 13.30920 371.60466 373.59370 0.89965
3560 13.31280 372.20035 373.63017 0.90142
3561 13.31640 372.86629 375.20872 0.89569
3562 13.32000 373.60572 375.68028 0.89821
3563 13.32360 374.42295 373.27412 0.90427
3564 13.32720 375.32345 375.64376 0.90248
3565 13.33080 376.31390 378.17999 0.88787
3566 13.33440 377.40071 379.49863 0.88955
3567 13.33800 378.59292 382.17882 0.87655
3568 13.34160 379.90085 381.82799 0.88370
3569 13.34520 381.33573 383.84169 0.87432
3570 13.34880 382.91079 385.62958 0.87473
3571 13.35240 384.64181 388.24817 0.86808
3572 13.35600 386.54697 389.56487 0.86402
3573 13.35960 388.64741 392.73747 0.85477
3574 13.36320 390.96851 395.87568 0.84965
3575 13.36680 393.54058 397.78696 0.84393
3576 13.37040 396.40044 402.37294 0.83744
3577 13.37400 399.59339 406.18382 0.82834
3578 13.37760 403.17572 409.89817 0.82025
3579 13.38120 407.21788 413.34952 0.81262
3580 13.38480 411.80815 417.47444 0.80617
3581 13.38840 417.05669 423.21719 0.79485
3582 13.39200 423.09952 428.59184 0.78049
3583 13.39560 430.10201 434.68601 0.77393
3584 13.39920 438.26135 441.41579 0.76065
3585 13.40280 447.80774 449.83470 0.74963
3586 13.40640 459.00405 458.62869 0.73072
3587 13.41000 472.14404 467.85258 0.71919
3588 13.41360 487.54815 480.50472 0.69723
3589 13.41720 505.55384 494.96306 0.68168
3590 13.42080 526.49333 511.08961 0.65686
3591 13.42440 550.64864 530.33372 0.63395
3592 13.42800 578.18137 549.44011 0.61006
3593 13.43160 609.06913 575.68897 0.55744
3594 13.43520 643.14748 607.13719 0.42865
3595 13.43880 680.38991 645.22540 0.40347
3596 13.44240 721.42091 689.40207 0.34022
3597 13.44600 767.94622 742.61136 0.27136
3598 13.44960 822.67625 810.16835 0.20011
3599 13.45320 888.68600 895.13322 0.15746
3600 13.45680 968.58267 998.94204 0.13212
3601 13.46040 1063.75395 1122.49197 0.09279
3602 13.46400 1173.59278 1269.88807 0.08105
3603 13.46760 1294.42284 1434.83046 0.06798
3604 13.47120 1418.09084 1598.34179 0.07538
3605 13.47480 1530.92525 1741.57502 0.08148
3606 13.47840 1614.78183 1837.56815 0.13852
3607 13.48200 1651.92202 1878.84389 0.16837
3608 13.48560 1632.66836 1855.29601 0.12554
3609 13.48920 1560.60655 1768.44552 0.09954
3610 13.49280 1450.59832 1639.02725 0.07861
3611 13.49640 1321.40594 1473.56810 0.07960
3612 13.50000 1188.99207 1305.91706 0.09043
3613 13.50360 1063.85979 1141.37661 0.09791
3614 13.50720 951.54228 999.46440 0.12050
3615 13.51080 854.14967 882.13499 0.15732
3616 13.51440 771.75365 786.56481 0.18461
3617 13.51800 703.31449 706.03475 0.25098
3618 13.52160 647.24199 648.29717 0.29999
3619 13.52520 601.73382 594.25105 0.35608
3620 13.52880 564.98737 557.85580 0.51708
3621 13.53240 535.33359 526.69270 0.49259
3622 13.53600 511.31252 499.47184 0.67401
3623 13.53960 491.69618 478.10823 0.69312
3624 13.54320 475.50650 461.33375 0.73392
3625 13.54680 461.97815 446.80214 0.75640
3626 13.55040 450.52846 434.93018 0.77599
3627 13.55400 440.72038 427.24175 0.79128
3628 13.55760 432.22797 418.05281 0.80664
3629 13.56120 424.80728 408.95918 0.82404
3630 13.56480 418.27355 403.14041 0.83591
3631 13.56840 412.48419 399.73255 0.84676
3632 13.57200 407.32661 394.40106 0.85745
3633 13.57560 402.70953 389.63301 0.87038
3634 13.57920 398.55702 386.56176 0.87315
3635 13.58280 394.80457 384.17395 0.87859
3636 13.58640 391.39734 380.40968 0.88573
3637 13.59000 388.28985 381.67643 0.88666
3638 13.59360 385.44601 379.67687 0.88735
3639 13.59720 382.83873 376.91174 0.89743
3640 13.60080 380.44513 375.59022 0.89828
3641 13.60440 378.24323 375.13921 0.90005
3642 13.60800 376.21763 374.89459 0.90212
3643 13.61160 374.35288 375.07954 0.90236
3644 13.61520 372.63392 375.05259 0.90034
3645 13.61880 371.04864 376.34917 0.89960
3646 13.62240 369.58613 376.17165 0.89611
3647 13.62600 368.23724 377.02213 0.89590
3648 13.62960 366.99495 378.85385 0.88917
3649 13.63320 365.85223 379.79072 0.88721
3650 13.63680 364.80519 385.07751 0.87786
3651 13.64040 363.85174 384.73396 0.87852
3652 13.64400 362.99151 384.83072 0.87655
3653 13.64760 362.22634 387.33464 0.87115
3654 13.65120 361.56040 388.42653 0.86982
3655 13.65480 361.00021 388.15141 0.86859
3656 13.65840 360.55407 385.45291 0.87591
3657 13.66200 360.23073 381.04346 0.88251
3658 13.66560 360.03673 381.03585 0.88405
3659 13.66920 359.97402 377.74307 0.89001
3660 13.67280 360.03406 374.26653 0.90373
3661 13.67640 360.19228 370.92563 0.90991
3662 13.68000 360.40395 369.74062 0.91327
3663 13.68360 360.60471 366.78325 0.91948
3664 13.68720 360.71479 366.03013 0.92277
3665 13.69080 360.64430 364.25377 0.92176
3666 13.69440 360.30586 363.24492 0.92879
3667 13.69800 359.64562 360.70003 0.93084
3668 13.70160 358.67910 359.69478 0.93527
3669 13.70520 357.49384 357.90093 0.93967
3670 13.70880 356.21044 357.09360 0.94649
3671 13.71240 354.93465 356.22491 0.95028
3672 13.71600 353.73487 355.35561 0.95355
3673 13.71960 352.64412 353.26671 0.95641
3674 13.72320 351.67143 351.47691 0.96167
3675 13.72680 350.81243 350.45240 0.96353
3676 13.73040 350.05636 350.79866 0.96262
3677 13.73400 349.39002 351.25313 0.96190
3678 13.73760 348.79995 348.45614 0.96726
3679 13.74120 348.27357 348.28010 0.97305
3680 13.74480 347.79981 347.74719 0.97035
3681 13.74840 347.36933 348.00631 0.97438
3682 13.75200 346.97453 346.60112 0.96987
3683 13.75560 346.60939 347.43026 0.97552
3684 13.75920 346.26926 347.42220 0.97166
3685 13.76280 345.95060 345.51568 0.98246
3686 13.76640 345.65074 344.23735 0.98108
3687 13.77000 345.36765 345.95553 0.97803
3688 13.77360 345.09983 344.36309 0.98012
3689 13.77720 344.84614 346.15536 0.97813
3690 13.78080 344.60571 343.66528 0.97997
3691 13.78440 344.37777 343.96246 0.98363
3692 13.78800 344.16063 345.04653 0.97695
3693 13.79160 343.95106 344.69947 0.98266
3694 13.79520 343.75475 342.84271 0.98709
3695 13.79880 343.57542 344.34322 0.98483
3696 13.80240 343.40852 344.92167 0.98119
3697 13.80600 343.25459 342.84560 0.98762
3698 13.80960 343.11444 342.26378 0.98722
3699 13.81320 342.98918 343.89078 0.98265
3700 13.81680 342.88034 342.67172 0.98782
3701 13.82040 342.79002 341.88898 0.98712
3702 13.82400 342.72104 342.59606 0.98747
3703 13.82760 342.67738 340.78912 0.98868
3704 13.83120 342.66385 343.24689 0.98311
3705 13.83480 342.68739 343.15287 0.98012
3706 13.83840 342.75702 344.09022 0.98527
3707 13.84200 342.88426 341.61534 0.98676
3708 13.84560 343.08343 344.85715 0.98131
3709 13.84920 343.37171 344.80188 0.97762
3710 13.85280 343.76878 346.17541 0.97878
3711 13.85640 344.29574 346.51314 0.97160
3712 13.86000 344.97265 346.04262 0.97664
3713 13.86360 345.81348 345.53757 0.97669
3714 13.86720 346.81583 347.34382 0.97447
3715 13.87080 347.94242 350.10908 0.96562
3716 13.87440 349.09793 349.58378 0.97144
3717 13.87800 350.11392 350.40706 0.96669
3718 13.88160 350.76341 350.81706 0.96492
3719 13.88520 350.85020 350.21272 0.96542
3720 13.88880 350.31754 351.13174 0.96405
3721 13.89240 349.28673 350.04197 0.96464
3722 13.89600 347.98137 349.21307 0.96753
3723 13.89960 346.61438 348.00540 0.97109
3724 13.90320 345.32685 347.35154 0.97413
3725 13.90680 344.18712 346.49378 0.97550
3726 13.91040 343.21489 344.52360 0.97775
3727 13.91400 342.40414 344.39191 0.97744
3728 13.91760 341.73759 341.25597 0.98354
3729 13.92120 341.19452 340.86467 0.99050
3730 13.92480 340.75450 340.06815 0.99196
3731 13.92840 340.39911 341.36409 0.99271
3732 13.93200 340.11274 340.52473 0.99000
3733 13.93560 339.88269 340.04106 0.99582
3734 13.93920 339.69902 339.07693 0.99410
3735 13.94280 339.55425 339.56263 0.99321
3736 13.94640 339.44294 338.09733 0.99645
3737 13.95000 339.36125 338.02431 1.00028
3738 13.95360 339.30664 336.88436 1.00160
3739 13.95720 339.27758 337.93204 1.00079
3740 13.96080 339.27330 336.37138 1.00496
3741 13.96440 339.29378 336.48493 1.00709
3742 13.96800 339.34002 336.20227 1.00598
3743 13.97160 339.41203 336.83644 1.00191
3744 13.97520 339.51194 336.13400 1.00414
3745 13.97880 339.64108 336.41580 1.00259
3746 13.98240 339.79979 337.38630 1.00113
3747 13.98600 339.98268 336.50850 1.00309
3748 13.98960 340.22022 336.23095 1.00505
3749 13.99320 340.50581 335.80139 1.00491
3750 13.99680 340.84536 335.70141 1.00706
3751 14.00040 341.25019 335.94235 1.00120
3752 14.00400 341.72598 338.08956 1.00071
3753 14.00760 342.29082 334.89159 1.00684
3754 14.01120 342.96410 334.36835 1.01465
3755 14.01480 343.77082 337.53418 1.00124
3756 14.01840 344.74295 336.44573 1.00751
3757 14.02200 345.92081 336.76889 1.00409
3758 14.02560 347.35416 339.00911 0.99819
3759 14.02920 349.10239 336.77183 1.00276
3760 14.03280 351.23254 337.34003 1.00362
3761 14.03640 353.81215 338.21295 0.99811
3762 14.04000 356.89112 337.01924 1.00609
3763 14.04360 360.46216 338.04688 0.99952
3764 14.04720 364.39400 339.18893 0.99820
3765 14.05080 368.34706 339.90377 0.99265
3766 14.05440 371.74862 339.99247 0.99551
3767 14.05800 373.94567 340.82458 0.99439
3768 14.06160 374.55105 340.94467 0.99415
3769 14.06520 373.72193 341.44363 0.99369
3770 14.06880 372.06731 342.55065 0.98803
3771 14.07240 370.28584 343.20677 0.98448
3772 14.07600 368.89072 345.47396 0.97581
3773 14.07960 368.16075 347.46633 0.97340
3774 14.08320 368.21524 346.26340 0.97287
3775 14.08680 369.10014 350.04264 0.96778
3776 14.09040 370.84609 351.35504 0.95873
3777 14.09400 373.50088 355.92310 0.95401
3778 14.09760 377.14872 357.66917 0.94430
3779 14.10120 381.93016 364.03317 0.92928
3780 14.10480 388.05200 368.27197 0.91595
3781 14.10840 395.79839 377.06364 0.89676
3782 14.11200 405.55832 386.65496 0.87169
3783 14.11560 417.84257 399.12218 0.84663
3784 14.11920 433.29860 413.51073 0.81685
3785 14.12280 452.70415 432.90908 0.73529
3786 14.12640 476.90064 455.99246 0.63252
3787 14.13000 506.58475 484.62316 0.63338
3788 14.13360 541.81900 514.63933 0.50182
3789 14.13720 581.12274 547.20028 0.54486
3790 14.14080 620.28742 572.12610 0.58742
3791 14.14440 651.88165 589.62363 0.57182
3792 14.14800 667.19859 598.13371 0.56382
3793 14.15160 660.98236 593.25282 0.56850
3794 14.15520 635.23802 578.07606 0.58267
3795 14.15880 597.79172 554.41563 0.56238
3796 14.16240 557.22673 524.96904 0.52756
3797 14.16600 519.31243 492.60215 0.56761
3798 14.16960 486.59791 467.18925 0.72411
3799 14.17320 459.53401 444.23312 0.75992
3800 14.17680 437.59193 419.50754 0.80680
3801 14.18040 419.93697 402.76200 0.83702
3802 14.18400 405.73372 389.13766 0.87047
3803 14.18760 394.25759 378.33777 0.89137
3804 14.19120 384.92037 369.65703 0.91761
3805 14.19480 377.25867 361.46875 0.93305
3806 14.19840 370.91335 356.31347 0.95199
3807 14.20200 365.60826 351.25330 0.96052
3808 14.20560 361.13152 347.62617 0.97310
3809 14.20920 357.32026 343.79260 0.98209
3810 14.21280 354.04863 340.64848 0.99203
3811 14.21640 351.21859 339.81140 0.99049
3812 14.22000 348.75309 338.67609 0.99551
3813 14.22360 346.59098 334.45852 1.00900
3814 14.22720 344.68327 332.68197 1.01441
3815 14.23080 342.99041 332.20093 1.01671
3816 14.23440 341.48038 332.88536 1.01660
3817 14.23800 340.12615 332.01050 1.01819
3818 14.24160 338.90613 333.38327 1.01264
3819 14.24520 337.80214 331.81170 1.01877
3820 14.24880 336.79900 330.03815 1.02033
3821 14.25240 335.88398 330.40175 1.02383
3822 14.25600 335.04609 330.11332 1.02291
3823 14.25960 334.27629 328.29740 1.03027
3824 14.26320 333.56679 327.60998 1.03146
3825 14.26680 332.91093 329.33488 1.02914
3826 14.27040 332.30303 326.83390 1.03140
3827 14.27400 331.73823 327.42805 1.03350
3828 14.27760 331.21242 326.74590 1.03209
3829 14.28120 330.72223 327.55713 1.03355
3830 14.28480 330.26410 327.74687 1.03166
3831 14.28840 329.83584 328.52037 1.02875
3832 14.29200 329.43545 327.46494 1.03006
3833 14.29560 329.06137 327.97935 1.03105
3834 14.29920 328.71254 327.03860 1.03217
3835 14.30280 328.38841 327.43372 1.03189
3836 14.30640 328.08897 325.65148 1.03472
3837 14.31000 327.81488 325.87372 1.03747
3838 14.31360 327.56742 325.69582 1.03620
3839 14.31720 327.34861 326.13252 1.03225
3840 14.32080 327.16114 326.52647 1.02987
3841 14.32440 327.00816 324.79109 1.03553
3842 14.32800 326.89289 325.27219 1.03418
3843 14.33160 326.81736 324.85805 1.03460
3844 14.33520 326.77971 325.73437 1.03314
3845 14.33880 326.76951 326.41839 1.03130
3846 14.34240 326.77122 326.27468 1.03603
3847 14.34600 326.74694 324.54521 1.03584
3848 14.34960 326.65327 325.68100 1.03820
3849 14.35320 326.45934 325.05375 1.03977
3850 14.35680 326.16661 324.42824 1.04479
3851 14.36040 325.80816 323.83968 1.03698
3852 14.36400 325.42896 324.37534 1.03822
3853 14.36760 325.06633 323.75173 1.04070
3854 14.37120 324.74110 324.66694 1.03942
3855 14.37480 324.46113 324.66012 1.03636
3856 14.37840 324.22709 324.78143 1.04055
3857 14.38200 324.03230 324.60249 1.03793
3858 14.38560 323.86412 324.83252 1.03936
3859 14.38920 323.70367 323.91801 1.03764
3860 14.39280 323.52887 324.56350 1.03837
3861 14.39640 323.32217 324.21029 1.03937
3862 14.40000 323.07914 322.82139 1.04331
3863 14.40360 322.80968 323.77556 1.04052
3864 14.40720 322.53060 325.56182 1.03468
3865 14.41080 322.25679 322.95738 1.04579
3866 14.41440 321.99726 323.29560 1.04572
3867 14.41800 321.75550 323.65004 1.04261
3868 14.42160 321.53174 323.52316 1.04054
3869 14.42520 321.32499 323.38542 1.04342
3870 14.42880 321.13335 323.98182 1.03559
3871 14.43240 320.95378 324.16756 1.04073
3872 14.43600 320.78534 323.45714 1.04160
3873 14.43960 320.62707 322.60255 1.04446
3874 14.44320 320.47599 321.05090 1.04610
3875 14.44680 320.33200 320.58500 1.05601
3876 14.45040 320.19433 322.01604 1.04333
3877 14.45400 320.06245 321.84645 1.04752
3878 14.45760 319.93623 322.09603 1.04521
3879 14.46120 319.81461 322.39465 1.04845
3880 14.46480 319.69784 321.18018 1.05070
3881 14.46840 319.58584 321.45066 1.04998
3882 14.47200 319.47863 320.46718 1.05355
3883 14.47560 319.37627 321.48149 1.05277
3884 14.47920 319.27892 320.44337 1.05371
3885 14.48280 319.18679 321.20511 1.05093
3886 14.48640 319.10011 320.68737 1.05226
3887 14.49000 319.01921 320.94929 1.05163
3888 14.49360 318.94464 323.12797 1.04266
3889 14.49720 318.87687 322.93051 1.04398
3890 14.50080 318.81651 322.01137 1.04644
3891 14.50440 318.76433 320.84958 1.04789
3892 14.50800 318.72123 322.38622 1.04991
3893 14.51160 318.68830 320.49102 1.05419
3894 14.51520 318.66685 321.87315 1.04810
3895 14.51880 318.65849 321.46919 1.04690
3896 14.52240 318.66525 322.81775 1.04743
3897 14.52600 318.68958 321.84684 1.04677
3898 14.52960 318.73449 323.04418 1.04700
3899 14.53320 318.80402 321.99547 1.04646
3900 14.53680 318.90324 324.88120 1.04060
3901 14.54040 319.03857 324.20870 0.97496
3902 14.54400 319.21817 324.96862 1.01562
3903 14.54760 319.45219 325.54218 1.03996
3904 14.55120 319.75307 327.31709 1.03266
3905 14.55480 320.13572 327.61590 1.02810
3906 14.55840 320.61761 330.06329 1.01953
3907 14.56200 321.21849 329.39764 1.02246
3908 14.56560 321.95979 329.61138 1.02512
3909 14.56920 322.86329 330.88518 1.01909
3910 14.57280 323.94640 331.82637 1.01528
3911 14.57640 325.21774 331.42357 1.01472
3912 14.58000 326.66505 335.35297 1.00075
3913 14.58360 328.24255 336.04899 0.99996
3914 14.58720 329.86466 336.88854 0.99548
3915 14.59080 331.42247 339.45407 0.99585
3916 14.59440 332.83253 337.97165 0.99672
3917 14.59800 334.09470 336.53841 1.00377
3918 14.60160 335.30831 338.29454 0.99714
3919 14.60520 336.62185 340.12095 0.99404
3920 14.60880 338.14847 338.98117 0.99397
3921 14.61240 339.89182 338.92830 0.99488
3922 14.61600 341.69986 337.69968 0.99597
3923 14.61960 343.25693 336.54599 1.00289
3924 14.62320 344.14550 335.47972 1.00166
3925 14.62680 343.99958 335.12445 1.00430
3926 14.63040 342.68787 333.07403 1.00927
3927 14.63400 340.38705 331.22986 1.02086
3928 14.63760 337.47840 332.03247 1.01433
3929 14.64120 334.36516 330.19613 1.02353
3930 14.64480 331.34840 329.48054 1.02124
3931 14.64840 328.59999 328.31270 1.02642
3932 14.65200 326.19116 328.03744 1.02662
3933 14.65560 324.13141 326.30696 1.03261
3934 14.65920 322.39859 323.14109 1.03906
3935 14.66280 320.95630 323.09725 1.04328
3936 14.66640 319.76379 322.70403 1.04213
3937 14.67000 318.78119 320.97351 1.04740
3938 14.67360 317.97209 320.08528 1.05153
3939 14.67720 317.30493 319.64220 1.05415
3940 14.68080 316.75337 318.30988 1.05933
3941 14.68440 316.29629 317.75549 1.06122
3942 14.68800 315.91706 317.25871 1.06305
3943 14.69160 315.60334 318.36402 1.05283
3944 14.69520 315.34626 319.22021 1.05635
3945 14.69880 315.13976 317.36514 1.05964
3946 14.70240 314.97990 318.10191 1.06145
3947 14.70600 314.86517 315.96366 1.06200
3948 14.70960 314.79588 316.64162 1.06658
3949 14.71320 314.77433 314.60054 1.07099
3950 14.71680 314.80503 315.68857 1.06969
3951 14.72040 314.89508 315.52523 1.06406
3952 14.72400 315.05465 315.52502 1.06746
3953 14.72760 315.29744 314.82032 1.06837
3954 14.73120 315.64122 315.21658 1.06583
3955 14.73480 316.10767 315.14705 1.06517
3956 14.73840 316.72214 315.16539 1.06713
3957 14.74200 317.51723 314.84545 1.06569
3958 14.74560 318.52672 315.38848 1.06490
3959 14.74920 319.78461 314.68313 1.06972
3960 14.75280 321.31851 314.46332 1.06656
3961 14.75640 323.15186 314.08290 1.07131
3962 14.76000 325.29033 315.12664 1.06751
3963 14.76360 327.70596 316.32601 1.06509
3964 14.76720 330.31252 315.50804 1.06455
3965 14.77080 332.93949 315.95582 1.06467
3966 14.77440 335.31338 315.32213 1.06507
3967 14.77800 337.08177 315.35666 1.06714
3968 14.78160 337.89348 313.65151 1.06951
3969 14.78520 337.55011 315.42582 1.06775
3970 14.78880 336.10215 314.17920 1.04455
3971 14.79240 333.82376 315.74844 0.99940
3972 14.79600 331.08386 313.49996 1.07332
3973 14.79960 328.21529 312.20307 1.08013
3974 14.80320 325.45107 312.76000 1.07402
3975 14.80680 322.92354 313.37181 1.07185
3976 14.81040 320.69083 312.06665 1.06922
3977 14.81400 318.76492 314.64999 1.06363
3978 14.81760 317.13197 314.43615 1.06593
3979 14.82120 315.76519 313.92897 1.06646
3980 14.82480 314.63202 312.53355 1.07315
3981 14.82840 313.69808 312.06354 1.07728
3982 14.83200 312.93170 311.72488 1.08803
3983 14.83560 312.30405 312.45460 1.08433
3984 14.83920 311.79038 312.53972 1.01145
3985 14.84280 311.37033 311.56551 0.98519
3986 14.84640 311.02779 311.98828 0.98626
3987 14.85000 310.75055 311.85382 0.98144
3988 14.85360 310.53021 312.04244 0.98260
3989 14.85720 310.35998 310.30129 0.98394
3990 14.86080 310.23595 312.21578 0.98468
3991 14.86440 310.15694 310.61716 0.98525
3992 14.86800 310.12341 312.67949 0.98291
3993 14.87160 310.13813 311.27927 0.98265
3994 14.87520 310.20391 310.54702 0.98953
3995 14.87880 310.32775 312.07071 0.97856
3996 14.88240 310.51892 312.13124 0.98738
3997 14.88600 310.79399 312.49173 0.98401
3998 14.88960 311.16734 312.92931 0.98904
3999 14.89320 311.66328 312.66636 0.99239
4000 14.89680 312.30896 313.25195 0.99965
4001 14.90040 313.13178 314.95807 0.95864
4002 14.90400 314.16910 315.05954 0.80156
4003 14.90760 315.45896 316.19706 0.79596
4004 14.91120 317.03975 318.10515 0.79173
4005 14.91480 318.94680 321.93028 0.78095
4006 14.91840 321.20718 325.13765 0.77297
4007 14.92200 323.83158 326.89939 0.77152
4008 14.92560 326.80124 330.12455 0.76279
4009 14.92920 330.04814 335.12747 0.75401
4010 14.93280 333.42846 340.39831 0.74122
4011 14.93640 336.69747 344.83495 0.73394
4012 14.94000 339.50730 350.34352 0.71577
4013 14.94360 341.45927 352.44311 0.71418
4014 14.94720 342.22497 353.10990 0.71039
4015 14.95080 341.68754 353.98068 0.71261
4016 14.95440 339.99398 348.08968 0.72058
4017 14.95800 337.49974 346.93480 0.72678
4018 14.96160 334.62570 341.69878 0.73637
4019 14.96520 331.73788 336.50414 0.75171
4020 14.96880 329.09510 331.31319 0.75686
4021 14.97240 326.85110 328.91255 0.76582
4022 14.97600 325.07809 326.05994 0.77120
4023 14.97960 323.78919 322.64598 0.77882
4024 14.98320 322.95159 320.09323 0.78529
4025 14.98680 322.49022 319.22350 0.78959
4026 14.99040 322.28544 316.35691 0.79626
4027 14.99400 322.17425 315.24121 0.79979
4028 14.99760 321.96708 314.39444 0.80195
4029 15.00120 321.48669 314.73742 0.79964
4030 15.00480 320.62207 312.46655 0.80582
4031 15.00840 319.36489 310.62037 0.80946
4032 15.01200 317.79980 310.23944 0.81168
4033 15.01560 316.06059 310.23438 0.81268
4034 15.01920 314.28073 310.43032 0.81216
4035 15.02280 312.55853 310.54980 0.80737
4036 15.02640 310.95557 308.30120 0.81845
4037 15.03000 309.50264 308.06642 0.81473
4038 15.03360 308.20955 309.20900 0.81718
4039 15.03720 307.07318 306.77959 0.82130
4040 15.04080 306.08300 306.20359 0.82806
4041 15.04440 305.22457 306.56701 0.82126
4042 15.04800 304.48174 304.72627 0.82956
4043 15.05160 303.83812 306.24826 0.82284
4044 15.05520 303.27810 306.31535 0.82170
4045 15.05880 302.78745 306.91251 0.81581
4046 15.06240 302.35372 305.90551 0.82084
4047 15.06600 301.96635 304.79168 0.82078
4048 15.06960 301.61663 306.40088 0.81669
4049 15.07320 301.29753 306.28911 0.81724
4050 15.07680 301.00348 305.66954 0.82241
4051 15.08040 300.73012 304.51561 0.83032
4052 15.08400 300.47401 303.22544 0.84156
4053 15.08760 300.23249 303.46559 0.81510
4054 15.09120 300.00340 303.10541 0.70156
4055 15.09480 299.78517 304.64545 0.91821
4056 15.09840 299.57650 304.44371 0.93213
4057 15.10200 299.37600 304.64688 0.92415
4058 15.10560 299.18286 304.12222 0.92129
4059 15.10920 298.99631 304.60976 0.91616
4060 15.11280 298.81566 303.36671 0.91558
4061 15.11640 298.64032 305.31456 0.91340
4062 15.12000 298.46980 302.47064 0.91841
4063 15.12360 298.30367 303.03200 0.92337
4064 15.12720 298.14166 302.63498 0.91551
4065 15.13080 297.98330 304.23981 0.91765
4066 15.13440 297.82824 304.28526 0.91326
4067 15.13800 297.67632 304.96709 0.91835
4068 15.14160 297.52737 303.63354 0.92349
4069 15.14520 297.38097 304.04373 0.93484
4070 15.14880 297.23712 303.69499 0.94042
4071 15.15240 297.09573 302.47846 0.78886
4072 15.15600 296.95683 303.15058 0.73463
4073 15.15960 296.82006 303.32687 0.73584
4074 15.16320 296.68556 303.40853 0.73238
4075 15.16680 296.55335 303.97592 0.75317
4076 15.17040 296.42352 302.95793 0.86247
4077 15.17400 296.29617 303.62859 0.85518
4078 15.17760 296.17148 304.84050 0.84395
4079 15.18120 296.04967 303.77854 0.84189
4080 15.18480 295.93097 304.53031 0.83977
4081 15.18840 295.81567 303.37348 0.83722
4082 15.19200 295.70404 304.50393 0.83545
4083 15.19560 295.59635 303.54904 0.83462
4084 15.19920 295.49279 304.90022 0.83611
4085 15.20280 295.39345 303.45005 0.83407
4086 15.20640 295.29821 303.54660 0.83671
4087 15.21000 295.20667 305.04610 0.82865
4088 15.21360 295.11797 304.02714 0.83796
4089 15.21720 295.03056 304.94000 0.83122
4090 15.22080 294.94211 303.85093 0.83637
4091 15.22440 294.84955 305.21581 0.82905
4092 15.22800 294.74958 305.12914 0.83124
4093 15.23160 294.63862 303.22799 0.83411
4094 15.23520 294.51573 303.24774 0.83789
4095 15.23880 294.38129 305.02074 0.83157
4096 15.24240 294.23800 304.87091 0.83275
4097 15.24600 294.08929 305.00361 0.83130
4098 15.24960 293.93845 305.03442 0.83372
4099 15.25320 293.78792 303.98681 0.83631
4100 15.25680 293.63911 304.35412 0.83524
4101 15.26040 293.49457 303.26699 0.83860
4102 15.26400 293.35339 303.63093 0.83701
4103 15.26760 293.21606 302.51409 0.83977
4104 15.27120 293.08252 301.91071 0.84251
4105 15.27480 292.95254 301.79902 0.84417
4106 15.27840 292.82584 301.17297 0.84224
4107 15.28200 292.70207 300.20006 0.84907
4108 15.28560 292.58036 299.19449 0.84935
4109 15.28920 292.45320 300.91363 0.84549
4110 15.29280 292.29779 299.85808 0.84643
4111 15.29640 292.17283 300.27646 0.84785
4112 15.30000 292.05929 299.34535 0.84915
4113 15.30360 291.94706 300.76825 0.84663
4114 15.30720 291.83601 298.28795 0.85075
4115 15.31080 291.72603 300.82998 0.84760
4116 15.31440 291.61703 299.74066 0.84753
4117 15.31800 291.50897 299.16195 0.84857
4118 15.32160 291.40180 297.98914 0.84950
4119 15.32520 291.29550 296.94288 0.85529
4120 15.32880 291.19007 298.31422 0.85066
4121 15.33240 291.08549 298.87869 0.85102
4122 15.33600 290.98179 299.45541 0.84936
4123 15.33960 290.87897 298.14595 0.85299
4124 15.34320 290.77706 297.55186 1.01863
4125 15.34680 290.67609 297.20484 1.06146
4126 15.35040 290.57611 297.33174 1.05637
4127 15.35400 290.47717 296.59786 1.05034
4128 15.35760 290.37934 294.49850 1.05077
4129 15.36120 290.28270 295.40008 1.04225
4130 15.36480 290.18735 296.58645 1.03842
4131 15.36840 290.09344 296.99574 1.03620
4132 15.37200 290.00111 296.48224 1.03906
4133 15.37560 289.91054 294.94609 1.04609
4134 15.37920 289.82180 296.86138 1.04553
4135 15.38280 289.73547 294.92338 1.06016
4136 15.38640 289.65187 294.91684 1.06432
4137 15.39000 289.57105 295.49704 0.97425
4138 15.39360 289.49347 297.15456 0.94765
4139 15.39720 289.41948 295.17468 0.94882
4140 15.40080 289.34942 295.58354 0.94804
4141 15.40440 289.28333 295.40317 0.94598
4142 15.40800 289.22061 296.25079 0.94638
4143 15.41160 289.16221 293.96958 0.95266
4144 15.41520 289.10981 294.01882 0.95439
4145 15.41880 289.06147 297.01195 1.03629
4146 15.42240 289.01635 297.28091 1.06929
4147 15.42600 288.97311 295.46974 1.06846
4148 15.42960 288.92975 295.76590 1.06093
4149 15.43320 288.88378 295.17666 1.06404
4150 15.43680 288.83258 294.99663 1.06415
4151 15.44040 288.77421 295.06734 1.06901
4152 15.44400 288.70817 295.60306 1.06700
4153 15.44760 288.63523 296.80534 1.07325
4154 15.45120 288.55801 296.00874 1.02061
4155 15.45480 288.47961 295.88504 0.86932
4156 15.45840 288.40309 295.14421 0.86749
4157 15.46200 288.33100 294.95422 0.87037
4158 15.46560 288.26530 294.47046 0.87174
4159 15.46920 288.20744 294.46914 0.87075
4160 15.47280 288.15850 293.17886 0.87030
4161 15.47640 288.11934 292.72164 0.87621
4162 15.48000 288.09071 292.66768 0.87554
4163 15.48360 288.07342 294.08051 0.87196
4164 15.48720 288.06828 293.53453 0.87436
4165 15.49080 288.07582 294.78553 0.87063
4166 15.49440 288.09673 295.09758 0.86990
4167 15.49800 288.13432 294.88144 0.87094
4168 15.50160 288.18977 293.20425 0.87512
4169 15.50520 288.26550 294.19048 0.87266
4170 15.50880 288.36492 295.61060 0.86939
4171 15.51240 288.49298 293.55012 0.87461
4172 15.51600 288.65431 293.02806 0.87400
4173 15.51960 288.85637 295.72935 0.86601
4174 15.52320 289.10850 295.77102 0.87136
4175 15.52680 289.42199 294.43297 0.87176
4176 15.53040 289.81051 296.00987 0.87279
4177 15.53400 290.29025 295.08375 0.87185
4178 15.53760 290.87981 296.02950 0.86689
4179 15.54120 291.59987 293.88925 0.81623
4180 15.54480 292.47258 296.52475 0.82299
4181 15.54840 293.52065 297.02277 0.86365
4182 15.55200 294.76595 299.68074 0.86247
4183 15.55560 296.22787 298.69443 0.85990
4184 15.55920 297.92107 298.77001 0.85901
4185 15.56280 299.85263 299.35379 0.85498
4186 15.56640 302.01831 299.74188 0.85592
4187 15.57000 304.39675 301.03360 0.85280
4188 15.57360 306.94274 302.28237 0.85299
4189 15.57720 309.57764 301.30304 0.85409
4190 15.58080 312.18029 304.18741 0.84623
4191 15.58440 314.58348 303.26735 0.85047
4192 15.58800 316.58430 304.69002 0.84266
4193 15.59160 317.97646 306.60849 0.83836
4194 15.59520 318.60217 309.22906 0.83100
4195 15.59880 318.40425 309.16418 0.83299
4196 15.60240 317.44966 308.91107 0.83285
4197 15.60600 315.90968 310.08696 0.82947
4198 15.60960 314.00929 311.05158 0.82403
4199 15.61320 311.97459 311.75307 0.82444
4200 15.61680 309.99863 312.40039 0.82319
4201 15.62040 308.22966 313.14761 0.82569
4202 15.62400 306.77380 314.90172 0.81582
4203 15.62760 305.70324 316.35429 0.81287
4204 15.63120 305.06429 318.30426 0.80590
4205 15.63480 304.88317 318.08297 0.81193
4206 15.63840 305.16927 321.98447 0.79772
4207 15.64200 305.91551 322.71206 0.84853
4208 15.64560 307.09653 326.35493 0.98192
4209 15.64920 308.67207 330.26466 0.96268
4210 15.65280 310.57842 333.11664 0.94619
4211 15.65640 312.71057 338.53361 0.92825
4212 15.66000 314.92598 341.18630 0.91816
4213 15.66360 317.03597 343.44423 0.91177
4214 15.66720 318.81299 345.32747 0.90452
4215 15.67080 320.01120 346.63371 0.90330
4216 15.67440 320.40283 346.57651 0.90065
4217 15.67800 319.89798 347.32792 0.89848
4218 15.68160 318.59242 347.16358 0.90190
4219 15.68520 316.56295 343.43915 0.90990
4220 15.68880 314.01813 340.16607 0.92102
4221 15.69240 311.18110 336.85553 0.92671
4222 15.69600 308.24865 334.63938 0.93225
4223 15.69960 305.37294 330.36277 0.94288
4224 15.70320 302.65956 326.63605 0.95769
4225 15.70680 300.17581 323.40369 0.96321
4226 15.71040 297.96039 322.75032 0.96539
4227 15.71400 296.03255 319.72407 0.97512
4228 15.71760 294.39806 317.07186 1.00859
4229 15.72120 293.05403 315.86627 1.10588
4230 15.72480 291.99223 315.67505 1.10514
4231 15.72840 291.20159 313.58837 1.10418
4232 15.73200 290.66997 310.88152 1.10932
4233 15.73560 290.38537 310.52651 1.10944
4234 15.73920 290.33657 310.52612 1.10509
4235 15.74280 290.51360 310.30312 1.10571
4236 15.74640 290.90625 308.93070 1.10965
4237 15.75000 291.50388 307.47112 1.11543
4238 15.75360 292.29462 305.68499 1.11757
4239 15.75720 293.26209 304.73636 1.12347
4240 15.76080 294.38272 305.46290 1.12065
4241 15.76440 295.62207 305.42823 1.12271
4242 15.76800 296.93039 306.38258 1.11567
4243 15.77160 298.23930 305.83207 1.11864
4244 15.77520 299.46206 303.96235 1.12570
4245 15.77880 300.50110 302.19561 1.13624
4246 15.78240 301.26483 301.79579 1.13547
4247 15.78600 301.69075 302.90455 1.13303
4248 15.78960 301.76599 303.54853 1.13113
4249 15.79320 301.53485 302.25055 1.13883
4250 15.79680 301.08935 301.35119 1.13742
4251 15.80040 300.54839 301.99066 1.14039
4252 15.80400 300.03532 302.75104 1.13552
4253 15.80760 299.66155 303.06470 1.12856
4254 15.81120 299.51861 302.57656 1.12814
4255 15.81480 299.67564 301.98998 1.13111
4256 15.81840 300.18035 301.43054 1.13450
4257 15.82200 301.06107 302.49556 1.13312
4258 15.82560 302.32706 304.45838 1.12925
4259 15.82920 303.96625 305.39453 1.12817
4260 15.83280 305.94296 306.08523 1.13850
4261 15.83640 308.19188 309.63420 1.12391
4262 15.84000 310.61093 312.63026 1.05314
4263 15.84360 313.05473 313.66443 1.00495
4264 15.84720 315.33387 314.83450 1.00062
4265 15.85080 317.22705 317.18399 0.99391
4266 15.85440 318.51201 318.09628 0.99400
4267 15.85800 319.01202 319.02422 0.98677
4268 15.86160 318.64178 317.81876 0.99232
4269 15.86520 317.42895 317.06321 0.99157
4270 15.86880 315.50127 315.38145 1.00010
4271 15.87240 313.04457 313.74061 1.00564
4272 15.87600 310.25751 311.08209 1.01530
4273 15.87960 307.31995 308.64460 1.01980
4274 15.88320 304.37927 305.08316 1.03715
4275 15.88680 301.54876 303.57334 1.04334
4276 15.89040 298.91070 302.77607 1.04950
4277 15.89400 296.52025 300.65183 1.05986
4278 15.89760 294.40915 299.73192 1.07129
4279 15.90120 292.58907 298.77341 1.06265
4280 15.90480 291.05460 297.26196 0.88291
4281 15.90840 289.78569 296.56527 0.87887
4282 15.91200 288.74957 296.60989 0.87996
4283 15.91560 287.90238 293.80923 0.88865
4284 15.91920 287.19163 293.60269 0.89058
4285 15.92280 286.56044 291.86543 0.89425
4286 15.92640 285.95426 291.48592 0.89217
4287 15.93000 285.32924 294.72041 0.88757
4288 15.93360 284.65878 294.11421 0.88791
4289 15.93720 283.93650 293.18777 0.89217
4290 15.94080 283.17380 290.25306 0.90010
4291 15.94440 282.38993 290.91386 0.89763
4292 15.94800 281.60762 290.74451 0.89690
4293 15.95160 280.84737 290.37604 0.90089
4294 15.95520 280.12656 289.02645 0.90170
4295 15.95880 279.45924 288.98406 0.90324
4296 15.96240 278.85670 288.89590 0.90217
4297 15.96600 278.32822 287.53102 0.90789
4298 15.96960 277.88148 287.49380 0.90734
4299 15.97320 277.52301 287.35226 0.90924
4300 15.97680 277.25853 288.49953 0.90400
4301 15.98040 277.09331 286.41123 0.91020
4302 15.98400 277.03245 285.88193 0.91336
4303 15.98760 277.08028 286.27546 0.91026
4304 15.99120 277.24134 286.48920 0.91250
4305 15.99480 277.51927 285.76334 0.91438
4306 15.99840 277.91656 287.62408 0.90821
4307 16.00200 278.43383 288.24324 0.90104
4308 16.00560 279.06895 288.76115 0.90578
4309 16.00920 279.81584 289.64270 0.89922
4310 16.01280 280.66279 290.90764 0.89572
4311 16.01640 281.59036 293.08956 0.88936
4312 16.02000 282.56865 294.65607 0.88392
4313 16.02360 283.55445 294.28837 0.88442
4314 16.02720 284.48909 295.93968 0.88384
4315 16.03080 285.29900 295.34014 0.88347
4316 16.03440 285.90336 297.50513 0.87964
4317 16.03800 286.22779 297.18962 0.87764
4318 16.04160 286.21561 298.29206 0.87335
4319 16.04520 285.84826 295.90153 0.87845
4320 16.04880 285.14917 296.02734 0.88068
4321 16.05240 284.17663 294.82448 0.88508
4322 16.05600 283.00801 292.99559 0.88864
4323 16.05960 281.72295 291.68374 0.89228
4324 16.06320 280.39136 289.25697 0.90324
4325 16.06680 279.06808 287.74835 0.90302
4326 16.07040 277.79244 285.41763 0.91107
4327 16.07400 276.58747 284.32240 0.91374
4328 16.07760 275.45751 283.23747 0.91845
4329 16.08120 274.43070 281.55486 0.92642
4330 16.08480 273.51631 280.73167 0.92889
4331 16.08840 272.70004 279.88620 0.93159
4332 16.09200 271.97727 279.74784 0.95059
4333 16.09560 271.34100 278.95832 1.15723
4334 16.09920 270.78326 277.55671 1.15458
4335 16.10280 270.29561 278.14988 1.15351
4336 16.10640 269.86952 277.61375 1.14189
4337 16.11000 269.49679 277.58684 1.13901
4338 16.11360 269.16993 276.05282 1.14068
4339 16.11720 268.88227 276.56347 1.14265
4340 16.12080 268.62809 276.25071 1.14311
4341 16.12440 268.40262 276.30917 1.14682
4342 16.12800 268.20200 276.80126 1.14217
4343 16.13160 268.02319 276.76185 1.14465
4344 16.13520 267.86386 275.57198 1.14719
4345 16.13880 267.72226 275.42655 1.14907
4346 16.14240 267.59713 276.13941 1.14289
4347 16.14600 267.48758 276.67079 1.14246
4348 16.14960 267.39295 275.83272 1.14504
4349 16.15320 267.31267 273.99839 1.15531
4350 16.15680 267.24621 274.24018 1.15339
4351 16.16040 267.19291 273.91987 1.15479
4352 16.16400 267.15198 273.95893 1.15428
4353 16.16760 267.12255 274.04166 1.16047
4354 16.17120 267.10410 274.67431 1.28937
4355 16.17480 267.09636 274.21655 1.28965
4356 16.17840 267.10025 274.54830 1.28017
4357 16.18200 267.11802 274.25713 1.27538
4358 16.18560 267.15290 273.91919 1.27831
4359 16.18920 267.20875 272.95961 1.27561
4360 16.19280 267.28932 273.15985 1.27400
4361 16.19640 267.39757 273.97600 1.26549
4362 16.20000 267.53507 273.82520 1.27209
4363 16.20360 267.70149 273.08250 1.26924
4364 16.20720 267.89432 272.55161 1.27698
4365 16.21080 268.10882 272.20779 1.27328
4366 16.21440 268.33851 273.56260 1.27183
4367 16.21800 268.57627 273.22863 1.27032
4368 16.22160 268.81586 272.03226 1.27693
4369 16.22520 269.05309 272.29428 1.27393
4370 16.22880 269.28613 272.36201 1.27494
4371 16.23240 269.51429 272.61917 1.27563
4372 16.23600 269.73559 272.22082 1.27928
4373 16.23960 269.94426 271.96626 1.28065
4374 16.24320 270.12892 271.18531 1.28369
4375 16.24680 270.27249 270.87687 1.28421
4376 16.25040 270.35436 271.49331 1.28277
4377 16.25400 270.35462 271.28893 1.28441
4378 16.25760 270.25939 269.92179 1.29041
4379 16.26120 270.06476 271.09308 1.28266
4380 16.26480 269.77796 269.47128 1.28995
4381 16.26840 269.41484 268.68260 1.29354
4382 16.27200 268.99489 269.39736 1.28976
4383 16.27560 268.53653 269.91135 1.29345
4384 16.27920 268.05377 269.17461 1.29252
4385 16.28280 267.55544 268.80133 1.30210
4386 16.28640 267.04644 268.20856 1.29865
4387 16.29000 266.52973 268.13951 1.29678
4388 16.29360 266.00890 268.92402 1.29430
4389 16.29720 265.48902 268.94808 1.29532
4390 16.30080 264.97667 268.90461 1.29426
4391 16.30440 264.47906 268.88090 1.29636
4392 16.30800 264.00224 267.69852 1.30027
4393 16.31160 263.55120 267.57908 1.30336
4394 16.31520 263.12891 268.14888 1.29446
4395 16.31880 262.73666 268.43666 1.29516
4396 16.32240 262.37431 268.31574 1.29581
4397 16.32600 262.04076 267.36133 1.30065
4398 16.32960 261.73427 266.04698 1.31054
4399 16.33320 261.45281 265.22263 1.31242
4400 16.33680 261.19380 265.37860 1.31627
4401 16.34040 260.95502 265.58745 1.31108
4402 16.34400 260.73418 264.39203 1.31560
4403 16.34760 260.52905 265.28564 1.30722
4404 16.35120 260.33761 264.48561 1.31766
4405 16.35480 260.15800 264.30916 1.31791
4406 16.35840 259.98855 263.61495 1.31817
4407 16.36200 259.82778 262.99743 1.32050
4408 16.36560 259.67441 263.62191 1.32307
4409 16.36920 259.52734 263.30354 1.32377
4410 16.37280 259.38563 262.92601 1.32721
4411 16.37640 259.24850 262.65025 1.32429
4412 16.38000 259.11529 263.03544 1.32235
4413 16.38360 258.98544 262.82925 1.32245
4414 16.38720 258.85847 261.79491 1.33225
4415 16.39080 258.73424 261.65229 1.33079
4416 16.39440 258.61233 261.60199 1.33190
4417 16.39800 258.49250 261.38839 1.33217
4418 16.40160 258.37457 261.01461 1.33755
4419 16.40520 258.25837 261.63683 1.33359
4420 16.40880 258.14379 262.20786 1.32952
4421 16.41240 258.03070 262.56212 1.32565
4422 16.41600 257.91904 262.10336 1.33022
4423 16.41960 257.80871 261.37895 1.33624
4424 16.42320 257.69966 260.84694 1.33694
4425 16.42680 257.59185 261.05462 1.33377
4426 16.43040 257.48523 261.34723 1.33173
4427 16.43400 257.37986 261.08069 1.33530
4428 16.43760 257.27552 259.10004 1.34113
4429 16.44120 257.17230 259.97899 1.34042
4430 16.44480 257.07017 258.63820 1.34362
4431 16.44840 256.96913 260.14184 1.33962
4432 16.45200 256.86918 259.95469 1.33557
4433 16.45560 256.77032 259.72174 1.34463
4434 16.45920 256.67259 259.44173 1.33897
4435 16.46280 256.57596 260.09894 1.34137
4436 16.46640 256.48046 258.95104 1.34486
4437 16.47000 256.38612 259.37597 1.34312
4438 16.47360 256.29298 259.32348 1.33936
4439 16.47720 256.20106 260.44573 1.33866
4440 16.48080 256.11043 261.04802 1.33512
4441 16.48440 256.02112 257.83863 1.35477
4442 16.48800 255.93321 258.48880 1.34864
4443 16.49160 255.84674 258.83360 1.34307
4444 16.49520 255.76181 257.95986 1.34778
4445 16.49880 255.67849 257.99041 1.34930
4446 16.50240 255.59689 258.28439 1.34391
4447 16.50600 255.51712 257.75094 1.34811
4448 16.50960 255.43929 257.83743 1.34972
4449 16.51320 255.36355 257.74773 1.34703
4450 16.51680 255.29007 258.34121 1.34528
4451 16.52040 255.21902 258.27127 1.34333
4452 16.52400 255.15063 258.39040 1.34828
4453 16.52760 255.08514 256.39114 1.35665
4454 16.53120 255.02285 257.13944 1.35662
4455 16.53480 254.96412 257.11849 1.35236
4456 16.53840 254.90938 256.83417 1.35435
4457 16.54200 254.85914 257.46706 1.35018
4458 16.54560 254.81405 257.00851 1.35492
4459 16.54920 254.77491 257.21442 1.34859
4460 16.55280 254.74269 256.29224 1.35893
4461 16.55640 254.71862 257.80188 1.34999
4462 16.56000 254.70418 257.69083 1.34898
4463 16.56360 254.70122 256.96064 1.34790
4464 16.56720 254.71198 256.70770 1.35488
4465 16.57080 254.73914 257.54055 1.34961
4466 16.57440 254.78585 257.56258 1.35025
4467 16.57800 254.85584 256.81990 1.35718
4468 16.58160 254.95338 256.85237 1.35832
4469 16.58520 255.08331 257.67526 1.35487
4470 16.58880 255.25091 256.76662 1.35995
4471 16.59240 255.46176 257.40795 1.35330
4472 16.59600 255.72193 258.86863 1.34395
4473 16.59960 256.03749 257.96998 1.35001
4474 16.60320 256.41437 256.75709 1.35985
4475 16.60680 256.85810 257.95302 1.35150
4476 16.61040 257.37342 258.51422 1.34379
4477 16.61400 257.96389 258.71832 1.34679
4478 16.61760 258.63132 258.49653 1.34477
4479 16.62120 259.37518 258.98230 1.35095
4480 16.62480 260.19187 259.29227 1.34346
4481 16.62840 261.07292 260.46008 1.34076
4482 16.63200 262.00500 261.29867 1.33210
4483 16.63560 262.96791 261.86956 1.33478
4484 16.63920 263.93407 263.28177 1.32554
4485 16.64280 264.86888 264.26643 1.32093
4486 16.64640 265.73344 262.94229 1.32128
4487 16.65000 266.48704 265.91754 1.31175
4488 16.65360 267.09617 265.56407 1.31293
4489 16.65720 267.53805 264.86839 1.31970
4490 16.66080 267.80389 267.09508 1.30413
4491 16.66440 267.89731 267.90806 1.29948
4492 16.66800 267.82925 269.27500 1.29405
4493 16.67160 267.61188 271.36545 1.28765
4494 16.67520 267.25455 271.91798 1.28236
4495 16.67880 266.76328 272.41843 1.27815
4496 16.68240 266.14349 272.62394 1.27678
4497 16.68600 265.40384 272.59258 1.27746
4498 16.68960 264.55897 272.45564 1.28035
4499 16.69320 263.62959 270.97002 1.28263
4500 16.69680 262.64043 270.93246 1.28464
4501 16.70040 261.61724 271.02454 1.28431
4502 16.70400 260.58428 270.25346 1.29294
4503 16.70760 259.56293 267.59102 1.30190
4504 16.71120 258.57110 267.23349 1.30728
4505 16.71480 257.62309 264.88186 1.31618
4506 16.71840 256.72964 264.67624 1.31825
4507 16.72200 255.89805 263.83056 1.32058
4508 16.72560 255.13243 263.56936 1.32534
4509 16.72920 254.43418 262.10304 1.33187
4510 16.73280 253.80260 261.14834 1.33726
4511 16.73640 253.23533 260.31809 1.34119
4512 16.74000 252.72874 259.47409 1.34202
4513 16.74360 252.27866 258.46436 1.34720
4514 16.74720 251.88046 256.79437 1.35902
4515 16.75080 251.52940 257.02735 1.35483
4516 16.75440 251.22089 257.69229 1.35256
4517 16.75800 250.95060 256.15562 1.35876
4518 16.76160 250.71462 254.67323 1.36700
4519 16.76520 250.50955 254.97849 1.36655
4520 16.76880 250.33253 253.54418 1.37277
4521 16.77240 250.18133 253.82030 1.37234
4522 16.77600 250.05434 252.18701 1.38601
4523 16.77960 249.95057 252.20782 1.38600
4524 16.78320 249.86966 251.56542 1.38444
4525 16.78680 249.81179 250.85380 1.39078
4526 16.79040 249.77769 251.13833 1.38571
4527 16.79400 249.76852 251.67542 1.38515
4528 16.79760 249.78557 251.94480 1.37971
4529 16.80120 249.83081 251.09332 1.38859
4530 16.80480 249.90689 252.72128 1.37782
4531 16.80840 250.01505 252.50551 1.38103
4532 16.81200 250.15715 251.83624 1.38423
4533 16.81560 250.33458 251.22889 1.39003
4534 16.81920 250.54815 251.62054 1.38503
4535 16.82280 250.79787 251.30597 1.38677
4536 16.82640 251.08272 251.87974 1.38430
4537 16.83000 251.40030 254.06851 1.37533
4538 16.83360 251.74650 253.40226 1.37594
4539 16.83720 252.11508 252.52839 1.38166
4540 16.84080 252.49630 254.09908 1.37045
4541 16.84440 252.87693 253.46057 1.37292
4542 16.84800 253.24460 253.47203 1.37254
4543 16.85160 253.57827 254.17091 1.36846
4544 16.85520 253.85653 254.55148 1.37130
4545 16.85880 254.05812 256.25290 1.35443
4546 16.86240 254.16507 255.22977 1.36201
4547 16.86600 254.16637 255.98863 1.35814
4548 16.86960 254.06041 255.44762 1.36603
4549 16.87320 253.85545 256.17709 1.35999
4550 16.87680 253.56781 254.28177 1.36952
4551 16.88040 253.21864 253.97010 1.37239
4552 16.88400 252.83035 254.01093 1.37267
4553 16.88760 252.42395 254.13978 1.36974
4554 16.89120 252.01747 253.66948 1.37432
4555 16.89480 251.62546 252.92635 1.37288
4556 16.89840 251.25919 251.44078 1.38507
4557 16.90200 250.92714 250.71599 1.38855
4558 16.90560 250.63558 251.78140 1.38518
4559 16.90920 250.38906 251.88162 1.38224
4560 16.91280 250.19095 252.80363 1.37683
4561 16.91640 250.04378 250.89737 1.38397
4562 16.92000 249.94973 251.18812 1.38744
4563 16.92360 249.91051 252.10518 1.38290
4564 16.92720 249.92838 251.05877 1.38847
4565 16.93080 250.00603 249.86150 1.39400
4566 16.93440 250.14701 251.62053 1.38300
4567 16.93800 250.35604 251.74156 1.38328
4568 16.94160 250.63937 252.20856 1.37947
4569 16.94520 251.00502 252.11699 1.37786
4570 16.94880 251.46310 254.11363 1.36837
4571 16.95240 252.02593 253.61510 1.37560
4572 16.95600 252.70820 253.13569 1.37811
4573 16.95960 253.52700 254.04482 1.37660
4574 16.96320 254.50158 255.67203 1.35896
4575 16.96680 255.65313 257.42130 1.35658
4576 16.97040 257.00442 259.40952 1.34239
4577 16.97400 258.57869 259.53623 1.34257
4578 16.97760 260.39768 261.31662 1.33164
4579 16.98120 262.48326 264.27273 1.31620
4580 16.98480 264.85335 265.92225 1.30661
4581 16.98840 267.52215 267.28067 1.30132
4582 16.99200 270.49818 269.09458 1.29086
4583 16.99560 273.78323 271.42535 1.28431
4584 16.99920 277.37089 273.86240 1.26934
4585 17.00280 281.24469 276.84256 1.25814
4586 17.00640 285.37526 279.51829 1.24723
4587 17.01000 289.71634 282.77120 1.23176
4588 17.01360 294.19967 286.33570 1.21404
4589 17.01720 298.72927 288.57085 1.20839
4590 17.02080 303.17645 291.90183 1.19067
4591 17.02440 307.37760 295.79873 1.17467
4592 17.02800 311.13794 299.12696 1.16569
4593 17.03160 314.24458 301.93301 1.15273
4594 17.03520 316.49049 303.76377 1.14870
4595 17.03880 317.70684 305.30355 1.13951
4596 17.04240 317.79572 305.82069 1.13845
4597 17.04600 316.75184 302.66919 1.15063
4598 17.04960 314.66467 300.48886 1.16039
4599 17.05320 311.70004 298.77365 1.16377
4600 17.05680 308.06832 296.79048 1.17340
4601 17.06040 303.99249 292.70759 1.18917
4602 17.06400 299.68188 288.93962 1.20630
4603 17.06760 295.31808 286.65048 1.21364
4604 17.07120 291.04956 283.79438 1.22520
4605 17.07480 286.99303 279.73067 1.24061
4606 17.07840 283.23767 278.28506 1.25501
4607 17.08200 279.84982 276.56600 1.25806
4608 17.08560 276.87796 274.12666 1.26887
4609 17.08920 274.35606 272.61945 1.27546
4610 17.09280 272.30659 270.35491 1.28478
4611 17.09640 270.74224 269.09308 1.29257
4612 17.10000 269.66811 270.43389 1.28332
4613 17.10360 269.08259 270.47032 1.28625
4614 17.10720 268.97803 269.84901 1.28740
4615 17.11080 269.34079 270.43374 1.28381
4616 17.11440 270.15497 271.13543 1.28296
4617 17.11800 271.39714 273.11609 1.27592
4618 17.12160 273.03781 274.47090 1.26931
4619 17.12520 275.04096 278.48730 1.25146
4620 17.12880 277.36173 281.44924 1.23973
4621 17.13240 279.94407 285.68649 1.22000
4622 17.13600 282.71787 289.11490 1.20313
4623 17.13960 285.59602 295.68391 1.17891
4624 17.14320 288.47250 299.85270 1.15602
4625 17.14680 291.22309 303.91385 1.14629
4626 17.15040 293.71068 307.62534 1.12955
4627 17.15400 295.79649 310.85523 1.11951
4628 17.15760 297.35665 311.63103 1.11308
4629 17.16120 298.30072 311.00604 1.11653
4630 17.16480 298.58641 308.44791 1.12263
4631 17.16840 298.22502 305.59681 1.13696
4632 17.17200 297.27578 302.56000 1.14965
4633 17.17560 295.83185 297.77862 1.16876
4634 17.17920 294.00352 293.20593 1.18701
4635 17.18280 291.90343 287.90037 1.21152
4636 17.18640 289.63592 283.13432 1.22727
4637 17.19000 287.29036 278.82114 1.24840
4638 17.19360 284.93704 275.33147 1.26242
4639 17.19720 282.62513 271.71827 1.27634
4640 17.20080 280.38195 268.20550 1.29538
4641 17.20440 278.21479 265.71293 1.30811
4642 17.20800 276.11482 264.56407 1.31902
4643 17.21160 274.06315 263.06941 1.32059
4644 17.21520 272.03856 261.78054 1.33113
4645 17.21880 270.02519 259.12544 1.33980
4646 17.22240 268.01802 256.87544 1.35424
4647 17.22600 266.02488 255.73918 1.35574
4648 17.22960 264.06387 253.98382 1.36926
4649 17.23320 262.15892 253.28556 1.36893
4650 17.23680 260.33541 251.61511 1.38176
4651 17.24040 258.61482 249.82819 1.38871
4652 17.24400 257.01256 248.70711 1.39796
4653 17.24760 255.53740 247.03763 1.40258
4654 17.25120 254.19133 246.90123 1.40747
4655 17.25480 252.97001 244.39072 1.42263
4656 17.25840 251.86416 243.84148 1.42861
4657 17.26200 250.86013 244.17791 1.42461
4658 17.26560 249.94156 242.53264 1.43841
4659 17.26920 249.09075 241.04428 1.44740
4660 17.27280 248.29065 241.72479 1.44054
4661 17.27640 247.52696 242.22628 1.43521
4662 17.28000 246.78988 241.08929 1.44505
4663 17.28360 246.07483 240.89133 1.44814
4664 17.28720 245.38214 239.26895 1.45474
4665 17.29080 244.71577 238.48284 1.45964
4666 17.29440 244.08155 237.42407 1.46699
4667 17.29800 243.48557 237.75396 1.46451
4668 17.30160 242.93304 237.59252 1.46292
4669 17.30520 242.42760 235.70989 1.47852
4670 17.30880 241.97113 236.20788 1.47489
4671 17.31240 241.56373 235.75491 1.48100
4672 17.31600 241.20379 235.24004 1.47803
4673 17.31960 240.88807 234.69153 1.48216
4674 17.32320 240.61167 235.93119 1.47102
4675 17.32680 240.36805 234.68384 1.48282
4676 17.33040 240.14901 235.27368 1.47882
4677 17.33400 239.94484 234.37182 1.48349
4678 17.33760 239.74472 233.42951 1.49021
4679 17.34120 239.53750 232.63662 1.49364
4680 17.34480 239.31287 232.54153 1.49445
4681 17.34840 239.06265 233.36818 1.49240
4682 17.35200 238.78197 232.95830 1.49157
4683 17.35560 238.46982 232.12512 1.49697
4684 17.35920 238.12890 231.50306 1.50395
4685 17.36280 237.76473 232.78154 1.49441
4686 17.36640 237.38439 232.92399 1.49401
4687 17.37000 236.99532 232.80792 1.49265
4688 17.37360 236.60388 233.18126 1.49503
4689 17.37720 236.21509 232.03802 1.50462
4690 17.38080 235.83757 231.41159 1.50822
4691 17.38440 235.47272 229.53677 1.51529
4692 17.38800 235.12314 231.78643 1.50525
4693 17.39160 234.79041 231.32333 1.50511
4694 17.39520 234.47562 229.68459 1.51235
4695 17.39880 234.17928 231.82107 1.49907
4696 17.40240 233.90135 231.23033 1.50632
4697 17.40600 233.64145 231.60203 1.50190
4698 17.40960 233.39904 229.93861 1.51374
4699 17.41320 233.17312 229.37648 1.51354
4700 17.41680 232.96255 230.15330 1.51343
4701 17.42040 232.76631 229.77504 1.51706
4702 17.42400 232.58415 230.28204 1.51570
4703 17.42760 232.41303 229.62606 1.51480
4704 17.43120 232.25264 228.52826 1.52298
4705 17.43480 232.10198 228.50141 1.52241
4706 17.43840 231.96026 230.68808 1.51058
4707 17.44200 231.82618 230.14871 1.51515
4708 17.44560 231.69909 229.42599 1.51997
4709 17.44920 231.57839 229.94065 1.51563
4710 17.45280 231.46353 229.66106 1.51652
4711 17.45640 231.35410 230.28852 1.51075
4712 17.46000 231.24969 229.02585 1.51801
4713 17.46360 231.14967 228.55356 1.52445
4714 17.46720 231.05453 228.16320 1.52490
4715 17.47080 230.96493 229.34605 1.51930
4716 17.47440 230.88019 229.90515 1.50980
4717 17.47800 230.80076 229.72948 1.51361
4718 17.48160 230.72666 228.79562 1.51796
4719 17.48520 230.65854 228.77562 1.52134
4720 17.48880 230.59700 229.16665 1.51414
4721 17.49240 230.54273 229.63960 1.51331
4722 17.49600 230.49657 230.30962 1.50606
4723 17.49960 230.45946 231.27315 1.50524
4724 17.50320 230.43248 231.49319 1.50085
4725 17.50680 230.41678 231.15330 1.50579
4726 17.51040 230.41364 231.85052 1.50029
4727 17.51400 230.42433 231.40807 1.50496
4728 17.51760 230.45022 233.56020 1.49129
4729 17.52120 230.49287 233.97286 1.48830
4730 17.52480 230.55294 232.13076 1.49905
4731 17.52840 230.63183 232.77729 1.49586
4732 17.53200 230.73051 233.42485 1.49264
4733 17.53560 230.84966 236.73110 1.46714
4734 17.53920 230.98970 237.42163 1.46345
4735 17.54280 231.15064 238.24342 1.45650
4736 17.54640 231.33204 240.80913 1.44410
4737 17.55000 231.53288 242.31759 1.42988
4738 17.55360 231.75144 241.40333 1.44160
4739 17.55720 231.98513 243.37419 1.42860
4740 17.56080 232.23037 243.50357 1.43328
4741 17.56440 232.48242 246.85701 1.40860
4742 17.56800 232.73549 246.16417 1.41726
4743 17.57160 232.98276 249.19171 1.39865
4744 17.57520 233.21710 249.61356 1.39336
4745 17.57880 233.43206 250.15415 1.38867
4746 17.58240 233.62292 249.90116 1.39627
4747 17.58600 233.78790 252.68531 1.37478
4748 17.58960 233.92894 254.33787 1.36755
4749 17.59320 234.05179 254.62954 1.36656
4750 17.59680 234.16533 254.39252 1.37097
4751 17.60040 234.28028 255.44411 1.36247
4752 17.60400 234.40776 256.79991 1.35629
4753 17.60760 234.55797 256.42355 1.35507
4754 17.61120 234.73920 255.73545 1.36033
4755 17.61480 234.95720 255.52053 1.36059
4756 17.61840 235.21475 255.71758 1.36105
4757 17.62200 235.51146 257.95324 1.34822
4758 17.62560 235.84351 257.44217 1.34836
4759 17.62920 236.20348 258.03471 1.34994
4760 17.63280 236.58015 256.79643 1.35367
4761 17.63640 236.95845 258.79034 1.34220
4762 17.64000 237.31981 259.45658 1.33518
4763 17.64360 237.64296 258.43425 1.34411
4764 17.64720 237.90545 259.93937 1.33692
4765 17.65080 238.08591 259.66655 1.34155
4766 17.65440 238.16641 259.63336 1.33833
4767 17.65800 238.13477 260.22703 1.33683
4768 17.66160 237.98599 258.52350 1.34486
4769 17.66520 237.72256 256.91627 1.35515
4770 17.66880 237.35367 256.85866 1.35263
4771 17.67240 236.89373 256.20516 1.35762
4772 17.67600 236.36061 253.00530 1.37259
4773 17.67960 235.77360 253.19881 1.37469
4774 17.68320 235.15251 250.93746 1.38304
4775 17.68680 234.51524 247.80323 1.40288
4776 17.69040 233.87820 245.96123 1.41546
4777 17.69400 233.25542 243.83090 1.42556
4778 17.69760 232.65820 242.14316 1.43421
4779 17.70120 232.09542 241.78752 1.43763
4780 17.70480 231.57373 239.74010 1.44952
4781 17.70840 231.09790 238.94586 1.45254
4782 17.71200 230.67116 236.75639 1.46955
4783 17.71560 230.29564 235.24655 1.47160
4784 17.71920 229.97213 233.71055 1.48793
4785 17.72280 229.70118 233.35558 1.49134
4786 17.72640 229.48282 233.62045 1.48874
4787 17.73000 229.31689 230.83895 1.50331
4788 17.73360 229.20325 231.28587 1.50643
4789 17.73720 229.14210 230.98061 1.50221
4790 17.74080 229.13408 229.97529 1.51387
4791 17.74440 229.18049 229.62597 1.51165
4792 17.74800 229.28332 229.30153 1.52289
4793 17.75160 229.44556 227.68138 1.53032
4794 17.75520 229.67116 227.74828 1.53049
4795 17.75880 229.96515 228.99634 1.51771
4796 17.76240 230.33362 228.62386 1.52576
4797 17.76600 230.78373 229.18716 1.52253
4798 17.76960 231.32365 228.99590 1.52373
4799 17.77320 231.96244 228.65609 1.52377
4800 17.77680 232.70992 230.45503 1.51061
4801 17.78040 233.57654 230.66944 1.50998
4802 17.78400 234.57290 231.34999 1.50105
4803 17.78760 235.70983 232.36229 1.49431
4804 17.79120 236.99786 233.87720 1.48549
4805 17.79480 238.44682 235.95797 1.47313
4806 17.79840 240.06547 237.06502 1.46729
4807 17.80200 241.86090 237.71593 1.46141
4808 17.80560 243.83791 240.20668 1.44668
4809 17.80920 245.99813 242.27242 1.43744
4810 17.81280 248.33913 243.19342 1.43039
4811 17.81640 250.85332 247.18434 1.41138
4812 17.82000 253.52683 249.10166 1.40012
4813 17.82360 256.33859 251.22352 1.38455
4814 17.82720 259.25992 252.96502 1.37115
4815 17.83080 262.25497 254.93522 1.36663
4816 17.83440 265.28223 258.57544 1.34150
4817 17.83800 268.29719 261.09919 1.33044
4818 17.84160 271.25595 264.17987 1.31532
4819 17.84520 274.11890 267.08387 1.30134
4820 17.84880 276.85362 269.14773 1.28703
4821 17.85240 279.43704 271.82419 1.27673
4822 17.85600 281.85566 274.66274 1.26721
4823 17.85960 284.10423 276.35495 1.25605
4824 17.86320 286.18291 279.77609 1.24141
4825 17.86680 288.09281 281.92656 1.23384
4826 17.87040 289.83013 284.51128 1.22116
4827 17.87400 291.38028 286.88654 1.21204
4828 17.87760 292.71247 289.06326 1.20283
4829 17.88120 293.77677 291.28838 1.19285
4830 17.88480 294.50514 293.45899 1.18557
4831 17.88840 294.81747 293.26728 1.18357
4832 17.89200 294.63273 293.90732 1.18030
4833 17.89560 293.88339 292.83901 1.18522
4834 17.89920 292.53007 291.47170 1.19512
4835 17.90280 290.57208 288.87825 1.20361
4836 17.90640 288.05014 286.09628 1.21336
4837 17.91000 285.04190 283.19850 1.22380
4838 17.91360 281.65007 279.32173 1.24415
4839 17.91720 277.98862 275.00856 1.26246
4840 17.92080 274.17014 271.58963 1.27937
4841 17.92440 270.29664 269.02480 1.29011
4842 17.92800 266.45447 263.56996 1.31884
4843 17.93160 262.71273 260.77154 1.33480
4844 17.93520 259.12334 257.40618 1.35147
4845 17.93880 255.72347 254.52122 1.36520
4846 17.94240 252.53719 251.12803 1.38329
4847 17.94600 249.57715 248.89815 1.39203
4848 17.94960 246.84709 246.76715 1.40634
4849 17.95320 244.34310 243.36892 1.42718
4850 17.95680 242.05530 241.05463 1.43995
4851 17.96040 239.96958 238.53074 1.45837
4852 17.96400 238.06934 236.55508 1.46945
4853 17.96760 236.33714 234.05289 1.48311
4854 17.97120 234.75619 231.91408 1.49822
4855 17.97480 233.31131 229.81108 1.51107
4856 17.97840 231.98937 227.68522 1.51884
4857 17.98200 230.77925 226.15585 1.53889
4858 17.98560 229.67137 225.54393 1.53890
4859 17.98920 228.65734 224.53806 1.55016
4860 17.99280 227.72946 223.86760 1.55183
4861 17.99640 226.88055 222.63946 1.56547
4862 18.00000 226.10381 221.70927 1.56484
4863 18.00360 225.39284 221.11846 1.57461
4864 18.00720 224.74169 220.88286 1.56894
4865 18.01080 224.14486 220.94877 1.57467
4866 18.01440 223.59739 221.18076 1.57296
4867 18.01800 223.09478 219.90092 1.58599
4868 18.02160 222.63313 218.67487 1.59307
4869 18.02520 222.20855 218.31925 1.59413
4870 18.02880 221.81806 217.55188 1.59533
4871 18.03240 221.45840 217.88180 1.59566
4872 18.03600 221.12714 217.58996 1.59744
4873 18.03960 220.82181 219.30403 1.58208
4874 18.04320 220.54023 218.30633 1.59185
4875 18.04680 220.28045 216.58720 1.60494
4876 18.05040 220.04071 216.88323 1.60796
4877 18.05400 219.81945 217.29288 1.60385
4878 18.05760 219.61529 217.43230 1.60107
4879 18.06120 219.42710 215.84254 1.61470
4880 18.06480 219.25394 216.77345 1.60927
4881 18.06840 219.09508 217.20428 1.60344
4882 18.07200 218.95022 216.91338 1.60437
4883 18.07560 218.81898 218.08119 1.58978
4884 18.07920 218.70114 217.80435 1.59961
4885 18.08280 218.59709 216.59418 1.60625
4886 18.08640 218.50738 215.98643 1.60667
4887 18.09000 218.43281 217.03725 1.59633
4888 18.09360 218.37443 217.31526 1.59632
4889 18.09720 218.33354 217.99883 1.59660
4890 18.10080 218.31173 217.40233 1.60177
4891 18.10440 218.31083 217.50840 1.59915
4892 18.10800 218.33286 217.66061 1.59624
4893 18.11160 218.38006 216.99483 1.60016
4894 18.11520 218.45480 216.93890 1.60489
4895 18.11880 218.55955 216.77468 1.60477
4896 18.12240 218.69671 217.37910 1.60264
4897 18.12600 218.86869 217.42768 1.60174
4898 18.12960 219.07771 218.02156 1.59293
4899 18.13320 219.32568 218.08676 1.59541
4900 18.13680 219.61411 219.77024 1.58115
4901 18.14040 219.94395 220.33946 1.57880
4902 18.14400 220.31540 217.65377 1.59814
4903 18.14760 220.72779 219.03874 1.58744
4904 18.15120 221.17934 218.95866 1.58955
4905 18.15480 221.66694 220.48207 1.57785
4906 18.15840 222.18590 220.52102 1.57417
4907 18.16200 222.72969 220.58441 1.57880
4908 18.16560 223.28975 220.89423 1.56812
4909 18.16920 223.85532 221.11859 1.56973
4910 18.17280 224.41356 223.79826 1.54907
4911 18.17640 224.94962 223.93228 1.55146
4912 18.18000 225.44747 224.17163 1.54951
4913 18.18360 225.89066 224.22587 1.55335
4914 18.18720 226.26335 224.60654 1.54691
4915 18.19080 226.55179 224.51610 1.54799
4916 18.19440 226.74483 226.93759 1.53157
4917 18.19800 226.83558 226.01144 1.54019
4918 18.20160 226.82139 226.65448 1.53686
4919 18.20520 226.70385 226.64454 1.53398
4920 18.20880 226.48835 226.03901 1.53755
4921 18.21240 226.18328 226.90598 1.53230
4922 18.21600 225.79924 226.80356 1.53380
4923 18.21960 225.34839 226.48842 1.53472
4924 18.22320 224.84387 227.23414 1.52809
4925 18.22680 224.29966 227.27292 1.52128
4926 18.23040 223.73015 226.79018 1.53155
4927 18.23400 223.14970 227.28740 1.52643
4928 18.23760 222.57208 227.55867 1.52780
4929 18.24120 222.00999 226.53107 1.53417
4930 18.24480 221.47462 227.43153 1.53166
4931 18.24840 220.97549 226.67883 1.52990
4932 18.25200 220.52025 225.96487 1.53714
4933 18.25560 220.11491 224.89530 1.54203
4934 18.25920 219.76395 226.90925 1.52922
4935 18.26280 219.47043 226.90323 1.52918
4936 18.26640 219.23616 228.68837 1.51934
4937 18.27000 219.06177 227.99994 1.52145
4938 18.27360 218.94684 227.23873 1.52770
4939 18.27720 218.88962 227.60890 1.52215
4940 18.28080 218.88744 229.71443 1.51179
4941 18.28440 218.93645 229.26167 1.51291
4942 18.28800 219.03156 228.89874 1.51616
4943 18.29160 219.16645 230.13769 1.50697
4944 18.29520 219.33356 230.22365 1.50809
4945 18.29880 219.52386 231.46152 1.50200
4946 18.30240 219.72721 231.77964 1.49862
4947 18.30600 219.93267 233.06782 1.49304
4948 18.30960 220.12897 234.35785 1.48062
4949 18.31320 220.30531 233.90833 1.48829
4950 18.31680 220.45237 235.62774 1.47432
4951 18.32040 220.56322 235.15611 1.47662
4952 18.32400 220.63398 236.01149 1.46974
4953 18.32760 220.66380 235.98048 1.46965
4954 18.33120 220.65498 234.61298 1.48081
4955 18.33480 220.61252 234.70656 1.48350
4956 18.33840 220.54072 235.43351 1.47161
4957 18.34200 220.44700 232.79502 1.49043
4958 18.34560 220.33833 232.26984 1.49168
4959 18.34920 220.22174 231.30375 1.50166
4960 18.35280 220.10413 227.48661 1.52399
4961 18.35640 219.99198 227.04673 1.52896
4962 18.36000 219.89104 225.05440 1.54058
4963 18.36360 219.80591 223.75074 1.55086
4964 18.36720 219.73966 224.44007 1.54748
4965 18.37080 219.69343 222.93895 1.55816
4966 18.37440 219.66623 220.98273 1.57113
4967 18.37800 219.65470 220.93118 1.57231
4968 18.38160 219.65331 218.50423 1.58970
4969 18.38520 219.65433 218.71593 1.58488
4970 18.38880 219.64782 218.18362 1.59100
4971 18.39240 219.62434 216.06920 1.60590
4972 18.39600 219.57607 215.99695 1.60696
4973 18.39960 219.49350 216.63866 1.60084
4974 18.40320 219.37131 215.17138 1.61787
4975 18.40680 219.20769 215.49037 1.61171
4976 18.41040 219.00466 213.49223 1.62646
4977 18.41400 218.76768 212.51850 1.63149
4978 18.41760 218.50483 213.20537 1.63080
4979 18.42120 218.22570 213.00407 1.62933
4980 18.42480 217.94039 212.30766 1.63800
4981 18.42840 217.65871 212.48984 1.63386
4982 18.43200 217.38974 212.61867 1.63296
4983 18.43560 217.14164 211.42132 1.64260
4984 18.43920 216.92172 211.67747 1.63778
4985 18.44280 216.73651 210.37144 1.65205
4986 18.44640 216.59202 210.84672 1.64432
4987 18.45000 216.49376 210.50691 1.64849
4988 18.45360 216.44701 211.36200 1.64330
4989 18.45720 216.45685 211.35419 1.63890
4990 18.46080 216.52827 211.26461 1.64240
4991 18.46440 216.66629 211.64247 1.64260
4992 18.46800 216.87606 212.43036 1.63687
4993 18.47160 217.16287 211.03089 1.64545
4994 18.47520 217.53221 211.15123 1.64581
4995 18.47880 217.98959 212.02760 1.63771
4996 18.48240 218.54038 212.16433 1.63353
4997 18.48600 219.18947 212.66723 1.63673
4998 18.48960 219.94089 212.77104 1.63058
4999 18.49320 220.79749 213.07390 1.63073
5000 18.49680 221.76051 214.82119 1.61148
5001 18.50040 222.82924 215.14375 1.61772
5002 18.50400 224.00071 217.32671 1.60037
5003 18.50760 225.26938 218.09878 1.59282
5004 18.51120 226.62657 218.61717 1.58687
5005 18.51480 228.06085 220.86372 1.57315
5006 18.51840 229.56218 223.74871 1.54801
5007 18.52200 231.11270 225.69070 1.53816
5008 18.52560 232.69385 228.67661 1.51576
5009 18.52920 234.28414 229.24290 1.51257
5010 18.53280 235.85844 232.59797 1.49207
5011 18.53640 237.38737 236.53405 1.46913
5012 18.54000 238.83671 240.06164 1.44654
5013 18.54360 240.16755 244.05744 1.42114
5014 18.54720 241.33762 248.76737 1.39676
5015 18.55080 242.30405 252.57127 1.37555
5016 18.55440 243.02741 255.03859 1.36229
5017 18.55800 243.47691 255.31625 1.35769
5018 18.56160 243.63561 256.85334 1.35222
5019 18.56520 243.50362 256.30108 1.35226
5020 18.56880 243.09940 257.41004 1.34961
5021 18.57240 242.45798 254.37282 1.36570
5022 18.57600 241.62702 254.44113 1.36349
5023 18.57960 240.66160 250.93248 1.37807
5024 18.58320 239.61907 246.90036 1.40539
5025 18.58680 238.55493 242.59841 1.42684
5026 18.59040 237.51989 240.24177 1.44238
5027 18.59400 236.55831 236.90049 1.46365
5028 18.59760 235.70760 235.54793 1.47818
5029 18.60120 234.99820 233.38602 1.48690
5030 18.60480 234.45393 230.44255 1.51092
5031 18.60840 234.09227 230.18956 1.50859
5032 18.61200 233.92479 230.50372 1.50626
5033 18.61560 233.95721 229.80772 1.50717
5034 18.61920 234.18943 230.77704 1.50395
5035 18.62280 234.61588 231.41426 1.49629
5036 18.62640 235.22516 231.69376 1.49609
5037 18.63000 236.00012 233.30183 1.48917
5038 18.63360 236.91791 234.83242 1.47846
5039 18.63720 237.95018 236.10762 1.46930
5040 18.64080 239.06356 235.97933 1.46549
5041 18.64440 240.22080 237.77785 1.45816
5042 18.64800 241.38137 239.59438 1.44890
5043 18.65160 242.50359 241.61228 1.43950
5044 18.65520 243.54651 240.45826 1.44569
5045 18.65880 244.47195 241.37747 1.43727
5046 18.66240 245.24633 241.96825 1.43031
5047 18.66600 245.84184 243.35613 1.42694
5048 18.66960 246.23681 243.50509 1.42415
5049 18.67320 246.41551 242.30027 1.43334
5050 18.67680 246.36756 242.43806 1.42842
5051 18.68040 246.08781 239.51374 1.45041
5052 18.68400 245.57834 236.99521 1.46400
5053 18.68760 244.84451 235.25073 1.47317
5054 18.69120 243.89870 234.66775 1.47749
5055 18.69480 242.75853 233.10234 1.48970
5056 18.69840 241.44527 230.39116 1.50358
5057 18.70200 239.98282 227.82207 1.52558
5058 18.70560 238.39623 225.97330 1.53351
5059 18.70920 236.71088 224.31314 1.54549
5060 18.71280 234.95206 223.02708 1.55568
5061 18.71640 233.14490 221.12604 1.56553
5062 18.72000 231.31419 219.71578 1.57556
5063 18.72360 229.48404 218.66555 1.58115
5064 18.72720 227.67717 215.49998 1.60790
5065 18.73080 225.91421 214.69272 1.61415
5066 18.73440 224.21293 213.58579 1.62843
5067 18.73800 222.58778 211.53475 1.63917
5068 18.74160 221.04974 211.80881 1.63616
5069 18.74520 219.60635 210.71702 1.64290
5070 18.74880 218.26207 209.22843 1.66019
5071 18.75240 217.01864 209.33799 1.65923
5072 18.75600 215.87563 208.06254 1.67231
5073 18.75960 214.83094 207.31461 1.67103
5074 18.76320 213.88126 207.44510 1.67421
5075 18.76680 213.02253 206.85125 1.68174
5076 18.77040 212.25020 206.21070 1.68862
5077 18.77400 211.55953 205.31769 1.69070
5078 18.77760 210.94566 204.83461 1.69270
5079 18.78120 210.40368 205.91892 1.68097
5080 18.78480 209.92870 205.75764 1.68466
5081 18.78840 209.51531 204.72212 1.69101
5082 18.79200 209.15731 205.14535 1.69095
5083 18.79560 208.85384 206.14175 1.68185
5084 18.79920 208.59773 206.10242 1.68230
5085 18.80280 208.38401 204.43505 1.70046
5086 18.80640 208.20775 204.34259 1.70240
5087 18.81000 208.06394 205.02186 1.69334
5088 18.81360 207.94767 206.41017 1.68128
5089 18.81720 207.85408 204.41585 1.69450
5090 18.82080 207.77906 205.25757 1.69032
5091 18.82440 207.71848 204.43467 1.69417
5092 18.82800 207.66929 205.63984 1.68195
5093 18.83160 207.62914 205.93443 1.68526
5094 18.83520 207.59718 204.53833 1.68987
5095 18.83880 207.57367 205.46276 1.68539
5096 18.84240 207.55990 204.04407 1.69335
5097 18.84600 207.55796 204.70022 1.69338
5098 18.84960 207.57032 204.57336 1.69348
5099 18.85320 207.59919 204.39118 1.69708
5100 18.85680 207.64673 205.25975 1.68981
5101 18.86040 207.71434 204.44807 1.69481
5102 18.86400 207.80255 204.77680 1.68805
5103 18.86760 207.91090 205.68482 1.68732
5104 18.87120 208.03782 205.87893 1.68417
5105 18.87480 208.18051 206.07473 1.68155
5106 18.87840 208.33490 206.35033 1.68136
5107 18.88200 208.49554 205.43395 1.68772
5108 18.88560 208.65557 205.22845 1.68805
5109 18.88920 208.80679 207.28861 1.67036
5110 18.89280 208.93990 206.84044 1.67741
5111 18.89640 209.04468 206.68609 1.67781
5112 18.90000 209.11094 206.13981 1.67709
5113 18.90360 209.12998 204.95361 1.68983
5114 18.90720 209.09392 205.87637 1.68487
5115 18.91080 208.99802 205.59579 1.68369
5116 18.91440 208.84088 206.10449 1.68486
5117 18.91800 208.62481 205.59931 1.68885
5118 18.92160 208.35469 205.81028 1.68523
5119 18.92520 208.03844 204.31800 1.69437
5120 18.92880 207.68540 203.74867 1.70415
5121 18.93240 207.30550 203.64613 1.70244
5122 18.93600 206.90845 202.55904 1.71438
5123 18.93960 206.50324 202.40502 1.71612
5124 18.94320 206.09790 202.26528 1.71967
5125 18.94680 205.69936 202.46341 1.71494
5126 18.95040 205.31341 202.83375 1.71267
5127 18.95400 204.94490 202.42147 1.71910
5128 18.95760 204.59771 202.59435 1.71227
5129 18.96120 204.27501 202.58570 1.71325
5130 18.96480 203.97930 200.88188 1.72687
5131 18.96840 203.71261 199.51557 1.73664
5132 18.97200 203.47622 201.50838 1.72233
5133 18.97560 203.27108 201.52729 1.72411
5134 18.97920 203.09789 202.02923 1.71309
5135 18.98280 202.95697 201.30895 1.72588
5136 18.98640 202.84832 201.43758 1.72551
5137 18.99000 202.77176 201.64854 1.72043
5138 18.99360 202.72687 200.87089 1.72865
5139 18.99720 202.71298 201.97580 1.71630
5140 19.00080 202.72937 201.73173 1.71642
5141 19.00440 202.77514 202.33521 1.71648
5142 19.00800 202.84924 202.28681 1.71761
5143 19.01160 202.95045 202.99716 1.71139
5144 19.01520 203.07742 203.58592 1.70383
5145 19.01880 203.22856 203.79857 1.70724
5146 19.02240 203.40204 204.05468 1.69766
5147 19.02600 203.59572 204.68167 1.69551
5148 19.02960 203.80708 206.30200 1.67877
5149 19.03320 204.03319 206.38463 1.68192
5150 19.03680 204.27067 207.74353 1.67055
5151 19.04040 204.51571 208.30983 1.66350
5152 19.04400 204.76420 208.90034 1.66158
5153 19.04760 205.01195 211.08282 1.64861
5154 19.05120 205.25493 212.58724 1.63616
5155 19.05480 205.48976 213.89695 1.63054
5156 19.05840 205.71405 216.37711 1.60704
5157 19.06200 205.92663 217.20741 1.59708
5158 19.06560 206.12708 218.92055 1.58750
5159 19.06920 206.31705 221.52937 1.56605
5160 19.07280 206.50078 222.87521 1.55839
5161 19.07640 206.67907 225.12608 1.53977
5162 19.08000 206.85590 227.45412 1.52322
5163 19.08360 207.03400 227.67250 1.52526
5164 19.08720 207.21578 229.71176 1.51461
5165 19.09080 207.40304 230.28197 1.50312
5166 19.09440 207.59641 233.12748 1.48788
5167 19.09800 207.79627 233.23465 1.48823
5168 19.10160 208.00245 234.90539 1.48058
5169 19.10520 208.21470 232.95365 1.48946
5170 19.10880 208.43290 233.29769 1.48832
5171 19.11240 208.65781 232.18712 1.49432
5172 19.11600 208.89120 231.73953 1.50001
5173 19.11960 209.13610 231.06807 1.50127
5174 19.12320 209.39699 229.69636 1.51025
5175 19.12680 209.67968 230.32213 1.50471
5176 19.13040 209.99127 229.52715 1.51158
5177 19.13400 210.33998 230.11326 1.50423
5178 19.13760 210.73514 229.23160 1.51203
5179 19.14120 211.18715 228.08865 1.52006
5180 19.14480 211.70745 226.50090 1.53086
5181 19.14840 212.30849 226.04002 1.53435
5182 19.15200 213.00348 226.34012 1.53178
5183 19.15560 213.80602 226.87412 1.52936
5184 19.15920 214.72961 226.35982 1.53406
5185 19.16280 215.78706 227.63729 1.52505
5186 19.16640 216.98986 227.52100 1.52008
5187 19.17000 218.34759 229.03947 1.51314
5188 19.17360 219.86743 229.67439 1.50356
5189 19.17720 221.55360 230.12242 1.50731
5190 19.18080 223.40693 229.47230 1.51218
5191 19.18440 225.42435 232.66201 1.49059
5192 19.18800 227.59850 232.83781 1.48921
5193 19.19160 229.91716 233.23285 1.48854
5194 19.19520 232.36275 235.24719 1.47620
5195 19.19880 234.91186 237.07664 1.46053
5196 19.20240 237.53468 238.54549 1.45210
5197 19.20600 240.19470 240.36830 1.44751
5198 19.20960 242.84843 241.38340 1.43583
5199 19.21320 245.44557 245.98547 1.40946
5200 19.21680 247.92959 253.07505 1.37415
5201 19.22040 250.23908 260.36031 1.33578
5202 19.22400 252.31007 265.09533 1.30976
5203 19.22760 254.07931 267.74924 1.29459
5204 19.23120 255.48860 268.19591 1.29196
5205 19.23480 256.48948 270.66545 1.27922
5206 19.23840 257.04772 268.67071 1.29030
5207 19.24200 257.14643 265.76513 1.30679
5208 19.24560 256.78744 260.17979 1.33677
5209 19.24920 255.99045 253.62433 1.36748
5210 19.25280 254.79038 248.29870 1.39936
5211 19.25640 253.23369 245.38243 1.41318
5212 19.26000 251.37444 243.00626 1.42772
5213 19.26360 249.27059 241.82500 1.43038
5214 19.26720 246.98107 238.96402 1.44617
5215 19.27080 244.56343 239.74197 1.44056
5216 19.27440 242.07194 237.79204 1.45641
5217 19.27800 239.55704 236.65169 1.45939
5218 19.28160 237.06420 234.82615 1.47557
5219 19.28520 234.63377 232.67802 1.49092
5220 19.28880 232.30038 231.94749 1.49818
5221 19.29240 230.09362 230.89455 1.50192
5222 19.29600 228.03767 228.23900 1.51624
5223 19.29960 226.15170 225.18299 1.54028
5224 19.30320 224.45013 225.37537 1.53822
5225 19.30680 222.94301 224.30512 1.54635
5226 19.31040 221.63643 222.60241 1.55824
5227 19.31400 220.53289 221.92059 1.55765
5228 19.31760 219.63171 222.44845 1.55723
5229 19.32120 218.92934 220.61951 1.57278
5230 19.32480 218.41969 220.50034 1.57057
5231 19.32840 218.09439 220.21933 1.57214
5232 19.33200 217.94294 219.00662 1.58168
5233 19.33560 217.95292 219.79540 1.58130
5234 19.33920 218.11012 219.33758 1.58115
5235 19.34280 218.39920 219.85865 1.57796
5236 19.34640 218.80347 219.56287 1.57956
5237 19.35000 219.30599 220.19356 1.57433
5238 19.35360 219.89029 221.05982 1.56724
5239 19.35720 220.54151 220.79996 1.57564
5240 19.36080 221.24708 220.73823 1.56970
5241 19.36440 221.99804 223.20299 1.55255
5242 19.36800 222.78940 223.10593 1.55409
5243 19.37160 223.62001 224.07811 1.55171
5244 19.37520 224.49190 224.55608 1.54427
5245 19.37880 225.40912 225.51861 1.53941
5246 19.38240 226.37632 226.52334 1.53268
5247 19.38600 227.39721 227.55215 1.52803
5248 19.38960 228.47322 228.05469 1.52402
5249 19.39320 229.60248 230.09106 1.50926
5250 19.39680 230.77894 231.71385 1.49710
5251 19.40040 231.99326 232.74356 1.49128
5252 19.40400 233.23161 234.67203 1.47839
5253 19.40760 234.47849 235.58072 1.47153
5254 19.41120 235.71311 236.45689 1.46815
5255 19.41480 236.91825 238.59989 1.45328
5256 19.41840 238.07673 239.44615 1.45082
5257 19.42200 239.17392 239.93598 1.44995
5258 19.42560 240.19860 241.50889 1.44241
5259 19.42920 241.14319 242.75239 1.43343
5260 19.43280 242.00358 242.49162 1.43295
5261 19.43640 242.77880 243.50828 1.42729
5262 19.44000 243.47053 242.61214 1.42876
5263 19.44360 244.08302 240.54754 1.44442
5264 19.44720 244.62192 241.35245 1.43764
5265 19.45080 245.09388 241.48480 1.43040
5266 19.45440 245.50528 241.37171 1.43947
5267 19.45800 245.86020 241.45633 1.43803
5268 19.46160 246.15901 240.98573 1.44221
5269 19.46520 246.39684 241.26626 1.43829
5270 19.46880 246.56215 242.60124 1.43396
5271 19.47240 246.63647 241.23533 1.43675
5272 19.47600 246.59511 242.93709 1.42782
5273 19.47960 246.40902 241.23225 1.43754
5274 19.48320 246.04772 241.20292 1.43991
5275 19.48680 245.48310 241.28159 1.44048
5276 19.49040 244.69351 241.16220 1.44319
5277 19.49400 243.66752 239.59357 1.45404
5278 19.49760 242.40485 238.73954 1.45821
5279 19.50120 240.91939 238.05845 1.45987
5280 19.50480 239.23626 238.63466 1.45603
5281 19.50840 237.38950 235.47470 1.47476
5282 19.51200 235.41857 233.43922 1.48440
5283 19.51560 233.36480 232.26760 1.49653
5284 19.51920 231.26839 232.53247 1.49510
5285 19.52280 229.16612 234.79058 1.48068
5286 19.52640 227.09005 235.41368 1.47257
5287 19.53000 225.06698 233.14250 1.48756
5288 19.53360 223.11839 232.34884 1.49396
5289 19.53720 221.26062 230.71914 1.50839
5290 19.54080 219.50549 227.24002 1.53041
5291 19.54440 217.86069 222.70411 1.55977
5292 19.54800 216.33033 217.99929 1.59511
5293 19.55160 214.91566 216.31143 1.61054
5294 19.55520 213.61553 214.55901 1.62091
5295 19.55880 212.42695 213.00169 1.63195
5296 19.56240 211.34585 211.36222 1.64377
5297 19.56600 210.36750 210.69943 1.64909
5298 19.56960 209.48710 209.63526 1.65342
5299 19.57320 208.70011 208.75315 1.66523
5300 19.57680 208.00256 207.91740 1.66982
5301 19.58040 207.39117 206.95833 1.67689
5302 19.58400 206.86346 207.23252 1.67497
5303 19.58760 206.41767 206.28862 1.68541
5304 19.59120 206.05260 205.49673 1.68904
5305 19.59480 205.76764 204.77322 1.69286
5306 19.59840 205.56236 204.80830 1.69578
5307 19.60200 205.43630 204.41684 1.69820
5308 19.60560 205.38873 203.52257 1.70897
5309 19.60920 205.41822 202.99012 1.71121
5310 19.61280 205.52254 204.05310 1.70080
5311 19.61640 205.69839 205.39777 1.68543
5312 19.62000 205.94111 204.87018 1.69373
5313 19.62360 206.24462 203.98949 1.70358
5314 19.62720 206.60128 203.89261 1.70449
5315 19.63080 207.00186 203.99373 1.70346
5316 19.63440 207.43560 203.71377 1.70798
5317 19.63800 207.89043 203.74129 1.70217
5318 19.64160 208.35331 203.16151 1.67345
5319 19.64520 208.81070 203.33817 1.44040
5320 19.64880 209.24913 204.26287 1.43467
5321 19.65240 209.65540 204.62755 1.42874
5322 19.65600 210.01734 204.17886 1.69809
5323 19.65960 210.32358 204.28345 1.69875
5324 19.66320 210.56361 204.50902 1.69707
5325 19.66680 210.72752 204.56242 1.69857
5326 19.67040 210.80556 204.32374 1.70171
5327 19.67400 210.78883 204.02664 1.70431
5328 19.67760 210.66925 205.59964 1.68962
5329 19.68120 210.44040 204.65483 1.70094
5330 19.68480 210.09833 205.54421 1.68878
5331 19.68840 209.64278 205.18887 1.69586
5332 19.69200 209.07753 204.17120 1.70443
5333 19.69560 208.41060 203.53954 1.71478
5334 19.69920 207.65380 203.57615 1.70756
5335 19.70280 206.82187 203.86302 1.70916
5336 19.70640 205.93131 201.65328 1.72261
5337 19.71000 204.99923 201.57054 1.72894
5338 19.71360 204.04229 201.72989 1.72349
5339 19.71720 203.07599 200.01528 1.73590
5340 19.72080 202.11415 198.56458 1.75201
5341 19.72440 201.16871 197.97916 1.75864
5342 19.72800 200.24970 197.70838 1.75727
5343 19.73160 199.36535 196.79014 1.76705
5344 19.73520 198.52220 196.81621 1.76561
5345 19.73880 197.72536 196.06408 1.77830
5346 19.74240 196.97862 194.87835 1.78511
5347 19.74600 196.28467 195.20155 1.78222
5348 19.74960 195.64527 194.76611 1.78062
5349 19.75320 195.06134 193.95095 1.78525
5350 19.75680 194.53313 194.02014 1.79537
5351 19.76040 194.06030 194.17145 1.79326
5352 19.76400 193.64207 193.24089 1.79655
5353 19.76760 193.27728 191.94651 1.81173
5354 19.77120 192.96448 192.11350 1.81453
5355 19.77480 192.70204 191.47878 1.81242
5356 19.77840 192.48818 190.01969 1.82736
5357 19.78200 192.32108 189.76910 1.82782
5358 19.78560 192.19894 191.88752 1.81223
5359 19.78920 192.11994 192.35373 1.80796
5360 19.79280 192.08207 191.54249 1.81640
5361 19.79640 192.08370 190.90278 1.82514
5362 19.80000 192.12312 190.72956 1.82878
5363 19.80360 192.19862 190.16277 1.83017
5364 19.80720 192.30846 189.88968 1.83265
5365 19.81080 192.45082 189.97125 1.82595
5366 19.81440 192.62377 189.79644 1.83591
5367 19.81800 192.82519 190.42339 1.82772
5368 19.82160 193.05277 190.46011 1.83085
5369 19.82520 193.30398 189.63469 1.84312
5370 19.82880 193.57604 189.84730 1.84897
5371 19.83240 193.86605 190.34865 1.85436
5372 19.83600 194.17117 190.98226 1.86195
5373 19.83960 194.48864 192.22651 1.71195
5374 19.84320 194.81601 192.00665 1.64067
5375 19.84680 195.15122 191.11252 1.65015
5376 19.85040 195.49264 191.45730 1.64696
5377 19.85400 195.83899 191.12258 1.64958
5378 19.85760 196.18919 192.79219 1.63445
5379 19.86120 196.54206 192.21248 1.63727
5380 19.86480 196.89600 193.48738 1.62334
5381 19.86840 197.24882 193.20172 1.63579
5382 19.87200 197.59748 192.99534 1.63808
5383 19.87560 197.93790 191.85142 1.64361
5384 19.87920 198.26504 193.21047 1.63155
5385 19.88280 198.57282 193.15417 1.63969
5386 19.88640 198.85475 194.42508 1.62999
5387 19.89000 199.10399 193.97029 1.63607
5388 19.89360 199.31388 194.09964 1.45214
5389 19.89720 199.47855 193.07130 1.37912
5390 19.90080 199.59283 194.58981 1.32536
5391 19.90440 199.65306 195.18073 1.20523
5392 19.90800 199.65685 194.65960 1.33619
5393 19.91160 199.60315 195.41287 1.33076
5394 19.91520 199.49220 195.98678 1.32536
5395 19.91880 199.32534 196.21307 1.32395
5396 19.92240 199.10498 195.06736 1.33364
5397 19.92600 198.83443 196.07298 1.32579
5398 19.92960 198.51778 194.90723 1.33937
5399 19.93320 198.15978 195.06058 1.33566
5400 19.93680 197.76577 196.51485 1.32558
5401 19.94040 197.34158 194.64476 1.33721
5402 19.94400 196.89350 195.55170 1.33710
5403 19.94760 196.42825 196.73078 1.32349
5404 19.95120 195.95295 196.06792 1.33219
5405 19.95480 195.47504 196.14109 1.32757
5406 19.95840 195.00180 194.84672 1.33988
5407 19.96200 194.54080 195.31081 1.33377
5408 19.96560 194.09929 193.39834 1.34873
5409 19.96920 193.68409 193.16538 1.35565
5410 19.97280 193.30142 193.69552 1.35229
5411 19.97640 192.95695 192.63249 1.35953
5412 19.98000 192.65543 192.75525 1.35868
5413 19.98360 192.40130 191.22535 1.36469
5414 19.98720 192.19892 190.52797 1.37089
5415 19.99080 192.05099 191.47943 1.36534
5416 19.99440 191.96013 191.34019 1.36945
5417 19.99800 191.92849 190.35007 1.37722
5418 20.00160 191.95776 191.20715 1.36578
5419 20.00520 192.04919 190.20810 1.37514
5420 20.00880 192.20358 189.35037 1.38322
5421 20.01240 192.42135 190.07676 1.37853
5422 20.01600 192.70244 187.66401 1.39051
5423 20.01960 193.04632 187.55990 1.39398
5424 20.02320 193.45180 187.82881 1.39039
5425 20.02680 193.91693 188.76799 1.38565
5426 20.03040 194.44005 188.86246 1.37905
5427 20.03400 195.01749 189.36156 1.37930
5428 20.03760 195.64506 187.98807 1.38953
5429 20.04120 196.31754 187.60282 1.39540
5430 20.04480 197.02859 188.80022 1.38706
5431 20.04840 197.77078 189.22476 1.38881
5432 20.05200 198.53558 188.38104 1.38674
5433 20.05560 199.31388 189.75563 1.37622
5434 20.05920 200.09592 190.31331 1.37149
5435 20.06280 200.87200 190.35935 1.37283
5436 20.06640 201.63292 191.70713 1.36295
5437 20.07000 202.37054 193.22112 1.35599
5438 20.07360 203.07806 193.44414 1.35712
5439 20.07720 203.75021 194.79731 1.35361
5440 20.08080 204.38306 196.79217 1.34936
5441 20.08440 204.97378 198.09620 1.35305
5442 20.08800 205.51992 199.59420 1.30303
5443 20.09160 206.01876 202.04901 1.13386
5444 20.09520 206.46657 204.66616 1.18964
5445 20.09880 206.85794 205.29328 1.43296
5446 20.10240 207.18548 208.27640 1.39523
5447 20.10600 207.43978 210.83607 1.36071
5448 20.10960 207.60913 212.67233 1.34539
5449 20.11320 207.68126 214.27896 1.32531
5450 20.11680 207.64379 219.19911 1.30226
5451 20.12040 207.48569 219.26081 1.29511
5452 20.12400 207.19893 219.46037 1.29752
5453 20.12760 206.77980 220.99727 1.28427
5454 20.13120 206.22898 220.32574 1.29195
5455 20.13480 205.55299 220.72475 1.28824
5456 20.13840 204.76301 218.20508 1.31416
5457 20.14200 203.87403 214.35036 1.34312
5458 20.14560 202.90363 212.49586 1.36160
5459 20.14920 201.87057 209.54418 1.39673
5460 20.15280 200.79359 206.33869 1.19695
5461 20.15640 199.69045 203.23063 1.12679
5462 20.16000 198.57731 200.99744 1.14291
5463 20.16360 197.46834 198.92299 1.15442
5464 20.16720 196.37568 196.57383 1.16485
5465 20.17080 195.30941 193.29536 1.21166
5466 20.17440 194.27774 192.10656 1.40113
5467 20.17800 193.28717 190.52761 1.39856
5468 20.18160 192.34271 190.52037 1.38649
5469 20.18520 191.44802 189.25519 1.39053
5470 20.18880 190.60567 186.18100 1.40810
5471 20.19240 189.81709 186.43860 1.34673
5472 20.19600 189.08295 184.97901 1.11597
5473 20.19960 188.40315 185.71043 1.11139
5474 20.20320 187.77694 184.82638 1.12513
5475 20.20680 187.20305 184.50646 1.41384
5476 20.21040 186.67987 182.55925 1.42399
5477 20.21400 186.20519 182.85229 1.41913
5478 20.21760 185.77677 183.37278 1.41644
5479 20.22120 185.39217 183.06782 1.42377
5480 20.22480 185.04882 183.31123 1.42238
5481 20.22840 184.74412 183.92297 1.41728
5482 20.23200 184.47551 183.78874 1.41943
5483 20.23560 184.24049 183.30269 1.42304
5484 20.23920 184.03666 183.24175 1.42478
5485 20.24280 183.86177 183.56093 1.42342
5486 20.24640 183.71370 183.93885 1.41856
5487 20.25000 183.59050 182.44739 1.42938
5488 20.25360 183.49037 182.46895 1.42940
5489 20.25720 183.41166 183.74282 1.41906
5490 20.26080 183.35287 182.89331 1.42716
5491 20.26440 183.31263 184.14247 1.41884
5492 20.26800 183.28963 184.37877 1.41788
5493 20.27160 183.28267 185.01943 1.41557
5494 20.27520 183.29059 184.17292 1.42121
5495 20.27880 183.31223 185.88568 1.40642
5496 20.28240 183.34645 184.52991 1.41854
5497 20.28600 183.39204 184.25330 1.41819
5498 20.28960 183.44761 183.35949 1.42997
5499 20.29320 183.51167 184.91639 1.41386
5500 20.29680 183.58330 186.17164 1.40186
5501 20.30040 183.66048 185.52450 1.40820
5502 20.30400 183.74136 185.89095 1.40610
5503 20.30760 183.82393 186.37481 1.40309
5504 20.31120 183.90601 185.54139 1.41251
5505 20.31480 183.98531 186.71656 1.39843
5506 20.31840 184.05946 185.80207 1.40574
5507 20.32200 184.12617 185.18748 1.40879
5508 20.32560 184.18331 184.90050 1.41213
5509 20.32920 184.22912 185.72211 1.40610
5510 20.33280 184.26216 186.03403 1.40024
5511 20.33640 184.28172 186.22919 1.40330
5512 20.34000 184.28774 186.15542 1.40325
5513 20.34360 184.28090 186.75761 1.39743
5514 20.34720 184.26253 185.62480 1.67688
5515 20.35080 184.23459 183.87126 1.75786
5516 20.35440 184.19947 184.62853 1.73394
5517 20.35800 184.15981 186.27072 1.70980
5518 20.36160 184.11836 185.69268 1.71043
5519 20.36520 184.07778 185.01063 1.71434
5520 20.36880 184.04053 185.50283 1.70690
5521 20.37240 184.00875 185.27398 1.71346
5522 20.37600 183.98426 185.62533 1.71467
5523 20.37960 183.96872 185.14205 1.72848
5524 20.38320 183.96308 186.22917 1.72949
5525 20.38680 183.96771 185.28352 1.75114
5526 20.39040 183.98341 185.75564 1.58488
5527 20.39400 184.01043 185.43764 1.52805
5528 20.39760 184.04884 185.30723 1.53318
5529 20.40120 184.09857 187.02669 1.51983
5530 20.40480 184.15939 186.59194 1.52029
5531 20.40840 184.23095 185.81797 1.52906
5532 20.41200 184.31275 187.07086 1.51435
5533 20.41560 184.40409 187.17760 1.51781
5534 20.41920 184.50415 187.73537 1.51700
5535 20.42280 184.61175 188.08243 1.65731
5536 20.42640 184.72573 187.71091 1.72028
5537 20.43000 184.84479 187.86570 1.71117
5538 20.43360 184.96776 188.32309 1.69541
5539 20.43720 185.09377 187.43743 1.70015
5540 20.44080 185.22213 187.76755 1.69931
5541 20.44440 185.35304 188.36046 1.70257
5542 20.44800 185.48737 187.05394 1.73261
5543 20.45160 185.62677 187.67934 1.65791
5544 20.45520 185.77373 188.06397 1.38961
5545 20.45880 185.93110 188.54327 1.38397
5546 20.46240 186.10241 188.09040 1.38539
5547 20.46600 186.29128 189.04266 1.37773
5548 20.46960 186.50132 188.37888 1.38475
5549 20.47320 186.73582 187.87239 1.39089
5550 20.47680 186.99766 186.84374 1.39628
5551 20.48040 187.28902 186.80421 1.39567
5552 20.48400 187.61141 187.62814 1.39340
5553 20.48760 187.96542 188.37991 1.38515
5554 20.49120 188.35079 188.60564 1.38759
5555 20.49480 188.76645 188.68889 1.38651
5556 20.49840 189.21023 188.74963 1.38579
5557 20.50200 189.67920 189.65837 1.37683
5558 20.50560 190.16957 189.61759 1.37659
5559 20.50920 190.67703 190.34632 1.37191
5560 20.51280 191.19674 189.73691 1.37876
5561 20.51640 191.72354 190.39108 1.37306
5562 20.52000 192.25197 191.85795 1.36685
5563 20.52360 192.77633 192.09231 1.36423
5564 20.52720 193.29054 191.57297 1.36577
5565 20.53080 193.78804 191.06474 1.36700
5566 20.53440 194.26156 192.79409 1.35607
5567 20.53800 194.70289 192.72083 1.35721
5568 20.54160 195.10297 190.81781 1.36914
5569 20.54520 195.45175 191.97603 1.36168
5570 20.54880 195.73697 191.52102 1.36545
5571 20.55240 195.95009 189.80008 1.38264
5572 20.55600 196.08480 190.36440 1.37441
5573 20.55960 196.13090 189.82979 1.38032
5574 20.56320 196.08344 189.61840 1.37723
5575 20.56680 195.94074 189.23507 1.38260
5576 20.57040 195.70467 188.41779 1.38317
5577 20.57400 195.38056 188.70828 1.38007
5578 20.57760 194.97682 188.74488 1.38418
5579 20.58120 194.50415 189.04486 1.37974
5580 20.58480 193.97464 186.73981 1.39492
5581 20.58840 193.40091 188.01076 1.38982
5582 20.59200 192.79538 187.77188 1.38831
5583 20.59560 192.16966 187.33794 1.39469
5584 20.59920 191.53417 186.09553 1.40387
5585 20.60280 190.89797 186.90185 1.39912
5586 20.60640 190.26872 187.11209 1.39424
5587 20.61000 189.65271 186.55152 1.39864
5588 20.61360 189.05495 187.03188 1.39314
5589 20.61720 188.47936 187.09996 1.39285
5590 20.62080 187.92882 186.60870 1.39354
5591 20.62440 187.40531 187.45631 1.39391
5592 20.62800 186.90995 187.59864 1.38911
5593 20.63160 186.44313 188.39360 1.38402
5594 20.63520 186.00445 189.01296 1.38637
5595 20.63880 185.59292 187.84007 1.38896
5596 20.64240 185.20686 187.86553 1.37458
5597 20.64600 184.84427 189.01444 1.20189
5598 20.64960 184.50281 188.57972 1.43661
5599 20.65320 184.18001 188.75854 1.41553
5600 20.65680 183.87346 188.52805 1.65395
5601 20.66040 183.58088 188.96735 1.68188
5602 20.66400 183.30046 188.60005 1.68288
5603 20.66760 183.03073 188.83363 1.67914
5604 20.67120 182.77068 190.68794 1.66066
5605 20.67480 182.51976 190.85430 1.65266
5606 20.67840 182.27739 192.35024 1.64489
5607 20.68200 182.04357 193.83385 1.63235
5608 20.68560 181.81824 194.77798 1.62151
5609 20.68920 181.60141 194.83052 1.62218
5610 20.69280 181.39307 196.07592 1.61327
5611 20.69640 181.19310 197.27533 1.60055
5612 20.70000 181.00138 198.43611 1.59150
5613 20.70360 180.81771 198.98134 1.58964
5614 20.70720 180.64192 198.18381 1.59527
5615 20.71080 180.47391 197.31470 1.60340
5616 20.71440 180.31373 196.81796 1.60939
5617 20.71800 180.16162 196.14946 1.61133
5618 20.72160 180.01793 195.21443 1.66035
5619 20.72520 179.88206 194.99691 1.82319
5620 20.72880 179.75697 192.84922 1.83243
5621 20.73240 179.64496 192.05253 1.82983
5622 20.73600 179.54628 191.60116 1.81993
5623 20.73960 179.46271 189.79830 1.84024
5624 20.74320 179.39612 188.02602 1.85134
5625 20.74680 179.34850 187.37597 1.85765
5626 20.75040 179.32163 187.28892 1.85791
5627 20.75400 179.31798 186.50238 1.86358
5628 20.75760 179.33976 185.59095 1.87352
5629 20.76120 179.38885 185.27613 1.87553
5630 20.76480 179.46735 184.77530 1.87735
5631 20.76840 179.57726 183.44673 1.89511
5632 20.77200 179.72060 185.00399 1.87772
5633 20.77560 179.89928 183.70730 1.89684
5634 20.77920 180.11508 182.20676 1.90838
5635 20.78280 180.36969 182.42745 1.90187
5636 20.78640 180.66456 183.38593 1.89659
5637 20.79000 181.00094 184.28098 1.88616
5638 20.79360 181.37977 183.84713 1.88990
5639 20.79720 181.80172 183.49924 1.89484
5640 20.80080 182.26701 183.93526 1.89163
5641 20.80440 182.77539 183.62607 1.89080
5642 20.80800 183.32552 183.23429 1.89602
5643 20.81160 183.91765 184.58519 1.88290
5644 20.81520 184.54920 186.05481 1.86955
5645 20.81880 185.21749 186.46020 1.86675
5646 20.82240 185.91917 186.99562 1.86351
5647 20.82600 186.64998 185.92863 1.88023
5648 20.82960 187.40466 188.04515 1.86866
5649 20.83320 188.17695 189.75340 1.86463
5650 20.83680 188.95942 191.41744 1.86006
5651 20.84040 189.74349 192.06528 1.73744
5652 20.84400 190.51942 193.64373 1.63011
5653 20.84760 191.27648 195.02461 1.61743
5654 20.85120 192.00315 195.11296 1.61869
5655 20.85480 192.68757 196.41092 1.60570
5656 20.85840 193.31808 197.76614 1.59664
5657 20.86200 193.88385 200.21886 1.57163
5658 20.86560 194.37569 201.85575 1.55696
5659 20.86920 194.78664 201.68278 1.56076
5660 20.87280 195.11260 200.09065 1.57359
5661 20.87640 195.35248 199.38264 1.58195
5662 20.88000 195.50829 199.63994 1.58043
5663 20.88360 195.58491 198.92287 1.58822
5664 20.88720 195.58958 197.05372 1.60832
5665 20.89080 195.53125 195.10248 1.62830
5666 20.89440 195.41992 193.98274 1.64460
5667 20.89800 195.26627 193.07797 1.66635
5668 20.90160 195.08110 191.63901 1.67136
5669 20.90520 194.87426 192.38507 1.37063
5670 20.90880 194.65482 190.57084 1.36759
5671 20.91240 194.43053 190.77476 1.36294
5672 20.91600 194.20761 189.20595 1.37500
5673 20.91960 193.99048 189.41415 1.37352
5674 20.92320 193.78165 190.18677 1.36649
5675 20.92680 193.58162 189.13504 1.37555
5676 20.93040 193.38890 187.66314 1.38676
5677 20.93400 193.20005 188.42614 1.38624
5678 20.93760 193.00983 188.25710 1.38518
5679 20.94120 192.81150 188.62826 1.38281
5680 20.94480 192.59721 188.05376 1.38281
5681 20.94840 192.35854 189.16305 1.37985
5682 20.95200 192.08712 189.24303 1.37498
5683 20.95560 191.77537 188.40978 1.38129
5684 20.95920 191.41715 188.79696 1.37811
5685 20.96280 191.00842 188.70372 1.38136
5686 20.96640 190.54750 187.68493 1.38821
5687 20.97000 190.03533 188.91170 1.38054
5688 20.97360 189.47528 188.55359 1.37615
5689 20.97720 188.87276 186.17462 1.39584
5690 20.98080 188.23475 185.90969 1.39866
5691 20.98440 187.56921 187.37330 1.38844
5692 20.98800 186.88452 186.83530 1.39088
5693 20.99160 186.18902 185.36507 1.40271
5694 20.99520 185.49066 185.39709 1.40422
5695 20.99880 184.79671 184.46668 1.41234
5696 21.00240 184.11361 184.69807 1.40921
5697 21.00600 183.44742 183.97990 1.41756
5698 21.00960 182.80283 183.94847 1.41619
5699 21.01320 182.18397 182.85309 1.42357
5700 21.01680 181.59421 182.05207 1.43197
5701 21.02040 181.03625 183.23905 1.41843
5702 21.02400 180.51219 182.94716 1.42705
5703 21.02760 180.02358 182.13761 1.42991
5704 21.03120 179.57145 180.84983 1.44119
5705 21.03480 179.15645 181.37680 1.43859
5706 21.03840 178.77858 182.42620 1.42634
5707 21.04200 178.43769 182.79481 1.42345
5708 21.04560 178.13319 181.90617 1.42812
5709 21.04920 177.86419 181.08417 1.43317
5710 21.05280 177.62949 180.19613 1.44155
5711 21.05640 177.42753 180.39742 1.43903
5712 21.06000 177.25664 180.02276 1.44745
5713 21.06360 177.11492 180.47397 1.44210
5714 21.06720 177.00025 179.94838 1.44599
5715 21.07080 176.91035 180.45838 1.44430
5716 21.07440 176.84294 179.12098 1.45651
5717 21.07800 176.79578 178.29017 1.46501
5718 21.08160 176.76636 180.65324 1.44108
5719 21.08520 176.75262 179.87172 1.45078
5720 21.08880 176.75257 179.69068 1.45458
5721 21.09240 176.76424 179.91954 1.44867
5722 21.09600 176.78613 179.29140 1.48881
5723 21.09960 176.81691 179.43015 1.80309
5724 21.10320 176.85545 178.65509 1.80441
5725 21.10680 176.90082 179.33115 1.77904
5726 21.11040 176.95217 178.95228 1.77836
5727 21.11400 177.00866 180.13608 1.75601
5728 21.11760 177.06940 177.89453 1.77643
5729 21.12120 177.13335 178.16714 1.77073
5730 21.12480 177.19924 177.93695 1.77166
5731 21.12840 177.26552 177.50533 1.77795
5732 21.13200 177.33032 179.14330 1.75661
5733 21.13560 177.39144 179.70212 1.75793
5734 21.13920 177.44638 179.26506 1.76017
5735 21.14280 177.49238 179.51143 1.76033
5736 21.14640 177.52656 180.45764 1.74648
5737 21.15000 177.54605 179.71964 1.75637
5738 21.15360 177.54822 179.15029 1.75917
5739 21.15720 177.53083 179.20064 1.76174
5740 21.16080 177.49231 179.57606 1.75924
5741 21.16440 177.43191 178.94899 1.76173
5742 21.16800 177.34980 180.53467 1.74313
5743 21.17160 177.24712 180.08691 1.75568
5744 21.17520 177.12600 178.14745 1.98159
5745 21.17880 176.98911 178.51766 1.97117
5746 21.18240 176.83987 180.03498 1.95003
5747 21.18600 176.68204 178.49240 1.95965
5748 21.18960 176.51955 178.36180 1.95633
5749 21.19320 176.35627 177.07624 1.96272
5750 21.19680 176.19595 177.06128 1.96548
5751 21.20040 176.04208 177.30549 1.96381
5752 21.20400 175.89784 177.14020 1.95767
5753 21.20760 175.76608 176.68714 1.95938
5754 21.21120 175.64931 176.56224 1.95962
5755 21.21480 175.54968 176.09680 1.96242
5756 21.21840 175.46903 175.80603 1.97104
5757 21.22200 175.40884 175.72498 1.96974
5758 21.22560 175.37026 175.35261 1.97819
5759 21.22920 175.35415 175.48057 1.97603
5760 21.23280 175.36102 174.99201 1.98496
5761 21.23640 175.39108 175.12985 1.98328
5762 21.24000 175.44420 176.27854 1.97178
5763 21.24360 175.51992 175.77524 1.97500
5764 21.24720 175.61740 175.52553 1.97832
5765 21.25080 175.73552 176.02611 1.97569
5766 21.25440 175.87277 175.51740 1.97901
5767 21.25800 176.02719 174.67427 1.98779
5768 21.26160 176.19660 174.88645 1.98556
5769 21.26520 176.37839 175.45214 1.98458
5770 21.26880 176.56965 175.70893 1.97751
5771 21.27240 176.76720 175.25415 1.98567
5772 21.27600 176.96768 176.39913 1.97371
5773 21.27960 177.16718 175.26142 1.98848
5774 21.28320 177.36209 176.08791 1.97253
5775 21.28680 177.54863 175.92278 1.97911
5776 21.29040 177.72310 175.60034 1.97700
5777 21.29400 177.88187 178.16364 1.94873
5778 21.29760 178.02175 177.36099 1.95479
5779 21.30120 178.13990 176.11500 1.97244
5780 21.30480 178.23408 177.42455 1.95571
5781 21.30840 178.30271 177.64357 1.96064
5782 21.31200 178.34504 177.30055 1.96429
5783 21.31560 178.36111 176.58599 1.97068
5784 21.31920 178.35181 177.62405 1.96072
5785 21.32280 178.31854 177.34219 1.96256
5786 21.32640 178.26342 177.01941 1.96710
5787 21.33000 178.18882 176.56550 1.97284
5788 21.33360 178.09715 176.57122 1.96685
5789 21.33720 177.99071 176.11561 1.97509
5790 21.34080 177.87144 176.07228 1.97980
5791 21.34440 177.74074 176.71070 1.96529
5792 21.34800 177.59976 175.26697 1.97989
5793 21.35160 177.44903 175.12663 1.98364
5794 21.35520 177.28836 174.68533 1.99401
5795 21.35880 177.11733 175.82028 1.97734
5796 21.36240 176.93522 174.57739 1.99310
5797 21.36600 176.74128 175.74385 1.97669
5798 21.36960 176.53487 175.57357 1.97701
5799 21.37320 176.31565 174.71804 1.98423
5800 21.37680 176.08376 173.39993 2.00814
5801 21.38040 175.83988 173.30079 2.00381
5802 21.38400 175.58527 173.02178 2.01364
5803 21.38760 175.32172 173.36350 2.00873
5804 21.39120 175.05146 173.55049 2.00506
5805 21.39480 174.77700 173.40734 1.99965
5806 21.39840 174.50103 173.24499 2.00604
5807 21.40200 174.22623 172.06451 2.01886
5808 21.40560 173.95520 172.67972 2.01303
5809 21.40920 173.69035 172.62572 2.01592
5810 21.41280 173.43387 172.12063 2.02281
5811 21.41640 173.18770 172.34482 2.01686
5812 21.42000 172.95352 172.36730 2.01591
5813 21.42360 172.73280 172.06963 2.01667
5814 21.42720 172.52675 171.65069 2.01933
5815 21.43080 172.33642 172.34292 2.01513
5816 21.43440 172.16266 171.24994 2.02571
5817 21.43800 172.00617 172.04149 2.02247
5818 21.44160 171.86745 172.40993 2.01249
5819 21.44520 171.74697 171.82533 2.01906
5820 21.44880 171.64494 170.49131 2.03790
5821 21.45240 171.56203 171.00233 2.02799
5822 21.45600 171.49804 171.58477 2.02191
5823 21.45960 171.45297 171.79382 2.01892
5824 21.46320 171.42668 170.78961 2.03130
5825 21.46680 171.41882 170.79015 2.03354
5826 21.47040 171.42936 171.00762 2.02974
5827 21.47400 171.45771 171.64247 2.02387
5828 21.47760 171.50330 171.05749 2.02723
5829 21.48120 171.56549 171.21453 2.02921
5830 21.48480 171.64350 172.05469 2.01732
5831 21.48840 171.73645 171.55584 2.02444
5832 21.49200 171.84334 171.90543 2.02181
5833 21.49560 171.96306 170.84893 2.03452
5834 21.49920 172.09436 172.48984 2.01331
5835 21.50280 172.23583 171.86186 2.01576
5836 21.50640 172.38591 172.23102 2.00579
5837 21.51000 172.54285 173.15640 1.99975
5838 21.51360 172.70473 172.94524 2.00337
5839 21.51720 172.86943 173.34679 1.99990
5840 21.52080 173.03462 173.64933 2.00088
5841 21.52440 173.19782 174.76259 1.99019
5842 21.52800 173.35640 175.65929 1.97726
5843 21.53160 173.50760 174.76992 1.98146
5844 21.53520 173.64857 175.26219 1.98150
5845 21.53880 173.77643 177.37645 1.95885
5846 21.54240 173.88833 178.29200 1.94530
5847 21.54600 173.98154 180.04807 1.92474
5848 21.54960 174.05349 179.96907 1.93377
5849 21.55320 174.10199 180.62139 1.92213
5850 21.55680 174.12528 181.03808 1.91848
5851 21.56040 174.12223 180.14788 1.92776
5852 21.56400 174.09242 181.67056 1.90952
5853 21.56760 174.03627 181.10482 1.91825
5854 21.57120 173.95500 180.45552 1.92339
5855 21.57480 173.85065 179.05993 1.93818
5856 21.57840 173.72594 177.83300 1.95341
5857 21.58200 173.58408 177.00089 1.96136
5858 21.58560 173.42865 175.76896 1.97199
5859 21.58920 173.26336 174.13312 1.99316
5860 21.59280 173.09193 174.82023 1.98488
5861 21.59640 172.91791 174.03171 1.99347
5862 21.60000 172.74457 172.59655 2.00819
5863 21.60360 172.57490 171.62214 2.02198
5864 21.60720 172.41150 172.33974 2.01689
5865 21.61080 172.25658 171.30790 2.03024
5866 21.61440 172.11199 170.65324 2.03962
5867 21.61800 171.97920 170.82230 2.03491
5868 21.62160 171.85934 169.92498 2.04272
5869 21.62520 171.75321 170.51906 2.03927
5870 21.62880 171.66129 171.50452 2.02974
5871 21.63240 171.58379 171.60320 2.02744
5872 21.63600 171.52062 171.23943 2.03302
5873 21.63960 171.47146 169.36294 2.05537
5874 21.64320 171.43571 169.27648 2.05751
5875 21.64680 171.41254 170.62209 2.03503
5876 21.65040 171.40083 171.44216 2.02858
5877 21.65400 171.39924 170.94712 2.03874
5878 21.65760 171.40615 170.47435 2.04406
5879 21.66120 171.41966 171.19984 2.03121
5880 21.66480 171.43765 170.50199 2.03799
5881 21.66840 171.45776 170.87436 2.03282
5882 21.67200 171.47745 170.88279 2.03034
5883 21.67560 171.49405 171.56388 2.02396
5884 21.67920 171.50487 172.04410 2.01781
5885 21.68280 171.50731 170.84797 2.03635
5886 21.68640 171.49900 171.06769 2.03464
5887 21.69000 171.47793 172.21645 2.02082
5888 21.69360 171.44260 171.75407 2.02582
5889 21.69720 171.39213 171.55321 2.02576
5890 21.70080 171.32632 172.35209 2.01707
5891 21.70440 171.24564 172.51275 2.00998
5892 21.70800 171.15126 171.54325 2.02362
5893 21.71160 171.04485 171.09173 2.03352
5894 21.71520 170.92835 171.04407 2.03410
5895 21.71880 170.80392 172.19675 2.01242
5896 21.72240 170.67530 170.83955 2.03245
5897 21.72600 170.54446 170.75125 2.02985
5898 21.72960 170.41393 169.56940 2.04871
5899 21.73320 170.28577 169.25181 2.04808
5900 21.73680 170.16338 170.17144 2.03921
5901 21.74040 170.04836 170.42021 2.03671
5902 21.74400 169.94237 170.91033 2.03253
5903 21.74760 169.84756 169.81383 2.04291
5904 21.75120 169.76577 169.70685 2.04288
5905 21.75480 169.69811 171.63445 2.01867
5906 21.75840 169.64583 171.14918 2.02388
5907 21.76200 169.60999 170.63284 2.03318
5908 21.76560 169.59147 170.36416 2.03785
5909 21.76920 169.59100 170.16467 2.03740
5910 21.77280 169.60914 170.16097 2.04143
5911 21.77640 169.64629 170.41088 2.03699
5912 21.78000 169.70267 169.50599 2.05041
5913 21.78360 169.77834 169.81172 2.04348
5914 21.78720 169.87321 170.60316 2.03553
5915 21.79080 169.98697 169.29661 2.05519
5916 21.79440 170.11910 170.81801 2.03012
5917 21.79800 170.26777 169.85048 2.04131
5918 21.80160 170.43213 170.94065 2.03296
5919 21.80520 170.61465 170.41859 2.03551
5920 21.80880 170.81150 169.62825 2.04175
5921 21.81240 171.02105 169.90278 2.03799
5922 21.81600 171.24134 170.56679 2.03056
5923 21.81960 171.47017 169.74535 2.04284
5924 21.82320 171.70500 169.66541 2.04331
5925 21.82680 171.94308 169.76113 2.04693
5926 21.83040 172.18142 170.36442 2.03773
5927 21.83400 172.41686 169.47734 2.04520
5928 21.83760 172.64623 169.44967 2.04868
5929 21.84120 172.86640 169.75243 2.04580
5930 21.84480 173.07446 169.87587 2.04145
5931 21.84840 173.26782 170.13126 2.04163
5932 21.85200 173.44436 170.02900 2.04293
5933 21.85560 173.60250 169.18630 2.05027
5934 21.85920 173.74124 169.35585 2.04898
5935 21.86280 173.86014 170.36675 2.03502
5936 21.86640 173.95929 169.37024 2.05004
5937 21.87000 174.03919 169.95949 2.04492
5938 21.87360 174.10061 170.46988 2.03188
5939 21.87720 174.14449 169.45142 2.04762
5940 21.88080 174.17180 169.53747 2.04642
5941 21.88440 174.18347 169.54750 2.04349
5942 21.88800 174.18030 169.09510 2.05323
5943 21.89160 174.16295 170.02466 2.03941
5944 21.89520 174.13190 169.64830 2.03956
5945 21.89880 174.08735 170.19649 2.03421
5946 21.90240 174.02990 170.47984 2.03110
5947 21.90600 173.95953 171.07055 2.02924
5948 21.90960 173.87637 170.61366 2.03510
5949 21.91320 173.78057 170.30716 2.04247
5950 21.91680 173.67239 170.06607 2.04436
5951 21.92040 173.55222 170.13721 2.03579
5952 21.92400 173.42062 170.33036 2.03401
5953 21.92760 173.27833 171.00246 2.02604
5954 21.93120 173.12625 171.47811 2.02415
5955 21.93480 172.96539 171.75297 2.02364
5956 21.93840 172.79676 172.25597 2.01243
5957 21.94200 172.62132 171.72743 2.01990
5958 21.94560 172.43985 172.37097 2.01290
5959 21.94920 172.25294 173.30926 2.00291
5960 21.95280 172.06088 173.48975 2.00234
5961 21.95640 171.86373 174.49024 1.98598
5962 21.96000 171.66133 175.89344 1.96574
5963 21.96360 171.45333 176.65066 1.96026
5964 21.96720 171.23937 175.77244 1.96877
5965 21.97080 171.01914 175.44619 1.97299
5966 21.97440 170.79247 175.94937 1.96553
5967 21.97800 170.55946 175.89490 1.96776
5968 21.98160 170.32053 176.58272 1.96168
5969 21.98520 170.07640 175.62011 1.97751
5970 21.98880 169.82813 174.13072 1.99056
5971 21.99240 169.57703 174.13372 1.99166
5972 21.99600 169.32462 174.46051 1.98950
5973 21.99960 169.07251 173.25403 2.00751
5974 22.00320 168.82238 171.95478 2.01726
5975 22.00680 168.57586 171.08694 2.02247
5976 22.01040 168.33451 171.72550 2.01976
5977 22.01400 168.09978 171.04492 2.02829
5978 22.01760 167.87295 170.10427 2.03455
5979 22.02120 167.65517 170.01785 2.04154
5980 22.02480 167.44742 168.75421 2.05284
5981 22.02840 167.25055 168.33166 2.06226
5982 22.03200 167.06525 168.63532 2.05973
5983 22.03560 166.89210 167.61695 2.06652
5984 22.03920 166.73155 167.74143 2.07123
5985 22.04280 166.58396 167.02409 2.07807
5986 22.04640 166.44960 166.10777 2.09241
5987 22.05000 166.32863 166.57579 2.08151
5988 22.05360 166.22117 166.74737 2.07403
5989 22.05720 166.12723 165.31300 2.09283
5990 22.06080 166.04679 164.73755 2.11095
5991 22.06440 165.97973 165.87434 2.09545
5992 22.06800 165.92590 165.82293 2.09081
5993 22.07160 165.88506 164.18504 2.11617
5994 22.07520 165.85693 165.56925 2.09928
5995 22.07880 165.84117 164.64209 2.11155
5996 22.08240 165.83737 165.27004 2.10210
5997 22.08600 165.84506 164.06849 2.11973
5998 22.08960 165.86370 164.93585 2.10859
5999 22.09320 165.89268 165.46069 2.10134
6000 22.09680 165.93131 164.76226 2.11133
6001 22.10040 165.97882 163.88463 2.12217
6002 22.10400 166.03433 165.04853 2.10953
6003 22.10760 166.09689 163.62113 2.12787
6004 22.11120 166.16542 164.34042 2.11742
6005 22.11480 166.23876 164.02875 2.12249
6006 22.11840 166.31560 164.08329 2.12073
6007 22.12200 166.39458 163.70666 2.12168
6008 22.12560 166.47422 163.12716 2.12938
6009 22.12920 166.55301 164.15709 2.11924
6010 22.13280 166.62941 163.67028 2.12038
6011 22.13640 166.70191 162.84780 2.13424
6012 22.14000 166.76907 163.08429 2.13114
6013 22.14360 166.82960 163.36906 2.12819
6014 22.14720 166.88233 164.26966 2.11107
6015 22.15080 166.92630 162.51225 2.14007
6016 22.15440 166.96077 162.73174 2.13124
6017 22.15800 166.98516 163.64832 2.12402
6018 22.16160 166.99902 163.35656 2.13017
6019 22.16520 167.00207 162.70215 2.14019
6020 22.16880 166.99407 162.25107 2.13856
6021 22.17240 166.97481 162.08126 2.14222
6022 22.17600 166.94415 162.70926 2.13295
6023 22.17960 166.90195 162.44090 2.13727
6024 22.18320 166.84813 163.39649 2.12493
6025 22.18680 166.78273 163.34168 2.12618
6026 22.19040 166.70590 164.13061 2.11662
6027 22.19400 166.61800 163.96236 2.12056
6028 22.19760 166.51960 162.94894 2.12913
6029 22.20120 166.41151 162.02415 2.14318
6030 22.20480 166.29476 162.63100 2.13810
6031 22.20840 166.17056 163.00912 2.12651
6032 22.21200 166.04022 163.23086 2.12294
6033 22.21560 165.90521 162.15803 2.14204
6034 22.21920 165.76723 162.79302 2.13475
6035 22.22280 165.62762 163.20761 2.12294
6036 22.22640 165.48781 163.12758 2.12829
6037 22.23000 165.34912 162.07418 2.14143
6038 22.23360 165.21274 161.38148 2.15250
6039 22.23720 165.07957 162.29510 2.13908
6040 22.24080 164.95101 162.32075 2.14130
6041 22.24440 164.82785 162.64295 2.12837
6042 22.24800 164.71074 162.10431 2.14232
6043 22.25160 164.60036 162.14685 2.14425
6044 22.25520 164.49729 162.46619 2.13519
6045 22.25880 164.40201 162.98837 2.12609
6046 22.26240 164.31496 163.87969 2.11364
6047 22.26600 164.23641 162.75657 2.12996
6048 22.26960 164.16683 163.71093 2.12383
6049 22.27320 164.10657 162.59785 2.13814
6050 22.27680 164.05577 161.50174 2.15436
6051 22.28040 164.01467 162.02817 2.14550
6052 22.28400 163.98346 162.95212 2.13325
6053 22.28760 163.96230 163.15800 2.13393
6054 22.29120 163.95137 163.57347 2.12880
6055 22.29480 163.95080 162.67862 2.13629
6056 22.29840 163.96072 163.54898 2.12631
6057 22.30200 163.98126 164.08847 2.12152
6058 22.30560 164.01253 164.02768 2.11751
6059 22.30920 164.05463 163.99185 2.12066
6060 22.31280 164.10766 165.37471 2.10440
6061 22.31640 164.17172 164.12095 2.11257
6062 22.32000 164.24689 164.96382 2.10927
6063 22.32360 164.33323 165.54488 2.10211
6064 22.32720 164.43080 164.60617 2.11142
6065 22.33080 164.53964 164.14985 2.11615
6066 22.33440 164.65977 166.14934 2.09015
6067 22.33800 164.79117 165.42697 2.09937
6068 22.34160 164.93380 165.45840 2.10316
6069 22.34520 165.08760 165.60734 2.09724
6070 22.34880 165.25244 166.67212 2.08346
6071 22.35240 165.42814 165.26482 2.09785
6072 22.35600 165.61448 167.07579 2.08076
6073 22.35960 165.81117 166.82794 2.08648
6074 22.36320 166.01787 167.65815 2.07707
6075 22.36680 166.23417 167.17118 2.08400
6076 22.37040 166.45960 167.66133 2.07415
6077 22.37400 166.69364 167.44202 2.07554
6078 22.37760 166.93574 168.37326 2.06459
6079 22.38120 167.18532 167.80062 2.07255
6080 22.38480 167.44181 168.47060 2.06511
6081 22.38840 167.70467 168.01229 2.06674
6082 22.39200 167.97342 169.30451 2.05110
6083 22.39560 168.24770 168.53728 2.06201
6084 22.39920 168.52728 169.64873 2.04732
6085 22.40280 168.81209 168.77045 2.06038
6086 22.40640 169.10218 169.51125 2.05702
6087 22.41000 169.39777 168.76123 2.05626
6088 22.41360 169.69968 168.66418 2.06334
6089 22.41720 170.00819 168.58586 2.06196
6090 22.42080 170.32379 168.47661 2.06383
6091 22.42440 170.64686 169.58645 2.04607
6092 22.42800 170.97758 169.68237 2.04391
6093 22.43160 171.31581 169.83373 2.03896
6094 22.43520 171.66099 169.23627 2.05267
6095 22.43880 172.01209 168.90223 2.05922
6096 22.44240 172.36746 169.67766 2.04904
6097 22.44600 172.72514 169.26831 2.05337
6098 22.44960 173.08237 169.27265 2.05218
6099 22.45320 173.43591 170.30205 2.03601
6100 22.45680 173.78204 171.14013 2.02263
6101 22.46040 174.11661 171.02490 2.02416
6102 22.46400 174.43519 171.12387 2.03146
6103 22.46760 174.73312 171.61828 2.02461
6104 22.47120 175.00564 172.67621 2.00784
6105 22.47480 175.24802 172.02228 2.01784
6106 22.47840 175.45562 171.31944 2.02527
6107 22.48200 175.62405 172.95790 2.00956
6108 22.48560 175.74919 174.88746 1.98212
6109 22.48920 175.82737 174.62309 1.98603
6110 22.49280 175.85546 174.98472 1.98302
6111 22.49640 175.83102 174.98787 1.98992
6112 22.50000 175.75248 176.20465 1.96994
6113 22.50360 175.61928 176.28284 1.97300
6114 22.50720 175.43198 176.77587 1.96232
6115 22.51080 175.19234 176.55272 1.96776
6116 22.51440 174.90334 176.21992 1.96931
6117 22.51800 174.56903 175.54250 1.98474
6118 22.52160 174.19443 174.42020 1.99079
6119 22.52520 173.78518 175.03382 1.98720
6120 22.52880 173.34726 174.10093 1.99634
6121 22.53240 172.88762 173.77052 2.00311
6122 22.53600 172.41228 172.22466 2.02046
6123 22.53960 171.92735 171.54983 2.02597
6124 22.54320 171.43859 171.20283 2.03279
6125 22.54680 170.95128 169.44145 2.05348
6126 22.55040 170.47017 167.77533 2.07883
6127 22.55400 169.99946 166.95881 2.08611
6128 22.55760 169.54283 167.33792 2.08154
6129 22.56120 169.10337 166.74764 2.08774
6130 22.56480 168.68370 166.13867 2.09524
6131 22.56840 168.28594 167.11096 2.08032
6132 22.57200 167.91173 166.66335 2.09449
6133 22.57560 167.56233 164.75499 2.10965
6134 22.57920 167.23855 164.67667 2.11369
6135 22.58280 166.94085 165.55975 2.09924
6136 22.58640 166.66937 165.37150 2.10078
6137 22.59000 166.42385 165.09210 2.11198
6138 22.59360 166.20378 164.66369 2.11524
6139 22.59720 166.00832 164.60540 2.11730
6140 22.60080 165.83640 164.86403 2.10997
6141 22.60440 165.68667 164.85452 2.11234
6142 22.60800 165.55756 164.87231 2.11819
6143 22.61160 165.44730 165.53940 2.10651
6144 22.61520 165.35392 166.15252 2.10076
6145 22.61880 165.27532 165.45672 2.10420
6146 22.62240 165.20928 164.93293 2.11252
6147 22.62600 165.15354 166.96435 2.08661
6148 22.62960 165.10579 167.53442 2.07505
6149 22.63320 165.06375 167.41237 2.07753
6150 22.63680 165.02527 168.12149 2.07428
6151 22.64040 164.98836 169.29385 2.06168
6152 22.64400 164.95127 170.31147 2.04346
6153 22.64760 164.91251 169.99469 2.04654
6154 22.65120 164.87093 171.27662 2.02792
6155 22.65480 164.82575 171.42062 2.02988
6156 22.65840 164.77654 170.98397 2.03893
6157 22.66200 164.72324 171.91240 2.02847
6158 22.66560 164.66612 171.53821 2.03175
6159 22.66920 164.60578 171.44959 2.03328
6160 22.67280 164.54304 170.13593 2.04137
6161 22.67640 164.47895 169.39205 2.06132
6162 22.68000 164.41469 169.37349 2.05482
6163 22.68360 164.35153 167.90771 2.07473
6164 22.68720 164.29077 167.39392 2.08290
6165 22.69080 164.23371 166.90314 2.08702
6166 22.69440 164.18158 167.63627 2.07542
6167 22.69800 164.13556 167.43978 2.08027
6168 22.70160 164.09661 166.17298 2.09960
6169 22.70520 164.06576 166.09202 2.10057
6170 22.70880 164.04391 165.68728 2.10155
6171 22.71240 164.03160 165.42496 2.10104
6172 22.71600 164.02931 165.13599 2.10653
6173 22.71960 164.03736 166.02319 2.09462
6174 22.72320 164.05592 164.78778 2.11237
6175 22.72680 164.08494 164.17583 2.11599
6176 22.73040 164.12424 165.81199 2.09703
6177 22.73400 164.17345 166.63492 2.09273
6178 22.73760 164.23200 164.58975 2.11708
6179 22.74120 164.29920 164.84398 2.11500
6180 22.74480 164.37414 165.31137 2.11385
6181 22.74840 164.45580 166.04779 2.09268
6182 22.75200 164.54288 164.48133 2.12137
6183 22.75560 164.63301 165.49076 2.10898
6184 22.75920 164.72669 165.10889 2.10797
6185 22.76280 164.82236 165.09634 2.10897
6186 22.76640 164.91800 164.14479 2.12690
6187 22.77000 165.01220 163.53150 2.13367
6188 22.77360 165.10366 164.59059 2.11798
6189 22.77720 165.19118 164.53440 2.12003
6190 22.78080 165.27375 164.31372 2.12214
6191 22.78440 165.35051 164.18636 2.12385
6192 22.78800 165.42075 163.30561 2.13408
6193 22.79160 165.48390 163.43501 2.13342
6194 22.79520 165.53949 164.04134 2.12579
6195 22.79880 165.58707 163.87623 2.12605
6196 22.80240 165.62620 163.39434 2.13538
6197 22.80600 165.65639 162.89746 2.14367
6198 22.80960 165.67708 163.99625 2.12664
6199 22.81320 165.68765 164.05093 2.12004
6200 22.81680 165.68743 162.62070 2.14163
6201 22.82040 165.67575 163.17368 2.13745
6202 22.82400 165.65199 164.33512 2.11885
6203 22.82760 165.61569 163.35520 2.13094
6204 22.83120 165.56659 164.57061 2.11101
6205 22.83480 165.50471 163.82353 2.12558
6206 22.83840 165.43040 164.14943 2.12162
6207 22.84200 165.34432 164.10637 2.12426
6208 22.84560 165.24747 164.53315 2.11828
6209 22.84920 165.14116 164.46324 2.12183
6210 22.85280 165.02692 164.51416 2.12043
6211 22.85640 164.90647 165.44326 2.10888
6212 22.86000 164.78163 163.87053 2.12841
6213 22.86360 164.65431 163.29768 2.13383
6214 22.86720 164.52642 164.62650 2.11604
6215 22.87080 164.39984 164.61063 2.11449
6216 22.87440 164.27633 164.68253 2.11079
6217 22.87800 164.15793 163.24092 2.13179
6218 22.88160 164.04627 164.25494 2.11816
6219 22.88520 163.94303 164.59004 2.11578
6220 22.88880 163.84981 165.18444 2.11024
6221 22.89240 163.76811 165.01884 2.11135
6222 22.89600 163.69902 164.35704 2.11423
6223 22.89960 163.64403 164.27230 2.12186
6224 22.90320 163.60529 164.45857 2.11439
6225 22.90680 163.58335 163.96447 2.11982
6226 22.91040 163.57929 164.37305 2.11769
6227 22.91400 163.59414 163.66306 2.13124
6228 22.91760 163.62880 165.08262 2.11601
6229 22.92120 163.68413 163.90520 2.12142
6230 22.92480 163.76086 163.85638 2.12889
6231 22.92840 163.85965 164.81664 2.11055
6232 22.93200 163.98081 165.25436 2.10715
6233 22.93560 164.12455 165.31087 2.10915
6234 22.93920 164.29259 166.11498 2.09981
6235 22.94280 164.48437 166.42750 2.09248
6236 22.94640 164.70004 166.75740 2.09438
6237 22.95000 164.93961 166.14152 2.09697
6238 22.95360 165.20301 166.44583 2.09453
6239 22.95720 165.49007 167.38546 2.08610
6240 22.96080 165.80049 167.72047 2.07525
6241 22.96440 166.13395 168.75159 2.06013
6242 22.96800 166.48990 168.84404 2.05891
6243 22.97160 166.86803 169.04617 2.05642
6244 22.97520 167.26842 170.20470 2.03818
6245 22.97880 167.69042 169.74129 2.04824
6246 22.98240 168.13369 169.95017 2.04661
6247 22.98600 168.59793 170.46682 2.04345
6248 22.98960 169.08275 171.72190 2.02988
6249 22.99320 169.58765 172.54556 2.02528
6250 22.99680 170.11195 172.40733 2.02111
6251 23.00040 170.65468 173.37906 2.01451
6252 23.00400 171.21453 174.57950 1.99885
6253 23.00760 171.78970 174.12018 1.99818
6254 23.01120 172.37791 175.37244 1.98717
6255 23.01480 172.97624 175.10539 1.99210
6256 23.01840 173.58114 176.72950 1.97007
6257 23.02200 174.18833 177.40357 1.96455
6258 23.02560 174.79280 177.60257 1.96000
6259 23.02920 175.38876 178.52561 1.95099
6260 23.03280 175.96970 180.20610 1.93667
6261 23.03640 176.52841 181.58408 1.92213
6262 23.04000 177.05710 182.10575 1.91424
6263 23.04360 177.54755 182.79085 1.90820
6264 23.04720 177.99133 183.60959 1.89961
6265 23.05080 178.38018 183.90850 1.89831
6266 23.05440 178.70624 184.61918 1.89257
6267 23.05800 178.96248 185.05494 1.88609
6268 23.06160 179.14314 184.89027 1.88571
6269 23.06520 179.24403 184.80811 1.89065
6270 23.06880 179.26284 185.39378 1.88516
6271 23.07240 179.19932 185.44043 1.88399
6272 23.07600 179.05531 184.61592 1.89492
6273 23.07960 178.83464 184.50002 1.89039
6274 23.08320 178.54292 183.15272 1.90892
6275 23.08680 178.18726 181.38052 1.92680
6276 23.09040 177.77587 179.87717 1.94025
6277 23.09400 177.31769 179.39577 1.94389
6278 23.09760 176.82203 178.87312 1.95016
6279 23.10120 176.29825 176.69306 1.97150
6280 23.10480 175.75549 175.74820 1.98390
6281 23.10840 175.20246 173.32658 2.01413
6282 23.11200 174.64730 174.09233 2.00396
6283 23.11560 174.09749 171.55600 2.03244
6284 23.11920 173.55981 171.04763 2.04249
6285 23.12280 173.04031 171.30271 2.03316
6286 23.12640 172.54431 170.92834 2.03798
6287 23.13000 172.07645 170.33494 2.04994
6288 23.13360 171.64066 170.05953 2.05102
6289 23.13720 171.24023 169.37302 2.05911
6290 23.14080 170.87778 169.28786 2.06421
6291 23.14440 170.55536 168.92106 2.06627
6292 23.14800 170.27460 169.84714 2.05477
6293 23.15160 170.03630 168.86759 2.07042
6294 23.15520 169.84083 168.56917 2.07848
6295 23.15880 169.68801 169.70962 2.05880
6296 23.16240 169.57714 170.96373 2.04346
6297 23.16600 169.50705 171.86686 2.03514
6298 23.16960 169.47604 171.69480 2.03040
6299 23.17320 169.48200 171.79388 2.03477
6300 23.17680 169.52238 173.10846 2.01357
6301 23.18040 169.59428 173.91715 2.00264
6302 23.18400 169.69452 175.36987 1.98869
6303 23.18760 169.81969 176.21574 1.98377
6304 23.19120 169.96627 176.57502 1.98005
6305 23.19480 170.13073 178.75921 1.96026
6306 23.19840 170.30963 179.72559 1.94343
6307 23.20200 170.49974 181.32038 1.92450
6308 23.20560 170.69809 181.58981 1.92313
6309 23.20920 170.90203 181.57153 1.92110
6310 23.21280 171.10930 181.32414 1.92189
6311 23.21640 171.31793 183.09183 1.90598
6312 23.22000 171.52628 182.10325 1.91732
6313 23.22360 171.73294 180.74338 1.93125
6314 23.22720 171.93663 180.51478 1.93611
6315 23.23080 172.13617 179.81518 1.93998
6316 23.23440 172.33036 179.17136 1.94850
6317 23.23800 172.51792 179.18798 1.95157
6318 23.24160 172.69749 177.95881 1.96532
6319 23.24520 172.86754 177.37822 1.96904
6320 23.24880 173.02641 176.03190 1.98770
6321 23.25240 173.17211 176.76495 1.97915
6322 23.25600 173.30264 176.46809 1.98209
6323 23.25960 173.41629 176.91764 1.97577
6324 23.26320 173.51047 177.59344 1.96555
6325 23.26680 173.58278 176.90214 1.97680
6326 23.27040 173.63073 177.41903 1.97179
6327 23.27400 173.65179 177.39291 1.96697
6328 23.27760 173.64344 177.68178 1.96433
6329 23.28120 173.60332 179.13045 1.94864
6330 23.28480 173.52925 180.53968 1.93298
6331 23.28840 173.41941 182.00343 1.91689
6332 23.29200 173.27248 184.10148 1.90100
6333 23.29560 173.08776 183.72590 1.90049
6334 23.29920 172.86528 183.71330 1.90049
6335 23.30280 172.60590 183.61183 1.90471
6336 23.30640 172.31133 184.67718 1.89352
6337 23.31000 171.98411 183.64751 1.90397
6338 23.31360 171.62756 183.98207 1.90195
6339 23.31720 171.24564 182.19872 1.91974
6340 23.32080 170.84280 181.53323 1.92488
6341 23.32440 170.42384 180.09373 1.93859
6342 23.32800 169.99375 179.97420 1.94104
6343 23.33160 169.55753 178.48190 1.95875
6344 23.33520 169.12014 177.30819 1.96813
6345 23.33880 168.68634 175.75574 1.98388
6346 23.34240 168.26065 175.22549 1.99036
6347 23.34600 167.84728 175.00109 1.99303
6348 23.34960 167.45016 172.58669 2.02084
6349 23.35320 167.07286 171.83720 2.03093
6350 23.35680 166.71861 170.67344 2.04696
6351 23.36040 166.39034 168.71085 2.06891
6352 23.36400 166.09062 168.03412 2.07152
6353 23.36760 165.82176 168.26725 2.07538
6354 23.37120 165.58574 166.58777 2.09251
6355 23.37480 165.38428 166.77635 2.09208
6356 23.37840 165.21883 166.00350 2.09814
6357 23.38200 165.09056 166.14513 2.09693
6358 23.38560 165.00040 166.61753 2.09578
6359 23.38920 164.94902 167.57647 2.08401
6360 23.39280 164.93685 167.35669 2.08807
6361 23.39640 164.96405 168.03108 2.07628
6362 23.40000 165.03052 168.62154 2.06819
6363 23.40360 165.13591 168.76785 2.06966
6364 23.40720 165.27959 169.18003 2.06455
6365 23.41080 165.46065 170.44078 2.04866
6366 23.41440 165.67789 171.22429 2.03805
6367 23.41800 165.92984 171.38039 2.03718
6368 23.42160 166.21473 172.62862 2.01823
6369 23.42520 166.53051 173.23189 2.00784
6370 23.42880 166.87487 174.59217 2.00088
6371 23.43240 167.24525 175.23216 1.99328
6372 23.43600 167.63885 175.72606 1.98819
6373 23.43960 168.05268 177.09532 1.97691
6374 23.44320 168.48356 177.06335 1.97472
6375 23.44680 168.92818 177.98251 1.96300
6376 23.45040 169.38304 178.82817 1.95586
6377 23.45400 169.84453 178.26068 1.96114
6378 23.45760 170.30887 179.00063 1.94868
6379 23.46120 170.77208 179.40432 1.94298
6380 23.46480 171.23000 177.97811 1.95978
6381 23.46840 171.67817 177.85137 1.95892
6382 23.47200 172.11185 177.39701 1.96476
6383 23.47560 172.52644 176.71475 1.97465
6384 23.47920 172.91669 175.11190 1.98740
6385 23.48280 173.27740 175.03374 1.98826
6386 23.48640 173.60336 175.61477 1.98596
6387 23.49000 173.88954 174.16086 1.99881
6388 23.49360 174.13124 174.05524 2.00637
6389 23.49720 174.32424 174.39677 2.00940
6390 23.50080 174.46501 173.95013 2.00722
6391 23.50440 174.55083 173.28147 2.02596
6392 23.50800 174.57986 173.34228 2.02336
6393 23.51160 174.55124 173.62645 2.01375
6394 23.51520 174.46500 172.76603 2.01965
6395 23.51880 174.32205 173.08158 2.02318
6396 23.52240 174.12407 172.48797 2.02882
6397 23.52600 173.87341 173.23215 2.01971
6398 23.52960 173.57296 174.05542 2.00772
6399 23.53320 173.22606 172.79755 2.02729
6400 23.53680 172.83636 172.99998 2.02052
6401 23.54040 172.40785 171.24969 2.04416
6402 23.54400 171.94470 170.97248 2.04779
6403 23.54760 171.45120 169.65449 2.06294
6404 23.55120 170.93170 169.04477 2.06806
6405 23.55480 170.39103 167.99043 2.07863
6406 23.55840 169.83361 167.41658 2.09278
6407 23.56200 169.26399 167.47420 2.09218
6408 23.56560 168.68665 165.91199 2.11165
6409 23.56920 168.10588 164.07703 2.14156
6410 23.57280 167.52582 163.45929 2.14359
6411 23.57640 166.95030 163.47870 2.13803
6412 23.58000 166.38288 162.69233 2.15043
6413 23.58360 165.82678 162.58759 2.14923
6414 23.58720 165.28486 160.75213 2.17594
6415 23.59080 164.75955 160.29083 2.18521
6416 23.59440 164.25318 160.44405 2.18772
6417 23.59800 163.76762 160.12856 2.18625
6418 23.60160 163.30435 159.44197 2.19973
6419 23.60520 162.86463 158.23356 2.21300
6420 23.60880 162.44946 157.77577 2.21942
6421 23.61240 162.05962 157.27397 2.22246
6422 23.61600 161.69570 158.50650 2.20965
6423 23.61960 161.35809 159.20198 2.19621
6424 23.62320 161.04706 158.11048 2.21193
6425 23.62680 160.76274 157.86556 2.21406
6426 23.63040 160.50520 157.45045 2.22540
6427 23.63400 160.27442 157.22887 2.22441
6428 23.63760 160.07033 157.40144 2.22147
6429 23.64120 159.89287 158.21054 2.20885
6430 23.64480 159.74195 157.34527 2.22691
6431 23.64840 159.61751 157.86737 2.21268
6432 23.65200 159.51953 158.15671 2.20903
6433 23.65560 159.44804 157.19169 2.22643
6434 23.65920 159.40314 157.44612 2.22134
6435 23.66280 159.38500 158.51384 2.20693
6436 23.66640 159.39387 157.93909 2.20881
6437 23.67000 159.43012 158.11652 2.21310
6438 23.67360 159.49419 157.73745 2.21071
6439 23.67720 159.58662 158.39529 2.20965
6440 23.68080 159.70808 158.65106 2.20751
6441 23.68440 159.85931 157.78691 2.22023
6442 23.68800 160.04112 158.15968 2.21617
6443 23.69160 160.25443 158.27466 2.21428
6444 23.69520 160.50014 158.32072 2.21236
6445 23.69880 160.77928 158.55097 2.21045
6446 23.70240 161.09310 158.67038 2.20971
6447 23.70600 161.44253 158.27646 2.21179
6448 23.70960 161.82861 158.28378 2.21221
6449 23.71320 162.25235 158.73225 2.20237
6450 23.71680 162.71468 158.49551 2.20248
6451 23.72040 163.21643 158.40739 2.20710
6452 23.72400 163.75824 159.48474 2.19294
6453 23.72760 164.33947 160.08780 2.18001
6454 23.73120 164.96148 160.77244 2.17039
6455 23.73480 165.62593 161.11749 2.16840
6456 23.73840 166.33117 160.07162 2.18277
6457 23.74200 167.07667 160.77137 2.17790
6458 23.74560 167.86154 162.19692 2.17173
6459 23.74920 168.68451 162.87258 2.14886
6460 23.75280 169.54371 163.20619 2.14589
6461 23.75640 170.43701 163.38935 2.15337
6462 23.76000 171.36254 164.39460 2.13514
6463 23.76360 172.31684 164.10928 2.13296
6464 23.76720 173.29641 164.88908 2.12613
6465 23.77080 174.29730 167.08308 2.09889
6466 23.77440 175.31502 168.79704 2.07608
6467 23.77800 176.34461 169.59474 2.06497
6468 23.78160 177.38068 170.94588 2.04789
6469 23.78520 178.41734 172.50563 2.03076
6470 23.78880 179.44811 173.48478 2.01818
6471 23.79240 180.46608 175.00456 1.99641
6472 23.79600 181.46394 177.51555 1.96977
6473 23.79960 182.43396 179.43864 1.94521
6474 23.80320 183.36812 181.24315 1.92934
6475 23.80680 184.25818 182.78543 1.91367
6476 23.81040 185.09580 183.99621 1.90063
6477 23.81400 185.87275 184.48601 1.89228
6478 23.81760 186.58102 186.34221 1.88139
6479 23.82120 187.21311 188.61460 1.85663
6480 23.82480 187.76224 189.25290 1.84725
6481 23.82840 188.22257 189.43162 1.84458
6482 23.83200 188.58950 192.16192 1.81715
6483 23.83560 188.85983 191.97368 1.82308
6484 23.83920 189.03197 192.10046 1.82114
6485 23.84280 189.10599 194.45356 1.80006
6486 23.84640 189.08366 193.93084 1.80009
6487 23.85000 188.96836 193.47322 1.80530
6488 23.85360 188.76494 192.32016 1.81551
6489 23.85720 188.47948 190.84512 1.83139
6490 23.86080 188.11905 189.25062 1.85079
6491 23.86440 187.69136 189.83966 1.83982
6492 23.86800 187.20452 189.37587 1.84701
6493 23.87160 186.66671 187.09083 1.86843
6494 23.87520 186.08592 184.37913 1.88890
6495 23.87880 185.46976 183.32487 1.90731
6496 23.88240 184.82523 181.83781 1.92402
6497 23.88600 184.15863 180.71607 1.93499
6498 23.88960 183.47547 179.71148 1.94294
6499 23.89320 182.78045 176.61114 1.98270
6500 23.89680 182.07749 175.23302 1.99318
6501 23.90040 181.36976 174.64891 1.99761
6502 23.90400 180.65979 174.22837 2.00921
6503 23.90760 179.94949 171.82166 2.03360
6504 23.91120 179.24141 170.61034 2.04700
6505 23.91480 178.53683 170.57298 2.04673
6506 23.91840 177.83729 170.30195 2.05094
6507 23.92200 177.14444 169.77514 2.05856
6508 23.92560 176.46004 168.10782 2.07718
6509 23.92920 175.78598 166.93382 2.08860
6510 23.93280 175.12425 166.01298 2.10333
6511 23.93640 174.47688 165.44225 2.11569
6512 23.94000 173.84589 164.76738 2.12318
6513 23.94360 173.23312 165.01766 2.11846
6514 23.94720 172.64022 165.27854 2.12068
6515 23.95080 172.06848 164.01428 2.13225
6516 23.95440 171.51882 163.19263 2.14462
6517 23.95800 170.99168 162.65114 2.15549
6518 23.96160 170.48703 162.17935 2.16070
6519 23.96520 170.00438 162.21369 2.15204
6520 23.96880 169.54275 162.58091 2.14776
6521 23.97240 169.10074 162.40822 2.15099
6522 23.97600 168.67661 160.46095 2.17671
6523 23.97960 168.26833 161.03307 2.17326
6524 23.98320 167.87362 160.10571 2.18897
6525 23.98680 167.48954 160.33851 2.18227
6526 23.99040 167.11557 159.72540 2.19581
6527 23.99400 166.74882 159.09648 2.20509
6528 23.99760 166.38752 159.25166 2.19968
6529 24.00120 166.03027 159.51292 2.19318
6530 24.00480 165.67606 159.13364 2.20081
6531 24.00840 165.32429 158.76588 2.20039
6532 24.01200 164.97477 159.09001 2.19919
6533 24.01560 164.62752 159.39642 2.19353
6534 24.01920 164.28246 158.56151 2.20910
6535 24.02280 163.94164 157.86272 2.21801
6536 24.02640 163.60510 157.88169 2.21644
6537 24.03000 163.27363 158.74748 2.20274
6538 24.03360 162.94802 158.43758 2.20528
6539 24.03720 162.62899 159.81222 2.18859
6540 24.04080 162.31712 158.60233 2.20228
6541 24.04440 162.01287 159.23518 2.20543
6542 24.04800 161.71653 158.06011 2.22142
6543 24.05160 161.42825 157.60348 2.22500
6544 24.05520 161.14808 157.25868 2.23109
6545 24.05880 160.87595 157.42882 2.23038
6546 24.06240 160.61171 158.66558 2.20536
6547 24.06600 160.35520 158.01263 2.21989
6548 24.06960 160.10627 158.06952 2.22198
6549 24.07320 159.86483 157.59951 2.22529
6550 24.07680 159.63083 157.83127 2.21822
6551 24.08040 159.40436 157.47662 2.22152
6552 24.08400 159.18560 157.95407 2.21793
6553 24.08760 158.97480 158.17849 2.20669
6554 24.09120 158.77103 157.35973 2.22134
6555 24.09480 158.57699 157.07993 2.23362
6556 24.09840 158.39324 157.53805 2.22169
6557 24.10200 158.21969 158.07590 2.20727
6558 24.10560 158.05703 157.05643 2.22626
6559 24.10920 157.90593 156.69664 2.23614
6560 24.11280 157.76708 157.23805 2.22552
6561 24.11640 157.64112 156.99654 2.22357
6562 24.12000 157.52868 157.76696 2.21863
6563 24.12360 157.43035 157.22162 2.22062
6564 24.12720 157.34667 156.74221 2.23093
6565 24.13080 157.27816 156.94622 2.22762
6566 24.13440 157.22531 156.86487 2.23432
6567 24.13800 157.18856 157.46115 2.21928
6568 24.14160 157.16835 157.07765 2.23385
6569 24.14520 157.16506 157.94518 2.21713
6570 24.14880 157.17903 158.04966 2.21638
6571 24.15240 157.21058 158.14004 2.21804
6572 24.15600 157.25996 157.32720 2.23129
6573 24.15960 157.32738 158.31414 2.21184
6574 24.16320 157.41298 158.91452 2.20509
6575 24.16680 157.51682 157.26810 2.22867
6576 24.17040 157.63888 156.90217 2.23072
6577 24.17400 157.77904 157.06129 2.23454
6578 24.17760 157.93712 157.47481 2.22537
6579 24.18120 158.11280 158.59287 2.20859
6580 24.18480 158.30568 157.77634 2.22070
6581 24.18840 158.51526 158.87507 2.21129
6582 24.19200 158.74090 157.14103 2.23067
6583 24.19560 158.98176 158.20994 2.22627
6584 24.19920 159.23732 159.41021 2.19648
6585 24.20280 159.50649 160.13259 2.18682
6586 24.20640 159.78820 159.36610 2.20345
6587 24.21000 160.08124 159.82887 2.19403
6588 24.21360 160.38425 160.57660 2.18381
6589 24.21720 160.69572 160.51417 2.18255
6590 24.22080 161.01383 161.22398 2.17595
6591 24.22440 161.33679 162.43588 2.15545
6592 24.22800 161.66240 162.73784 2.14898
6593 24.23160 161.98820 163.68405 2.13776
6594 24.23520 162.31152 163.87419 2.13407
6595 24.23880 162.62944 164.58770 2.12642
6596 24.24240 162.93882 165.65485 2.10950
6597 24.24600 163.23635 167.34267 2.08873
6598 24.24960 163.51859 167.22333 2.09266
6599 24.25320 163.78209 167.81559 2.08509
6600 24.25680 164.02346 169.76972 2.06776
6601 24.26040 164.23952 170.07285 2.06169
6602 24.26400 164.42738 171.67325 2.03822
6603 24.26760 164.58461 172.73403 2.02786
6604 24.27120 164.70930 174.55036 2.00987
6605 24.27480 164.80015 174.64934 2.00639
6606 24.27840 164.85652 175.63851 1.99850
6607 24.28200 164.87843 175.49312 1.99736
6608 24.28560 164.86651 176.03581 1.99046
6609 24.28920 164.82194 175.41391 1.99676
6610 24.29280 164.74634 175.29693 2.00023
6611 24.29640 164.64162 174.68277 2.00231
6612 24.30000 164.50993 173.27286 2.01702
6613 24.30360 164.35348 172.16774 2.03231
6614 24.30720 164.17451 170.38834 2.05528
6615 24.31080 163.97514 170.26775 2.05142
6616 24.31440 163.75743 170.19382 2.05267
6617 24.31800 163.52316 168.97770 2.07245
6618 24.32160 163.27404 168.01323 2.08838
6619 24.32520 163.01226 167.12298 2.09856
6620 24.32880 162.73912 167.10035 2.09485
6621 24.33240 162.45619 167.36254 2.09130
6622 24.33600 162.16502 165.54687 2.11659
6623 24.33960 161.86716 166.16061 2.10780
6624 24.34320 161.56420 166.06513 2.11029
6625 24.34680 161.25769 165.51967 2.11828
6626 24.35040 160.94923 165.10546 2.11720
6627 24.35400 160.64036 163.45645 2.14215
6628 24.35760 160.33260 163.58188 2.13526
6629 24.36120 160.02740 164.69298 2.12677
6630 24.36480 159.72601 163.47325 2.13109
6631 24.36840 159.42964 163.23410 2.14406
6632 24.37200 159.13945 162.86657 2.14504
6633 24.37560 158.85705 162.19314 2.15457
6634 24.37920 158.58290 160.90757 2.17271
6635 24.38280 158.31774 161.62525 2.16433
6636 24.38640 158.06219 161.17873 2.16409
6637 24.39000 157.81674 160.64509 2.17295
6638 24.39360 157.58175 159.27173 2.19569
6639 24.39720 157.35744 158.71450 2.20615
6640 24.40080 157.14392 158.67911 2.20713
6641 24.40440 156.94116 159.25512 2.19826
6642 24.40800 156.74903 159.01139 2.20436
6643 24.41160 156.56731 158.29732 2.21166
6644 24.41520 156.39567 157.74205 2.22106
6645 24.41880 156.23371 157.47535 2.22254
6646 24.42240 156.08098 157.00346 2.22506
6647 24.42600 155.93701 157.51558 2.22679
6648 24.42960 155.80131 155.75771 2.25514
6649 24.43320 155.67340 155.92293 2.24896
6650 24.43680 155.55287 155.29828 2.25986
6651 24.44040 155.43935 155.01994 2.26219
6652 24.44400 155.33254 154.94184 2.27069
6653 24.44760 155.23224 155.05867 2.25790
6654 24.45120 155.13833 153.70509 2.27679
6655 24.45480 155.05078 154.30741 2.26652
6656 24.45840 154.96964 154.22645 2.26766
6657 24.46200 154.89501 154.09682 2.26860
6658 24.46560 154.82705 152.83183 2.28638
6659 24.46920 154.76596 154.16388 2.26116
6660 24.47280 154.71194 153.61719 2.27368
6661 24.47640 154.66520 153.58267 2.27280
6662 24.48000 154.62595 153.02349 2.27681
6663 24.48360 154.59434 153.31163 2.27056
6664 24.48720 154.57052 152.07437 2.29578
6665 24.49080 154.55457 152.14716 2.29377
6666 24.49440 154.54655 152.28578 2.30729
6667 24.49800 154.54644 152.32704 2.30803
6668 24.50160 154.55417 151.25720 2.31689
6669 24.50520 154.56961 151.00890 2.32165
6670 24.50880 154.59258 151.88550 2.32122
6671 24.51240 154.62282 151.35762 2.32342
6672 24.51600 154.66001 152.02382 2.30759
6673 24.51960 154.70380 152.22378 2.30405
6674 24.52320 154.75376 151.57882 2.31219
6675 24.52680 154.80943 151.24543 2.31502
6676 24.53040 154.87032 151.19843 2.31393
6677 24.53400 154.93590 151.66065 2.31249
6678 24.53760 155.00568 151.58652 2.30433
6679 24.54120 155.07912 151.63598 2.30900
6680 24.54480 155.15576 152.51315 2.29305
6681 24.54840 155.23515 152.36881 2.29687
6682 24.55200 155.31692 151.96480 2.29925
6683 24.55560 155.40073 152.29109 2.30137
6684 24.55920 155.48634 152.23705 2.30247
6685 24.56280 155.57356 152.33596 2.29774
6686 24.56640 155.66226 152.87674 2.28961
6687 24.57000 155.75239 152.03188 2.30942
6688 24.57360 155.84394 153.47352 2.28177
6689 24.57720 155.93693 154.82303 2.25942
6690 24.58080 156.03143 153.68902 2.27486
6691 24.58440 156.12754 153.68510 2.28012
6692 24.58800 156.22535 154.01592 2.27883
6693 24.59160 156.32494 154.60249 2.26860
6694 24.59520 156.42631 154.36014 2.27068
6695 24.59880 156.52977 154.04393 2.27175
6696 24.60240 156.63520 155.50795 2.25289
6697 24.60600 156.74254 155.58578 2.25178
6698 24.60960 156.85167 155.38748 2.25113
6699 24.61320 156.96237 153.73646 2.27501
6700 24.61680 157.07429 154.80532 2.26082
6701 24.62040 157.18700 153.61002 2.28029
6702 24.62400 157.29998 153.67608 2.28375
6703 24.62760 157.41260 152.87861 2.29054
6704 24.63120 157.52418 152.69315 2.29431
6705 24.63480 157.63396 153.42792 2.27429
6706 24.63840 157.74118 152.69240 2.29043
6707 24.64200 157.84507 153.75875 2.27646
6708 24.64560 157.94487 154.00814 2.28173
6709 24.64920 158.03988 153.83095 2.27682
6710 24.65280 158.12942 153.54106 2.27603
6711 24.65640 158.21283 153.65927 2.27938
6712 24.66000 158.28954 154.16594 2.27090
6713 24.66360 158.35895 154.18276 2.27147
6714 24.66720 158.42027 153.77030 2.27501
6715 24.67080 158.47338 154.37723 2.26586
6716 24.67440 158.51742 155.12873 2.26203
6717 24.67800 158.55185 155.64769 2.25242
6718 24.68160 158.57618 155.25580 2.25388
6719 24.68520 158.58985 155.00158 2.26125
6720 24.68880 158.59243 155.01150 2.26208
6721 24.69240 158.58363 155.77060 2.25261
6722 24.69600 158.56334 155.08433 2.25972
6723 24.69960 158.53164 155.85977 2.24854
6724 24.70320 158.48881 155.65044 2.25051
6725 24.70680 158.43548 155.00842 2.26911
6726 24.71040 158.37278 155.80578 2.24567
6727 24.71400 158.30175 154.84215 2.25938
6728 24.71760 158.22383 155.00716 2.25358
6729 24.72120 158.14070 154.49457 2.26683
6730 24.72480 158.05423 154.91166 2.25693
6731 24.72840 157.96641 154.00285 2.27639
6732 24.73200 157.87934 154.66782 2.26352
6733 24.73560 157.79506 154.97301 2.25716
6734 24.73920 157.71570 154.76544 2.26007
6735 24.74280 157.64344 154.84919 2.26728
6736 24.74640 157.58010 154.48139 2.27235
6737 24.75000 157.52747 154.71917 2.26197
6738 24.75360 157.48722 153.71078 2.27469
6739 24.75720 157.46082 154.82582 2.26130
6740 24.76080 157.44957 154.92033 2.26149
6741 24.76440 157.45458 154.78660 2.26244
6742 24.76800 157.47680 154.62357 2.26574
6743 24.77160 157.51696 154.60879 2.26555
6744 24.77520 157.57564 155.36317 2.25703
6745 24.77880 157.65321 154.96211 2.26349
6746 24.78240 157.74986 155.79719 2.24909
6747 24.78600 157.86561 155.17249 2.25379
6748 24.78960 158.00028 155.59823 2.25454
6749 24.79320 158.15349 155.39765 2.25433
6750 24.79680 158.32468 156.29272 2.24421
6751 24.80040 158.51306 156.49154 2.23942
6752 24.80400 158.71764 156.65135 2.23386
6753 24.80760 158.93720 156.67446 2.22850
6754 24.81120 159.17027 157.11052 2.22669
6755 24.81480 159.41517 157.45728 2.22114
6756 24.81840 159.66997 157.84327 2.21934
6757 24.82200 159.93253 157.63983 2.22238
6758 24.82560 160.20049 158.01511 2.21397
6759 24.82920 160.47136 158.12827 2.22241
6760 24.83280 160.74249 158.44938 2.22843
6761 24.83640 161.01121 159.08306 2.23299
6762 24.84000 161.27484 159.05608 2.24470
6763 24.84360 161.53076 159.75908 2.06353
6764 24.84720 161.77655 158.76117 2.00410
6765 24.85080 162.00998 159.45720 1.98960
6766 24.85440 162.22916 158.48367 2.00127
6767 24.85800 162.43250 160.77187 1.97879
6768 24.86160 162.61880 160.66741 1.97192
6769 24.86520 162.78725 159.94704 1.98367
6770 24.86880 162.93739 160.87962 1.97456
6771 24.87240 163.06911 161.10186 1.97737
6772 24.87600 163.18254 161.11894 1.96921
6773 24.87960 163.27803 161.69850 1.96752
6774 24.88320 163.35607 159.96511 1.98752
6775 24.88680 163.41717 161.26516 1.97817
6776 24.89040 163.46182 161.51356 1.97185
6777 24.89400 163.49039 161.77933 1.98639
6778 24.89760 163.50311 162.48438 1.98337
6779 24.90120 163.49997 163.23297 1.99321
6780 24.90480 163.48077 163.43116 1.87068
6781 24.90840 163.44506 163.26420 1.60893
6782 24.91200 163.39205 163.32975 1.60875
6783 24.91560 163.32101 162.35230 1.61850
6784 24.91920 163.23136 163.19119 1.60526
6785 24.92280 163.12198 164.72894 1.59309
6786 24.92640 162.99201 164.31195 1.60094
6787 24.93000 162.84072 164.85632 1.59003
6788 24.93360 162.66803 163.80102 1.59736
6789 24.93720 162.47376 164.56424 1.59469
6790 24.94080 162.25829 164.74029 1.59730
6791 24.94440 162.02245 165.26561 1.59150
6792 24.94800 161.76749 164.26599 1.60217
6793 24.95160 161.49504 162.61610 1.61919
6794 24.95520 161.20712 162.95892 1.61111
6795 24.95880 160.90599 162.61056 1.61713
6796 24.96240 160.59413 161.29510 1.63019
6797 24.96600 160.27410 160.28922 1.63803
6798 24.96960 159.94851 158.46275 1.65972
6799 24.97320 159.61989 159.52301 1.64657
6800 24.97680 159.29069 157.93368 1.66204
6801 24.98040 158.96320 157.13747 1.67241
6802 24.98400 158.63953 157.38314 1.67068
6803 24.98760 158.32160 156.52617 1.67660
6804 24.99120 158.01110 157.91979 1.66657
6805 24.99480 157.70913 156.88096 1.67812
6806 24.99840 157.41719 155.67163 1.68530
6807 25.00200 157.13742 155.17961 1.68827
6808 25.00560 156.87012 154.93532 1.69539
6809 25.00920 156.61617 154.99368 1.70081
6810 25.01280 156.37634 154.71057 1.69897
6811 25.01640 156.15128 154.43459 1.70105
6812 25.02000 155.94155 154.09927 1.70665
6813 25.02360 155.74761 153.78563 1.70842
6814 25.02720 155.56986 154.07497 1.70145
6815 25.03080 155.40857 153.25186 1.71205
6816 25.03440 155.26394 153.61243 1.70162
6817 25.03800 155.13607 153.28914 1.70863
6818 25.04160 155.02497 152.99400 1.71564
6819 25.04520 154.93051 151.61602 1.74311
6820 25.04880 154.85247 152.30908 1.72914
6821 25.05240 154.79054 152.39597 1.72290
6822 25.05600 154.74425 152.17917 1.72705
6823 25.05960 154.71304 153.15708 1.72084
6824 25.06320 154.69625 152.97850 1.71876
6825 25.06680 154.69309 152.17200 1.72694
6826 25.07040 154.70267 151.94576 1.73035
6827 25.07400 154.72398 151.74845 1.73611
6828 25.07760 154.75595 153.30356 1.72063
6829 25.08120 154.79739 153.04583 1.72866
6830 25.08480 154.84705 152.98724 1.73872
6831 25.08840 154.90359 152.50052 1.83655
6832 25.09200 154.96564 152.24690 2.13200
6833 25.09560 155.03179 152.74321 1.87258
6834 25.09920 155.10058 152.93609 1.52416
6835 25.10280 155.17060 151.88742 1.88252
6836 25.10640 155.24040 151.57767 1.51747
6837 25.11000 155.30862 152.97804 1.85255
6838 25.11360 155.37395 152.60152 1.86728
6839 25.11720 155.43517 153.24241 1.85486
6840 25.12080 155.49119 152.98089 1.86173
6841 25.12440 155.54109 153.23950 1.86490
6842 25.12800 155.58410 152.88082 1.86667
6843 25.13160 155.61967 152.85272 1.86657
6844 25.13520 155.64747 152.85749 1.86930
6845 25.13880 155.66741 152.75922 1.86786
6846 25.14240 155.67960 153.38612 1.87431
6847 25.14600 155.68442 153.10201 1.88693
6848 25.14960 155.68242 152.81929 1.91095
6849 25.15320 155.67434 152.42421 1.92863
6850 25.15680 155.66108 152.81158 1.55161
6851 25.16040 155.64365 152.55874 1.75440
6852 25.16400 155.62315 152.42222 1.74697
6853 25.16760 155.60075 153.25831 1.72936
6854 25.17120 155.57764 153.55206 1.71314
6855 25.17480 155.55505 152.56730 1.71870
6856 25.17840 155.53421 152.27641 1.73000
6857 25.18200 155.51637 153.11175 1.71221
6858 25.18560 155.50276 152.09769 1.71589
6859 25.18920 155.49462 151.64859 1.72070
6860 25.19280 155.49320 151.55197 1.72033
6861 25.19640 155.49971 152.07299 1.71821
6862 25.20000 155.51538 151.47360 1.72419
6863 25.20360 155.54140 152.03285 1.71463
6864 25.20720 155.57894 153.11394 1.69860
6865 25.21080 155.62913 151.72786 1.71291
6866 25.21440 155.69305 152.29166 1.71138
6867 25.21800 155.77175 153.01500 1.70563
6868 25.22160 155.86618 153.40380 1.69173
6869 25.22520 155.97724 153.36300 1.69844
6870 25.22880 156.10578 153.64975 1.69719
6871 25.23240 156.25253 153.81225 1.69126
6872 25.23600 156.41817 153.42839 1.69732
6873 25.23960 156.60327 154.46941 1.69198
6874 25.24320 156.80832 154.88262 1.68504
6875 25.24680 157.03371 155.88536 1.67233
6876 25.25040 157.27970 154.62548 1.68763
6877 25.25400 157.54644 155.46006 1.67687
6878 25.25760 157.83395 155.29066 1.68187
6879 25.26120 158.14214 155.82369 1.67700
6880 25.26480 158.47076 156.55009 1.67278
6881 25.26840 158.81941 156.76273 1.67022
6882 25.27200 159.18755 157.30544 1.66302
6883 25.27560 159.57449 158.16122 1.64676
6884 25.27920 159.97936 156.88190 1.66715
6885 25.28280 160.40122 157.33575 1.66691
6886 25.28640 160.83886 157.73261 1.66040
6887 25.29000 161.29096 157.63815 1.65855
6888 25.29360 161.75599 157.45717 1.66163
6889 25.29720 162.23220 157.94851 1.65247
6890 25.30080 162.71793 158.07805 1.65466
6891 25.30440 163.21105 158.30888 1.64941
6892 25.30800 163.70935 157.40702 1.66431
6893 25.31160 164.21043 157.42304 1.66202
6894 25.31520 164.71172 158.24616 1.65416
6895 25.31880 165.21042 156.86777 1.66918
6896 25.32240 165.70355 156.83439 1.66801
6897 25.32600 166.18787 157.07148 1.66645
6898 25.32960 166.65990 158.18093 1.65373
6899 25.33320 167.11591 157.81031 1.65483
6900 25.33680 167.55190 156.93061 1.66661
6901 25.34040 167.96360 156.67792 1.96878
6902 25.34400 168.34652 156.22783 2.06997
6903 25.34760 168.69600 156.69572 1.80751
6904 25.35120 169.00726 157.47808 1.87851
6905 25.35480 169.27557 157.89970 1.81267
6906 25.35840 169.49631 157.83423 1.83820
6907 25.36200 169.66519 158.69995 1.99691
6908 25.36560 169.77837 158.02583 2.00099
6909 25.36920 169.83269 158.70021 1.99126
6910 25.37280 169.82577 158.61342 1.99479
6911 25.37640 169.75615 158.75320 1.99390
6912 25.38000 169.62340 159.96146 1.98348
6913 25.38360 169.42814 159.79830 1.99378
6914 25.38720 169.17211 159.85340 2.00286
6915 25.39080 168.85792 158.01237 2.04210
6916 25.39440 168.48910 158.53937 1.85076
6917 25.39800 168.06988 158.17384 1.79756
6918 25.40160 167.60505 158.81702 1.78542
6919 25.40520 167.09974 157.32139 1.80047
6920 25.40880 166.55932 157.62178 1.93242
6921 25.41240 165.98917 157.88314 2.03165
6922 25.41600 165.39459 157.38254 2.03143
6923 25.41960 164.78073 156.14183 2.03758
6924 25.42320 164.15245 156.01265 2.03191
6925 25.42680 163.51430 156.05872 2.03514
6926 25.43040 162.87051 155.80522 2.03357
6927 25.43400 162.22497 155.04412 2.04158
6928 25.43760 161.58121 154.77205 2.04561
6929 25.44120 160.94246 155.15402 2.04568
6930 25.44480 160.31160 155.44806 2.04757
6931 25.44840 159.69120 155.64248 2.05975
6932 25.45200 159.08361 155.37664 2.07877
6933 25.45560 158.49106 152.79392 1.95095
6934 25.45920 157.91526 152.56746 1.69820
6935 25.46280 157.35782 154.81302 1.67119
6936 25.46640 156.82010 153.70788 1.68468
6937 25.47000 156.30329 152.62703 1.69626
6938 25.47360 155.80831 152.00340 1.69959
6939 25.47720 155.33593 154.66933 1.67298
6940 25.48080 154.88670 153.57956 1.68839
6941 25.48440 154.46100 153.69281 1.68310
6942 25.48800 154.05902 153.14118 1.69268
6943 25.49160 153.68080 152.51430 1.70277
6944 25.49520 153.32621 152.32012 1.71059
6945 25.49880 152.99501 152.92715 1.70467
6946 25.50240 152.68681 153.02153 1.69615
6947 25.50600 152.40112 152.19796 1.70529
6948 25.50960 152.13735 151.87975 1.71690
6949 25.51320 151.89484 151.87559 1.72032
6950 25.51680 151.67284 151.75963 1.71837
6951 25.52040 151.47057 152.68007 1.70275
6952 25.52400 151.28719 152.00132 1.71327
6953 25.52760 151.12184 151.03801 1.72137
6954 25.53120 150.97363 152.26007 1.71287
6955 25.53480 150.84166 152.65760 1.70940
6956 25.53840 150.72504 152.32464 1.70954
6957 25.54200 150.62289 151.65792 1.71669
6958 25.54560 150.53431 152.24113 1.70683
6959 25.54920 150.45846 152.73476 1.70388
6960 25.55280 150.39439 151.92159 1.71022
6961 25.55640 150.34150 152.90243 1.70238
6962 25.56000 150.29904 152.04492 1.71504
6963 25.56360 150.26625 151.77033 1.71792
6964 25.56720 150.24247 152.64441 1.70232
6965 25.57080 150.22710 152.00247 1.70930
6966 25.57440 150.21960 152.45167 1.71054
6967 25.57800 150.21945 152.68969 1.70624
6968 25.58160 150.22623 152.47469 1.70706
6969 25.58520 150.23952 152.31577 1.70958
6970 25.58880 150.25897 151.87605 1.71732
6971 25.59240 150.28427 151.51381 1.71840
6972 25.59600 150.31512 152.94313 1.70460
6973 25.59960 150.35127 152.81343 1.70295
6974 25.60320 150.39248 152.35933 1.70436
6975 25.60680 150.43853 151.52459 1.71594
6976 25.61040 150.48920 151.87668 1.71580
6977 25.61400 150.54426 151.92828 1.70987
6978 25.61760 150.60298 152.17345 1.70460
6979 25.62120 150.66596 152.18307 1.70941
6980 25.62480 150.73300 151.75311 1.71771
6981 25.62840 150.80357 151.65932 1.71215
6982 25.63200 150.87739 151.47822 1.72150
6983 25.63560 150.95417 152.80369 1.70556
6984 25.63920 151.03362 152.83600 1.80246
6985 25.64280 151.11538 153.34822 2.11326
6986 25.64640 151.19909 152.37940 2.05224
6987 25.65000 151.28437 152.42211 1.74702
6988 25.65360 151.37079 153.54349 2.04442
6989 25.65720 151.45796 153.28204 1.71041
6990 25.66080 151.54545 152.88252 2.06481
6991 25.66440 151.63284 152.40747 2.07070
6992 25.66800 151.71975 153.10915 2.06643
6993 25.67160 151.80580 152.70657 2.06467
6994 25.67520 151.89067 152.77433 2.07274
6995 25.67880 151.97406 152.03849 2.07979
6996 25.68240 152.05571 152.70630 2.06693
6997 25.68600 152.13537 153.18949 2.06228
6998 25.68960 152.21287 152.83864 2.06681
6999 25.69320 152.28798 153.08639 2.06119
7000 25.69680 152.36049 153.31900 2.06063
7001 25.70040 152.43014 153.28423 2.06142
7002 25.70400 152.49668 153.68577 2.05160
7003 25.70760 152.55975 153.19036 2.07314
7004 25.71120 152.61892 153.54309 2.30438
7005 25.71480 152.67373 154.12247 2.28353
7006 25.71840 152.72359 154.16566 2.27240
7007 25.72200 152.76789 153.89789 2.26408
7008 25.72560 152.80595 153.40023 2.26391
7009 25.72920 152.83707 153.58333 2.26249
7010 25.73280 152.86052 152.90516 2.27800
7011 25.73640 152.87563 151.90063 2.28178
7012 25.74000 152.88177 152.18739 2.28035
7013 25.74360 152.87842 152.32563 2.27783
7014 25.74720 152.86516 154.06510 2.25433
7015 25.75080 152.84169 152.06403 2.28546
7016 25.75440 152.80794 152.31880 2.27046
7017 25.75800 152.76410 152.24793 2.26560
7018 25.76160 152.71036 151.39691 2.28619
7019 25.76520 152.64713 151.59864 2.28070
7020 25.76880 152.57500 150.95734 2.29237
7021 25.77240 152.49463 151.77638 2.27708
7022 25.77600 152.40687 150.87930 2.29516
7023 25.77960 152.31254 152.18220 2.28044
7024 25.78320 152.21255 151.61413 2.28679
7025 25.78680 152.10777 150.76317 2.29604
7026 25.79040 151.99911 150.32944 2.30679
7027 25.79400 151.88741 150.66499 2.30115
7028 25.79760 151.77347 151.01862 2.30125
7029 25.80120 151.65802 149.65627 2.31951
7030 25.80480 151.54173 150.47595 2.30116
7031 25.80840 151.42520 150.96852 2.30102
7032 25.81200 151.30894 150.15367 2.31302
7033 25.81560 151.19342 150.83851 2.30692
7034 25.81920 151.07903 150.29922 2.31245
7035 25.82280 150.96611 151.25735 2.29890
7036 25.82640 150.85498 151.43427 2.29430
7037 25.83000 150.74594 152.02575 2.29610
7038 25.83360 150.63928 150.75491 2.32383
7039 25.83720 150.53529 152.15456 2.31645
7040 25.84080 150.43445 152.17886 2.33027
7041 25.84440 150.33717 150.98585 2.20552
7042 25.84800 150.24400 151.88152 2.07437
7043 25.85160 150.15562 152.20778 2.06808
7044 25.85520 150.07280 152.04087 2.07013
7045 25.85880 149.99647 151.28025 2.08426
7046 25.86240 149.92763 152.42331 2.07078
7047 25.86600 149.86741 152.66625 2.06482
7048 25.86960 149.81697 151.71293 2.07636
7049 25.87320 149.77752 151.90381 2.08164
7050 25.87680 149.75021 152.51329 2.07024
7051 25.88040 149.73617 153.04784 2.05868
7052 25.88400 149.73637 153.45396 2.05506
7053 25.88760 149.75162 152.52557 2.07188
7054 25.89120 149.78250 152.86583 2.06833
7055 25.89480 149.82937 153.34730 2.07411
7056 25.89840 149.89226 153.79351 2.08069
7057 25.90200 149.97094 154.66381 2.08480
7058 25.90560 150.06485 153.96589 2.01990
7059 25.90920 150.17312 152.88899 1.70053
7060 25.91280 150.29459 154.02979 1.68857
7061 25.91640 150.42783 154.31853 1.68138
7062 25.92000 150.57115 153.91188 1.68773
7063 25.92360 150.72266 154.98733 1.67807
7064 25.92720 150.88025 156.07672 1.66639
7065 25.93080 151.04170 155.87220 1.66896
7066 25.93440 151.20466 155.67190 1.67692
7067 25.93800 151.36668 155.22069 1.67298
7068 25.94160 151.52532 154.62641 1.67686
7069 25.94520 151.67813 154.79118 1.68070
7070 25.94880 151.82272 155.34376 1.67299
7071 25.95240 151.95682 155.85701 1.66356
7072 25.95600 152.07835 155.70343 1.67162
7073 25.95960 152.18541 156.40430 1.66365
7074 25.96320 152.27641 155.72988 1.66745
7075 25.96680 152.35008 156.19391 1.66465
7076 25.97040 152.40548 155.67848 1.66883
7077 25.97400 152.44208 156.35957 1.66229
7078 25.97760 152.45968 155.66322 1.66513
7079 25.98120 152.45851 154.44130 1.68541
7080 25.98480 152.43909 155.19950 1.67560
7081 25.98840 152.40229 154.13257 1.68836
7082 25.99200 152.34921 154.88822 1.67848
7083 25.99560 152.28118 154.60367 1.67841
7084 25.99920 152.19967 154.06507 1.69106
7085 26.00280 152.10625 153.13333 1.70244
7086 26.00640 152.00258 154.34219 1.68656
7087 26.01000 151.89030 153.14740 1.69973
7088 26.01360 151.77107 152.40289 1.71173
7089 26.01720 151.64647 153.32062 1.69753
7090 26.02080 151.51807 153.31464 1.70031
7091 26.02440 151.38734 153.59251 1.69076
7092 26.02800 151.25568 153.62435 1.69926
7093 26.03160 151.12439 151.99283 1.71806
7094 26.03520 150.99471 152.11937 1.71088
7095 26.03880 150.86779 151.97966 1.71481
7096 26.04240 150.74468 152.77903 1.70365
7097 26.04600 150.62636 152.10662 1.71195
7098 26.04960 150.51366 151.28191 1.72436
7099 26.05320 150.40680 151.84613 1.71868
7100 26.05680 150.30793 152.14747 1.70971
7101 26.06040 150.21701 152.16726 1.71263
7102 26.06400 150.13463 151.26146 1.72782
7103 26.06760 150.06130 151.18206 1.72789
7104 26.07120 149.99749 150.75576 1.72539
7105 26.07480 149.94359 150.27469 1.73283
7106 26.07840 149.89992 150.34457 1.73199
7107 26.08200 149.86663 150.66694 1.73032
7108 26.08560 149.84402 151.86847 1.72089
7109 26.08920 149.83231 151.59997 1.75339
7110 26.09280 149.83146 149.96665 2.15410
7111 26.09640 149.84146 150.54874 2.13113
7112 26.10000 149.86227 150.40384 1.76300
7113 26.10360 149.89375 149.72153 2.08327
7114 26.10720 149.93573 150.13816 1.78645
7115 26.11080 149.98799 150.39179 2.03650
7116 26.11440 150.05026 150.70480 2.09784
7117 26.11800 150.12221 150.00430 2.10408
7118 26.12160 150.20348 150.46678 2.09981
7119 26.12520 150.29368 150.86125 2.09804
7120 26.12880 150.39234 149.93614 2.10772
7121 26.13240 150.49901 150.06591 2.10037
7122 26.13600 150.61316 149.70744 2.10611
7123 26.13960 150.73427 150.35836 2.09733
7124 26.14320 150.86175 151.85851 2.08083
7125 26.14680 150.99502 151.46849 2.08804
7126 26.15040 151.13345 150.60381 2.10036
7127 26.15400 151.27641 150.54182 2.09289
7128 26.15760 151.42326 150.92804 2.08801
7129 26.16120 151.57331 151.39890 2.30435
7130 26.16480 151.72592 150.98542 2.33155
7131 26.16840 151.88039 150.92150 2.31605
7132 26.17200 152.03607 151.47576 2.30656
7133 26.17560 152.19228 152.07084 2.28977
7134 26.17920 152.34826 153.11389 2.26980
7135 26.18280 152.50293 152.74317 2.27489
7136 26.18640 152.65682 152.86910 2.26913
7137 26.19000 152.80867 153.12062 2.26746
7138 26.19360 152.95789 152.32839 2.27977
7139 26.19720 153.10390 153.54717 2.26180
7140 26.20080 153.24614 153.36037 2.25899
7141 26.20440 153.38407 153.27531 2.25982
7142 26.20800 153.51729 153.46947 2.25189
7143 26.21160 153.64535 153.23287 2.25518
7144 26.21520 153.76788 154.27595 2.24548
7145 26.21880 153.88460 153.70273 2.25189
7146 26.22240 153.99528 153.56627 2.24932
7147 26.22600 154.09981 153.82471 2.25084
7148 26.22960 154.19816 154.16961 2.24633
7149 26.23320 154.29040 154.60078 2.24236
7150 26.23680 154.37671 154.81213 2.24103
7151 26.24040 154.45739 155.48533 2.22566
7152 26.24400 154.53284 155.86397 2.22459
7153 26.24760 154.60359 155.83153 2.22493
7154 26.25120 154.67027 155.18037 2.23349
7155 26.25480 154.73363 155.29887 2.23089
7156 26.25840 154.79448 155.86960 2.23107
7157 26.26200 154.85373 155.12785 2.24175
7158 26.26560 154.91232 156.70973 2.22399
7159 26.26920 154.97121 157.12152 2.21638
7160 26.27280 155.03136 156.21067 2.21943
7161 26.27640 155.09372 157.29170 2.20572
7162 26.28000 155.15913 157.00364 2.21610
7163 26.28360 155.22840 157.28919 2.21461
7164 26.28720 155.30219 156.65074 2.21886
7165 26.29080 155.38106 156.89056 2.21221
7166 26.29440 155.46543 157.12336 2.20876
7167 26.29800 155.55555 158.70913 2.18943
7168 26.30160 155.65154 157.68473 2.20363
7169 26.30520 155.75333 158.14301 2.19803
7170 26.30880 155.86072 159.16304 2.18598
7171 26.31240 155.97333 158.20998 2.20364
7172 26.31600 156.09064 160.18958 2.17678
7173 26.31960 156.21196 161.19978 2.15924
7174 26.32320 156.33649 159.76254 2.18026
7175 26.32680 156.46330 160.39589 2.16858
7176 26.33040 156.59134 161.11684 2.15838
7177 26.33400 156.71947 161.13132 2.15678
7178 26.33760 156.84649 161.10054 2.15983
7179 26.34120 156.97116 161.61312 2.15819
7180 26.34480 157.09221 162.34698 2.14048
7181 26.34840 157.20843 162.40147 2.14442
7182 26.35200 157.31862 163.02207 2.13253
7183 26.35560 157.42170 161.87153 2.14395
7184 26.35920 157.51670 161.42174 2.15456
7185 26.36280 157.60280 161.59816 2.15854
7186 26.36640 157.67946 161.99326 2.14789
7187 26.37000 157.74623 161.59187 2.15282
7188 26.37360 157.80290 160.58606 2.16077
7189 26.37720 157.84949 161.82480 2.14783
7190 26.38080 157.88622 161.41166 2.15385
7191 26.38440 157.91351 160.46550 2.16896
7192 26.38800 157.93189 160.49450 2.16647
7193 26.39160 157.94202 160.51529 2.16491
7194 26.39520 157.94464 160.19532 2.17053
7195 26.39880 157.94057 160.81040 2.16168
7196 26.40240 157.93059 161.13563 2.15541
7197 26.40600 157.91552 160.80870 2.16237
7198 26.40960 157.89611 160.72064 2.16151
7199 26.41320 157.87307 161.17370 2.16352
7200 26.41680 157.84704 159.75817 2.17448
7201 26.42040 157.81863 160.97730 2.16297
7202 26.42400 157.78836 161.76025 2.15524
7203 26.42760 157.75674 159.99227 2.17495
7204 26.43120 157.72425 160.55662 2.16757
7205 26.43480 157.69137 161.87449 2.14835
7206 26.43840 157.65864 160.52770 2.16834
7207 26.44200 157.62661 160.24082 2.17387
7208 26.44560 157.59597 160.91202 2.16255
7209 26.44920 157.56748 160.41808 2.16924
7210 26.45280 157.54203 160.69826 2.16633
7211 26.45640 157.52064 160.11902 2.17159
7212 26.46000 157.50448 160.78901 2.16054
7213 26.46360 157.49485 159.59985 2.18082
7214 26.46720 157.49309 160.14362 2.17014
7215 26.47080 157.50060 160.28312 2.16650
7216 26.47440 157.51936 160.18730 2.17321
7217 26.47800 157.55077 160.14554 2.17246
7218 26.48160 157.59650 159.99508 2.17941
7219 26.48520 157.65821 159.45239 2.18403
7220 26.48880 157.73752 159.29828 2.18634
7221 26.49240 157.83600 157.58161 2.20831
7222 26.49600 157.95517 157.80730 2.20721
7223 26.49960 158.09642 158.98802 2.19219
7224 26.50320 158.26106 158.86149 2.19081
7225 26.50680 158.45025 157.95614 2.19900
7226 26.51040 158.66500 157.38638 2.20778
7227 26.51400 158.90618 156.90075 2.21557
7228 26.51760 159.17446 156.12850 2.22469
7229 26.52120 159.47032 157.04603 2.20819
7230 26.52480 159.79403 156.52801 2.22158
7231 26.52840 160.14564 155.94342 2.22649
7232 26.53200 160.52497 156.08918 2.23448
7233 26.53560 160.93160 155.23259 2.24566
7234 26.53920 161.36483 155.92046 2.23745
7235 26.54280 161.82373 155.97789 2.23301
7236 26.54640 162.30706 157.41866 2.21256
7237 26.55000 162.81330 156.98551 2.21800
7238 26.55360 163.34065 157.98291 2.20048
7239 26.55720 163.88699 157.70155 2.21189
7240 26.56080 164.44988 157.76747 2.20907
7241 26.56440 165.02655 157.84469 2.21153
7242 26.56800 165.61390 157.18290 2.22000
7243 26.57160 166.20851 157.78002 2.21024
7244 26.57520 166.80658 158.94075 2.19941
7245 26.57880 167.40400 159.48806 2.19129
7246 26.58240 167.99634 160.33143 2.18041
7247 26.58600 168.57886 160.63205 2.17375
7248 26.58960 169.14656 161.30649 2.16340
7249 26.59320 169.69422 162.63286 2.14610
7250 26.59680 170.21649 163.93656 2.12800
7251 26.60040 170.70792 165.61426 2.10863
7252 26.60400 171.16308 166.33220 2.09873
7253 26.60760 171.57668 165.85226 2.10710
7254 26.61120 171.94366 167.18680 2.08718
7255 26.61480 172.25932 168.38150 2.08121
7256 26.61840 172.51945 169.40562 2.06333
7257 26.62200 172.72041 170.37044 2.04686
7258 26.62560 172.85929 170.28662 2.04726
7259 26.62920 172.93394 171.02237 2.03553
7260 26.63280 172.94304 171.12438 2.03567
7261 26.63640 172.88612 171.40599 2.03264
7262 26.64000 172.76354 171.79822 2.03562
7263 26.64360 172.57649 169.58544 2.06132
7264 26.64720 172.32702 168.01028 2.07916
7265 26.65080 172.01770 168.54838 2.07608
7266 26.65440 171.65172 168.17997 2.08266
7267 26.65800 171.23279 166.15348 2.09753
7268 26.66160 170.76495 165.17938 2.11545
7269 26.66520 170.25252 164.39433 2.12258
7270 26.66880 169.70001 162.77166 2.14359
7271 26.67240 169.11201 163.07093 2.14151
7272 26.67600 168.49305 161.86646 2.16155
7273 26.67960 167.84785 160.95539 2.17599
7274 26.68320 167.18105 160.15209 2.18247
7275 26.68680 166.49694 159.67553 2.18981
7276 26.69040 165.79975 158.41120 2.20387
7277 26.69400 165.09354 158.68752 2.20305
7278 26.69760 164.38220 157.70898 2.21763
7279 26.70120 163.66936 157.18682 2.22465
7280 26.70480 162.95845 156.96091 2.22128
7281 26.70840 162.25266 156.93374 2.22837
7282 26.71200 161.55491 155.66146 2.24675
7283 26.71560 160.86791 155.59401 2.24600
7284 26.71920 160.19409 155.96034 2.23592
7285 26.72280 159.53564 156.60714 2.22987
7286 26.72640 158.89450 156.07918 2.23355
7287 26.73000 158.27237 155.00707 2.24971
7288 26.73360 157.67071 154.10337 2.26467
7289 26.73720 157.09075 154.95118 2.25100
7290 26.74080 156.53352 154.36101 2.26274
7291 26.74440 155.99983 154.77451 2.25933
7292 26.74800 155.49029 154.73962 2.26052
7293 26.75160 155.00535 153.91107 2.27225
7294 26.75520 154.54526 153.53894 2.27030
7295 26.75880 154.11015 153.05060 2.27984
7296 26.76240 153.69999 152.19932 2.29580
7297 26.76600 153.31462 153.11754 2.28264
7298 26.76960 152.95358 153.61319 2.27004
7299 26.77320 152.61692 153.11330 2.27932
7300 26.77680 152.30399 153.42232 2.27598
7301 26.78040 152.01426 152.49500 2.29427
7302 26.78400 151.74715 153.56679 2.27902
7303 26.78760 151.50204 154.16657 2.27089
7304 26.79120 151.27826 153.66781 2.27874
7305 26.79480 151.07511 153.26278 2.28706
7306 26.79840 150.89190 152.94374 2.29000
7307 26.80200 150.72790 152.89136 2.28868
7308 26.80560 150.58241 152.06970 2.30128
7309 26.80920 150.45472 151.68018 2.30914
7310 26.81280 150.34413 151.74311 2.30092
7311 26.81640 150.24997 152.44328 2.30028
7312 26.82000 150.17159 153.36157 2.28377
7313 26.82360 150.10836 152.44386 2.29804
7314 26.82720 150.05969 152.57057 2.29696
7315 26.83080 150.02501 153.02088 2.28771
7316 26.83440 150.00376 152.65321 2.30125
7317 26.83800 149.99544 153.10240 2.29030
7318 26.84160 149.99956 152.88867 2.28912
7319 26.84520 150.01566 153.03287 2.29073
7320 26.84880 150.04329 153.09801 2.29126
7321 26.85240 150.08205 153.68439 2.27600
7322 26.85600 150.13151 153.28402 2.28700
7323 26.85960 150.19130 153.61882 2.27739
7324 26.86320 150.26103 154.05382 2.27276
7325 26.86680 150.34032 154.20843 2.27795
7326 26.87040 150.42879 155.21876 2.25935
7327 26.87400 150.52606 155.20774 2.26326
7328 26.87760 150.63172 156.39279 2.23866
7329 26.88120 150.74537 155.86971 2.24681
7330 26.88480 150.86657 156.87963 2.22648
7331 26.88840 150.99487 157.12212 2.22433
7332 26.89200 151.12979 156.56612 2.23439
7333 26.89560 151.27080 156.84635 2.23120
7334 26.89920 151.41737 157.45662 2.22247
7335 26.90280 151.56889 157.57899 2.22586
7336 26.90640 151.72472 157.33070 2.22458
7337 26.91000 151.88420 156.60451 2.23465
7338 26.91360 152.04660 156.34587 2.23520
7339 26.91720 152.21113 158.03932 2.21079
7340 26.92080 152.37699 158.23440 2.20870
7341 26.92440 152.54333 158.44946 2.20634
7342 26.92800 152.70927 158.36951 2.20322
7343 26.93160 152.87389 158.06557 2.21000
7344 26.93520 153.03629 158.55005 2.20505
7345 26.93880 153.19558 158.25623 2.20768
7346 26.94240 153.35090 159.49095 2.19527
7347 26.94600 153.50144 158.34579 2.20849
7348 26.94960 153.64648 159.19687 2.19945
7349 26.95320 153.78540 159.23842 2.19338
7350 26.95680 153.91773 161.04445 2.17306
7351 26.96040 154.04314 160.17125 2.18245
7352 26.96400 154.16150 159.62368 2.19245
7353 26.96760 154.27285 160.37649 2.17413
7354 26.97120 154.37746 160.08787 2.18177
7355 26.97480 154.47580 159.68815 2.18820
7356 26.97840 154.56855 160.87045 2.16765
7357 26.98200 154.65660 161.41141 2.16720
7358 26.98560 154.74102 161.27425 2.16708
7359 26.98920 154.82309 160.54043 2.17814
7360 26.99280 154.90423 161.31103 2.16644
7361 26.99640 154.98595 161.71855 2.16046
7362 27.00000 155.07005 160.77531 2.17720
7363 27.00360 155.15827 160.74549 2.17915
7364 27.00720 155.25245 160.04141 2.18722
7365 27.01080 155.35451 159.64225 2.19243
7366 27.01440 155.46638 159.66364 2.19335
7367 27.01800 155.58998 159.44172 2.19904
7368 27.02160 155.72723 159.24140 2.19335
7369 27.02520 155.88001 158.83651 2.19799
7370 27.02880 156.05012 158.99883 2.20341
7371 27.03240 156.23932 158.27175 2.21212
7372 27.03600 156.44920 158.09250 2.20861
7373 27.03960 156.68123 158.89852 2.20297
7374 27.04320 156.93720 158.64985 2.19860
7375 27.04680 157.21822 158.25247 2.20595
7376 27.05040 157.52548 158.04654 2.21394
7377 27.05400 157.86000 158.06475 2.21337
7378 27.05760 158.22264 158.78859 2.19757
7379 27.06120 158.61412 157.34248 2.21617
7380 27.06480 159.03494 158.96827 2.19754
7381 27.06840 159.48545 158.38339 2.21014
7382 27.07200 159.96578 158.48694 2.20175
7383 27.07560 160.47586 158.63315 2.20092
7384 27.07920 161.01544 158.36447 2.20661
7385 27.08280 161.58404 158.64825 2.20330
7386 27.08640 162.18099 158.94757 2.20224
7387 27.09000 162.80542 158.36515 2.21437
7388 27.09360 163.45625 158.78679 2.21321
7389 27.09720 164.13225 159.17648 2.20799
7390 27.10080 164.83198 158.88000 2.21205
7391 27.10440 165.55387 159.22202 2.20839
7392 27.10800 166.29615 160.29343 2.19416
7393 27.11160 167.05692 160.98973 2.17643
7394 27.11520 167.83411 160.84862 2.18768
7395 27.11880 168.62549 162.20500 2.16724
7396 27.12240 169.42864 162.27716 2.16492
7397 27.12600 170.24095 162.94290 2.15282
7398 27.12960 171.05962 164.67234 2.13519
7399 27.13320 171.88155 164.80412 2.13314
7400 27.13680 172.70342 166.50961 2.10693
7401 27.14040 173.52162 166.98774 2.09845
7402 27.14400 174.33223 168.88802 2.07660
7403 27.14760 175.13100 170.34378 2.06368
7404 27.15120 175.91339 171.85099 2.04651
7405 27.15480 176.67458 173.17250 2.02565
7406 27.15840 177.40948 176.08685 1.98879
7407 27.16200 178.11285 178.38375 1.96038
7408 27.16560 178.77930 180.69686 1.94942
7409 27.16920 179.40346 184.62980 1.89796
7410 27.17280 179.98007 188.01753 1.86538
7411 27.17640 180.50413 191.09617 1.83205
7412 27.18000 180.97105 193.77736 1.80426
7413 27.18360 181.37678 195.97407 1.78610
7414 27.18720 181.71799 199.62300 1.75347
7415 27.19080 181.99217 201.94835 1.73380
7416 27.19440 182.19775 202.63106 1.73267
7417 27.19800 182.33414 203.24906 1.72376
7418 27.20160 182.40181 202.32888 1.73041
7419 27.20520 182.40221 199.71345 1.75490
7420 27.20880 182.33775 197.57794 1.77429
7421 27.21240 182.21167 195.25678 1.79593
7422 27.21600 182.02796 191.29009 1.83038
7423 27.21960 181.79110 188.47555 1.85796
7424 27.22320 181.50589 185.34154 1.88791
7425 27.22680 181.17783 182.66993 1.91736
7426 27.23040 180.81199 179.97453 1.93995
7427 27.23400 180.41354 178.98044 1.95663
7428 27.23760 179.98749 174.80621 2.00779
7429 27.24120 179.53858 172.60380 2.03230
7430 27.24480 179.07123 172.06069 2.03542
7431 27.24840 178.58946 169.17345 2.07434
7432 27.25200 178.09692 168.66135 2.08698
7433 27.25560 177.59684 166.77987 2.10528
7434 27.25920 177.09205 165.03596 2.12995
7435 27.26280 176.58504 164.68746 2.12949
7436 27.26640 176.07794 165.14517 2.12481
7437 27.27000 175.57257 164.78445 2.12657
7438 27.27360 175.07047 163.40892 2.14290
7439 27.27720 174.57293 162.58882 2.15146
7440 27.28080 174.08102 161.64130 2.16863
7441 27.28440 173.59556 162.05080 2.16516
7442 27.28800 173.11719 160.89134 2.18230
7443 27.29160 172.64630 161.84764 2.16680
7444 27.29520 172.18311 161.27800 2.17257
7445 27.29880 171.72760 160.83078 2.18056
7446 27.30240 171.27951 161.04874 2.17893
7447 27.30600 170.83840 161.07296 2.17011
7448 27.30960 170.40359 161.21975 2.17448
7449 27.31320 169.97423 161.41003 2.17173
7450 27.31680 169.54929 160.80378 2.18173
7451 27.32040 169.12761 160.42737 2.18178
7452 27.32400 168.70799 160.73428 2.17890
7453 27.32760 168.28918 163.76614 2.12556
7454 27.33120 167.86998 165.34185 2.11472
7455 27.33480 167.44930 168.98523 2.06784
7456 27.33840 167.02619 169.94877 2.06093
7457 27.34200 166.59991 171.13274 2.05067
7458 27.34560 166.16999 171.44398 2.04346
7459 27.34920 165.73619 171.25029 2.04409
7460 27.35280 165.29856 170.61918 2.05330
7461 27.35640 164.85741 169.10476 2.06964
7462 27.36000 164.41329 167.07788 2.10049
7463 27.36360 163.96697 163.92946 2.13025
7464 27.36720 163.51937 162.32871 2.15833
7465 27.37080 163.07157 160.23553 2.18262
7466 27.37440 162.62470 159.36528 2.19393
7467 27.37800 162.17996 158.75121 2.20416
7468 27.38160 161.73854 158.29871 2.20715
7469 27.38520 161.30161 157.22747 2.22560
7470 27.38880 160.87030 157.06958 2.22400
7471 27.39240 160.44564 156.77477 2.23733
7472 27.39600 160.02863 155.97999 2.24618
7473 27.39960 159.62014 157.21160 2.23081
7474 27.40320 159.22097 156.54932 2.23950
7475 27.40680 158.83183 155.56710 2.25132
7476 27.41040 158.45336 154.93354 2.25168
7477 27.41400 158.08611 155.40870 2.26230
7478 27.41760 157.73056 156.18233 2.24274
7479 27.42120 157.38713 154.33822 2.27219
7480 27.42480 157.05620 153.57173 2.28153
7481 27.42840 156.73806 153.80014 2.27984
7482 27.43200 156.43301 153.90826 2.28188
7483 27.43560 156.14126 153.98945 2.27349
7484 27.43920 155.86298 153.97791 2.26952
7485 27.44280 155.59826 153.24667 2.28349
7486 27.44640 155.34743 153.27749 2.28868
7487 27.45000 155.11043 153.38859 2.28336
7488 27.45360 154.88726 153.04475 2.28909
7489 27.45720 154.67791 152.89217 2.29207
7490 27.46080 154.48245 152.89434 2.29160
7491 27.46440 154.30068 151.87644 2.30537
7492 27.46800 154.13244 153.01064 2.29776
7493 27.47160 153.97752 152.38481 2.29828
7494 27.47520 153.83568 153.03157 2.28946
7495 27.47880 153.70661 152.16831 2.29442
7496 27.48240 153.58998 153.07157 2.28385
7497 27.48600 153.48543 152.11002 2.29970
7498 27.48960 153.39255 152.24152 2.30244
7499 27.49320 153.31093 151.46866 2.30976
7500 27.49680 153.24014 152.15266 2.30154
7501 27.50040 153.17972 152.63068 2.29751
7502 27.50400 153.12919 151.57925 2.30842
7503 27.50760 153.08824 151.94115 2.30334
7504 27.51120 153.05636 152.74270 2.29441
7505 27.51480 153.03312 153.41384 2.28141
7506 27.51840 153.01807 153.90289 2.27284
7507 27.52200 153.01081 152.41544 2.29500
7508 27.52560 153.01092 151.70942 2.30826
7509 27.52920 153.01797 151.49402 2.30519
7510 27.53280 153.03156 152.52066 2.29937
7511 27.53640 153.05128 151.78650 2.31200
7512 27.54000 153.07667 151.24912 2.32014
7513 27.54360 153.10727 151.48822 2.31514
7514 27.54720 153.14287 152.63479 2.29804
7515 27.55080 153.18291 152.81901 2.29979
7516 27.55440 153.22693 152.61186 2.30325
7517 27.55800 153.27445 152.68871 2.29849
7518 27.56160 153.32498 151.67977 2.31627
7519 27.56520 153.37796 152.66507 2.30209
7520 27.56880 153.43282 152.87698 2.30064
7521 27.57240 153.48894 153.98547 2.27634
7522 27.57600 153.54565 152.89316 2.28721
7523 27.57960 153.60224 152.33319 2.29456
7524 27.58320 153.65795 153.57549 2.28203
7525 27.58680 153.71198 153.91405 2.28271
7526 27.59040 153.76348 153.13235 2.29301
7527 27.59400 153.81158 154.45397 2.27018
7528 27.59760 153.85539 153.27975 2.29019
7529 27.60120 153.89403 151.82563 2.31669
7530 27.60480 153.92659 153.35141 2.29427
7531 27.60840 153.95222 153.03728 2.29622
7532 27.61200 153.97011 152.11744 2.30601
7533 27.61560 153.97949 152.87177 2.29523
7534 27.61920 153.97961 153.00280 2.29591
7535 27.62280 153.96999 152.90055 2.29042
7536 27.62640 153.95023 152.94791 2.29134
7537 27.63000 153.91991 153.14321 2.28928
7538 27.63360 153.87885 152.71882 2.29681
7539 27.63720 153.82700 151.63007 2.30969
7540 27.64080 153.76445 151.52080 2.30885
7541 27.64440 153.69147 152.45239 2.29713
7542 27.64800 153.60847 151.52281 2.31012
7543 27.65160 153.51599 153.12142 2.29228
7544 27.65520 153.41469 152.28363 2.30746
7545 27.65880 153.30537 152.65370 2.29768
7546 27.66240 153.18891 152.80340 2.29814
7547 27.66600 153.06628 151.88486 2.30776
7548 27.66960 152.93852 151.49413 2.31596
7549 27.67320 152.80670 151.56685 2.31516
7550 27.67680 152.67194 151.48132 2.31591
7551 27.68040 152.53535 152.14964 2.30596
7552 27.68400 152.39806 151.75084 2.31169
7553 27.68760 152.26116 151.50080 2.31330
7554 27.69120 152.12571 151.46218 2.31741
7555 27.69480 151.99275 150.94191 2.32436
7556 27.69840 151.86324 150.09977 2.33652
7557 27.70200 151.73810 149.95202 2.34210
7558 27.70560 151.61819 150.29404 2.33225
7559 27.70920 151.50428 150.34708 2.33226
7560 27.71280 151.39709 150.63693 2.32943
7561 27.71640 151.29727 151.14887 2.32982
7562 27.72000 151.20538 150.34716 2.33591
7563 27.72360 151.12191 151.14149 2.31868
7564 27.72720 151.04729 151.40473 2.31694
7565 27.73080 150.98187 150.92764 2.32664
7566 27.73440 150.92593 150.72379 2.32682
7567 27.73800 150.87967 151.44965 2.31955
7568 27.74160 150.84323 150.55464 2.33096
7569 27.74520 150.81669 151.44545 2.32087
7570 27.74880 150.80005 152.76403 2.29934
7571 27.75240 150.79324 151.19904 2.32461
7572 27.75600 150.79614 152.21649 2.30875
7573 27.75960 150.80855 152.67260 2.30485
7574 27.76320 150.83023 154.11857 2.27794
7575 27.76680 150.86087 154.43542 2.27950
7576 27.77040 150.90008 154.16930 2.27948
7577 27.77400 150.94744 153.58282 2.28889
7578 27.77760 151.00246 153.33262 2.28964
7579 27.78120 151.06458 153.49957 2.28499
7580 27.78480 151.13322 153.45927 2.28329
7581 27.78840 151.20772 154.55047 2.26975
7582 27.79200 151.28736 154.29509 2.27489
7583 27.79560 151.37140 154.28415 2.27223
7584 27.79920 151.45904 154.51486 2.26867
7585 27.80280 151.54945 155.34583 2.26497
7586 27.80640 151.64178 155.09573 2.26439
7587 27.81000 151.73515 154.87982 2.26910
7588 27.81360 151.82868 155.90268 2.24842
7589 27.81720 151.92152 156.91868 2.23415
7590 27.82080 152.01282 156.41496 2.24208
7591 27.82440 152.10180 156.77275 2.23829
7592 27.82800 152.18775 157.77835 2.22428
7593 27.83160 152.27002 157.22311 2.22948
7594 27.83520 152.34808 157.25293 2.23355
7595 27.83880 152.42150 156.44129 2.24409
7596 27.84240 152.48997 156.37030 2.24618
7597 27.84600 152.55333 157.33277 2.23070
7598 27.84960 152.61150 156.95090 2.24017
7599 27.85320 152.66456 157.31799 2.23639
7600 27.85680 152.71267 155.98335 2.25820
7601 27.86040 152.75608 154.89254 2.26882
7602 27.86400 152.79505 153.73446 2.28932
7603 27.86760 152.83014 155.18911 2.26701
7604 27.87120 152.86170 156.25731 2.24670
7605 27.87480 152.89018 154.78420 2.26263
7606 27.87840 152.91602 154.01388 2.25985
7607 27.88200 152.93968 153.72609 2.27850
7608 27.88560 152.96159 152.49611 2.29954
7609 27.88920 152.98215 152.74632 2.29120
7610 27.89280 153.00174 152.00628 2.30340
7611 27.89640 153.02069 153.00807 2.29013
7612 27.90000 153.03931 152.53127 2.30036
7613 27.90360 153.05786 151.10792 2.32195
7614 27.90720 153.07659 153.46130 2.28205
7615 27.91080 153.09570 153.53661 2.28822
7616 27.91440 153.11535 153.35588 2.28527
7617 27.91800 153.13568 152.46590 2.29742
7618 27.92160 153.15678 152.38327 2.29662
7619 27.92520 153.17873 152.24799 2.30344
7620 27.92880 153.20147 151.66546 2.30583
7621 27.93240 153.22508 151.69510 2.30889
7622 27.93600 153.24953 151.60721 2.30720
7623 27.93960 153.27468 152.91896 2.28522
7624 27.94320 153.30039 152.40937 2.29753
7625 27.94680 153.32651 152.50706 2.29628
7626 27.95040 153.35282 152.65950 2.29441
7627 27.95400 153.37911 153.04611 2.28397
7628 27.95760 153.40513 152.93702 2.28433
7629 27.96120 153.43060 152.86198 2.28927
7630 27.96480 153.45528 153.09706 2.28986
7631 27.96840 153.47886 152.66418 2.29245
7632 27.97200 153.50110 153.25092 2.28742
7633 27.97560 153.52170 152.56797 2.29576
7634 27.97920 153.54043 153.45868 2.27876
7635 27.98280 153.55702 153.20838 2.28803
7636 27.98640 153.57126 152.32931 2.30463
7637 27.99000 153.58292 152.48465 2.30043
7638 27.99360 153.59181 152.21571 2.30542
7639 27.99720 153.59776 152.27288 2.30258
7640 28.00080 153.60063 151.50240 2.31921
7641 28.00440 153.60030 151.33789 2.32158
7642 28.00800 153.59668 150.94840 2.32521
7643 28.01160 153.58973 151.52534 2.31072
7644 28.01520 153.57942 150.98258 2.32406
7645 28.01880 153.56577 151.05914 2.32663
7646 28.02240 153.54884 151.23438 2.31920
7647 28.02600 153.52873 150.85690 2.32207
7648 28.02960 153.50557 150.86012 2.32440
7649 28.03320 153.47952 151.46409 2.31668
7650 28.03680 153.45075 151.16537 2.32194
7651 28.04040 153.41949 150.75943 2.32752
7652 28.04400 153.38596 150.80373 2.32438
7653 28.04760 153.35038 150.32550 2.33689
7654 28.05120 153.31298 151.06317 2.32769
7655 28.05480 153.27396 150.90510 2.33115
7656 28.05840 153.23353 150.35524 2.33481
7657 28.06200 153.19184 150.05688 2.34008
7658 28.06560 153.14901 150.07145 2.33412
7659 28.06920 153.10512 151.00900 2.32266
7660 28.07280 153.06020 150.06439 2.33594
7661 28.07640 153.01423 150.95144 2.32890
7662 28.08000 152.96713 150.95183 2.33014
7663 28.08360 152.91878 150.46418 2.33663
7664 28.08720 152.86899 151.39501 2.31442
7665 28.09080 152.81755 150.51777 2.33187
7666 28.09440 152.76421 151.41424 2.32013
7667 28.09800 152.70868 150.87462 2.32543
7668 28.10160 152.65069 150.46376 2.32760
7669 28.10520 152.58996 150.75357 2.33137
7670 28.10880 152.52623 150.13942 2.34496
7671 28.11240 152.45928 150.84502 2.33262
7672 28.11600 152.38894 150.54155 2.33190
7673 28.11960 152.31510 150.87447 2.32707
7674 28.12320 152.23772 151.86244 2.31007
7675 28.12680 152.15684 151.58965 2.31456
7676 28.13040 152.07258 151.24790 2.32306
7677 28.13400 151.98514 151.04156 2.32309
7678 28.13760 151.89480 151.26152 2.32284
7679 28.14120 151.80190 152.27923 2.30682
7680 28.14480 151.70685 151.94989 2.30869
7681 28.14840 151.61010 152.21494 2.31006
7682 28.15200 151.51216 151.57339 2.31806
7683 28.15560 151.41354 150.13804 2.34237
7684 28.15920 151.31478 152.05905 2.30995
7685 28.16280 151.21644 152.59706 2.29748
7686 28.16640 151.11907 152.02459 2.31425
7687 28.17000 151.02320 152.45733 2.29886
7688 28.17360 150.92936 153.53178 2.28385
7689 28.17720 150.83806 152.47841 2.30019
7690 28.18080 150.74979 152.21183 2.30690
7691 28.18440 150.66502 153.31020 2.29066
7692 28.18800 150.58419 153.07322 2.29110
7693 28.19160 150.50769 152.58050 2.29481
7694 28.19520 150.43600 152.88762 2.29106
7695 28.19880 150.36946 153.40153 2.28585
7696 28.20240 150.30846 154.07147 2.27188
7697 28.20600 150.25333 153.92208 2.27584
7698 28.20960 150.20444 152.37860 2.29933
7699 28.21320 150.16212 152.23400 2.30637
7700 28.21680 150.12669 153.00589 2.29260
7701 28.22040 150.09847 152.23767 2.31049
7702 28.22400 150.07773 152.82413 2.29647
7703 28.22760 150.06471 152.29995 2.31027
7704 28.23120 150.05990 152.40531 2.30322
7705 28.23480 150.06344 151.57919 2.31571
7706 28.23840 150.07560 151.31978 2.31765
7707 28.24200 150.09659 151.17521 2.32623
7708 28.24560 150.12665 151.41567 2.32161
7709 28.24920 150.16595 152.12236 2.31132
7710 28.25280 150.21466 151.49189 2.31989
7711 28.25640 150.27293 150.74169 2.32803
7712 28.26000 150.34084 151.47987 2.31870
7713 28.26360 150.41849 151.13427 2.32426
7714 28.26720 150.50589 151.33497 2.32380
7715 28.27080 150.60303 151.52174 2.31877
7716 28.27440 150.70986 151.06834 2.32645
7717 28.27800 150.82627 151.38886 2.31887
7718 28.28160 150.95209 150.96712 2.32186
7719 28.28520 151.08712 151.40716 2.32178
7720 28.28880 151.23109 150.52678 2.33374
7721 28.29240 151.38364 151.64396 2.31688
7722 28.29600 151.54440 151.78693 2.30983
7723 28.29960 151.71290 151.53930 2.31633
7724 28.30320 151.88861 151.91058 2.31193
7725 28.30680 152.07094 151.76816 2.30728
7726 28.31040 152.25924 152.75695 2.29797
7727 28.31400 152.45279 152.12009 2.30392
7728 28.31760 152.65080 152.59308 2.29800
7729 28.32120 152.85242 152.94425 2.29082
7730 28.32480 153.05660 152.84504 2.29128
7731 28.32840 153.26260 152.34030 2.28402
7732 28.33200 153.46940 152.39547 2.29706
7733 28.33560 153.67585 154.04268 2.27161
7734 28.33920 153.88083 153.49629 2.28662
7735 28.34280 154.08318 154.21150 2.27844
7736 28.34640 154.28171 155.05973 2.26552
7737 28.35000 154.47520 155.16448 2.25730
7738 28.35360 154.66242 154.47798 2.27246
7739 28.35720 154.84214 154.33428 2.27641
7740 28.36080 155.01313 153.75517 2.28634
7741 28.36440 155.17421 154.90440 2.26127
7742 28.36800 155.32402 155.60523 2.25502
7743 28.37160 155.46157 155.37431 2.25634
7744 28.37520 155.58632 155.38566 2.25450
7745 28.37880 155.69702 155.43662 2.25831
7746 28.38240 155.79287 155.06763 2.26489
7747 28.38600 155.87320 155.27887 2.25904
7748 28.38960 155.93746 155.09998 2.25938
7749 28.39320 155.98523 155.35481 2.26291
7750 28.39680 156.01626 155.11011 2.26580
7751 28.40040 156.03044 154.77675 2.26919
7752 28.40400 156.02782 154.33684 2.27499
7753 28.40760 156.00860 155.25089 2.26572
7754 28.41120 155.97316 154.06465 2.27608
7755 28.41480 155.92201 154.01747 2.28360
7756 28.41840 155.85581 153.25925 2.29402
7757 28.42200 155.77538 153.40411 2.29275
7758 28.42560 155.68164 153.39642 2.28764
7759 28.42920 155.57564 153.42331 2.28814
7760 28.43280 155.45850 153.01986 2.29570
7761 28.43640 155.33144 152.94985 2.29471
7762 28.44000 155.19570 153.21275 2.29211
7763 28.44360 155.05255 152.44743 2.29939
7764 28.44720 154.90326 151.67795 2.30943
7765 28.45080 154.74910 151.72843 2.31195
7766 28.45440 154.59128 151.74010 2.30778
7767 28.45800 154.43094 151.23853 2.31726
7768 28.46160 154.26919 150.84442 2.32285
7769 28.46520 154.10701 151.12489 2.31954
7770 28.46880 153.94533 151.14612 2.32131
7771 28.47240 153.78495 151.32193 2.31932
7772 28.47600 153.62660 151.46439 2.30981
7773 28.47960 153.47088 151.61628 2.31237
7774 28.48320 153.31830 151.20796 2.31992
7775 28.48680 153.16928 150.82084 2.32183
7776 28.49040 153.02413 150.43154 2.32590
7777 28.49400 152.88306 150.57259 2.32566
7778 28.49760 152.74620 151.07543 2.32333
7779 28.50120 152.61362 150.30602 2.33305
7780 28.50480 152.48528 150.81656 2.32879
7781 28.50840 152.36109 149.69477 2.34170
7782 28.51200 152.24091 150.15238 2.33403
7783 28.51560 152.12454 150.07570 2.33771
7784 28.51920 152.01174 150.09214 2.33852
7785 28.52280 151.90223 150.24657 2.33097
7786 28.52640 151.79572 150.09890 2.34052
7787 28.53000 151.69191 150.81381 2.33045
7788 28.53360 151.59048 151.12447 2.31964
7789 28.53720 151.49112 151.51932 2.31587
7790 28.54080 151.39355 150.81431 2.32645
7791 28.54440 151.29748 150.07146 2.34177
7792 28.54800 151.20268 150.15621 2.33480
7793 28.55160 151.10895 150.66262 2.33063
7794 28.55520 151.01613 151.25229 2.31857
7795 28.55880 150.92410 152.50881 2.30109
7796 28.56240 150.83278 151.66079 2.31195
7797 28.56600 150.74217 150.99140 2.32710
7798 28.56960 150.65239 150.62735 2.33363
7799 28.57320 150.56347 150.90829 2.33326
7800 28.57680 150.47556 150.34312 2.34019
7801 28.58040 150.38884 150.79707 2.33109
7802 28.58400 150.30351 150.82414 2.32733
7803 28.58760 150.21976 150.06449 2.34635
7804 28.59120 150.13799 150.21306 2.33791
7805 28.59480 150.05841 150.26569 2.33811
7806 28.59840 149.98131 150.05048 2.34393
7807 28.60200 149.90700 149.58655 2.35084
7808 28.60560 149.83578 149.29054 2.35138
7809 28.60920 149.76797 148.69719 2.36426
7810 28.61280 149.70388 149.41614 2.34607
7811 28.61640 149.64384 151.01237 2.32343
7812 28.62000 149.58815 149.55127 2.34653
7813 28.62360 149.53718 149.18900 2.35293
7814 28.62720 149.49125 149.23230 2.34969
7815 28.63080 149.45069 149.38056 2.35317
7816 28.63440 149.41586 149.60392 2.34957
7817 28.63800 149.38710 149.51351 2.34764
7818 28.64160 149.36476 149.96689 2.33876
7819 28.64520 149.34920 150.52025 2.33188
7820 28.64880 149.34078 149.34463 2.34648
7821 28.65240 149.33983 149.10372 2.34772
7822 28.65600 149.34670 149.94103 2.33530
7823 28.65960 149.36172 150.08020 2.33564
7824 28.66320 149.38522 149.81818 2.34184
7825 28.66680 149.41751 150.27577 2.32925
7826 28.67040 149.45886 150.26429 2.33381
7827 28.67400 149.50955 149.74751 2.34187
7828 28.67760 149.56984 149.81906 2.34468
7829 28.68120 149.63993 148.84856 2.35930
7830 28.68480 149.72004 149.62237 2.34607
7831 28.68840 149.81031 149.28191 2.34679
7832 28.69200 149.91090 149.43266 2.34796
7833 28.69560 150.02189 149.32107 2.34925
7834 28.69920 150.14336 149.78100 2.34568
7835 28.70280 150.27533 150.12892 2.33955
7836 28.70640 150.41779 149.50642 2.34506
7837 28.71000 150.57070 148.78057 2.35888
7838 28.71360 150.73395 149.44257 2.34302
7839 28.71720 150.90742 149.79609 2.34020
7840 28.72080 151.09092 149.98489 2.34024
7841 28.72440 151.28423 149.62029 2.34687
7842 28.72800 151.48708 149.49115 2.34805
7843 28.73160 151.69918 150.63362 2.33192
7844 28.73520 151.92018 150.71866 2.32461
7845 28.73880 152.14967 151.12366 2.32062
7846 28.74240 152.38727 151.53695 2.31578
7847 28.74600 152.63252 151.08888 2.31774
7848 28.74960 152.88492 150.81964 2.32113
7849 28.75320 153.14395 150.95235 2.32474
7850 28.75680 153.40903 152.16353 2.30655
7851 28.76040 153.67956 150.83299 2.31755
7852 28.76400 153.95506 151.44229 2.29987
7853 28.76760 154.23476 151.61415 2.31682
7854 28.77120 154.51796 152.11300 2.30435
7855 28.77480 154.80391 151.41787 2.31143
7856 28.77840 155.09177 152.02790 2.30161
7857 28.78200 155.38066 151.64072 2.31244
7858 28.78560 155.66961 151.80495 2.31004
7859 28.78920 155.95759 150.79240 2.31941
7860 28.79280 156.24345 151.65406 2.31105
7861 28.79640 156.52598 151.29731 2.31468
7862 28.80000 156.80388 152.27512 2.29991
7863 28.80360 157.07575 152.45864 2.30424
7864 28.80720 157.34014 152.14503 2.30619
7865 28.81080 157.59551 152.19192 2.30248
7866 28.81440 157.84031 152.29728 2.29917
7867 28.81800 158.07295 153.60456 2.28134
7868 28.82160 158.29186 153.69855 2.28226
7869 28.82520 158.49553 153.83822 2.27640
7870 28.82880 158.68252 152.34110 2.30160
7871 28.83240 158.85148 154.22933 2.27200
7872 28.83600 159.00114 153.65249 2.28790
7873 28.83960 159.13083 153.57930 2.27925
7874 28.84320 159.23965 153.16978 2.29538
7875 28.84680 159.32708 153.10846 2.29036
7876 28.85040 159.39287 153.38652 2.28724
7877 28.85400 159.43702 153.04617 2.28967
7878 28.85760 159.45978 152.40520 2.30087
7879 28.86120 159.46165 153.50341 2.28224
7880 28.86480 159.44331 152.60314 2.29613
7881 28.86840 159.40562 153.14515 2.29075
7882 28.87200 159.34961 151.75862 2.31343
7883 28.87560 159.27637 151.60140 2.31077
7884 28.87920 159.18709 152.35248 2.29923
7885 28.88280 159.08298 151.46189 2.31733
7886 28.88640 158.96522 151.01860 2.31638
7887 28.89000 158.83499 151.45801 2.31561
7888 28.89360 158.69345 151.91351 2.30539
7889 28.89720 158.54166 152.16630 2.30543
7890 28.90080 158.38059 152.15985 2.30334
7891 28.90440 158.21116 150.12506 2.33174
7892 28.90800 158.03420 149.90526 2.33334
7893 28.91160 157.85046 150.42863 2.32775
7894 28.91520 157.66064 150.14896 2.32804
7895 28.91880 157.46534 150.84107 2.32804
7896 28.92240 157.26512 149.90012 2.33456
7897 28.92600 157.06050 149.80698 2.33551
7898 28.92960 156.85195 149.61657 2.34233
7899 28.93320 156.63991 149.12173 2.35421
7900 28.93680 156.42479 149.41060 2.34207
7901 28.94040 156.20698 148.78878 2.35996
7902 28.94400 155.98688 148.85873 2.35414
7903 28.94760 155.76485 149.01068 2.35484
7904 28.95120 155.54128 148.46968 2.36139
7905 28.95480 155.31653 147.88303 2.36955
7906 28.95840 155.09097 147.67614 2.37172
7907 28.96200 154.86500 148.47024 2.35642
7908 28.96560 154.63899 148.48019 2.36101
7909 28.96920 154.41333 147.37813 2.37874
7910 28.97280 154.18841 146.35302 2.39457
7911 28.97640 153.96463 147.61420 2.37832
7912 28.98000 153.74239 147.45270 2.38408
7913 28.98360 153.52208 147.47303 2.37783
7914 28.98720 153.30408 146.41024 2.39280
7915 28.99080 153.08878 146.61641 2.39250
7916 28.99440 152.87653 147.98651 2.36981
7917 28.99800 152.66769 147.89992 2.37222
7918 29.00160 152.46256 147.02398 2.39881
7919 29.00520 152.26144 147.96207 2.37413
7920 29.00880 152.06459 146.80970 2.39509
7921 29.01240 151.87225 146.86432 2.36417
7922 29.01600 151.68461 147.31806 2.37868
7923 29.01960 151.50184 147.36886 2.37777
7924 29.02320 151.32406 146.80467 2.39159
7925 29.02680 151.15138 146.49317 2.39688
7926 29.03040 150.98387 147.49986 2.38132
7927 29.03400 150.82157 148.04713 2.36972
7928 29.03760 150.66442 147.45044 2.37701
7929 29.04120 150.51256 147.84394 2.36632
7930 29.04480 150.36599 147.66671 2.36832
7931 29.04840 150.22463 147.89006 2.36772
7932 29.05200 150.08847 147.01259 2.38660
7933 29.05560 149.95747 147.26411 2.37839
7934 29.05920 149.83161 146.90132 2.38661
7935 29.06280 149.71084 146.75439 2.38951
7936 29.06640 149.59515 147.05764 2.38298
7937 29.07000 149.48450 146.72859 2.38871
7938 29.07360 149.37886 147.75255 2.37147
7939 29.07720 149.27821 147.39846 2.37379
7940 29.08080 149.18251 147.11894 2.38261
7941 29.08440 149.09175 148.08307 2.36739
7942 29.08800 149.00590 147.09630 2.37890
7943 29.09160 148.92493 147.24524 2.38245
7944 29.09520 148.84882 146.98858 2.39035
7945 29.09880 148.77755 146.95788 2.38637
7946 29.10240 148.71110 147.42528 2.37417
7947 29.10600 148.64944 147.47440 2.37034
7948 29.10960 148.59256 147.41293 2.37421
7949 29.11320 148.54043 146.06515 2.39773
7950 29.11680 148.49303 146.79952 2.38412
7951 29.12040 148.45034 146.90318 2.38730
7952 29.12400 148.41234 147.21967 2.38282
7953 29.12760 148.37900 146.68547 2.39103
7954 29.13120 148.35030 146.41006 2.39524
7955 29.13480 148.32620 148.09107 2.36545
7956 29.13840 148.30666 147.34631 2.37451
7957 29.14200 148.29165 146.66734 2.38740
7958 29.14560 148.28112 146.55863 2.39515
7959 29.14920 148.27502 145.67275 2.41000
7960 29.15280 148.27330 145.93324 2.40672
7961 29.15640 148.27590 145.86669 2.40228
7962 29.16000 148.28267 146.38377 2.39744
7963 29.16360 148.29300 145.85691 2.39984
7964 29.16720 148.30825 146.40423 2.39668
7965 29.17080 148.32761 148.04527 2.36911
7966 29.17440 148.35101 146.98985 2.38626
7967 29.17800 148.37833 147.02327 2.37834
7968 29.18160 148.40954 147.52639 2.37829
7969 29.18520 148.44473 146.28819 2.39026
7970 29.18880 148.48373 146.61734 2.39105
7971 29.19240 148.52645 147.30876 2.38027
7972 29.19600 148.57279 147.22613 2.37876
7973 29.19960 148.62267 146.47091 2.39184
7974 29.20320 148.67595 146.63703 2.38801
7975 29.20680 148.73249 147.41030 2.37345
7976 29.21040 148.79213 148.50409 2.35723
7977 29.21400 148.85469 147.78681 2.36534
7978 29.21760 148.91993 147.61940 2.37457
7979 29.22120 148.98762 148.49110 2.36375
7980 29.22480 149.05747 148.97922 2.34754
7981 29.22840 149.12919 148.87449 2.35493
7982 29.23200 149.20243 148.36060 2.36742
7983 29.23560 149.27682 148.44392 2.35750
7984 29.23920 149.35198 149.29150 2.34613
7985 29.24280 149.42748 148.43044 2.35443
7986 29.24640 149.50287 148.80715 2.35335
7987 29.25000 149.57769 149.36544 2.34906
7988 29.25360 149.65147 149.73670 2.34607
7989 29.25720 149.72372 149.23630 2.35014
7990 29.26080 149.79395 151.06246 2.32167
7991 29.26440 149.86166 150.12751 2.33184
7992 29.26800 149.92638 148.09853 2.36430
7993 29.27160 149.98763 149.70787 2.33984
7994 29.27520 150.04496 149.00695 2.35175
7995 29.27880 150.09794 149.92095 2.34034
7996 29.28240 150.14617 150.09750 2.33554
7997 29.28600 150.18927 149.99031 2.33893
7998 29.28960 150.22689 151.08488 2.31477
7999 29.29320 150.25873 151.14206 2.31459
8000 29.29680 150.28450 151.76251 2.30460
8001 29.30040 150.30394 151.66195 2.30978
8002 29.30400 150.31686 150.81368 2.32618
8003 29.30760 150.32305 151.07126 2.32109
8004 29.31120 150.32238 151.38316 2.30604
8005 29.31480 150.31473 150.28470 2.32506
8006 29.31840 150.30001 149.98060 2.33475
8007 29.32200 150.27819 149.09289 2.34745
8008 29.32560 150.24928 150.54401 2.32920
8009 29.32920 150.21330 151.29566 2.31531
8010 29.33280 150.17037 149.52333 2.34309
8011 29.33640 150.12062 148.44727 2.35535
8012 29.34000 150.06426 148.90952 2.35053
8013 29.34360 150.00153 148.45754 2.36399
8014 29.34720 149.93274 149.22518 2.34752
8015 29.35080 149.85827 148.48076 2.35710
8016 29.35440 149.77846 148.71884 2.35489
8017 29.35800 149.69375 147.25055 2.37614
8018 29.36160 149.60487 148.28806 2.36004
8019 29.36520 149.51221 148.13789 2.36542
8020 29.36880 149.41624 147.34356 2.38452
8021 29.37240 149.31774 147.22838 2.38429
8022 29.37600 149.21719 146.96465 2.39008
8023 29.37960 149.11519 147.00183 2.38858
8024 29.38320 149.01229 146.96462 2.38574
8025 29.38680 148.90906 146.67511 2.38731
8026 29.39040 148.80602 146.33794 2.39842
8027 29.39400 148.70367 147.11187 2.39049
8028 29.39760 148.60247 145.95926 2.40315
8029 29.40120 148.50283 146.08779 2.40130
8030 29.40480 148.40513 146.98541 2.38520
8031 29.40840 148.30970 146.91303 2.38517
8032 29.41200 148.21682 147.01836 2.38200
8033 29.41560 148.12663 146.50982 2.39051
8034 29.41920 148.03950 146.62805 2.39206
8035 29.42280 147.95551 146.30955 2.39314
8036 29.42640 147.87474 146.29810 2.39256
8037 29.43000 147.79726 145.70755 2.40682
8038 29.43360 147.72310 146.62503 2.38967
8039 29.43720 147.65225 145.33455 2.40399
8040 29.44080 147.58467 145.38696 2.41226
8041 29.44440 147.52029 145.89804 2.40031
8042 29.44800 147.45891 145.64274 2.40658
8043 29.45160 147.40063 145.59392 2.41218
8044 29.45520 147.34524 146.01100 2.40182
8045 29.45880 147.29258 145.80573 2.40299
8046 29.46240 147.24251 146.54416 2.38583
8047 29.46600 147.19486 145.80034 2.39501
8048 29.46960 147.14948 145.62000 2.40584
8049 29.47320 147.10618 147.11758 2.37504
8050 29.47680 147.06482 146.94549 2.38213
8051 29.48040 147.02521 146.75763 2.39224
8052 29.48400 146.98719 146.21306 2.39430
8053 29.48760 146.95058 145.97066 2.39777
8054 29.49120 146.91505 146.44196 2.39435
8055 29.49480 146.88046 145.84968 2.39944
8056 29.49840 146.84709 147.09007 2.37805
8057 29.50200 146.81448 147.18778 2.37388
8058 29.50560 146.78246 147.49745 2.37331
8059 29.50920 146.75086 147.86152 2.37147
8060 29.51280 146.71953 147.86210 2.36913
8061 29.51640 146.68829 148.60799 2.35181
8062 29.52000 146.65702 148.94807 2.35344
8063 29.52360 146.62554 148.05649 2.36820
8064 29.52720 146.59370 148.11162 2.36631
8065 29.53080 146.56143 148.33156 2.36225
8066 29.53440 146.52859 148.61085 2.35315
8067 29.53800 146.49506 147.90129 2.35987
8068 29.54160 146.46077 148.27502 2.35715
8069 29.54520 146.42562 148.94405 2.34933
8070 29.54880 146.38957 148.64491 2.35461
8071 29.55240 146.35257 148.12390 2.36414
8072 29.55600 146.31462 146.87559 2.38404
8073 29.55960 146.27570 147.37647 2.37446
8074 29.56320 146.23585 147.46151 2.37287
8075 29.56680 146.19509 147.62932 2.37497
8076 29.57040 146.15348 147.21264 2.37409
8077 29.57400 146.11109 146.90460 2.38267
8078 29.57760 146.06801 146.86149 2.38482
8079 29.58120 146.02434 147.23543 2.37799
8080 29.58480 145.98017 146.25117 2.39464
8081 29.58840 145.93564 146.19648 2.39902
8082 29.59200 145.89084 145.75694 2.39482
8083 29.59560 145.84591 146.09636 2.39175
8084 29.59920 145.80096 146.09829 2.39694
8085 29.60280 145.75611 147.64306 2.37760
8086 29.60640 145.71146 145.61757 2.40010
8087 29.61000 145.66712 145.49277 2.40067
8088 29.61360 145.62317 145.52633 2.40616
8089 29.61720 145.57970 145.73674 2.40152
8090 29.62080 145.53677 144.77590 2.42115
8091 29.62440 145.49443 144.69285 2.42788
8092 29.62800 145.45271 145.52642 2.40578
8093 29.63160 145.41163 145.31142 2.40578
8094 29.63520 145.37119 144.66027 2.41523
8095 29.63880 145.33139 145.56716 2.40132
8096 29.64240 145.29218 145.52594 2.40513
8097 29.64600 145.25352 145.37721 2.41320
8098 29.64960 145.21536 145.21152 2.40944
8099 29.65320 145.17763 144.87885 2.41804
8100 29.65680 145.14026 144.00442 2.42854
8101 29.66040 145.10314 144.47761 2.42441
8102 29.66400 145.06621 145.15156 2.41110
8103 29.66760 145.02938 145.39797 2.41028
8104 29.67120 144.99256 145.52674 2.40706
8105 29.67480 144.95569 144.69838 2.42156
8106 29.67840 144.91869 143.86038 2.43825
8107 29.68200 144.88153 146.10934 2.39985
8108 29.68560 144.84416 145.76175 2.39749
8109 29.68920 144.80659 145.55683 2.39987
8110 29.69280 144.76881 145.29392 2.41083
8111 29.69640 144.73085 144.73979 2.41396
8112 29.70000 144.69277 144.29329 2.42249
8113 29.70360 144.65461 144.85029 2.42066
8114 29.70720 144.61643 144.59623 2.42218
8115 29.71080 144.57850 145.23980 2.41050
8116 29.71440 144.54086 144.84954 2.42089
8117 29.71800 144.50364 144.78837 2.41913
8118 29.72160 144.46700 144.23330 2.42834
8119 29.72520 144.43111 145.13900 2.40870
8120 29.72880 144.39614 145.51752 2.41070
8121 29.73240 144.36227 144.83289 2.42048
8122 29.73600 144.32967 144.88516 2.41363
8123 29.73960 144.29854 144.67735 2.41647
8124 29.74320 144.26905 145.02296 2.40929
8125 29.74680 144.24139 145.28228 2.40817
8126 29.75040 144.21573 144.66499 2.42188
8127 29.75400 144.19224 144.57315 2.42992
8128 29.75760 144.17110 144.57067 2.42685
8129 29.76120 144.15246 144.74486 2.41162
8130 29.76480 144.13650 144.85800 2.39820
8131 29.76840 144.12336 144.22532 2.42803
8132 29.77200 144.11317 145.78897 2.39483
8133 29.77560 144.10569 145.25421 2.40923
8134 29.77920 144.10179 144.45092 2.42114
8135 29.78280 144.10133 146.10154 2.39708
8136 29.78640 144.10437 144.43453 2.41935
8137 29.79000 144.11101 143.91927 2.43211
8138 29.79360 144.12137 144.97654 2.40941
8139 29.79720 144.13541 144.55326 2.42020
8140 29.80080 144.15343 145.14387 2.40655
8141 29.80440 144.17555 145.37746 2.40829
8142 29.80800 144.20177 144.45139 2.42812
8143 29.81160 144.23219 145.15783 2.41932
8144 29.81520 144.26690 144.86223 2.42619
8145 29.81880 144.30598 145.16502 2.43493
8146 29.82240 144.34951 145.63570 2.42994
8147 29.82600 144.39758 145.16418 2.44904
8148 29.82960 144.45028 145.44930 2.25933
8149 29.83320 144.50765 144.58994 2.19304
8150 29.83680 144.56975 145.37867 2.18905
8151 29.84040 144.63683 145.32580 2.18709
8152 29.84400 144.70886 146.52042 2.16937
8153 29.84760 144.78584 145.76712 2.17693
8154 29.85120 144.86804 146.39359 2.16808
8155 29.85480 144.95541 146.75544 2.16230
8156 29.85840 145.04801 146.35640 2.16960
8157 29.86200 145.14589 145.73984 2.17842
8158 29.86560 145.24906 146.39884 2.16976
8159 29.86920 145.35753 146.30873 2.16954
8160 29.87280 145.47131 145.34635 2.18840
8161 29.87640 145.59035 147.05946 2.16490
8162 29.88000 145.71459 147.50908 2.16554
8163 29.88360 145.84394 147.80078 2.16220
8164 29.88720 145.97829 148.01990 2.16112
8165 29.89080 146.11749 148.01580 2.17275
8166 29.89440 146.26136 147.56253 2.20288
8167 29.89800 146.40966 147.37503 2.10151
8168 29.90160 146.56214 147.63520 1.77899
8169 29.90520 146.71850 148.12386 1.77254
8170 29.90880 146.87840 147.72218 1.77577
8171 29.91240 147.04145 148.31777 1.76843
8172 29.91600 147.20722 148.57840 1.76957
8173 29.91960 147.37525 147.80018 1.78284
8174 29.92320 147.54501 147.20627 1.78817
8175 29.92680 147.71596 148.56262 1.77587
8176 29.93040 147.88750 148.85586 1.76484
8177 29.93400 148.05902 149.36943 1.75319
8178 29.93760 148.22984 149.88231 1.74732
8179 29.94120 148.39929 149.70704 1.75670
8180 29.94480 148.56667 149.69479 1.75255
8181 29.94840 148.73126 148.57882 1.76618
8182 29.95200 148.89234 150.22376 1.74487
8183 29.95560 149.04916 150.82373 1.74258
8184 29.95920 149.20101 149.34925 1.75894
8185 29.96280 149.34715 149.61067 1.76156
8186 29.96640 149.48689 150.05118 1.75226
8187 29.97000 149.61951 150.19195 1.75458
8188 29.97360 149.74434 149.58212 1.75540
8189 29.97720 149.86073 149.31071 1.76312
8190 29.98080 149.96803 149.54348 1.76239
8191 29.98440 150.06565 150.17248 1.74834
8192 29.98800 150.15300 150.38373 1.74213
8193 29.99160 150.22953 149.80010 1.75133
8194 29.99520 150.29474 149.61422 1.75591
8195 29.99880 150.34815 150.34540 1.74962
