#------------------------------------------------------------------------------
#$Date: 2017-11-09 08:07:44 +0200 (Thu, 09 Nov 2017) $
#$Revision: 202998 $
#$URL: file:///home/coder/svn-repositories/cod/cif/7/22/95/7229535.cif $
#------------------------------------------------------------------------------
#
# This file is available in the Crystallography Open Database (COD),
# http://www.crystallography.net/
#
# All data on this site have been placed in the public domain by the
# contributors.
#
data_7229535
loop_
_publ_author_name
'Wang, Wenmin'
'Sun, Xiaoyang'
'Qu, Jian'
'Xie, Xiaoyu'
'Qi, Zheng-Hang'
'Hong, Daocheng'
'Jing, Su'
'Zheng, Dong'
'Tian, Yuxi'
'Ma, Haibo'
'Yu, Shouyun'
'Ma, Jing'
_publ_section_title
;
 Aggregation-Induced Visible Light Absorption Makes Reactant
 1,2-Diisocyanoarenes Acting as Photosensitizer in Double Radical
 Isocyanide Insertions
;
_journal_name_full               'Physical Chemistry Chemical Physics'
_journal_paper_doi               10.1039/C7CP05936A
_journal_year                    2017
_chemical_formula_sum            'C10 H8 N2'
_chemical_formula_weight         156.18
_space_group_crystal_system      monoclinic
_space_group_IT_number           15
_space_group_name_Hall           '-C 2yc'
_space_group_name_H-M_alt        'C 1 2/c 1'
_symmetry_space_group_name_Hall  '-C 2yc'
_symmetry_space_group_name_H-M   'C 1 2/c 1'
_atom_sites_solution_hydrogens   geom
_audit_creation_method           SHELXL-2016/6
_audit_update_record
;
2017-05-03 deposited with the CCDC.
2017-11-08 downloaded from the CCDC.
;
_cell_angle_alpha                90
_cell_angle_beta                 119.209(9)
_cell_angle_gamma                90
_cell_formula_units_Z            4
_cell_length_a                   13.842(7)
_cell_length_b                   9.396(4)
_cell_length_c                   7.518(3)
_cell_measurement_reflns_used    952
_cell_measurement_temperature    296(2)
_cell_measurement_theta_max      27.31
_cell_measurement_theta_min      2.75
_cell_volume                     853.5(7)
_computing_cell_refinement       'Bruker SAINT'
_computing_data_collection       'Bruker APEX2'
_computing_data_reduction        'Bruker SAINT'
_computing_molecular_graphics    'Bruker SHELXTL'
_computing_publication_material  'Bruker SHELXTL'
_computing_structure_refinement  'SHELXL-2014 (Sheldrick 2014)'
_computing_structure_solution    'SHELXS-97 (Sheldrick 2008)'
_diffrn_ambient_temperature      296(2)
_diffrn_measured_fraction_theta_full 0.993
_diffrn_measured_fraction_theta_max 0.993
_diffrn_measurement_device_type  'Bruker APEX-II CCD'
_diffrn_measurement_method       '\f and \w scans'
_diffrn_radiation_type           MoK\a
_diffrn_radiation_wavelength     0.71073
_diffrn_reflns_av_R_equivalents  0.0390
_diffrn_reflns_av_unetI/netI     0.0358
_diffrn_reflns_Laue_measured_fraction_full 0.993
_diffrn_reflns_Laue_measured_fraction_max 0.993
_diffrn_reflns_limit_h_max       16
_diffrn_reflns_limit_h_min       -14
_diffrn_reflns_limit_k_max       11
_diffrn_reflns_limit_k_min       -10
_diffrn_reflns_limit_l_max       8
_diffrn_reflns_limit_l_min       -8
_diffrn_reflns_number            2355
_diffrn_reflns_point_group_measured_fraction_full 0.993
_diffrn_reflns_point_group_measured_fraction_max 0.993
_diffrn_reflns_theta_full        24.986
_diffrn_reflns_theta_max         24.986
_diffrn_reflns_theta_min         2.746
_exptl_absorpt_coefficient_mu    0.075
_exptl_crystal_colour            orange
_exptl_crystal_density_diffrn    1.215
_exptl_crystal_description       plate
_exptl_crystal_F_000             328
_exptl_crystal_size_max          0.270
_exptl_crystal_size_mid          0.250
_exptl_crystal_size_min          0.220
_refine_diff_density_max         0.218
_refine_diff_density_min         -0.203
_refine_diff_density_rms         0.044
_refine_ls_extinction_method     none
_refine_ls_goodness_of_fit_ref   0.968
_refine_ls_hydrogen_treatment    constr
_refine_ls_matrix_type           full
_refine_ls_number_parameters     56
_refine_ls_number_reflns         748
_refine_ls_number_restraints     0
_refine_ls_restrained_S_all      0.968
_refine_ls_R_factor_all          0.0743
_refine_ls_R_factor_gt           0.0543
_refine_ls_shift/su_max          0.000
_refine_ls_shift/su_mean         0.000
_refine_ls_structure_factor_coef Fsqd
_refine_ls_weighting_details
'w=1/[\s^2^(Fo^2^)+(0.1051P)^2^+0.6522P] where P=(Fo^2^+2Fc^2^)/3'
_refine_ls_weighting_scheme      calc
_refine_ls_wR_factor_gt          0.1514
_refine_ls_wR_factor_ref         0.1645
_reflns_Friedel_coverage         0.000
_reflns_number_gt                572
_reflns_number_total             748
_reflns_threshold_expression     'I > 2\s(I)'
_cod_data_source_file            c7cp05936a2.cif
_cod_data_source_block           20160121MJ1_0m_a
_cod_database_code               7229535
_shelx_shelxl_version_number     2016/6
_shelx_space_group_comment
;
The symmetry employed for this shelxl refinement is uniquely defined
by the following loop, which should always be used as a source of
symmetry information in preference to the above space-group names.
They are only intended as comments.
;
_shelx_estimated_absorpt_t_min   0.980
_shelx_estimated_absorpt_t_max   0.984
_shelx_res_file
;
TITL 20160121MJ1_0m_a.res in C2/c
    20160121MJ1_0m_a.res
    created by SHELXL-2016/6 at 14:56:27 on 22-Feb-2017
CELL  0.71073  13.8422   9.3964   7.5183   90.000  119.209   90.000
ZERR   4.000   0.0065   0.0042   0.0033    0.000    0.009    0.000
LATT 7
SYMM -X, Y, 1/2-Z
SFAC C  H  N
UNIT 40 32 8
L.S. 10
OMIT -3 50.02
ACTA
SIZE .27 .25 .22
BOND $H
FMAP 2
PLAN 20
LIST 6
TEMP 23.000
WGHT    0.105100    0.652200
FVAR       0.91264
C1    1    0.390271    0.805685    0.733946    11.00000    0.03249    0.03648 =
         0.04212   -0.00131    0.01971    0.00442
AFIX 137
H1A   2    0.318960    0.786321    0.720727    11.00000   -1.50000
H1B   2    0.381308    0.860759    0.619314    11.00000   -1.50000
H1C   2    0.434295    0.858085    0.857227    11.00000   -1.50000
AFIX   0
C2    1    0.447239    0.667218    0.741127    11.00000    0.02799    0.03338 =
         0.02197    0.00084    0.01294    0.00144
C3    1    0.395470    0.538464    0.730647    11.00000    0.01835    0.04008 =
         0.02569    0.00055    0.01100    0.00314
AFIX  43
H3    2    0.325066    0.538113    0.717392    11.00000   -1.20000
AFIX   0
C4    1    0.447216    0.411048    0.739661    11.00000    0.02459    0.02859 =
         0.02188    0.00024    0.01145   -0.00400
C5    1    0.352683    0.173198    0.720220    11.00000    0.03323    0.03575 =
         0.04782    0.00033    0.02110   -0.00128
N1    3    0.395164    0.281280    0.729539    11.00000    0.02347    0.03047 =
         0.03231   -0.00022    0.01380    0.00038
HKLF 4




REM  20160121MJ1_0m_a.res in C2/c
REM R1 =  0.0543 for     572 Fo > 4sig(Fo)  and  0.0743 for all     748 data
REM     56 parameters refined using      0 restraints

END

WGHT      0.0726      0.7024

REM Highest difference peak  0.218,  deepest hole -0.203,  1-sigma level  0.044
Q1    1   0.3931  0.9549  0.7291  11.00000  0.05    0.22
Q2    1   0.4767  0.6722  0.6613  11.00000  0.05    0.22
Q3    1   0.3538  0.0615  0.7162  11.00000  0.05    0.19
Q4    1   0.5163  0.4075  0.8313  11.00000  0.05    0.18
Q5    1   0.3927  0.7009  0.7204  11.00000  0.05    0.18
Q6    1   0.2921  0.1576  0.7448  11.00000  0.05    0.16
Q7    1   0.4477  0.8602  0.7446  11.00000  0.05    0.16
Q8    1   0.3878  0.2185  0.6209  11.00000  0.05    0.14
Q9    1   0.3774  0.8253  0.9049  11.00000  0.05    0.14
Q10   1   0.3232  0.8181  0.6246  11.00000  0.05    0.13
Q11   1   0.4122  0.4819  0.6468  11.00000  0.05    0.13
Q12   1   0.4386  0.6109  0.8281  11.00000  0.05    0.13
Q13   1   0.2822  0.1373  0.5801  11.00000  0.05    0.12
Q14   1   0.4280  0.4670  0.8014  11.00000  0.05    0.12
Q15   1   0.4081  0.7397  0.6598  11.00000  0.05    0.12
Q16   1   0.4032  0.6207  0.6237  11.00000  0.05    0.11
Q17   1   0.4578  0.3512  0.9047  11.00000  0.05    0.11
Q18   1   0.3603  0.2716  0.7782  11.00000  0.05    0.11
Q19   1   0.2796  0.5872  0.7558  11.00000  0.05    0.11
Q20   1   0.5000  0.1332  0.7500  10.50000  0.05    0.10
;
_shelx_res_checksum              33717
_shelx_hkl_file
;
  -2   0   0 6183.28  101.49
  -4   0   0 9999.00  163.68
   4   0   0 9925.81  163.58
   6   0   0 2011.40   36.90
   8   0   0   26.80    4.80
  10   0   0    8.90    5.40
  12   0   0  227.38   12.80
  14   0   0  289.07   16.90
  14   0   0  241.68   16.80
  15  -1   0   55.39   15.20
  15  -1   0   14.80   13.70
  13  -1   0   86.79   12.50
  11  -1   0    0.20    6.30
   9  -1   0   24.90    5.70
   7  -1   0  603.64   15.60
   5  -1   0  375.66   10.40
   3  -1   0  687.83   14.40
  -3   1   0  712.53   14.60
   1  -1   0 4161.48   68.99
  -1   1   0 4215.48   69.09
  -3  -1   0  648.54   12.10
   3   1   0  637.94   12.50
   3   1   0  624.74   11.80
  -5  -1   0  344.97    9.30
   5   1   0  372.16    9.20
   5   1   0  362.96    8.70
   7   1   0  579.74   14.30
   7   1   0  593.34   13.80
   9   1   0    9.70    4.40
   9   1   0   19.90    4.60
  11   1   0   -3.80    5.50
  11   1   0    0.30    5.00
  13   1   0  105.69   11.80
  13   1   0   86.09   11.50
  15   1   0    2.70   12.20
  15   1   0    1.80   11.70
  14  -2   0   -0.50   10.50
  12  -2   0   17.20    8.10
  10  -2   0   14.60    6.50
   8  -2   0  113.89    8.20
   6  -2   0   20.80    4.50
   4  -2   0 1252.17   22.50
   4  -2   0 1272.07   25.10
   2  -2   0   18.50    1.40
   2  -2   0   14.50    2.20
   2  -2   0   16.80    2.70
  -2   2   0   23.40    3.20
  -2   2   0   16.50    1.40
  -2   2   0   17.70    2.30
  -2  -2   0   19.00    2.20
   2   2   0   23.00    2.20
   4   2   0 1173.58   22.10
   6   2   0   20.90    3.50
   8   2   0  110.89    6.60
   8   2   0  111.49    5.80
  10   2   0   -2.90    4.60
  10   2   0    6.90    5.20
  12   2   0   14.70    6.80
  12   2   0    1.40    6.70
  14   2   0    0.80    9.10
  15  -3   0   35.40   15.10
  13  -3   0   -3.90    9.30
  11  -3   0   38.90    8.80
   9  -3   0  179.48   10.50
   7  -3   0  498.35   15.10
   5  -3   0  204.78    8.50
   3  -3   0 2881.51   47.20
   3  -3   0 2882.31   50.19
  -3   3   0 2740.23   49.10
  -3   3   0 2826.32   47.40
   1  -3   0  231.38    6.00
   1  -3   0  233.78    6.60
  -1   3   0  227.28    6.00
  -1   3   0  243.78    5.00
  -1  -3   0  250.37    6.50
   1   3   0  254.67    6.40
   3   3   0 2859.71   49.50
   5   3   0  203.18    7.10
   7   3   0  479.45   13.00
   9   3   0  185.18    9.30
  11   3   0   28.90    7.10
  11   3   0   33.20    6.30
  13   3   0    7.90    8.70
  13   3   0   -5.80    7.80
  15   3   0   27.00   13.60
  15   3   0   10.20   12.10
  14  -4   0  103.49   15.00
  12  -4   0   19.50    9.00
  10  -4   0  527.15   18.00
   8  -4   0  309.67   12.90
   6  -4   0   84.89    7.30
   4  -4   0  638.34   15.80
  -4   4   0  616.84   14.80
   2  -4   0  167.08    6.80
  -2   4   0  181.18    4.50
  -2   4   0  183.08    6.20
   0   4   0    3.90    1.70
   0   4   0    7.40    2.00
   2   4   0  181.38    6.00
   4   4   0  627.44   14.40
   6   4   0   80.29    6.40
   8   4   0  285.87   10.80
  10   4   0  550.74   16.80
  12   4   0   22.70    8.50
  14   4   0  115.69   15.90
  13  -5   0   17.30   11.30
  11  -5   0   70.39   11.30
   9  -5   0  101.59   10.50
   7  -5   0   28.70    6.80
   5  -5   0   47.20    6.40
  -5   5   0   51.59    6.20
   3  -5   0   23.00    4.70
  -3   5   0   19.10    2.50
  -3   5   0   24.70    4.10
   1  -5   0   33.60    5.30
  -1   5   0   43.20    2.90
  -1   5   0   37.00    3.50
   1   5   0   40.10    3.70
   3   5   0   22.80    3.90
   5   5   0   41.10    5.40
   7   5   0   23.30    5.10
   9   5   0   96.79    9.10
  11   5   0   78.69   10.30
  13   5   0    1.70   10.70
  12  -6   0   16.10   11.00
  10  -6   0   20.40    8.40
   8  -6   0   24.10    7.40
   6  -6   0   46.70    7.40
  -6   6   0   45.00    7.20
   4  -6   0  100.49    7.70
  -4   6   0   93.69    6.90
   2  -6   0   13.00    4.20
  -2   6   0    8.70    3.60
   0   6   0  283.47    7.60
   0   6   0  279.07    8.90
   2   6   0   13.20    3.70
   4   6   0  107.39    6.10
   6   6   0   49.10    6.80
   8   6   0   26.30    6.50
  10   6   0   38.20    8.20
  12   6   0    3.60    9.10
  11  -7   0   14.80   10.10
   9  -7   0   15.10    8.60
   7  -7   0    2.00    6.40
  -7   7   0   10.10    7.00
   5  -7   0   57.19    8.60
  -5   7   0   54.49    8.00
   3  -7   0   12.70    5.30
  -3   7   0    8.70    4.60
  -1   7   0  110.49    6.60
   1   7   0  126.69    6.30
   1   7   0  141.99    7.10
   3   7   0    7.10    4.30
   5   7   0   57.99    6.50
   7   7   0    7.80    5.10
   9   7   0   -7.10    6.60
  11   7   0   -5.90    8.70
  10  -8   0   12.30   11.30
   8  -8   0   14.20    9.40
   6  -8   0    6.40    7.10
  -6   8   0    0.50    7.30
   4  -8   0  119.49   10.50
  -4   8   0  124.29    9.50
   2  -8   0   29.30    6.90
  -2   8   0   25.30    6.40
   0   8   0  535.05   12.80
   0   8   0  524.45   15.20
   2   8   0   32.10    6.40
   4   8   0  130.99    8.60
   6   8   0   11.50    6.10
   8   8   0    9.40    6.50
  10   8   0   -0.10    7.90
   9  -9   0   35.20   12.50
   7  -9   0   47.80   10.90
  -7   9   0   55.29   11.70
   5  -9   0    5.90    7.90
  -5   9   0   24.90    8.70
   3  -9   0   66.89   10.40
  -3   9   0   78.79   10.50
  -1   9   0   12.20    5.80
   1   9   0   23.50    7.10
   1   9   0    8.50    5.20
   3   9   0   70.69    8.20
   5   9   0   17.30    6.60
   7   9   0   46.50    9.30
   9   9   0   37.70   10.50
   8 -10   0    2.00   13.20
  -8  10   0   25.70   14.00
   6 -10   0    0.40   11.00
  -6  10   0  -14.20   10.40
   4 -10   0    1.30    8.60
  -4  10   0    5.90    9.50
  -2  10   0   13.20    8.40
   0  10   0   20.50    6.80
   0  10   0   29.90    5.50
   2  10   0   16.90    6.40
   2  10   0   -1.80    6.40
   4  10   0   12.80    7.40
   6  10   0    7.80    8.40
   8  10   0   12.40   10.90
   5 -11   0  108.09   16.40
  -5  11   0  116.49   16.50
  -3  11   0  167.88   17.20
  -1  11   0   17.70    9.30
   1  11   0   11.50    9.30
   1  11   0   16.00    6.40
   3  11   0  175.48   11.70
   3  11   0  202.88   15.10
   5  11   0  106.49   15.80
  -2  12   0   37.10   15.20
   0  12   0    9.80   12.90
   2  12   0   37.60   13.20
   2  12  -1   12.10    7.30
   2  12  -1   12.90   11.50
   0  12  -1   -1.30   13.70
   0  12  -1   14.20    7.70
   7  11  -1   38.80   12.10
   5  11  -1   26.50   11.20
   5  11  -1   20.70    9.10
   3  11  -1   58.89   12.50
   3  11  -1   63.89    9.50
   1  11  -1   -7.20    6.10
   1  11  -1    1.80   10.20
  -1  11  -1    4.90   11.20
  -1  11  -1   -4.10    5.80
  -3  11  -1   77.99   14.90
  -3  11  -1   41.10    7.20
  -5  11  -1   -5.10   14.90
   5 -11   1    5.50   11.20
   8  10  -1    7.60    9.30
   6  10  -1    3.70    8.60
   4  10  -1   16.40    7.00
   4  10  -1   37.20    8.30
   2  10  -1    6.20    5.50
   2  10  -1    4.60    7.10
   0  10  -1   69.39    9.60
   0  10  -1   59.89    7.60
  -2  10  -1    7.70    9.20
  -2  10  -1  -10.90    4.60
  -4  10  -1    5.90    6.00
  -4  10  -1   25.70   10.70
   4 -10   1   21.20    8.90
  -6  10  -1   24.90   14.90
   6 -10   1   -0.80   11.10
  11   9  -1   29.90   12.20
   9   9  -1   52.39   10.30
   7   9  -1   13.90    6.80
   5   9  -1    9.70    6.00
   3   9  -1   10.30    5.50
   3   9  -1   10.60    6.20
   1   9  -1   82.99    8.60
   1   9  -1   78.49    6.80
  -1   9  -1   75.99    9.30
  -1   9  -1   60.99    6.00
  -3   9  -1    0.20    6.90
  -3   9  -1   -0.70    4.00
   3  -9   1    6.00    6.90
  -5   9  -1    5.10    9.00
   5  -9   1    0.70    8.70
  -7   9  -1   22.50   13.20
   7  -9   1    6.90   10.20
   9  -9   1   39.60   13.20
  12   8  -1   71.99   13.50
  10   8  -1   -5.50    7.60
   8   8  -1    1.60    6.40
   6   8  -1  164.18   10.10
   4   8  -1  230.98   10.10
   2   8  -1  321.97   11.00
   2   8  -1  323.17   11.60
   0   8  -1 1557.44   32.70
   0   8  -1 1641.24   30.20
  -2   8  -1  108.09    6.40
  -2   8  -1   89.39    8.70
   2  -8   1  104.19    8.90
  -4   8  -1  267.87    9.50
  -4   8  -1  252.27   12.70
   4  -8   1  258.97   12.40
  -6   8  -1   85.69   12.70
   6  -8   1   88.69   11.60
   8  -8   1    2.30    9.50
  10  -8   1   -6.40   11.00
  13   7  -1  136.79   17.00
  11   7  -1   27.10    8.90
   9   7  -1   15.50    7.00
   7   7  -1  212.18   10.10
   5   7  -1  210.18    9.30
   3   7  -1   97.09    6.60
   1   7  -1  749.82   16.60
   1   7  -1  742.23   17.60
  -1   7  -1  635.54   14.00
  -1   7  -1  622.84   16.00
  -3   7  -1   33.10    4.50
  -3   7  -1   33.70    6.40
   3  -7   1   38.70    6.80
  -5   7  -1  248.48   12.40
   5  -7   1  241.88   11.60
   7  -7   1  124.59   11.50
   9  -7   1   40.80   11.00
  11  -7   1   -2.40   12.20
  14   6  -1   -6.70   12.70
  12   6  -1    9.50    9.10
  10   6  -1   61.69    8.40
   8   6  -1   31.10    5.70
   6   6  -1   41.20    5.80
   4   6  -1   69.99    5.60
   2   6  -1   -1.00    2.60
   2   6  -1   -2.40    2.90
   0   6  -1   42.70    5.20
   0   6  -1   30.90    3.70
  -2   6  -1    0.50    3.30
  -2   6  -1    0.10    2.40
   2  -6   1    3.80    4.10
  -4   6  -1   75.69    5.30
  -4   6  -1   71.39    7.40
   4  -6   1   66.29    7.50
   6  -6   1   21.20    5.90
   8  -6   1   46.00    8.40
  10  -6   1   43.70   10.40
  12  -6   1   -6.20   11.00
  15   5  -1    3.50   15.50
  13   5  -1   21.30    9.90
  11   5  -1   19.90    8.00
   9   5  -1   65.09    8.40
   7   5  -1  259.37    9.50
   5   5  -1    3.60    3.40
   3   5  -1  543.05   12.80
   1   5  -1  135.19    5.40
   1   5  -1  131.79    5.20
  -1   5  -1  195.88    5.80
  -1   5  -1  188.38    6.80
   1  -5   1  190.98    7.00
  -3   5  -1  371.46    9.00
  -3   5  -1  355.26   10.80
   3  -5   1  362.66   11.20
  -5   5  -1   10.50    5.20
   5  -5   1   16.60    5.30
   7  -5   1  175.08   10.40
   9  -5   1   71.79   10.80
  11  -5   1   27.50   10.40
  13  -5   1    9.50   12.80
  14   4  -1  271.07   16.70
  12   4  -1   51.69    8.20
  10   4  -1 1715.53   35.70
   8   4  -1  525.15   14.40
   6   4  -1  691.93   16.30
   4   4  -1 1576.44   29.60
   2   4  -1  126.79    4.80
   0   4  -1   63.79    3.60
   0   4  -1   63.19    3.30
  -2   4  -1  195.88    5.60
  -2   4  -1  188.88    6.60
   2  -4   1  196.78    7.10
  -4   4  -1 1014.60   21.50
   4  -4   1 1012.40   22.10
   6  -4   1  205.68    9.30
   8  -4   1  675.03   19.30
  10  -4   1 1006.50   26.60
  12  -4   1   -1.20    9.50
  15   3  -1  111.19   14.90
  13   3  -1    4.40    6.70
  11   3  -1  251.57   11.70
   9   3  -1  474.55   13.90
   7   3  -1    9.10    3.20
   5   3  -1  870.51   17.90
   3   3  -1  592.94   12.30
  -3  -3   1  577.84   12.40
   1   3  -1   56.79    2.60
   1   3  -1   55.09    2.90
  -1  -3   1   60.59    2.90
  -1   3  -1    1.90    1.50
  -1   3  -1    4.20    2.00
  -1   3  -1    3.60    2.70
   1  -3   1    1.90    1.90
   1  -3   1    2.10    1.90
   1  -3   1    1.80    1.90
  -3   3  -1  577.34   12.00
  -3   3  -1  565.04   13.10
   3  -3   1  589.84   13.60
   5  -3   1  294.37   10.10
   7  -3   1   76.69    7.20
   9  -3   1  325.67   13.50
  11  -3   1  101.59   11.60
  13  -3   1   30.40   12.00
  16   2  -1    0.40   11.70
  16   2  -1   -1.40   11.60
  14   2  -1   66.69    9.70
  14   2  -1   60.49   10.40
  12   2  -1   -2.10    5.70
  12   2  -1   11.10    6.50
  10   2  -1  141.19    8.10
  10   2  -1  141.79    7.70
   8   2  -1    3.80    3.10
   6   2  -1  500.25   12.00
   4   2  -1    2.80    1.80
  -4  -2   1    0.30    2.00
   2   2  -1  214.48    5.20
  -2  -2   1  219.58    5.30
   0   2  -1   13.90    1.90
   0   2  -1   11.90    1.50
   0   2  -1   11.00    1.50
   0  -2   1   17.30    1.90
   0  -2   1   10.30    1.60
   0  -2   1   11.20    1.50
  -2   2  -1  188.68    6.30
  -2   2  -1  181.28    4.90
  -2   2  -1  184.28    5.50
   2  -2   1  187.78    5.30
   2  -2   1  180.28    4.80
   2  -2   1  193.68    5.80
   4  -2   1    3.00    2.80
   6  -2   1  187.98    8.20
   8  -2   1    4.50    5.40
  10  -2   1   59.69    8.70
  12  -2   1   13.40    9.20
  14  -2   1   41.90   14.40
  15   1  -1    6.40    9.60
  15   1  -1   -7.70    8.30
  13   1  -1   36.90    7.90
  13   1  -1   40.00    8.40
  11   1  -1    0.10    5.40
  11   1  -1   -9.30    5.20
   9   1  -1    7.10    4.00
   7   1  -1  303.17    9.20
   5   1  -1   33.10    3.10
   3   1  -1  484.45    9.60
   1   1  -1    5.40    0.80
   1   1  -1    5.80    1.10
  -1  -1   1    6.70    0.90
  -1  -1   1    5.00    1.20
  -1   1  -1   12.10    1.80
  -1   1  -1   11.70    1.70
   1  -1   1   15.30    1.90
   1  -1   1   11.70    1.80
   1  -1   1   11.30    1.50
  -3   1  -1  462.05   11.10
   3  -1   1  497.05   10.90
   3  -1   1  478.25   10.20
   5  -1   1   11.60    3.60
   7  -1   1  124.69    7.40
   9  -1   1   -1.00    5.30
  11  -1   1   -4.20    7.40
  13  -1   1   33.50   12.40
  13  -1   1   38.20   11.20
  16   0  -1    8.00   12.20
  16   0  -1   20.50   12.90
  14   0  -1    6.60    8.60
  12   0  -1    6.40    7.00
  10   0  -1   -2.40    5.30
   8   0  -1   -1.70    3.40
   6   0  -1    0.10    2.60
   4   0  -1   -1.00    1.90
   4   0  -1    1.30    1.90
   2   0  -1  -11.60    1.00
  -2   0   1  -10.80    1.10
   0   0  -1    0.20    0.60
   0   0  -1    0.10    0.70
   0   0   1   -0.20    0.80
   0   0   1    0.00    0.50
  -2   0  -1   -5.70    1.30
   2   0   1   -2.50    1.30
   4   0   1    1.80    2.20
   6   0   1    2.40    3.00
   8   0   1    1.10    4.50
  10   0   1    6.00    5.90
  10   0   1   10.50    6.70
  12   0   1    4.30    8.00
  12   0   1    8.10    8.30
  14   0   1   21.10   12.80
  14   0   1   18.10   13.10
  15  -1  -1  -10.70   10.50
  13  -1  -1   62.29   10.40
  11  -1  -1    2.80    6.30
   9  -1  -1    7.70    4.80
   7  -1  -1  275.87    9.70
   5  -1  -1   33.00    3.70
   3  -1  -1  494.25   10.20
   3  -1  -1  493.45   10.70
  -3   1   1  480.95   10.70
   1  -1  -1    4.80    0.90
   1  -1  -1    5.60    1.40
  -1   1   1    4.00    0.90
  -1   1   1    5.70    1.40
  -1  -1  -1   12.20    1.60
  -1  -1  -1   16.00    1.80
   1   1   1   11.60    1.70
   1   1   1   10.80    1.60
  -3  -1  -1  469.95   10.20
   3   1   1  480.15   10.00
   3   1   1  489.25   10.40
   5   1   1   10.30    2.70
   5   1   1   10.10    2.90
   7   1   1  125.99    6.50
   7   1   1  128.29    6.90
   9   1   1    0.70    5.10
   9   1   1   -2.30    4.30
  11   1   1    1.50    7.50
  11   1   1   13.20    7.60
  13   1   1   15.80   10.60
  13   1   1   18.90   11.00
  16  -2  -1    1.40   14.00
  14  -2  -1   65.59   12.30
  12  -2  -1   -1.50    7.50
  10  -2  -1  164.28   10.70
   8  -2  -1    8.60    4.60
   6  -2  -1  510.05   13.90
   4  -2  -1    1.10    2.80
   4  -2  -1    0.10    2.50
   4  -2  -1    3.60    2.60
  -4   2   1    1.70    2.20
   2  -2  -1  212.48    6.30
   2  -2  -1  234.28    5.60
  -2   2   1  218.88    5.70
  -2   2   1  208.78    6.40
   0  -2  -1   14.80    1.90
   0  -2  -1   12.70    1.60
   0   2   1   13.70    2.10
   0   2   1    9.80    1.50
  -2  -2  -1  196.48    5.60
  -2  -2  -1  199.08    5.00
   2   2   1  196.08    5.60
  -4  -2  -1    0.50    2.60
   4   2   1   -2.00    2.10
   4   2   1    1.70    1.90
   6   2   1  170.38    6.10
   6   2   1  171.48    7.10
   8   2   1    0.10    4.20
   8   2   1    4.10    3.60
  10   2   1   67.99    7.80
  10   2   1   53.09    8.20
  12   2   1   14.50    8.40
  12   2   1   14.10    9.50
  14   2   1   60.09   16.10
  14   2   1   25.50   12.60
  15  -3  -1   89.49   14.20
  13  -3  -1    0.40    8.60
  11  -3  -1  269.97   13.60
   9  -3  -1  509.55   16.30
   7  -3  -1   12.20    4.30
   5  -3  -1  874.51   19.70
  -5   3   1  862.71   18.70
   3  -3  -1  556.64   13.40
  -3   3   1  574.34   12.50
   1  -3  -1   62.99    3.60
   1  -3  -1   63.19    3.10
  -1   3   1   60.29    3.80
  -1   3   1   60.79    3.00
  -1  -3  -1    2.30    1.90
   1   3   1    4.50    1.90
   3   3   1  617.94   13.60
   5   3   1  282.07    9.00
   7   3   1   76.69    6.40
   9   3   1  326.67   12.30
   9   3   1  330.07   11.10
  11   3   1  127.59   11.40
  11   3   1  129.89   10.10
  13   3   1   17.20    9.70
  13   3   1    3.90   10.70
  14  -4  -1  296.57   18.60
  12  -4  -1   70.19   10.60
  10  -4  -1 1836.12   40.30
   8  -4  -1  495.15   15.70
   6  -4  -1  618.04   16.80
  -6   4   1  617.54   15.60
   4  -4  -1 1531.95   30.30
  -4   4   1 1493.55   29.00
   2  -4  -1  109.79    5.80
  -2   4   1  118.19    6.10
  -2   4   1  118.39    5.00
   0  -4  -1   68.69    4.30
   0   4   1   70.59    3.90
   2   4   1  199.38    6.60
   4   4   1 1036.40   21.60
   6   4   1  173.98    7.80
   8   4   1  675.13   18.30
  10   4   1  948.81   24.30
  12   4   1   -8.60    8.80
  15  -5  -1   38.30   15.00
  13  -5  -1   12.80   10.40
  11  -5  -1   23.60    7.80
   9  -5  -1   70.59    9.10
   7  -5  -1  263.07   11.20
  -7   5   1  265.37   10.60
   5  -5  -1    4.60    4.60
  -5   5   1    5.40    3.60
   3  -5  -1  537.85   14.10
  -3   5   1  513.85   13.20
  -1   5   1  145.39    6.00
  -1   5   1  142.99    7.10
   1   5   1  181.18    6.60
   3   5   1  382.36   10.80
   5   5   1   18.00    4.50
   7   5   1  168.78    9.20
   9   5   1   67.59    9.60
  11   5   1   20.70    9.70
  13   5   1   -5.20   12.30
  14  -6  -1   35.40   14.20
  12  -6  -1   -4.40    8.80
  10  -6  -1   84.99   11.30
   8  -6  -1   29.70    7.00
   6  -6  -1   47.00    7.50
  -6   6   1   46.70    6.60
   4  -6  -1   63.79    6.70
  -4   6   1   59.39    5.90
   2  -6  -1   -2.40    3.70
  -2   6   1    0.60    3.20
   0   6   1   33.00    4.50
   2   6   1    0.10    3.10
   4   6   1   68.29    6.00
   6   6   1   36.00    6.50
   8   6   1   51.89    7.90
  10   6   1   34.90    8.20
  12   6   1   34.50   12.60
  13  -7  -1  120.19   18.60
  11  -7  -1   17.60    9.60
   9  -7  -1   14.70    8.50
   7  -7  -1  216.28   11.80
  -7   7   1  215.48   11.90
   5  -7  -1  177.18   10.50
  -5   7   1  191.08    9.90
   3  -7  -1   87.39    7.50
  -3   7   1   85.29    7.00
  -1   7   1  627.24   15.90
   1   7   1  602.54   15.60
   3   7   1   35.70    5.40
   5   7   1  241.38   10.80
   7   7   1  130.49    9.80
   9   7   1   22.20    8.20
  11   7   1   17.80   12.80
  12  -8  -1   67.09   16.40
  10  -8  -1   11.00   11.10
   8  -8  -1   -4.70    7.90
  -8   8   1    5.90    8.50
   6  -8  -1  132.49   10.90
  -6   8   1  135.69   10.60
   4  -8  -1  195.28   11.50
  -4   8   1  210.88   10.60
   0   8   1 1742.23   35.50
   2   8   1   93.99    7.80
   4   8   1  270.07   11.30
   6   8   1   78.29    9.40
   8   8   1    3.10    8.00
  10   8   1   -5.50   11.20
  11  -9  -1   22.30   13.80
   9  -9  -1   63.09   13.90
   7  -9  -1   20.20    9.70
  -7   9   1    7.60    8.90
   5  -9  -1    6.30    7.80
  -5   9   1   -0.50    6.60
   3  -9  -1   -1.20    7.20
  -3   9   1   17.10    7.40
  -1   9   1   74.79    7.40
   1   9   1   58.89    8.70
   3   9   1    7.00    6.20
   5   9   1   10.60    7.20
   7   9   1    0.90    7.70
   9   9   1   42.90   12.10
   8 -10  -1    2.30   13.00
  -8  10   1  -12.30   13.10
   6 -10  -1   21.70   10.70
  -6  10   1   11.90   10.80
   4 -10  -1   25.60    9.10
  -4  10   1   22.50    9.30
  -2  10   1    0.80    7.00
   0  10   1   67.49    9.90
   2  10   1    2.10    5.60
   2  10   1    7.10    7.70
   4  10   1   13.60    8.90
   6  10   1   12.30    9.60
   7 -11  -1   56.19   15.00
  -7  11   1   46.10   15.20
   5 -11  -1   19.80   12.20
  -5  11   1    9.30   11.50
  -3  11   1   41.80   11.50
  -1  11   1    6.30   10.60
   1  11   1   12.70    8.60
   3  11   1   67.99   12.90
   3  11   1   34.90    8.00
   5  11   1   -3.10   11.90
  -2  12   1   28.40   15.30
   0  12   1  -18.70   10.50
   7  11  -2   29.40   11.10
   7  11  -2   15.50   13.50
   5  11  -2  210.78   17.20
   5  11  -2  212.18   15.00
   3  11  -2  108.89   11.50
   3  11  -2  142.09   15.00
   1  11  -2   48.30   12.80
   1  11  -2   31.80    7.50
  -1  11  -2    0.50   12.50
  -1  11  -2  -10.20    6.40
  -3  11  -2  168.98   12.50
  -3  11  -2  204.78   21.60
  10  10  -2   15.30   13.10
   8  10  -2   16.60   10.00
   6  10  -2   10.50    8.70
   6  10  -2    0.90    8.10
   4  10  -2   19.00    8.20
   4  10  -2   -2.80    7.00
   2  10  -2    5.70    8.00
   2  10  -2   17.10    6.30
   0  10  -2   41.10   10.40
   0  10  -2   22.90    6.00
  -2  10  -2   -2.00    5.50
  -2  10  -2   14.90   10.20
  -4  10  -2    8.00    8.00
  -4  10  -2   -8.20   11.90
   4 -10   2    5.40    9.80
   6 -10   2   -3.30   11.30
  11   9  -2    4.60   11.00
   9   9  -2   22.00    8.90
   7   9  -2   37.60    8.40
   5   9  -2   51.59    8.40
   5   9  -2   48.20    7.60
   3   9  -2   56.59    8.00
   3   9  -2   71.09    9.20
   1   9  -2   22.40    5.20
   1   9  -2   21.10    6.60
  -1   9  -2    1.20    5.00
  -1   9  -2   -0.60    7.00
  -3   9  -2   82.79   11.00
  -3   9  -2   70.79    8.20
   3  -9   2   70.49   10.90
  -5   9  -2   19.20   11.50
   5  -9   2    8.40    9.60
   7  -9   2   65.79   13.30
  12   8  -2   19.20   11.80
  10   8  -2    6.30    7.30
   8   8  -2   13.60    6.10
   6   8  -2   39.30    6.90
   4   8  -2  104.19    8.50
   4   8  -2  117.89    8.20
   2   8  -2   87.69    8.00
   2   8  -2   88.59    7.20
   0   8  -2  425.46   14.20
   0   8  -2  419.16   12.10
  -2   8  -2    1.40    6.00
  -2   8  -2   -3.60    4.30
   2  -8   2   13.40    5.80
  -4   8  -2   92.29   11.90
  -4   8  -2   83.09    7.90
   4  -8   2  101.59   10.30
   6  -8   2    1.20    8.40
   8  -8   2   20.10   11.50
  13   7  -2    5.80   10.70
  11   7  -2    7.90    7.80
   9   7  -2    6.50    5.90
   7   7  -2   19.10    4.80
   5   7  -2   63.09    6.70
   3   7  -2    1.50    3.70
   3   7  -2   -1.70    3.80
   1   7  -2  113.29    6.50
   1   7  -2  110.59    6.80
  -1   7  -2   42.90    5.50
  -1   7  -2   54.59    6.70
   1  -7   2   42.80    6.30
  -3   7  -2   15.30    4.70
  -3   7  -2   12.20    6.20
   3  -7   2    6.30    5.10
  -5   7  -2   25.50    8.00
   5  -7   2   22.70    6.70
   7  -7   2   -0.70    7.60
   9  -7   2    9.60   10.20
  14   6  -2   19.90   12.80
  12   6  -2    8.70    8.10
  10   6  -2    9.80    5.70
   8   6  -2   54.89    7.30
   6   6  -2    8.40    3.70
   4   6  -2  148.29    6.90
   2   6  -2   -0.30    3.10
   2   6  -2    1.90    3.00
   0   6  -2  108.19    6.20
   0   6  -2  114.69    5.60
  -2   6  -2   35.80    4.60
  -2   6  -2   40.10    5.70
   2  -6   2   27.60    4.70
  -4   6  -2   29.70    5.00
  -4   6  -2   33.30    6.90
   4  -6   2   29.60    5.80
   6  -6   2   35.90    7.20
   8  -6   2   11.20    8.20
  10  -6   2    6.90   10.20
  15   5  -2   34.40   13.10
  13   5  -2   -0.50    7.70
  11   5  -2  158.88   11.20
   9   5  -2   80.29    9.30
   7   5  -2   58.69    5.60
   5   5  -2   18.50    3.80
   3   5  -2   15.40    3.10
   3   5  -2   20.30    4.00
   1   5  -2   45.40    4.00
   1   5  -2   51.79    4.20
  -1   5  -2   15.20    3.20
  -1   5  -2   16.50    4.00
   1  -5   2   20.10    3.80
  -3   5  -2    3.30    3.40
  -3   5  -2    1.30    4.20
   3  -5   2    4.60    3.70
   5  -5   2   35.30    6.40
   7  -5   2   11.00    6.60
   9  -5   2   85.19   11.40
  11  -5   2   25.90   10.90
  16   4  -2   52.09   14.10
  14   4  -2  107.59   12.10
  12   4  -2   69.29    8.80
  10   4  -2  703.93   18.50
   8   4  -2  194.78    8.50
   6   4  -2  165.38    7.00
   4   4  -2  586.04   13.10
   2   4  -2   41.90    3.10
   2   4  -2   41.50    3.70
   0   4  -2   31.10    3.30
   0   4  -2   27.80    3.20
   0   4  -2   21.10    3.80
   0  -4   2   26.40    3.40
   0  -4   2   25.90    3.20
  -2   4  -2  125.49    5.50
  -2   4  -2  122.09    5.80
   2  -4   2  129.39    5.90
   4  -4   2  379.36   12.10
   6  -4   2   16.90    5.70
   8  -4   2  267.07   12.70
  10  -4   2  280.67   15.60
  12  -4   2   12.90   11.50
  15   3  -2    2.20    8.80
  13   3  -2   13.50    6.90
  11   3  -2   42.80    6.50
   9   3  -2  371.96   11.70
   7   3  -2  450.95   11.80
   5   3  -2  719.13   15.10
   3   3  -2 1875.81   32.80
  -3  -3   2 1873.61   32.90
   1   3  -2  209.08    5.80
   1   3  -2  217.88    5.40
   1   3  -2  222.18    6.10
  -1  -3   2  224.08    5.50
  -1  -3   2  216.58    5.50
  -1   3  -2   27.50    3.00
  -1   3  -2   30.40    3.10
   1  -3   2   26.90    3.00
   1  -3   2   24.60    3.10
  -3   3  -2  975.30   19.60
   3  -3   2  989.70   20.60
   5  -3   2   -0.20    3.30
   7  -3   2  259.57   11.40
   9  -3   2   80.09   10.00
  11  -3   2   20.70    9.30
  13  -3   2   -6.50   13.30
  16   2  -2   25.90   10.10
  16   2  -2   -9.40    9.60
  14   2  -2    4.00    7.60
  14   2  -2   12.40    7.60
  12   2  -2    9.00    6.20
  12   2  -2   10.60    5.10
  10   2  -2   27.70    5.50
   8   2  -2  158.88    7.10
   6   2  -2  127.69    5.30
   4   2  -2 1051.89   19.40
   2   2  -2  202.28    5.60
   2   2  -2  202.68    4.70
  -2  -2   2  214.78    4.90
   0   2  -2 1466.65   26.40
   0   2  -2 1496.75   26.10
   0  -2   2 1481.95   26.10
   0  -2   2 1452.25   26.10
  -2   2  -2   22.50    2.90
   2  -2   2   27.70    3.20
   2  -2   2   29.70    3.30
   4  -2   2  342.07   10.20
   6  -2   2   -5.20    3.60
   8  -2   2   41.00    7.30
  10  -2   2   -0.40    7.10
  12  -2   2   -0.80   11.60
  17   1  -2   73.39   14.90
  17   1  -2   36.70   12.40
  15   1  -2   35.50    8.20
  15   1  -2   57.49   11.20
  13   1  -2   83.49   10.30
  13   1  -2   63.29    8.90
  11   1  -2   -0.10    5.50
   9   1  -2   73.09    6.30
   7   1  -2  750.22   16.60
  -5  -1   2  132.09    5.20
   3   1  -2  874.71   16.20
   3   1  -2  899.31   15.80
  -3  -1   2  897.31   16.60
   1   1  -2 2984.40   49.20
   1   1  -2 2909.21   49.10
  -1  -1   2 2925.71   49.10
  -1  -1   2 2904.81   49.30
  -1   1  -2 1740.23   31.10
  -1   1  -2 1795.82   30.70
   1  -1   2 1765.72   30.90
   1  -1   2 1704.83   30.40
   3  -1   2   45.40    3.90
   5  -1   2  362.26   10.70
   7  -1   2  208.98    9.60
   9  -1   2  -11.30    5.90
  11  -1   2   -5.80    8.80
  11  -1   2   27.40   10.30
  13  -1   2   82.69   16.20
  13  -1   2   84.99   15.50
  16   0  -2   16.50   10.30
  16   0  -2   44.00   12.70
  14   0  -2  254.07   14.50
  12   0  -2   96.79   10.10
  10   0  -2   42.50    6.30
   8   0  -2    1.80    3.80
   6   0  -2 3721.23   64.39
   4   0  -2 7271.87  121.99
  -4   0   2 7511.15  122.59
   2   0   2  189.88    5.10
   2   0   2  191.48    5.80
   4   0   2 3120.79   54.69
   4   0   2 3158.88   54.09
   6   0   2  355.86   10.60
   6   0   2  360.56   11.20
   8   0   2   14.80    5.60
   8   0   2   10.30    5.60
  10   0   2    0.30    7.40
  10   0   2   12.30    8.00
  12   0   2  130.79   15.10
  12   0   2  171.98   16.20
  17  -1  -2   78.39   16.70
  15  -1  -2   46.20   11.90
  13  -1  -2   85.79   11.10
  11  -1  -2   -0.70    5.80
   9  -1  -2   80.99    7.40
   7  -1  -2  804.12   19.00
   5  -1  -2  136.09    6.20
   5  -1  -2  138.59    5.60
  -5   1   2  134.79    6.30
   3  -1  -2  883.11   16.30
   3  -1  -2  898.41   17.50
  -3   1   2  880.91   16.50
  -3   1   2  895.41   17.80
   1  -1  -2 2863.91   47.30
   1  -1  -2 2741.43   46.00
   1  -1  -2 2804.82   45.90
  -1   1   2 2700.23   45.90
  -1   1   2 2773.72   45.90
  -1   1   2 2783.52   47.60
  -1  -1  -2 1869.51   31.90
  -1  -1  -2 1832.52   32.50
   1   1   2 1878.41   31.80
   1   1   2 1872.31   32.80
   1   1   2 1828.92   32.20
   3   1   2   50.29    3.60
   3   1   2   53.69    3.70
   5   1   2  340.07    9.70
   5   1   2  341.87    9.70
   7   1   2  213.68    8.30
   7   1   2  195.68    9.30
   9   1   2   11.40    6.40
   9   1   2   -0.20    5.40
  11   1   2   15.60    8.30
  11   1   2    5.80    8.50
  13   1   2   77.09   14.60
  13   1   2   71.69   15.40
  16  -2  -2    1.10   13.20
  14  -2  -2    7.00    9.40
  12  -2  -2    3.80    7.00
  10  -2  -2   22.90    5.90
   8  -2  -2  159.18    8.50
   4  -2  -2 1053.29   20.20
  -4   2   2 1089.39   22.10
  -4   2   2 1060.59   20.60
   2  -2  -2  206.88    6.60
   2  -2  -2  207.98    5.20
  -2   2   2  213.08    6.80
  -2   2   2  209.68    5.50
   0  -2  -2 1565.94   26.60
   0   2   2 1457.25   27.40
   0   2   2 1507.15   26.40
  -2  -2  -2   29.20    3.60
   2   2   2   31.30    3.20
   2   2   2   27.50    3.20
   4   2   2  352.96    9.30
   4   2   2  338.07    9.50
   6   2   2    2.70    3.20
   6   2   2    6.40    3.80
   8   2   2   43.40    6.50
   8   2   2   32.90    6.50
  10   2   2   -3.90    7.20
  10   2   2    0.40    7.10
  12   2   2    3.10   10.30
  12   2   2   14.10   12.30
  15  -3  -2   22.10   12.70
  13  -3  -2   20.00    8.50
  11  -3  -2   40.50    7.90
   9  -3  -2  340.27   13.10
   7  -3  -2  471.65   14.70
  -5   3   2  725.73   17.60
  -5   3   2  713.13   16.10
  -3   3   2 1879.31   33.70
  -3   3   2 1880.01   35.50
   1  -3  -2  214.68    7.20
   1  -3  -2  222.78    6.20
  -1   3   2  229.58    7.30
  -1   3   2  224.68    6.00
   1   3   2   25.00    3.00
   1   3   2   26.10    3.90
   3   3   2 1052.29   20.80
   3   3   2 1007.00   20.40
   5   3   2    2.70    4.10
   5   3   2   -0.20    3.30
   7   3   2  246.98   10.20
   7   3   2  248.98    9.80
   9   3   2   95.99   10.10
   9   3   2   93.39    9.20
  11   3   2   21.60   10.50
  11   3   2   31.50   10.20
  13   3   2   18.20   13.30
  13   3   2   10.30   15.30
  16  -4  -2   46.20   15.00
  14  -4  -2  113.99   15.60
  12  -4  -2   75.89   11.10
  10  -4  -2  680.23   20.80
   8  -4  -2  190.48    9.80
   6  -4  -2  172.78    9.50
  -6   4   2  159.48    7.50
  -4   4   2  565.24   13.50
  -4   4   2  560.84   15.00
  -2   4   2   44.00    5.10
  -2   4   2   44.20    3.80
   0   4   2   24.90    3.20
   0   4   2   34.00    4.40
   2   4   2  124.19    5.60
   2   4   2  126.59    6.30
   4   4   2  408.06   11.60
   4   4   2  387.06   10.90
   6   4   2    9.20    4.50
   6   4   2   20.30    4.90
   8   4   2  297.67   11.30
   8   4   2  259.77   12.20
  10   4   2  268.17   15.70
  10   4   2  295.17   13.90
  12   4   2  -14.20   13.20
  12   4   2   24.20   12.00
  15  -5  -2   67.59   14.90
  13  -5  -2    2.10    9.40
  11  -5  -2  144.99   11.50
   9  -5  -2   60.29    9.40
   7  -5  -2   77.59    7.50
  -7   5   2   76.09    7.10
  -5   5   2   22.10    4.50
  -3   5   2   19.50    5.20
  -3   5   2   18.80    3.60
  -1   5   2   54.39    5.90
  -1   5   2   53.09    4.60
   1   5   2   18.20    4.70
   1   5   2   18.50    3.60
   3   5   2   -2.00    4.50
   3   5   2    0.20    3.30
   5   5   2   24.10    5.40
   7   5   2    5.00    5.70
   9   5   2  104.99   11.50
  11   5   2   27.80   10.70
  14  -6  -2   25.70   11.90
  12  -6  -2   -5.00    8.30
  10  -6  -2   17.30    7.50
   8  -6  -2   56.59    8.70
  -8   6   2   55.89    8.00
   6  -6  -2   24.60    6.30
  -6   6   2    6.30    4.80
  -4   6   2  136.69    7.30
  -2   6   2    0.60    3.20
  -2   6   2   -1.20    6.10
   0   6   2  104.59    6.00
   2   6   2   32.30    4.90
   4   6   2   24.30    5.70
   6   6   2   20.50    5.60
   8   6   2    7.40    7.30
  10   6   2    1.50    9.50
  13  -7  -2   14.90   11.90
  11  -7  -2   -4.60    9.50
   9  -7  -2    1.60    8.10
  -9   7   2    3.90    7.50
   7  -7  -2   24.40    7.80
  -7   7   2   19.90    6.10
   5  -7  -2   78.69    9.80
  -5   7   2   66.89    7.00
  -3   7   2   -0.30    4.30
  -1   7   2  106.19    7.10
  -1   7   2  110.49    9.90
   1   7   2   47.40    6.00
   3   7   2   13.20    5.10
   5   7   2   23.30    6.60
   7   7   2  -11.20    6.00
   9   7   2   -1.30    8.10
  12  -8  -2   40.60   14.70
  10  -8  -2   -2.50    9.20
   8  -8  -2    7.90    8.20
  -8   8   2   20.30    8.20
   6  -8  -2   32.70    8.50
  -6   8   2   25.30    7.00
   4  -8  -2  100.69   11.00
  -4   8   2  102.39    8.90
  -2   8   2   90.79    8.40
   0   8   2  435.66   14.10
   2   8   2    5.20    5.10
   4   8   2   92.49    9.20
   6   8   2    6.70    7.60
   8   8   2   -5.90    8.40
  11  -9  -2  -19.10   14.20
   9  -9  -2   30.60   11.30
  -9   9   2   38.10   12.10
   7  -9  -2   24.80    9.70
  -7   9   2   30.00    9.10
   5  -9  -2   41.40    9.60
  -5   9   2   34.20    7.70
   3  -9  -2   44.60    9.00
  -3   9   2   60.79    9.00
  -1   9   2   25.40    6.90
   1   9   2    3.50    6.30
   3   9   2   73.79    9.60
   5   9   2    6.40    8.10
   7   9   2   43.10   11.90
  10 -10  -2   22.10   16.40
   8 -10  -2   37.70   11.70
  -8  10   2    3.70   12.20
   6 -10  -2    1.90   10.70
  -6  10   2    3.00    8.80
   4 -10  -2   -2.20    8.80
  -4  10   2   32.10    9.80
  -2  10   2   13.30    8.80
   0  10   2   21.50    7.70
   2  10   2   -8.30    7.60
   4  10   2   -1.10    8.90
   6  10   2   -0.80   11.20
   7 -11  -2   26.00   14.10
  -7  11   2   18.40   14.30
   5 -11  -2  179.08   17.30
  -5  11   2  141.19   17.40
  -3  11   2  140.19   17.10
  -1  11   2   40.70   10.20
   1  11   2   20.20   11.10
   3  11   2  163.38   17.80
   7  11  -3   22.10   14.40
   7  11  -3   21.50   11.50
   5  11  -3   51.19   10.70
   5  11  -3   55.09   14.10
   3  11  -3   27.30   12.40
   3  11  -3   19.20    9.20
   1  11  -3   10.60    8.20
   1  11  -3    7.00   14.30
  -1  11  -3   -6.70    8.20
  -1  11  -3   -9.40   14.00
  10  10  -3   34.30   13.70
   8  10  -3   16.50   10.10
   8  10  -3    6.20   10.20
   6  10  -3   -4.10    8.20
   6  10  -3   -2.20    9.70
   4  10  -3   30.40   10.60
   4  10  -3   13.30    7.10
   2  10  -3    7.80    6.80
   2  10  -3    7.40    9.10
   0  10  -3   20.90    7.30
   0  10  -3   36.50   11.70
  -2  10  -3   26.40   12.80
  -2  10  -3   -4.00    7.10
   2 -10   3   -1.70    8.60
  -4  10  -3   12.10   10.10
  -4  10  -3    4.60   16.00
   4 -10   3    3.50   10.30
  11   9  -3   23.80   11.50
   9   9  -3   44.50   11.10
   7   9  -3    2.70    8.00
   7   9  -3    8.80    8.00
   5   9  -3    1.20    7.20
   5   9  -3   -0.10    6.60
   3   9  -3   20.00    6.10
   3   9  -3    9.90    7.10
   1   9  -3   75.49   10.80
   1   9  -3   73.39    8.50
  -1   9  -3   32.20    9.70
  -1   9  -3   30.60    6.50
   1  -9   3   26.10    7.30
  -3   9  -3    5.80    7.20
  -3   9  -3   -7.90   10.60
   3  -9   3    5.20    9.00
   5  -9   3    5.40    9.80
  12   8  -3   76.49   13.30
  10   8  -3  -13.40    7.50
   8   8  -3   10.30    6.90
   6   8  -3  209.28   10.90
   6   8  -3  203.88   11.20
   4   8  -3  121.89    8.80
   4   8  -3  101.09    8.60
   2   8  -3  521.35   14.60
   2   8  -3  539.75   15.80
   0   8  -3 1066.39   24.90
   0   8  -3 1030.90   23.00
  -2   8  -3   15.10    7.70
  -2   8  -3    5.10    6.30
   2  -8   3   20.90    6.50
  -4   8  -3  196.88   15.00
  -4   8  -3  175.48   11.40
   4  -8   3  188.58   12.80
   6  -8   3   46.90   11.00
   8  -8   3   12.00   13.50
  13   7  -3  173.68   16.10
  11   7  -3   24.10    8.30
   9   7  -3   -1.60    6.20
   7   7  -3  289.77   11.10
   5   7  -3   92.19    7.30
   5   7  -3   85.09    7.90
   3   7  -3  146.09    8.10
   3   7  -3  157.98    8.00
   1   7  -3  573.54   15.40
   1   7  -3  549.25   14.60
  -1   7  -3  332.17   12.40
  -1   7  -3  335.67   11.00
   1  -7   3  318.27   11.20
  -3   7  -3  -12.60    5.20
   3  -7   3   -0.80    5.40
   5  -7   3  213.78   13.00
   7  -7   3   43.80   10.40
   9  -7   3   13.90   12.80
  14   6  -3   23.50   11.90
  12   6  -3    9.40    9.00
  10   6  -3   76.99    9.30
   8   6  -3   14.30    5.80
   6   6  -3   56.39    6.00
   4   6  -3   49.99    6.00
   4   6  -3   41.40    4.90
   2   6  -3    6.50    3.80
   2   6  -3    0.00    3.00
   0   6  -3   23.20    5.20
   0   6  -3   30.00    4.80
   0  -6   3   33.40    5.30
  -2   6  -3    3.00    4.30
  -2   6  -3    5.10    5.00
   2  -6   3   -5.20    4.50
  -4   6  -3   44.70    6.80
   4  -6   3   62.49    8.50
   6  -6   3   -1.60    6.80
   8  -6   3   21.20   10.10
  10  -6   3   15.80   12.50
  15   5  -3   -5.70   10.90
  13   5  -3   13.70    7.90
  11   5  -3   20.00    7.20
   9   5  -3   91.19    8.20
   7   5  -3  229.58    8.90
   5   5  -3   41.40    5.60
   5   5  -3   36.20    4.50
   3   5  -3  308.77    8.60
   3   5  -3  322.57    9.80
   1   5  -3   18.20    3.50
   1   5  -3   16.10    3.70
  -1  -5   3   18.80    3.50
  -1   5  -3   91.89    6.10
  -1   5  -3  105.09    6.00
   1  -5   3   99.59    6.10
  -3   5  -3  142.69    7.70
   3  -5   3  147.89    8.20
   5  -5   3   10.60    5.80
   7  -5   3   98.99   11.00
   9  -5   3   32.80   10.30
  16   4  -3  137.49   16.90
  14   4  -3  278.87   14.90
  12   4  -3  258.47   12.10
  10   4  -3 1944.61   38.60
   8   4  -3  193.88    8.40
   6   4  -3  681.03   15.20
   4   4  -3  723.73   16.30
   4   4  -3  738.03   15.00
   2   4  -3   25.70    3.20
   2   4  -3   30.60    3.70
  -2  -4   3   30.00    3.50
   0   4  -3    3.80    2.70
   0   4  -3    5.50    2.90
   0  -4   3    5.00    2.70
   0  -4   3    0.70    3.20
  -2   4  -3  137.29    6.90
   2  -4   3  136.69    7.00
   4  -4   3  457.55   13.70
   6  -4   3   33.30    6.80
   8  -4   3  599.34   20.00
  10  -4   3  467.35   20.60
  17   3  -3   55.59   14.50
  15   3  -3  112.49   13.20
  13   3  -3   23.50    6.60
  11   3  -3  378.76   13.10
   9   3  -3  445.96   13.00
   7   3  -3   10.20    3.40
   5   3  -3  626.74   13.40
   3   3  -3  162.68    4.80
   3   3  -3  167.68    6.00
  -3  -3   3  170.58    5.20
   1   3  -3   20.60    3.00
  -1  -3   3   23.10    3.30
  -1   3  -3   26.40    4.00
   1  -3   3   27.70    3.80
  -3   3  -3  252.97    8.80
   3  -3   3  262.37    9.40
   5  -3   3   46.50    7.10
   7  -3   3   80.79    9.70
   9  -3   3  222.88   15.00
  11  -3   3   67.29   14.60
  16   2  -3   11.40   10.50
  14   2  -3   76.09    9.60
  12   2  -3    5.70    5.70
  10   2  -3  170.68    8.10
   8   2  -3   35.10    4.80
   6   2  -3  190.68    6.40
   4   2  -3   55.59    4.00
   4   2  -3   53.09    2.90
  -4  -2   3   48.20    4.20
   2   2  -3    5.30    2.20
   2   2  -3    6.20    2.00
  -2  -2   3    5.80    2.40
   0   2  -3   10.10    2.50
   0  -2   3   16.10    3.10
  -2   2  -3   49.10    4.40
   2  -2   3   44.60    4.20
   4  -2   3    0.90    3.50
   6  -2   3   58.29    7.70
   8  -2   3   15.50    7.50
  10  -2   3    5.20   10.30
  17   1  -3   54.99   13.20
  17   1  -3   53.99   13.30
  15   1  -3    2.30    9.60
  15   1  -3   10.50    9.20
  13   1  -3   48.70    9.10
  11   1  -3   19.90    5.60
   9   1  -3   27.60    6.10
  -7  -1   3  144.99    7.00
   5   1  -3  147.59    5.80
  -5  -1   3  161.88    6.40
   3   1  -3   94.99    4.20
   3   1  -3   95.29    3.90
  -3  -1   3   97.09    4.70
   1   1  -3  123.89    4.50
  -1  -1   3  119.29    4.80
  -1   1  -3    4.80    2.50
   1  -1   3    5.50    2.50
   3  -1   3  196.78    7.30
   5  -1   3    5.10    3.80
   7  -1   3   46.80    6.80
   7  -1   3   42.90    7.40
   9  -1   3   11.50    8.00
   9  -1   3   -0.60    8.10
  11  -1   3   14.90   12.40
  11  -1   3    5.10   11.40
  16   0  -3   -5.20   11.60
  14   0  -3    5.00    8.50
  12   0  -3   -4.20    6.10
  10   0  -3   -5.10    5.00
  -6   0   3    1.40    3.50
   4   0  -3    1.90    1.60
   4   0  -3    0.50    1.90
   4   0  -3    1.80    2.40
  -4   0   3   -0.60    2.70
   2   0  -3    0.00    1.50
  -2   0   3    0.20    2.00
  -2   0   3   -1.00    2.60
   0   0  -3    0.20    2.00
   0   0   3    1.40    2.20
   2   0   3    2.90    3.10
   4   0   3    0.20    3.50
   4   0   3   -3.10    3.00
   6   0   3   -1.70    4.40
   6   0   3   -1.80    4.10
   8   0   3   -0.40    6.10
   8   0   3    1.80    6.20
  10   0   3    2.60    9.00
  10   0   3   -8.30    9.90
  12   0   3   18.70   14.90
  17  -1  -3   54.69   15.30
  15  -1  -3   15.70   10.40
  13  -1  -3   50.99    9.00
  11  -1  -3   19.90    5.90
   9  -1  -3   37.40    6.70
  -7   1   3  132.29    7.60
   5  -1  -3  155.58    4.70
   5  -1  -3  156.88    5.70
  -5   1   3  165.88    7.30
   3  -1  -3   93.59    3.20
   3  -1  -3   94.99    3.20
  -3   1   3   98.19    3.50
  -3   1   3   96.59    5.20
  -3   1   3   91.69    3.80
   1  -1  -3  117.79    4.20
  -1   1   3  124.29    5.60
  -1   1   3  113.99    4.00
   1   1   3    3.50    2.70
   1   1   3    6.80    2.20
   3   1   3  184.78    7.40
   3   1   3  195.58    6.50
   5   1   3    6.00    3.80
   5   1   3    4.10    4.00
   7   1   3   42.70    6.70
   7   1   3   41.30    6.80
   9   1   3   13.80    7.70
   9   1   3    6.50    8.30
  11   1   3    4.30   11.50
  11   1   3    3.10   12.00
  16  -2  -3   -9.50   12.60
  14  -2  -3   88.69   12.50
  12  -2  -3    9.20    7.10
  10  -2  -3  170.88    9.60
  -6   2   3  191.38    8.60
   4  -2  -3   46.30    3.80
  -4   2   3   54.69    5.30
  -4   2   3   58.09    4.00
   2  -2  -3    2.10    2.00
  -2   2   3    5.30    2.10
  -2   2   3    5.60    3.40
   0  -2  -3    9.50    2.60
   0   2   3   13.50    2.30
   0   2   3    6.10    2.10
   0   2   3   16.00    3.80
   2   2   3   52.69    5.10
   2   2   3   56.29    4.10
   4   2   3    6.80    4.30
   4   2   3    0.80    3.70
   6   2   3   64.09    7.20
   6   2   3   55.49    7.00
   8   2   3   19.80    7.10
   8   2   3    3.40    6.40
  10   2   3   29.70   10.10
  10   2   3   18.40   10.40
  17  -3  -3   79.29   18.60
  15  -3  -3  105.49   16.80
  13  -3  -3   27.70    8.70
  11  -3  -3  370.86   15.40
   9  -3  -3  416.06   14.80
  -7   3   3   11.90    5.20
  -5   3   3  583.04   13.90
  -5   3   3  592.34   15.90
  -3   3   3  154.48    7.40
  -3   3   3  154.08    5.70
  -1   3   3   18.00    2.80
  -1   3   3   21.60    4.30
   1   3   3   27.20    4.70
   1   3   3   22.60    3.40
   3   3   3  273.87    9.00
   3   3   3  267.57    9.50
   5   3   3   46.40    6.40
   5   3   3   40.40    6.30
   7   3   3   73.39    9.10
   7   3   3   82.49    9.50
   9   3   3  212.78   13.30
   9   3   3  182.38   14.00
  11   3   3   58.79   14.10
  11   3   3   80.59   15.20
  16  -4  -3  129.79   20.90
  14  -4  -3  283.77   17.60
  12  -4  -3  254.77   14.90
  10  -4  -3 1868.21   40.90
  -6   4   3  675.63   18.60
  -6   4   3  674.73   16.40
  -4   4   3  726.83   16.30
  -4   4   3  741.33   18.90
  -2   4   3   36.00    5.70
  -2   4   3   26.60    3.50
   0   4   3    5.50    2.70
   0   4   3    7.60    4.00
   2   4   3  134.09    6.50
   2   4   3  138.29    8.00
   4   4   3  450.45   14.00
   4   4   3  449.16   13.00
   6   4   3   17.10    6.00
   6   4   3   26.70    7.20
   8   4   3  555.44   18.20
   8   4   3  587.94   18.80
  10   4   3  452.95   19.50
  10   4   3  434.56   20.30
  15  -5  -3   20.00   13.00
  13  -5  -3   24.60    9.90
  11  -5  -3   17.70    8.00
   9  -5  -3  141.49   11.50
  -7   5   3  196.88    9.40
  -5   5   3   54.59    8.30
  -5   5   3   36.10    5.50
  -3   5   3  308.37    9.70
  -3   5   3  300.97   11.80
  -1   5   3   17.80    5.60
  -1   5   3   16.60    3.80
   1   5   3   86.19    7.70
   1   5   3   85.99    5.80
   3   5   3  141.99    9.40
   3   5   3  140.59    7.60
   5   5   3   18.30    6.60
   5   5   3   10.00    5.10
   7   5   3  116.09   11.90
   7   5   3  104.29   11.20
   9   5   3   54.29   12.00
   9   5   3   34.80   10.60
  14  -6  -3   26.70   13.60
  12  -6  -3    1.80    9.00
  10  -6  -3   77.79   10.80
   8  -6  -3    6.20    6.60
  -8   6   3   17.80    6.60
  -6   6   3   49.20    6.70
  -4   6   3   48.90    6.70
  -4   6   3   60.49    8.80
  -2   6   3    7.70    6.10
  -2   6   3    9.20    3.80
   0   6   3   29.40    4.80
   0   6   3   21.30    6.90
   2   6   3    1.30    6.20
   2   6   3    8.00    4.60
   4   6   3   63.29    9.80
   4   6   3   49.10    7.00
   6   6   3    6.20    6.30
   6   6   3    6.70    9.40
   8   6   3   34.30    9.80
  10   6   3   20.50   12.80
  13  -7  -3  121.09   17.10
  11  -7  -3   27.10   10.10
   9  -7  -3   -7.50    8.00
  -9   7   3    8.50    7.50
   7  -7  -3  241.68   14.00
  -7   7   3  266.27   12.20
  -5   7   3   83.99    8.10
  -5   7   3   77.79   11.60
  -3   7   3  156.58   11.30
  -3   7   3  140.19    8.80
  -1   7   3  526.55   18.20
  -1   7   3  545.35   15.30
   1   7   3  352.06   12.00
   1   7   3  343.07   15.50
   3   7   3    8.90    5.70
   5   7   3  213.08   12.50
   7   7   3   39.00    9.30
   9   7   3    8.80   11.50
  12  -8  -3   60.39   14.40
  10  -8  -3    2.30   10.40
 -10   8   3    2.50    9.00
   8  -8  -3    2.00    9.50
  -8   8   3    1.30    8.20
   6  -8  -3  192.88   14.30
  -6   8   3  201.38   11.50
  -4   8   3  104.19   10.30
  -2   8   3  515.05   19.50
   0   8   3 1090.09   25.60
   2   8   3   13.00    6.60
   4   8   3  193.08   12.30
   6   8   3   57.49   11.20
   8   8   3    0.80   11.70
  11  -9  -3   26.10   13.20
   9  -9  -3   39.70   12.50
  -9   9   3   39.70   12.50
   7  -9  -3   21.10   10.60
  -7   9   3   17.60    8.80
   5  -9  -3  -12.20    8.40
  -5   9   3  -11.50    7.00
  -3   9   3   24.10    7.10
  -1   9   3   74.49    9.70
   1   9   3   22.70    8.70
   3   9   3   -4.40    7.70
   5   9   3   -1.50    9.60
  10 -10  -3   28.90   15.00
 -10  10   3   31.30   13.70
   8 -10  -3    0.50   13.20
  -8  10   3   12.50   11.40
   6 -10  -3    1.90   11.00
  -6  10   3  -11.50    9.20
   4 -10  -3   23.40   12.10
  -4  10   3   14.20    9.10
  -2  10   3    1.60    8.10
   0  10   3   35.90    9.40
   2  10   3    2.80   10.10
   4  10   3  -12.10   11.20
   7 -11  -3   20.50   15.50
  -7  11   3   29.50   14.30
   5 -11  -3   10.70   13.40
  -5  11   3   39.00   13.00
   3 -11  -3   25.10   11.60
  -3  11   3   16.00   11.70
  -1  11   3   18.40   11.20
   1  11   3    7.80   12.10
   5  11  -4  185.28   15.60
   5  11  -4  224.28   20.60
   3  11  -4   47.90   14.00
   3  11  -4   48.00   11.20
   8  10  -4   -8.70    9.80
   8  10  -4    6.10   11.90
   6  10  -4   22.20    9.40
   6  10  -4   10.30   10.60
   4  10  -4    1.70   10.60
   4  10  -4    4.30    7.90
   2  10  -4   -1.50    7.60
   2  10  -4   26.50   11.80
   0  10  -4   25.70   12.80
   0  10  -4    1.00    8.20
  -2  10  -4    8.80   11.10
  -2  10  -4   17.20   14.80
   2 -10   4    6.20   10.20
  11   9  -4   21.40   13.20
   9   9  -4   71.69   11.10
   9   9  -4   41.40   11.90
   7   9  -4    8.90    8.50
   7   9  -4   14.70    8.00
   5   9  -4   60.99   10.30
   5   9  -4   44.80    8.20
   3   9  -4    6.80    9.10
   3   9  -4   11.30    7.20
   1   9  -4   31.00    9.50
   1   9  -4    8.20    6.90
  -1   9  -4  -10.20   10.90
  -1   9  -4    5.00    8.20
   1  -9   4    8.40    8.40
  -3   9  -4   51.39   10.30
   3  -9   4   52.09   11.00
  12   8  -4   50.79   12.50
  10   8  -4   14.90    9.10
   8   8  -4    3.90    7.10
   8   8  -4   15.30    7.80
   6   8  -4   74.69    9.60
   6   8  -4   73.19    8.60
   4   8  -4   68.49    8.30
   4   8  -4   74.59    9.10
   2   8  -4  133.39    9.10
   2   8  -4  131.59   10.70
   0   8  -4  214.88   11.00
   0   8  -4  196.38   13.00
   0  -8   4  212.78   10.60
  -2   8  -4   11.20    9.90
  -2   8  -4   12.70    7.20
   2  -8   4    7.10    7.60
  -4   8  -4   52.69    9.90
   4  -8   4   44.70    9.70
   6  -8   4    6.40   12.10
  13   7  -4   26.40   11.70
  11   7  -4   13.70    9.20
   9   7  -4  -10.80    6.20
   7   7  -4   27.50    6.50
   7   7  -4   22.00    6.70
   5   7  -4   25.00    6.40
   5   7  -4   31.40    5.90
   3   7  -4    6.40    4.90
   3   7  -4   15.20    5.80
   1   7  -4   58.39    7.60
   1   7  -4   65.69    8.00
  -1   7  -4   10.60    5.70
  -1   7  -4    7.20    8.00
   1  -7   4    8.80    5.70
  -3   7  -4    7.10    6.80
   3  -7   4   20.50    7.70
   5  -7   4    9.40    9.50
   7  -7   4  -19.80   12.00
  14   6  -4   25.60   11.70
  12   6  -4   10.00    8.20
  10   6  -4   12.90    6.80
   8   6  -4   51.29    7.40
   8   6  -4   65.09    8.70
   6   6  -4   -1.50    4.70
   6   6  -4    4.20    4.90
   4   6  -4   79.49    6.80
   4   6  -4   74.99    6.30
   2   6  -4   14.10    4.60
   2   6  -4   10.20    4.80
   0   6  -4   39.50    6.10
   0   6  -4   32.90    5.80
   0  -6   4   37.20    5.80
  -2   6  -4   21.80    6.40
   2  -6   4   34.10    6.20
   4  -6   4   -7.00    6.80
   6  -6   4    5.80    9.00
   8  -6   4  -14.80   12.00
  15   5  -4   59.09   13.00
  13   5  -4   12.50    8.30
  11   5  -4  164.78   11.00
   9   5  -4    3.50    5.00
   7   5  -4   61.99    7.30
   7   5  -4   65.99    6.10
   5   5  -4   -0.90    3.30
   5   5  -4    8.90    4.50
   3   5  -4   -3.10    3.30
   3   5  -4    1.50    3.80
   1   5  -4   34.60    5.20
  -1  -5   4   40.80    5.10
  -1   5  -4    3.60    4.90
   1  -5   4    0.80    4.20
  -3   5  -4  -11.60    5.20
   3  -5   4    6.90    5.20
   5  -5   4   14.00    7.30
   7  -5   4    1.90    8.90
   9  -5   4   60.79   15.70
  16   4  -4  109.59   15.80
  14   4  -4   75.49   11.80
  12   4  -4  151.58   10.70
  10   4  -4  634.94   16.80
   8   4  -4   62.59    6.30
   6   4  -4  255.87    9.20
   6   4  -4  234.68    7.90
   4   4  -4  270.37    9.10
   4   4  -4  261.57    7.00
  -4  -4   4  257.67    8.10
   2   4  -4    2.00    2.90
  -2  -4   4   -3.90    3.60
   0   4  -4    4.90    3.50
   0  -4   4   12.70    4.30
  -2   4  -4   85.19    6.80
   2  -4   4   64.79    6.50
   4  -4   4  132.29    8.70
   6  -4   4    3.10    7.80
   8  -4   4  196.98   15.70
  17   3  -4   52.69   15.60
  15   3  -4    2.90    9.10
  13   3  -4    3.90    6.40
  11   3  -4   55.19    7.80
   9   3  -4  401.46   11.80
   7   3  -4  203.88    7.20
   5   3  -4  447.86   11.80
   3   3  -4  398.66   10.40
  -3  -3   4  416.96   10.90
   1   3  -4   36.70    4.60
  -1  -3   4   30.90    4.90
  -1   3  -4   84.89    6.20
   1  -3   4   86.09    6.10
   3  -3   4  231.68    9.50
   5  -3   4   14.20    6.10
   7  -3   4  105.59   11.50
   9  -3   4   65.79   13.70
  16   2  -4   10.10   10.40
  14   2  -4    6.60    6.80
  12   2  -4   10.40    6.20
  10   2  -4   31.40    6.10
   8   2  -4   84.69    5.60
   6   2  -4  129.09    6.40
   6   2  -4  133.19    5.20
  -6  -2   4  136.59    7.00
   4   2  -4  250.27    7.60
  -4  -2   4  258.67    8.60
   2   2  -4  175.68    6.50
  -2  -2   4  172.28    7.00
   0   2  -4  253.27    8.40
   0  -2   4  260.87    8.70
  -2   2  -4   31.70    4.80
   2  -2   4   24.60    4.70
   4  -2   4   59.59    6.90
   6  -2   4   12.50    6.70
   6  -2   4   -8.50    5.60
   8  -2   4   11.20    8.40
   8  -2   4    5.30    8.80
  10  -2   4   16.30   13.60
  10  -2   4    6.90   14.10
  17   1  -4   37.60   13.60
  17   1  -4   34.70   12.60
  15   1  -4   80.49   12.00
  15   1  -4   92.09   11.70
  13   1  -4   61.89    9.50
  11   1  -4    1.70    6.10
  -9  -1   4  109.49    8.40
  -7  -1   4  534.75   14.40
   5   1  -4   44.20    3.90
  -5  -1   4   47.20    5.30
   3   1  -4  456.75   10.50
  -3  -1   4  445.66   11.80
   1   1  -4 1100.49   21.20
  -1  -1   4 1053.99   22.10
  -1   1  -4  424.56   11.60
   1  -1   4  429.66   12.10
   3  -1   4   -2.90    3.60
   5  -1   4  144.49    9.00
   5  -1   4  161.88    8.50
   7  -1   4   56.29    8.60
   7  -1   4   61.19    9.60
   9  -1   4  -10.50   10.20
   9  -1   4    3.40   10.40
  16   0  -4   74.29   14.70
  14   0  -4  259.27   15.00
  12   0  -4   57.29    9.00
  -8   0   4   42.80    6.80
   6   0  -4 2159.38   39.50
   6   0  -4 2274.17   39.60
  -6   0   4 2316.67   42.30
   4   0  -4 1114.39   20.70
  -4   0   4 1100.29   23.00
   2   0  -4 5206.88   86.69
  -2   0   4 5165.48   88.69
   0   0  -4 6164.28  104.59
   0   0   4 6305.67  105.99
   2   0   4   26.00    4.60
   4   0   4  860.71   20.80
   4   0   4  891.31   18.70
   6   0   4  101.09    9.40
   6   0   4   85.09    9.20
   8   0   4    8.80    8.80
   8   0   4    4.60    8.10
  10   0   4   33.30   12.80
  10   0   4    8.20   12.60
  17  -1  -4   26.60   15.20
  15  -1  -4   84.79   13.40
  13  -1  -4   72.19   11.20
  11  -1  -4    3.40    6.80
  -9   1   4  122.19    9.20
   7  -1  -4  554.84   12.10
  -7   1   4  542.65   15.60
   5  -1  -4   43.30    3.20
   5  -1  -4   40.60    3.80
  -5   1   4   63.89    6.80
   3  -1  -4  442.16    9.70
  -3   1   4  436.66   12.60
   1  -1  -4 1028.80   20.10
  -1   1   4 1037.80   22.20
   1   1   4  448.06   12.90
   3   1   4    1.80    3.60
   3   1   4   -2.00    3.70
   5   1   4  146.99    8.30
   5   1   4  141.89    9.40
   7   1   4   57.89    9.40
   7   1   4   57.59    8.70
   9   1   4   19.10   10.90
   9   1   4   12.20   10.30
  16  -2  -4   -5.80   13.80
  14  -2  -4   17.00    9.60
  12  -2  -4    2.90    6.70
  -8   2   4   77.29    8.50
  -6   2   4  136.59    8.40
   4  -2  -4  236.08    6.60
  -4   2   4  256.97   10.00
  -4   2   4  247.38    7.40
   2  -2  -4  159.98    5.50
  -2   2   4  163.08    5.40
  -2   2   4  162.38    8.20
   0  -2  -4  249.68    7.50
   0   2   4  247.78    6.70
   0   2   4  252.97    9.50
   2   2   4   38.20    4.40
   2   2   4   39.60    5.70
   4   2   4   59.89    7.50
   4   2   4   55.79    6.60
   6   2   4   11.50    6.20
   6   2   4    4.00    6.60
   8   2   4   12.10   10.10
   8   2   4    5.80    9.00
  10   2   4   -5.50   13.80
  10   2   4  -15.10   13.10
  17  -3  -4   71.39   18.70
  15  -3  -4    6.00   10.90
  13  -3  -4   10.60    9.10
  11  -3  -4   46.70    8.90
  -9   3   4  368.16   15.00
  -7   3   4  196.08   10.50
  -5   3   4  448.36   14.00
  -5   3   4  431.46   11.40
  -3   3   4  390.66   12.50
  -3   3   4  387.46    9.80
  -1   3   4   41.50    6.30
  -1   3   4   29.10    3.70
   1   3   4   83.49    7.60
   1   3   4   86.29    5.30
   3   3   4  275.77    9.30
   3   3   4  259.27   11.30
   5   3   4    0.30    5.60
   5   3   4    2.10    6.80
   7   3   4  105.69   11.70
   7   3   4  110.99   13.20
   9   3   4   30.80   10.90
   9   3   4   46.70   13.40
  16  -4  -4  105.59   17.10
  14  -4  -4   65.09   13.60
  12  -4  -4  147.99   13.10
  -8   4   4   59.69    8.90
  -6   4   4  233.38    9.30
  -6   4   4  241.68   11.30
  -4   4   4  267.77    9.10
  -4   4   4  266.87   11.50
  -2   4   4    0.50    3.10
  -2   4   4   -2.90    5.00
   0   4   4   15.80    4.10
   0   4   4   15.30    5.80
   2   4   4   87.29    6.70
   2   4   4   84.39    8.80
   4   4   4  130.19    8.50
   4   4   4  149.39   11.20
   6   4   4  -10.90    6.80
   6   4   4    8.40    8.80
   8   4   4  209.58   17.50
   8   4   4  196.08   15.40
  15  -5  -4   46.40   12.60
  13  -5  -4   17.20   10.20
  11  -5  -4  173.28   14.60
  -7   5   4   66.09    7.50
  -7   5   4   71.09    9.80
  -5   5   4   -3.90    5.70
  -5   5   4    6.50    4.30
  -3   5   4    4.50    4.00
  -3   5   4    3.80    4.80
  -1   5   4   45.70    7.10
  -1   5   4   35.90    5.30
   1   5   4    4.90    6.30
   1   5   4   11.30    4.70
   3   5   4    3.90    7.70
   3   5   4   -1.30    5.40
   5   5   4   10.50    9.10
   5   5   4   26.50    7.40
   7   5   4   -0.30    8.40
   7   5   4   23.10   11.60
   9   5   4   81.39   17.70
   9   5   4   86.89   14.70
  14  -6  -4   -6.20   11.90
  12  -6  -4    2.60    9.00
  10  -6  -4  -13.00    7.00
  -8   6   4   56.39   10.60
  -8   6   4   52.59    8.30
  -6   6   4   10.90    7.60
  -6   6   4    5.10    5.80
  -4   6   4   78.59    7.90
  -4   6   4   63.59   10.20
  -2   6   4   10.20    7.30
  -2   6   4    8.50    4.80
   0   6   4   41.20    6.30
   0   6   4   32.70    8.90
   2   6   4   37.70    9.70
   2   6   4   30.30    6.30
   4   6   4   11.50    6.70
   4   6   4   -4.10    9.60
   6   6   4   30.40   12.40
   6   6   4   30.50    9.80
   8   6   4   19.30   11.80
   8   6   4    9.10   14.50
  13  -7  -4   27.50   14.20
  11  -7  -4   11.80   10.90
   9  -7  -4   16.70   10.70
  -9   7   4    5.20    7.20
  -7   7   4   26.80   10.30
  -7   7   4   33.20    7.60
  -5   7   4   23.00    6.60
  -5   7   4   37.50    9.80
  -3   7   4   10.10    8.60
  -3   7   4   17.30    6.30
  -1   7   4   61.09    7.70
  -1   7   4   59.49   10.90
   1   7   4   17.30   10.60
   1   7   4   13.00    6.30
   3   7   4   13.00    7.50
   3   7   4   19.90   10.70
   5   7   4   33.10   12.60
   5   7   4   15.60   10.10
   7   7   4   20.10   12.20
  12  -8  -4    9.50   12.00
  10  -8  -4  -18.10   10.00
 -10   8   4    5.80    9.10
   8  -8  -4   34.00   12.80
  -8   8   4   11.00    8.50
  -6   8   4   63.09    9.70
  -6   8   4   71.79   13.70
  -4   8   4   51.49    9.50
  -4   8   4   80.39   14.20
  -2   8   4  137.99   16.00
  -2   8   4  121.89   10.30
   0   8   4  223.58   12.60
   0   8   4  245.78   18.90
   2   8   4   -2.60    7.80
   2   8   4    2.60   12.80
   4   8   4   46.10   11.60
   6   8   4   20.20   11.10
  11  -9  -4   25.40   15.00
   9  -9  -4   55.39   13.50
  -9   9   4   39.50   12.30
   7  -9  -4   24.10   14.70
  -7   9   4   18.10    9.70
  -5   9   4   49.20    9.80
  -3   9   4    5.90    8.10
  -3   9   4   -5.50   12.40
  -1   9   4   14.40    8.40
  -1   9   4   -0.40   14.60
   1   9   4   18.00   16.90
   1   9   4   16.30    9.30
   3   9   4   49.40   11.90
   8 -10  -4   32.70   14.20
  -8  10   4   11.70   12.70
   6 -10  -4   -3.30   13.70
  -6  10   4   29.00   11.60
  -4  10   4    7.40   10.00
  -2  10   4   51.49   15.90
  -2  10   4   39.20   10.70
   0  10   4   16.90    9.80
   2  10   4    3.30   11.90
   5 -11  -4  255.27   24.30
  -5  11   4  175.98   21.80
  -3  11   4   19.60   13.60
   8  10  -5   11.40   13.50
   8  10  -5   -6.00   10.30
   6  10  -5   10.90   10.70
   6  10  -5   -8.10   12.00
   4  10  -5   17.50   11.50
   4  10  -5   23.90   10.30
   2  10  -5   19.30   10.30
   2  10  -5   22.80   12.40
  11   9  -5   24.30   11.70
  11   9  -5   37.00   13.50
   9   9  -5   47.10   11.10
   9   9  -5   12.10    9.90
   7   9  -5   30.10   10.20
   7   9  -5    7.60    9.10
   5   9  -5   -7.40    9.30
   5   9  -5   -1.30    7.40
   3   9  -5   16.00    8.10
   3   9  -5    5.80   10.40
   1   9  -5   58.39    9.80
   1   9  -5   43.90   11.70
  -1   9  -5    3.10   10.00
   1  -9   5   18.90   10.60
  12   8  -5   72.79   13.30
  12   8  -5   57.89   13.10
  10   8  -5   13.60    8.90
  10   8  -5   16.50    9.60
   8   8  -5   24.20    8.20
   8   8  -5   25.60    8.70
   6   8  -5  212.78   12.20
   6   8  -5  209.38   12.30
   4   8  -5   -2.40    6.60
   4   8  -5   20.50    8.30
   2   8  -5  478.05   16.00
   2   8  -5  466.35   15.80
   0   8  -5  475.15   17.10
   0   8  -5  452.25   16.90
   0  -8   5  446.66   16.60
  -2   8  -5    8.70    9.70
   2  -8   5   -8.00    9.60
   4  -8   5  141.39   17.70
  13   7  -5  122.19   18.20
  11   7  -5   46.90    9.50
  11   7  -5   48.00   10.40
   9   7  -5   16.20    7.70
   9   7  -5   14.50    7.70
   7   7  -5  217.78   11.70
   7   7  -5  237.68   10.90
   5   7  -5   33.60    7.30
   5   7  -5   20.30    5.90
   3   7  -5  154.78    9.70
   3   7  -5  135.59    9.30
   1   7  -5  291.27   12.70
  -1  -7   5  309.57   13.10
  -1   7  -5  150.38   11.40
   1  -7   5  145.39   12.00
  -3   7  -5   -1.50    9.20
   3  -7   5  -17.40    9.90
   5  -7   5  132.29   16.40
  14   6  -5   11.70   13.20
  12   6  -5   18.10    9.40
  10   6  -5   70.49    9.40
  10   6  -5   82.69    9.50
   8   6  -5   -1.50    5.10
   8   6  -5    3.70    5.80
   6   6  -5   45.90    6.90
   6   6  -5   49.30    6.90
   4   6  -5   16.00    5.60
   2   6  -5   10.90    5.10
  -2  -6   5    0.60    5.80
   0   6  -5   -2.10    5.60
   0  -6   5    6.20    6.50
  -2   6  -5  -10.70    7.10
   2  -6   5   -1.40    7.40
   4  -6   5   24.20   10.70
   6  -6   5   -5.10   11.60
  15   5  -5   12.00   12.40
  13   5  -5   13.70    9.60
  11   5  -5   39.40    8.10
   9   5  -5  104.39    8.80
   9   5  -5  138.09   10.00
   7   5  -5   65.19    6.50
   7   5  -5   60.49    7.60
   5   5  -5   78.39    6.90
   3   5  -5   84.89    7.00
  -3  -5   5   95.69    8.50
   1   5  -5    8.10    5.50
  -1  -5   5    8.40    5.60
  -1   5  -5   66.39    8.40
   1  -5   5   66.59    8.70
   3  -5   5   34.30    7.90
   5  -5   5   30.20   11.10
   7  -5   5   79.79   15.80
  16   4  -5  256.27   20.80
  14   4  -5  201.68   15.10
  12   4  -5  477.05   16.30
  10   4  -5 1312.37   27.60
   8   4  -5   36.10    6.50
   8   4  -5   32.40    5.40
   6   4  -5  369.06   11.70
   4   4  -5  230.48    9.20
  -4  -4   5  225.38    9.90
   2   4  -5    2.90    4.10
  -2  -4   5    8.60    4.70
   0   4  -5    1.40    4.60
   0  -4   5    4.20    5.50
  -2   4  -5   87.69    9.10
   2  -4   5   94.39    8.70
   4  -4   5  181.88   12.10
   6  -4   5   -1.90    9.90
  17   3  -5   86.59   17.10
  15   3  -5   63.99   12.80
  13   3  -5   50.69    9.90
  11   3  -5  322.87   12.40
   9   3  -5  192.18    8.50
   9   3  -5  196.28   10.20
   7   3  -5   21.40    4.50
   7   3  -5   23.30    4.10
   5   3  -5  190.48    7.50
  -5  -3   5  210.78    9.60
   3   3  -5   26.80    4.30
  -3  -3   5   34.70    5.60
   1   3  -5   -1.00    4.20
  -1  -3   5    4.30    4.30
  -1   3  -5   23.90    5.60
   1  -3   5   37.90    6.80
   3  -3   5  111.49    9.40
   5  -3   5   12.70    8.80
   7  -3   5   81.99   11.10
   7  -3   5   92.29   14.30
  16   2  -5   -9.30   12.20
  16   2  -5    8.50   12.00
  14   2  -5   58.49    9.60
  12   2  -5   21.10    6.50
  10   2  -5   55.19    7.20
 -10  -2   5   69.09    9.10
   8   2  -5   41.20    5.30
   8   2  -5   36.70    5.10
  -8  -2   5   56.69    7.70
   6   2  -5    8.20    4.00
  -6  -2   5   13.70    5.50
   4   2  -5   33.20    4.60
  -4  -2   5   41.40    6.10
   2   2  -5    1.10    3.10
  -2  -2   5   -0.80    4.40
   0   2  -5    1.10    4.20
   0  -2   5    5.60    4.20
   2  -2   5   27.50    6.50
   4  -2   5   12.50    7.00
   6  -2   5   18.70    9.20
   6  -2   5   27.30    9.30
   8  -2   5   -9.10   12.30
   8  -2   5    8.80   12.70
  17   1  -5   59.49   14.00
  17   1  -5   41.40   14.80
  15   1  -5   10.50   11.00
  15   1  -5   22.40   10.10
  13   1  -5   21.80   10.90
 -11  -1   5   -3.00    8.00
   9   1  -5   47.10    6.60
  -9  -1   5   45.50    7.40
   7   1  -5   14.90    3.90
   7   1  -5   14.10    3.50
  -7  -1   5   18.50    5.50
   5   1  -5   99.99    5.50
  -5  -1   5   93.59    7.30
   3   1  -5    3.80    3.10
  -3  -1   5    8.30    5.10
   1   1  -5   38.30    5.00
  -1  -1   5   35.10    5.10
   1  -1   5   16.00    4.90
   3  -1   5   39.00    7.10
   5  -1   5    5.00    7.90
   7  -1   5   12.70   10.10
   7  -1   5    2.40   10.00
  16   0  -5    3.40   13.30
  14   0  -5   -5.20   10.20
 -10   0   5   11.40    6.90
   8   0  -5    3.30    3.70
  -8   0   5    2.80    6.10
   6   0  -5   -0.40    2.80
  -6   0   5   -5.70    4.70
   4   0  -5    4.40    3.00
  -4   0   5   -5.20    4.40
   2   0  -5    4.30    3.30
  -2   0   5    1.20    4.30
   0   0   5   43.10    6.40
   2   0   5   -3.00    4.40
   4   0   5    6.70    6.70
   6   0   5   16.10    7.80
   6   0   5    4.60    8.60
   8   0   5  -11.90   11.80
   8   0   5    2.80   10.50
  17  -1  -5   63.49   17.50
  15  -1  -5   16.60   12.00
  13  -1  -5   26.70    8.90
 -11   1   5   -8.50    7.30
   9  -1  -5   49.90    5.50
  -9   1   5   53.99    8.00
   7  -1  -5   12.80    3.10
  -7   1   5    4.20    5.20
   5  -1  -5  103.79    5.00
  -5   1   5   94.79    8.30
   3  -1  -5    7.10    3.30
  -3   1   5    2.80    5.10
  -1   1   5   38.60    6.00
   1   1   5   21.10    6.00
   3   1   5   21.20    6.00
   5   1   5   16.00    7.00
   5   1   5   14.40    7.40
   7   1   5    3.30   10.40
   7   1   5   10.10    9.00
  16  -2  -5   12.60   14.30
  14  -2  -5   63.49   12.40
 -10   2   5   71.59   10.30
  -8   2   5   34.10    7.10
  -6   2   5    8.30    5.00
   4  -2  -5   30.30    4.30
  -4   2   5   30.90    5.80
  -2   2   5    3.10    5.20
   0   2   5    7.30    5.80
   2   2   5   15.90    4.40
   2   2   5   22.80    6.70
   4   2   5   10.80    7.50
   4   2   5   11.70    6.00
   6   2   5   16.90    9.80
   6   2   5   20.70    8.40
   8   2   5    3.10   11.90
   8   2   5   26.10   14.40
  17  -3  -5   98.39   18.60
  15  -3  -5   47.70   15.00
  13  -3  -5   49.80   11.30
 -11   3   5  320.27   16.90
  -9   3   5  174.48   11.80
  -7   3   5   31.80    7.70
  -5   3   5  198.48   10.90
  -5   3   5  213.28    8.40
  -3   3   5   36.50    6.70
  -3   3   5   34.90    4.90
  -1   3   5    2.00    3.80
  -1   3   5    7.10    5.90
   1   3   5   28.90    4.60
   1   3   5   28.70    7.00
   3   3   5  102.19    8.10
   3   3   5   80.29   11.00
   5   3   5   16.90    9.20
   5   3   5   12.60    7.10
   7   3   5   61.29   14.30
  16  -4  -5  213.08   23.10
  14  -4  -5  156.68   17.30
 -10   4   5 1192.38   31.60
  -8   4   5   29.20    7.90
  -6   4   5  376.96   12.10
  -6   4   5  367.26   15.30
  -4   4   5  213.88    9.20
  -4   4   5  206.88   11.70
  -2   4   5    0.30    6.10
  -2   4   5   -3.50    3.90
   0   4   5    3.50    7.10
   0   4   5    0.10    4.10
   2   4   5   83.79    7.70
   2   4   5   81.19   10.80
   4   4   5  190.98   11.00
   4   4   5  170.48   14.30
   6   4   5    9.10   13.00
   6   4   5   -1.70    8.50
  15  -5  -5   11.10   13.30
  13  -5  -5   26.00   12.10
  -9   5   5  125.99   12.50
  -7   5   5   68.89   10.00
  -7   5   5   62.09    8.80
  -5   5   5   80.19   10.80
  -5   5   5   52.79    7.30
  -3   5   5   85.89    8.30
  -3   5   5  106.09   10.90
  -1   5   5    8.00    5.40
  -1   5   5   11.30    8.20
   1   5   5   72.09   11.10
   1   5   5   56.79    8.10
   3   5   5   49.40    7.50
   3   5   5   52.89   11.20
   5   5   5  -14.30   12.20
   5   5   5   21.70    9.40
   7   5   5   52.39   12.10
   7   5   5   48.50   16.30
  14  -6  -5   -3.30   12.50
  12  -6  -5  -17.80    9.60
  -8   6   5   -1.60    9.30
  -8   6   5   -4.50    6.90
  -6   6   5   50.89    8.30
  -6   6   5   56.09   10.50
  -4   6   5   16.00    9.00
  -4   6   5   16.80    7.20
  -2   6   5    1.10    5.40
  -2   6   5   12.80    8.90
   0   6   5   14.80    6.80
   0   6   5    0.90    9.60
   2   6   5   15.50   10.70
   2   6   5   -4.40    7.60
   4   6   5    5.80   12.80
   4   6   5   26.60    9.50
   6   6   5   -4.50   11.10
   6   6   5    8.90   16.80
  13  -7  -5   98.59   18.10
  11  -7  -5   32.10   12.80
  -9   7   5    4.50    9.30
  -9   7   5   25.80   12.60
  -7   7   5  218.78   17.50
  -7   7   5  228.78   13.50
  -5   7   5   39.70   11.60
  -3   7   5  129.39   11.20
  -3   7   5  128.79   16.20
  -1   7   5  308.47   13.20
  -1   7   5  299.67   18.50
   1   7   5  153.68   17.20
   1   7   5  175.88   12.00
   3   7   5   -2.00    9.80
   3   7   5   34.90   14.40
   5   7   5  124.89   18.10
   5   7   5  185.78   16.30
  12  -8  -5   35.70   15.10
  10  -8  -5   43.60   15.90
 -10   8   5   -3.70   10.10
  -8   8   5   18.30    9.90
  -8   8   5   30.00   14.10
  -6   8   5  182.28   19.40
  -6   8   5  205.28   14.30
  -4   8   5   18.80   12.90
  -4   8   5    6.80    9.60
  -2   8   5  485.35   18.20
  -2   8   5  497.05   24.30
   0   8   5  476.55   18.00
   0   8   5  496.95   23.90
   2   8   5    7.00   10.10
   2   8   5    3.00   16.20
   4   8   5  114.69   19.20
   4   8   5  111.89   15.50
  11  -9  -5   14.90   15.80
   9  -9  -5   67.59   20.50
  -7   9   5   16.50   11.00
  -5   9   5    5.00   14.00
  -5   9   5    2.90   10.20
  -3   9   5    9.00   10.90
  -3   9   5   29.40   16.20
  -1   9   5   54.39   18.60
  -1   9   5   63.69   11.00
   1   9   5   58.59   19.30
   1   9   5    9.80   12.30
   8 -10  -5    3.10   20.30
  -8  10   5   37.40   15.30
  -6  10   5   23.30   13.50
  -4  10   5  -10.50   12.30
  -4  10   5   13.70   19.60
  -2  10   5   22.60   13.70
  -2  10   5    5.60   19.10
   9   9  -6   25.00   11.80
   9   9  -6   65.59   12.60
   7   9  -6   22.10   10.40
   7   9  -6   -3.60   10.80
   5   9  -6   25.10    9.60
   5   9  -6   24.70   10.90
   3   9  -6   14.50    9.90
  12   8  -6   12.00   11.20
  12   8  -6    0.90   13.70
  10   8  -6   20.50   10.10
  10   8  -6   22.10    9.70
   8   8  -6   -0.50    8.20
   8   8  -6   12.00    9.10
   6   8  -6   55.29    9.60
   6   8  -6   43.70    9.30
   4   8  -6    8.20    8.10
   2   8  -6  117.39   12.70
   0   8  -6  119.39   14.40
   0  -8   6   99.29   15.90
  13   7  -6   21.20   14.00
  13   7  -6   10.00   12.00
  11   7  -6    2.00    8.10
  11   7  -6    7.80    9.70
   9   7  -6    2.70    7.90
   9   7  -6    5.00    7.70
   7   7  -6   21.60    7.70
   7   7  -6   12.70    7.90
   5   7  -6    9.70    7.30
   3   7  -6   17.30    8.00
  -3  -7   6   14.10    8.50
   1   7  -6   43.00    9.10
  -1  -7   6   37.20   10.30
  -1   7  -6   10.30   10.70
   1  -7   6   14.30   11.30
  14   6  -6   14.50   14.20
  12   6  -6   36.30   10.50
  12   6  -6   43.20   10.50
  10   6  -6    6.10    7.70
  10   6  -6  -15.00    6.90
   8   6  -6   31.70    6.80
   8   6  -6   23.00    7.10
   6   6  -6    6.00    5.70
   4   6  -6   23.30    6.50
  -4  -6   6   35.00    8.70
   2   6  -6    1.70    6.20
  -2  -6   6   27.20    8.60
   0   6  -6   13.10    7.70
   0  -6   6   18.50    9.40
  -2   6  -6   25.40   10.80
   2  -6   6   23.60   11.60
   4  -6   6    6.20   14.40
  15   5  -6   44.90   14.50
  13   5  -6   32.80   10.90
  13   5  -6   41.40   10.60
  11   5  -6  108.69   11.30
  11   5  -6   83.39   11.40
   9   5  -6   -5.10    5.80
   9   5  -6    3.40    6.50
   7   5  -6   37.00    6.70
   5   5  -6   -1.40    5.20
  -5  -5   6    6.00    6.80
   3   5  -6    7.70    5.80
  -3  -5   6   -3.80    7.10
   1   5  -6   18.20    7.20
  -1  -5   6    7.70    7.00
  -1   5  -6   -3.60    7.50
   1  -5   6    1.30    8.50
   3  -5   6   -4.90    9.80
   5  -5   6    3.60   13.80
  16   4  -6  146.99   20.50
  14   4  -6   23.60   10.50
  12   4  -6  198.08   13.60
  12   4  -6  223.68   12.90
  10   4  -6  369.36   13.30
  10   4  -6  361.96   14.30
   8   4  -6    4.20    5.30
   6   4  -6  122.59    8.20
  -6  -4   6  127.79   11.30
   4   4  -6   74.89    7.40
  -4  -4   6   88.09    9.50
   2   4  -6   -4.20    5.30
  -2  -4   6    1.30    6.60
   0   4  -6    0.50    6.40
   0  -4   6   16.10    7.00
   2  -4   6   36.70    9.20
   4  -4   6   31.20   12.10
  17   3  -6   31.40   16.40
  15   3  -6   14.00   11.10
  13   3  -6   27.00    9.00
  11   3  -6   72.59    9.90
  11   3  -6   70.19    8.00
   9   3  -6  290.57   10.10
   9   3  -6  297.97   11.80
  -9  -3   6  299.27   14.80
   7   3  -6   30.40    5.90
  -7  -3   6   31.50    8.30
   5   3  -6  235.78    9.40
  -5  -3   6  239.78   11.90
   3   3  -6  101.99    7.80
  -3  -3   6  104.79    9.50
   1   3  -6   12.10    5.50
  -1  -3   6    6.90    6.20
  -1   3  -6   83.49    9.60
   1  -3   6   60.59    9.40
   3  -3   6  102.49   12.90
   5  -3   6   10.60   13.00
  16   2  -6   10.90   13.10
  14   2  -6   21.90   11.50
  14   2  -6   19.40    9.70
  12   2  -6   14.80    8.10
  12   2  -6    2.60    7.40
 -12  -2   6    2.50   10.00
  10   2  -6   28.10    6.00
  10   2  -6   23.00    6.30
 -10  -2   6   30.90    8.70
   8   2  -6   12.10    5.00
  -8  -2   6   10.50    7.10
   6   2  -6   61.99    6.50
  -6  -2   6   81.09    8.90
   4   2  -6   42.50    5.90
  -4  -2   6   39.80    7.50
   2   2  -6   58.39    7.20
  -2  -2   6   52.19    8.20
   0   2  -6   40.20    6.80
   0  -2   6   31.00    6.50
   2  -2   6   18.90    7.40
   4  -2   6    8.00   10.00
   6  -2   6  -10.90   13.40
  17   1  -6  -20.70   15.70
  17   1  -6    0.30   14.00
  15   1  -6  113.49   15.00
  15   1  -6  100.79   13.60
  13   1  -6   11.90    8.10
  11   1  -6   -3.20    6.40
  11   1  -6   -5.70    6.60
 -11  -1   6   11.00    9.30
   9   1  -6  104.49    7.60
   9   1  -6  103.09    7.30
  -9  -1   6   94.39   10.90
   7   1  -6  219.98    7.90
  -7  -1   6  182.28   11.30
   5   1  -6    6.60    4.00
  -5  -1   6    8.20    6.40
   3   1  -6  193.78    8.90
  -3  -1   6  200.48   10.90
   1   1  -6  321.07   11.40
  -1  -1   6  306.17   12.40
   1  -1   6   79.19    9.60
   3  -1   6    9.60    7.10
   5  -1   6   68.99   11.80
  16   0  -6  151.08   20.40
  12   0  -6  158.38   11.70
 -12   0   6  179.38   14.70
  10   0  -6   23.80    5.30
 -10   0   6   14.90    8.40
   8   0  -6   65.79    6.40
  -8   0   6   67.49    9.10
   6   0  -6 1099.19   22.00
  -6   0   6 1081.29   26.00
   4   0  -6   35.00    5.10
  -4   0   6   45.00    7.80
   2   0  -6 1975.10   37.30
  -2   0   6 1945.21   40.10
   0   0   6 1625.94   35.10
   2   0   6   55.49    9.00
   4   0   6  294.87   16.40
   6   0   6   27.30   12.50
  17  -1  -6   25.20   17.50
  15  -1  -6  108.89   18.50
 -13   1   6   26.10   11.30
  11  -1  -6    5.30    6.50
 -11   1   6    8.90    9.00
   9  -1  -6   98.99    6.70
  -9   1   6   82.99   11.20
   7  -1  -6  219.78    7.60
  -7   1   6  190.08   11.70
   5  -1  -6   -0.30    3.90
  -5   1   6    7.40    6.10
   3  -1  -6  192.08    8.70
  -3   1   6  166.78   11.20
  -1   1   6  288.47   13.40
   1   1   6   94.09   10.50
   3   1   6    2.80    8.50
   5   1   6   80.39   14.00
  16  -2  -6   12.30   16.50
 -12   2   6   15.00   10.30
 -10   2   6    6.90    8.20
  -8   2   6    8.10    7.00
   6  -2  -6   63.99    5.80
  -6   2   6   71.69   10.20
   4  -2  -6   41.30    5.40
  -4   2   6   42.30    7.80
  -2   2   6   67.29    9.30
   0   2   6   38.60    7.80
   2   2   6   21.30    9.40
   4   2   6    2.50    7.90
   4   2   6   28.60   10.50
   6   2   6    1.00   15.00
   6   2   6    4.30   10.30
  17  -3  -6   56.59   20.50
  15  -3  -6   11.70   16.20
 -11   3   6   80.69   12.30
  -9   3   6  275.77   14.80
  -7   3   6   31.60    8.10
  -5   3   6  221.48   12.90
  -5   3   6  242.58   10.00
  -3   3   6   81.69    9.90
  -1   3   6    9.70    7.50
   1   3   6   64.99   10.40
   1   3   6   49.99    7.60
   3   3   6   60.49    9.50
   3   3   6   96.39   14.70
   5   3   6   18.40   13.70
   5   3   6   -7.80    9.10
  16  -4  -6  102.69   19.80
  14  -4  -6   14.00   15.10
 -12   4   6  192.18   18.50
 -10   4   6  358.56   18.40
  -8   4   6    1.20    7.70
  -6   4   6  135.49   10.20
  -6   4   6  109.09   11.30
  -4   4   6   80.79   10.60
  -4   4   6   79.39    8.80
  -2   4   6   -5.10    5.60
  -2   4   6    3.00    7.70
   0   4   6    7.90    6.10
   0   4   6   -6.00    9.00
   2   4   6   37.90   11.90
   2   4   6   52.99    7.50
   4   4   6   43.30    9.10
   4   4   6   50.49   14.50
  15  -5  -6   -0.80   14.50
 -11   5   6  128.19   16.80
  -9   5   6    4.70    8.90
  -7   5   6   19.50    8.60
  -7   5   6   34.40    8.30
  -5   5   6   -6.70    8.20
  -5   5   6    2.50    6.50
  -3   5   6   -2.80    6.00
  -3   5   6   17.10    9.00
  -1   5   6   14.80    9.60
  -1   5   6    8.30    6.30
   1   5   6   21.10   11.60
   1   5   6    3.80    7.50
   3   5   6   11.60   13.90
   3   5   6   10.80    8.70
   5   5   6    8.90   11.10
   5   5   6   -7.90   17.50
  14  -6  -6   19.10   17.30
 -10   6   6   -4.50   11.90
  -8   6   6   49.60   10.30
  -8   6   6   54.79   12.80
  -6   6   6   -6.40    7.60
  -6   6   6    0.10    9.50
  -4   6   6   35.00   10.60
  -4   6   6   25.00    9.00
  -2   6   6   35.30   11.70
  -2   6   6   21.30    8.10
   0   6   6    2.70    8.00
   0   6   6   37.90   13.70
   2   6   6   37.90   14.40
   2   6   6   22.20    9.50
   4   6   6   -8.30   11.30
   4   6   6   26.80   18.00
  -9   7   6  -19.60   10.50
  -9   7   6   -3.80   13.00
  -7   7   6   33.20   13.90
  -7   7   6   24.40    9.40
  -5   7   6   15.00    9.70
  -5   7   6    5.70   12.00
  -3   7   6   21.50   10.30
  -3   7   6   37.10   13.80
  -1   7   6   53.59   16.00
  -1   7   6   33.80    9.90
   1   7   6    4.90   16.00
   1   7   6   -4.20   10.20
   3   7   6   22.50   12.20
   3   7   6   22.10   17.60
  12  -8  -6   20.50   18.20
 -10   8   6  -25.90   12.90
  -8   8   6   21.60   15.40
  -8   8   6  -12.10   11.20
  -6   8   6  100.19   15.50
  -6   8   6   77.89   17.60
  -4   8   6   12.40   17.50
  -2   8   6  129.49   20.80
  -2   8   6  105.59   14.10
   0   8   6   65.69   12.00
   0   8   6   98.09   20.40
  -9   9   6   85.19   16.50
  -7   9   6  -17.50   19.10
  -7   9   6   17.40   14.50
  -5   9   6   44.00   14.50
  -5   9   6   32.80   20.60
  -3   9   6  -23.90   12.80
  -3   9   6   18.50   20.10
   8   8  -7   15.40   10.50
   6   8  -7  113.59   14.30
   4   8  -7  -11.60    9.70
  11   7  -7   15.40   10.40
  11   7  -7   -6.10   10.10
   9   7  -7   36.00    9.70
   7   7  -7  124.39   12.90
   5   7  -7    8.30    9.40
   3   7  -7   81.19   11.20
  -3  -7   7   99.49   13.60
   1   7  -7  153.98   15.80
  -1  -7   7  173.68   18.70
  14   6  -7    1.00   12.40
  14   6  -7   24.20   14.60
  12   6  -7   18.80   10.40
  12   6  -7   12.10   10.50
  10   6  -7   59.19   10.50
  10   6  -7   38.30    8.30
   8   6  -7   12.30    7.70
   6   6  -7   11.30    7.60
   4   6  -7   -6.60    6.60
  -4  -6   7   12.70   10.40
   2   6  -7   19.10    9.50
  -2  -6   7    7.70   11.30
   0   6  -7   11.70   11.30
   0  -6   7   -4.70   12.80
  15   5  -7   17.00   15.10
  15   5  -7    1.10   13.60
  13   5  -7   33.00   10.50
  13   5  -7   10.70   11.20
  11   5  -7   39.40    8.80
  11   5  -7   46.60    9.60
   9   5  -7  106.19   10.90
   7   5  -7    3.00    6.60
  -7  -5   7   29.00   10.10
   5   5  -7   53.59    8.20
  -5  -5   7   49.70   10.80
   3   5  -7   16.60    7.90
  -3  -5   7   38.80   10.80
   1   5  -7    7.10    9.50
  -1  -5   7   27.70   12.30
  -1   5  -7   39.80   11.80
   1  -5   7   23.80   11.90
  14   4  -7   30.00   11.50
  12   4  -7  436.06   17.70
  12   4  -7  437.06   16.80
  10   4  -7  563.94   17.90
   8   4  -7    2.00    6.40
  -8  -4   7    3.00    9.80
   6   4  -7  169.38   10.10
  -6  -4   7  172.08   13.80
   4   4  -7   76.09    9.20
  -4  -4   7   81.19   11.70
   2   4  -7    2.00    7.20
  -2  -4   7  -15.40    8.30
   0   4  -7   10.50    9.20
   0  -4   7    3.00   10.10
   2  -4   7   40.70   11.90
  15   3  -7   51.19   12.90
  15   3  -7   35.30   12.30
  13   3  -7   93.09   11.80
  13   3  -7   62.19   10.30
  11   3  -7  212.98   12.40
  11   3  -7  218.28   11.40
 -11  -3   7  209.88   17.80
   9   3  -7   72.89    8.80
  -9  -3   7   62.19   11.70
   7   3  -7   25.80    6.10
  -7  -3   7   24.50    9.10
   5   3  -7   83.29    8.50
  -5  -3   7   90.09   12.90
   3   3  -7    4.90    6.60
  -3  -3   7   16.70    9.50
   1   3  -7   -0.10    6.90
  -1  -3   7   10.20    9.20
   1  -3   7    1.70    9.40
   3  -3   7   45.00   12.80
  16   2  -7   43.70   15.40
  16   2  -7   26.20   15.90
  14   2  -7   32.00   11.50
  14   2  -7   43.60   11.80
  12   2  -7   24.30    8.40
  12   2  -7   20.20    8.20
 -12  -2   7   24.50   12.70
  10   2  -7    0.10    6.40
 -10  -2   7   -8.10    9.80
   8   2  -7   17.30    6.10
  -8  -2   7   30.60    9.80
   6   2  -7    1.50    5.70
  -6  -2   7    3.40    8.30
   4   2  -7   12.50    6.20
  -4  -2   7    3.90    7.90
   2   2  -7   -1.30    6.60
  -2  -2   7    4.30    8.80
   0  -2   7    6.30    9.20
   2  -2   7  -10.40   10.80
   4  -2   7    6.70   14.60
  17   1  -7   37.90   17.50
  17   1  -7   -2.50   18.20
  15   1  -7   14.60   12.30
  15   1  -7   27.10   11.80
  13   1  -7    8.30    9.10
  13   1  -7   11.50    9.00
 -13  -1   7   18.50   12.90
  11   1  -7   -7.00    6.70
  11   1  -7   -7.40    6.70
 -11  -1   7   11.30   11.30
   9   1  -7   21.30    5.50
  -9  -1   7    6.40    8.70
   7   1  -7   10.50    5.00
  -7  -1   7    1.10    7.60
   5   1  -7   25.60    5.70
  -5  -1   7   22.60    8.90
   3   1  -7   -2.90    6.10
  -3  -1   7    0.20    8.60
  -1  -1   7    7.10    8.60
   1  -1   7   26.90   10.30
   3  -1   7    5.60   12.90
  16   0  -7  -21.20   13.50
  16   0  -7   24.80   17.90
  14   0  -7  106.29   13.70
 -14   0   7   84.69   16.80
  12   0  -7   -6.90    7.20
 -12   0   7    6.60   11.60
  10   0  -7    3.40    5.50
 -10   0   7   -1.80    9.50
   8   0  -7    2.10    5.30
  -8   0   7   12.50    8.40
   6   0  -7    4.50    5.10
  -6   0   7   -1.40    7.80
   4   0  -7   -3.90    5.70
  -4   0   7    9.60    8.20
  -2   0   7   -0.90    8.10
   2   0   7   -2.40    9.80
   4   0   7   -4.80   14.20
  17  -1  -7   55.09   21.30
  15  -1  -7   -1.60   11.70
  13  -1  -7   27.80    8.80
 -13   1   7   17.70   12.90
  11  -1  -7    1.70    6.20
 -11   1   7  -10.70    9.70
   9  -1  -7   12.70    5.10
  -9   1   7   17.70    9.50
   7  -1  -7    2.80    4.60
  -7   1   7   -5.60    7.80
   5  -1  -7   23.70    6.10
  -5   1   7   20.00    8.10
  -3   1   7    1.90    8.60
  -1   1   7    8.40    9.40
   1   1   7   33.60   11.10
   3   1   7   27.40   13.50
  16  -2  -7   27.90   13.50
  16  -2  -7   -0.10   16.80
  14  -2  -7   48.70   10.70
 -14   2   7   48.10   16.20
 -12   2   7    8.30   11.90
 -10   2   7    6.30    9.00
   8  -2  -7   11.70    5.00
  -8   2   7   20.20    9.40
   6  -2  -7    4.40    6.00
  -6   2   7  -11.80    8.30
  -4   2   7   15.50    9.30
  -2   2   7    4.70    8.80
   0   2   7  -12.90   10.10
   2   2   7    8.70   12.90
   4   2   7   16.80   17.10
 -13   3   7   90.49   17.10
 -11   3   7  217.78   18.10
  -9   3   7   52.29   11.90
  -7   3   7   10.40    9.00
  -5   3   7   74.09   11.60
  -3   3   7    8.20    9.10
  -1   3   7    7.40   10.20
   1   3   7   18.30   13.00
   3   3   7   30.20   15.20
 -12   4   7  458.25   24.30
 -10   4   7  544.55   23.80
  -8   4   7    3.80   10.10
  -6   4   7  167.88   15.30
  -6   4   7  203.58   13.90
  -4   4   7   89.99   13.20
  -2   4   7    6.30   10.30
   0   4   7    7.20   12.20
   2   4   7   59.79   16.40
  15  -5  -7   -1.80   21.90
 -13   5   7   42.70   17.70
 -11   5   7   49.99   14.20
  -9   5   7  104.09   15.40
  -7   5   7   10.40   10.30
  -7   5   7   17.20   12.30
  -5   5   7   42.10   10.00
  -5   5   7   46.50   12.30
  -3   5   7   41.10   10.10
  -3   5   7   37.60   13.40
  -1   5   7   -3.30    8.90
  -1   5   7   27.50   13.60
   1   5   7   49.60   15.90
   1   5   7   19.60    9.80
 -12   6   7  -16.60   16.60
 -10   6   7   27.60   15.40
  -8   6   7   -3.80   12.70
  -8   6   7   25.10   11.60
  -6   6   7   21.40   10.40
  -6   6   7   27.90   14.20
  -4   6   7   -4.50   12.80
  -4   6   7   29.20   11.00
  -2   6   7   -0.90   10.90
  -2   6   7   24.80   15.20
   0   6   7   42.20   18.30
   0   6   7   21.10   11.20
 -11   7   7  -24.40   18.00
  -9   7   7   23.10   14.80
  -9   7   7   47.90   18.90
  -7   7   7  149.99   20.70
  -7   7   7  149.19   18.20
  -5   7   7  -18.90   11.80
  -5   7   7   14.30   15.70
  -3   7   7  116.99   17.50
  -3   7   7  119.39   19.90
  -1   7   7  163.18   25.20
  -8   8   7   45.90   16.60
  -8   8   7   35.00   20.40
  -6   8   7  158.68   24.70
  -6   8   7  102.59   16.20
  -4   8   7    4.70   14.00
  -4   8   7   35.70   22.50
  10   6  -8  -10.70    9.40
   8   6  -8   19.80    9.60
   6   6  -8    7.00   10.00
  -6  -6   8   13.70   13.40
   4   6  -8   -5.70    9.70
  -4  -6   8   12.40   14.20
  13   5  -8   44.50   12.20
  11   5  -8   54.69   10.60
   9   5  -8    4.30    8.90
  -9  -5   8   -1.40   13.20
   7   5  -8    6.40    9.20
  -7  -5   8   31.30   12.60
   5   5  -8   -5.00    8.30
  -5  -5   8   32.30   13.60
   3   5  -8   -1.00    9.90
  -3  -5   8    2.70   13.40
  14   4  -8   10.40   12.30
  14   4  -8   17.40   12.10
  12   4  -8  187.78   14.80
  10   4  -8  163.88   12.90
 -10  -4   8  165.18   19.40
   8   4  -8  -11.40    7.60
  -8  -4   8   28.60   12.30
   6   4  -8   54.89    9.40
  -6  -4   8   63.39   13.80
   4   4  -8   26.50    9.60
  -4  -4   8   38.60   12.80
   2   4  -8  -15.70   10.30
  -2  -4   8   25.50   14.20
   0  -4   8   -0.80   15.30
  15   3  -8   10.50   12.10
  15   3  -8    3.80   12.50
  13   3  -8    9.20   10.30
  13   3  -8    6.90   10.20
 -13  -3   8   -2.60   15.80
  11   3  -8   61.89    9.50
 -11  -3   8   72.99   15.80
   9   3  -8  151.18   11.60
  -9  -3   8  138.29   17.70
   7   3  -8   -0.40    7.10
  -7  -3   8   17.20   12.50
   5   3  -8  104.59   11.10
  -5  -3   8  112.79   14.40
   3   3  -8   -1.90    9.40
  -3  -3   8   26.30   13.10
   1   3  -8    5.40   10.70
  -1  -3   8    7.30   12.90
  14   2  -8   -1.30   10.80
  14   2  -8   -6.10   10.60
 -14  -2   8   22.40   17.70
  12   2  -8   10.60    8.90
 -12  -2   8  -19.00   15.10
  10   2  -8   30.30    8.30
 -10  -2   8   33.50   13.60
   8   2  -8    2.00    7.20
  -8  -2   8   -0.30   11.70
   6   2  -8   22.60    7.30
  -6  -2   8   39.20   12.50
   4   2  -8   17.40    8.00
  -4  -2   8   26.10   12.60
   2   2  -8   15.30   10.10
  -2  -2   8   28.30   13.20
   0  -2   8   19.60   14.60
  15   1  -8  102.69   14.40
  15   1  -8   89.59   15.00
 -15  -1   8   94.89   20.00
  13   1  -8   11.60    9.70
  13   1  -8   19.70   10.20
 -13  -1   8   23.10   17.30
  11   1  -8    2.30    7.10
 -11  -1   8    1.60   13.60
   9   1  -8   69.49    9.70
  -9  -1   8   79.59   13.30
   7   1  -8   82.89    9.70
  -7  -1   8   91.09   12.90
   5   1  -8    7.40    7.60
  -5  -1   8   14.70   11.50
   3   1  -8   87.39   12.40
  -3  -1   8  102.49   14.50
  -1  -1   8  118.09   15.90
   1  -1   8   15.50   14.90
  16   0  -8  151.68   18.40
  16   0  -8  124.29   16.90
  14   0  -8  143.19   14.50
  14   0  -8  111.79   13.70
 -14   0   8  149.09   21.20
  12   0  -8    9.00    8.60
  12   0  -8   21.60    9.70
 -12   0   8   26.50   15.00
  10   0  -8    8.10    7.50
 -10   0   8   14.20   12.80
   8   0  -8  107.79    9.90
  -8   0   8  114.89   16.20
   6   0  -8  339.17   13.40
  -6   0   8  318.77   18.50
   4   0  -8   20.00    8.60
  -4   0   8   14.00   11.60
  -2   0   8  782.32   26.60
   0   0   8  391.16   22.50
  15  -1  -8   70.59   12.40
 -15   1   8   65.49   20.70
  13  -1  -8   10.10    8.60
 -13   1   8   38.00   15.70
  11  -1  -8    6.50    7.40
 -11   1   8   17.20   13.50
   9  -1  -8   61.29    8.10
  -9   1   8   98.69   14.80
   7  -1  -8   75.89    9.80
  -7   1   8   70.19   14.20
   5  -1  -8    4.20    7.80
  -5   1   8    0.60   10.20
  -3   1   8  101.89   14.70
  -1   1   8  143.59   18.10
   1   1   8   21.40   15.70
 -14   2   8  -15.30   16.20
 -12   2   8  -10.90   13.60
 -10   2   8    4.50   13.10
   8  -2  -8   13.30    7.60
  -8   2   8   -4.20   10.90
   6  -2  -8   35.00    8.70
  -6   2   8   10.00   11.50
  -4   2   8  -16.90   11.20
  -2   2   8   30.10   14.20
   0   2   8    9.20   15.80
 -15   3   8   13.80   21.00
 -13   3   8  -19.40   15.30
 -11   3   8  136.19   20.20
  -9   3   8  126.19   18.30
  -7   3   8   17.40   12.80
  -5   3   8  123.99   17.80
  -3   3   8   18.10   13.30
  -1   3   8  -21.40   14.90
 -14   4   8    7.20   19.50
 -12   4   8  210.88   24.00
 -10   4   8  153.18   21.70
  -8   4   8    8.80   13.30
  -6   4   8   66.19   14.80
  -4   4   8   36.60   14.50
  -2   4   8   14.10   16.50
   0   4   8    5.40   18.60
 -13   5   8   37.00   21.10
 -11   5   8   76.39   18.90
  -9   5   8   13.80   15.40
  -7   5   8    4.70   14.80
  -5   5   8   12.20   16.30
  -3   5   8    6.10   17.20
 -10   6   8   28.00   20.20
  -8   6   8    4.70   15.20
  -8   6   8   10.50   17.30
  -6   6   8    7.90   14.70
  -6   6   8   17.60   18.00
  -4   6   8  -10.00   18.80
  -4   6   8   23.90   14.90
  10   4  -9  229.98   17.00
 -10  -4   9  188.48   24.40
   8   4  -9  -12.60   10.60
  -8  -4   9   30.30   16.20
   6   4  -9   83.49   12.60
  -6  -4   9   74.89   17.90
  11   3  -9  133.89   15.20
 -11  -3   9  116.89   19.90
   9   3  -9    5.60    9.80
  -9  -3   9   28.30   16.80
   7   3  -9   25.00   10.30
  -7  -3   9   42.50   16.50
   5   3  -9   30.80   11.40
  -5  -3   9   23.60   16.90
  12   2  -9    7.60   10.10
 -12  -2   9    5.30   19.10
  10   2  -9   14.00   10.40
 -10  -2   9   26.10   17.10
   8   2  -9   29.30    9.80
  -8  -2   9   24.60   16.50
   6   2  -9    7.80   10.30
  -6  -2   9   22.50   15.80
   4   2  -9   24.00   12.30
  -4  -2   9   12.40   16.90
  13   1  -9    4.40   11.60
 -13  -1   9    9.90   19.60
  11   1  -9    1.90    9.40
 -11  -1   9    4.10   18.00
   9   1  -9   19.30    9.40
  -9  -1   9   35.20   16.90
   7   1  -9    6.40    9.40
  -7  -1   9   24.90   15.10
   5   1  -9    5.10   10.70
  -5  -1   9   37.60   15.70
  -3  -1   9    7.90   16.10
  14   0  -9   -3.70   11.20
  12   0  -9    7.20    9.60
 -12   0   9   27.40   18.60
  10   0  -9    4.70    9.10
 -10   0   9   27.20   16.50
   8   0  -9    0.10    9.00
  -8   0   9   16.40   15.70
   6   0  -9   16.90   10.10
  -6   0   9   -6.70   14.80
  -4   0   9   48.60   17.40
  13  -1  -9   13.50    9.90
 -13   1   9   14.60   21.10
  11  -1  -9   15.30    9.20
 -11   1   9   18.70   18.20
   9  -1  -9    6.50    8.90
  -9   1   9    3.90   15.80
   7  -1  -9   18.30   10.10
  -7   1   9   -8.50   15.60
  -5   1   9    1.90   15.10
  -3   1   9   20.10   17.80
 -12   2   9   28.00   20.30
  10  -2  -9    2.10    9.30
 -10   2   9   -4.70   16.50
   8  -2  -9   19.60   10.40
  -8   2   9   49.80   17.90
  -6   2   9   -7.60   15.50
  -4   2   9   -6.30   15.90
 -11   3   9  116.99   22.20
  -9   3   9    1.10   18.20
  -7   3   9   54.59   17.80
  -5   3   9   49.30   18.50
 -10   4   9  224.38   28.40
  -8   4   9    4.60   18.90
  -6   4   9  119.39   21.40

_computing_structure_solution     'SHELXT 2014/4 (Sheldrick, 2014)'
;
_shelx_hkl_checksum              38253
loop_
_space_group_symop_operation_xyz
'x, y, z'
'-x, y, -z+1/2'
'x+1/2, y+1/2, z'
'-x+1/2, y+1/2, -z+1/2'
'-x, -y, -z'
'x, -y, z-1/2'
'-x+1/2, -y+1/2, -z'
'x+1/2, -y+1/2, z-1/2'
loop_
_atom_site_label
_atom_site_type_symbol
_atom_site_fract_x
_atom_site_fract_y
_atom_site_fract_z
_atom_site_U_iso_or_equiv
_atom_site_adp_type
_atom_site_occupancy
_atom_site_site_symmetry_order
_atom_site_calc_flag
_atom_site_refinement_flags_posn
_atom_site_refinement_flags_adp
C1 C 0.3903(2) 0.8057(2) 0.7339(3) 0.0364(7) Uani 1 1 d . .
H1A H 0.318960 0.786321 0.720727 0.055 Uiso 1 1 calc R U
H1B H 0.381308 0.860759 0.619314 0.055 Uiso 1 1 calc R U
H1C H 0.434295 0.858085 0.857227 0.055 Uiso 1 1 calc R U
C2 C 0.44724(18) 0.6672(2) 0.7411(3) 0.0275(6) Uani 1 1 d . .
C3 C 0.39547(17) 0.5385(2) 0.7306(3) 0.0279(6) Uani 1 1 d . .
H3 H 0.325066 0.538113 0.717392 0.034 Uiso 1 1 calc R U
C4 C 0.44722(17) 0.4110(2) 0.7397(3) 0.0250(6) Uani 1 1 d . .
C5 C 0.3527(2) 0.1732(2) 0.7202(4) 0.0384(7) Uani 1 1 d . .
N1 N 0.39516(14) 0.28128(19) 0.7295(2) 0.0287(6) Uani 1 1 d . .
loop_
_atom_site_aniso_label
_atom_site_aniso_U_11
_atom_site_aniso_U_22
_atom_site_aniso_U_33
_atom_site_aniso_U_23
_atom_site_aniso_U_13
_atom_site_aniso_U_12
C1 0.0325(14) 0.0365(14) 0.0421(14) -0.0013(10) 0.0197(12) 0.0044(10)
C2 0.0280(12) 0.0334(13) 0.0220(11) 0.0008(9) 0.0129(10) 0.0014(9)
C3 0.0184(11) 0.0401(14) 0.0257(12) 0.0005(9) 0.0110(10) 0.0031(9)
C4 0.0246(12) 0.0286(12) 0.0219(11) 0.0002(8) 0.0114(9) -0.0040(9)
C5 0.0332(14) 0.0358(14) 0.0478(15) 0.0003(10) 0.0211(12) -0.0013(11)
N1 0.0235(11) 0.0305(11) 0.0323(11) -0.0002(8) 0.0138(9) 0.0004(8)
loop_
_atom_type_symbol
_atom_type_description
_atom_type_scat_dispersion_real
_atom_type_scat_dispersion_imag
_atom_type_scat_source
C C 0.0033 0.0016 'International Tables Vol C Tables 4.2.6.8 and 6.1.1.4'
H H 0.0000 0.0000 'International Tables Vol C Tables 4.2.6.8 and 6.1.1.4'
N N 0.0061 0.0033 'International Tables Vol C Tables 4.2.6.8 and 6.1.1.4'
loop_
_geom_angle_atom_site_label_1
_geom_angle_atom_site_label_2
_geom_angle_atom_site_label_3
_geom_angle
_geom_angle_site_symmetry_1
_geom_angle_site_symmetry_3
C2 C1 H1A 109.5 . .
C2 C1 H1B 109.5 . .
H1A C1 H1B 109.5 . .
C2 C1 H1C 109.5 . .
H1A C1 H1C 109.5 . .
H1B C1 H1C 109.5 . .
C3 C2 C2 119.39(12) . 2_656
C3 C2 C1 120.2(2) . .
C2 C2 C1 120.40(12) 2_656 .
C4 C3 C2 120.8(2) . .
C4 C3 H3 119.6 . .
C2 C3 H3 119.6 . .
C3 C4 C4 119.80(12) . 2_656
C3 C4 N1 120.81(19) . .
C4 C4 N1 119.38(11) 2_656 .
C5 N1 C4 179.3(2) . .
loop_
_geom_bond_atom_site_label_1
_geom_bond_atom_site_label_2
_geom_bond_distance
_geom_bond_site_symmetry_2
C1 C2 1.509(3) .
C1 H1A 0.9600 .
C1 H1B 0.9600 .
C1 H1C 0.9600 .
C2 C3 1.389(3) .
C2 C2 1.400(4) 2_656
C3 C4 1.380(3) .
C3 H3 0.9300 .
C4 C4 1.392(4) 2_656
C4 N1 1.399(3) .
C5 N1 1.158(3) .
