#------------------------------------------------------------------------------
#$Date: 2019-11-17 09:16:52 +0200 (Sun, 17 Nov 2019) $
#$Revision: 229055 $
#$URL: file:///home/coder/svn-repositories/cod/cif/7/23/01/7230156.cif $
#------------------------------------------------------------------------------
#
# This file is available in the Crystallography Open Database (COD),
# http://www.crystallography.net/
#
# All data on this site have been placed in the public domain by the
# contributors.
#
data_7230156
loop_
_publ_author_name
'Mol\<canov, Kre\<simir'
'Stalke, Dietmar'
'\<Santi\'c, Ana'
'Demeshko, Serhiy'
'Stilinovi\'c, Vladimir'
'Mou, Zhongyu'
'Kertesz, Miklos'
'Koji\'c-Prodi\'c, Biserka'
_publ_section_title
;
 Probing semiconductivity in crystals of stable semiquinone radicals:
 organic salts of 5,6-dichloro-2,3-dicyanosemiquinone (DDQ) radical anions
;
_journal_issue                   13
_journal_name_full               CrystEngComm
_journal_page_first              1862
_journal_paper_doi               10.1039/C7CE02146A
_journal_volume                  20
_journal_year                    2018
_chemical_formula_moiety         'C8 Cl2 N2 O2, C7 H9 N2 O'
_chemical_formula_sum            'C15 H9 Cl2 N4 O3'
_chemical_formula_weight         364.16
_space_group_IT_number           2
_space_group_name_Hall           '-P 1'
_space_group_name_H-M_alt        'P -1'
_symmetry_cell_setting           triclinic
_symmetry_space_group_name_Hall  '-P 1'
_symmetry_space_group_name_H-M   'P -1'
_atom_sites_solution_hydrogens   mixed
_audit_creation_date             2017-11-08T12:37:48-00:00
_audit_creation_method           'WinGX routine CIF_UPDATE'
_audit_update_record
;
2017-11-08 deposited with the CCDC.
2018-02-13 downloaded from the CCDC.
;
_cell_angle_alpha                87.618(4)
_cell_angle_beta                 79.679(4)
_cell_angle_gamma                75.627(5)
_cell_formula_units_Z            2
_cell_length_a                   6.8797(4)
_cell_length_b                   10.4684(6)
_cell_length_c                   11.0184(4)
_cell_measurement_reflns_used    3296
_cell_measurement_temperature    293(2)
_cell_measurement_theta_max      75.5984
_cell_measurement_theta_min      4.0748
_cell_volume                     756.26(7)
_computing_cell_refinement
;
        CrysAlisPro, Agilent Technologies,
        Version 1.171.36.20 (release 27-06-2012 CrysAlis171 .NET)
        (compiled Jul 11 2012,15:38:31)
;
_computing_data_collection
;
        CrysAlisPro, Agilent Technologies,
        Version 1.171.36.20 (release 27-06-2012 CrysAlis171 .NET)
        (compiled Jul 11 2012,15:38:31)
;
_computing_data_reduction
;
        CrysAlisPro, Agilent Technologies,
        Version 1.171.36.20 (release 27-06-2012 CrysAlis171 .NET)
        (compiled Jul 11 2012,15:38:31)
;
_computing_molecular_graphics    'Ortep-3 for Windows (Farrugia, 1997)'
_computing_publication_material  'WinGX publication routines (Farrugia, 1999)'
_computing_structure_refinement  'SHELXL-2017/1 (Sheldrick, 2017)'
_computing_structure_solution    'SHELXS-97 (Sheldrick, 1997)'
_diffrn_ambient_temperature      293(2)
_diffrn_detector_area_resol_mean 10.4323
_diffrn_measured_fraction_theta_full 0.994
_diffrn_measured_fraction_theta_max 0.978
_diffrn_measurement_device_type  'Xcalibur, Ruby, Nova'
_diffrn_measurement_method       '\w scans'
_diffrn_radiation_monochromator  mirror
_diffrn_radiation_type           CuK\a
_diffrn_radiation_wavelength     1.54184
_diffrn_reflns_av_R_equivalents  0.0281
_diffrn_reflns_av_unetI/netI     0.0338
_diffrn_reflns_Laue_measured_fraction_full 0.994
_diffrn_reflns_Laue_measured_fraction_max 0.978
_diffrn_reflns_limit_h_max       8
_diffrn_reflns_limit_h_min       -8
_diffrn_reflns_limit_k_max       12
_diffrn_reflns_limit_k_min       -13
_diffrn_reflns_limit_l_max       9
_diffrn_reflns_limit_l_min       -13
_diffrn_reflns_number            6225
_diffrn_reflns_point_group_measured_fraction_full 0.994
_diffrn_reflns_point_group_measured_fraction_max 0.978
_diffrn_reflns_theta_full        67.684
_diffrn_reflns_theta_max         75.785
_diffrn_reflns_theta_min         4.078
_exptl_absorpt_coefficient_mu    4.117
_exptl_absorpt_correction_T_max  1
_exptl_absorpt_correction_T_min  0.83336
_exptl_absorpt_correction_type   multi-scan
_exptl_absorpt_process_details
;
        CrysAlisPro, Agilent Technologies,
        Version 1.171.36.20 (release 27-06-2012 CrysAlis171 .NET)
        (compiled Jul 11 2012,15:38:31)
        Empirical absorption correction using spherical harmonics,
 implemented in SCALE3 ABSPACK scaling algorithm.
;
_exptl_crystal_colour            black
_exptl_crystal_density_diffrn    1.608
_exptl_crystal_density_method    'not measured'
_exptl_crystal_description       prism
_exptl_crystal_F_000             372
_exptl_crystal_size_max          0.18
_exptl_crystal_size_mid          0.11
_exptl_crystal_size_min          0.05
_refine_diff_density_max         0.407
_refine_diff_density_min         -0.465
_refine_diff_density_rms         0.055
_refine_ls_extinction_method     none
_refine_ls_goodness_of_fit_ref   1.095
_refine_ls_hydrogen_treatment    mixed
_refine_ls_matrix_type           full
_refine_ls_number_parameters     224
_refine_ls_number_reflns         3075
_refine_ls_number_restraints     2
_refine_ls_restrained_S_all      1.095
_refine_ls_R_factor_all          0.048
_refine_ls_R_factor_gt           0.0456
_refine_ls_shift/su_max          0
_refine_ls_shift/su_mean         0
_refine_ls_structure_factor_coef Fsqd
_refine_ls_weighting_details
'w=1/[\s^2^(Fo^2^)+(0.0785P)^2^+0.2032P] where P=(Fo^2^+2Fc^2^)/3'
_refine_ls_weighting_scheme      calc
_refine_ls_wR_factor_ref         0.137
_reflns_number_gt                2838
_reflns_number_total             3075
_reflns_threshold_expression     'I > 2\s(I)'
_iucr_refine_instructions_details
;
TITL DDQ_niac_2 in P-1
    shelx.res
    created by SHELXL-2017/1 at 12:37:14 on 08-Nov-2017
CELL  1.54184   6.8797  10.4684  11.0184   87.618   79.679   75.627
ZERR     2.00   0.0004   0.0006   0.0004    0.004    0.004    0.005
LATT   1
SFAC  C    H    N    O    CL
UNIT  30 18 6 8 4
MERG   2
OMIT    -4.00 180.00
OMIT    -3   1   2
OMIT    -1   1   2
OMIT     1   3   2
DFIX  N4 H4A 0.82 .02
DFIX  N4 H4B 0.82 .02
FMAP   2
PLAN   20
ACTA
BOND   $H
CONF
L.S.  10
WGHT    0.078500    0.203200
FVAR      10.56059   0.57422
MOLE    1
CL1   5    0.423872    0.357329    0.686947    11.00000    0.05963    0.09669 =
         0.04269   -0.02317    0.00253   -0.02782
CL2   5    0.280794    0.204864    0.929068    11.00000    0.06355    0.04463 =
         0.05756   -0.00736   -0.01814   -0.00204
O1    4    0.123242    0.378834    1.142664    11.00000    0.06349    0.04773 =
         0.03511    0.00821   -0.01367   -0.01226
O2    4    0.369536    0.639986    0.731564    11.00000    0.07340    0.08966 =
         0.04131    0.01032   -0.00146   -0.04133
N1    3    0.083395    0.689936    1.262533    11.00000    0.06118    0.06049 =
         0.04456   -0.00889   -0.00853   -0.01647
N2    3    0.253147    0.886743    0.950263    11.00000    0.08115    0.05927 =
         0.08392    0.00236   -0.00911   -0.03028
C1    1    0.186840    0.437047    1.049108    11.00000    0.04053    0.04521 =
         0.03373    0.00125   -0.01283   -0.00727
C2    1    0.189833    0.574759    1.051009    11.00000    0.03932    0.04781 =
         0.03272   -0.00033   -0.00922   -0.01089
C3    1    0.249067    0.642266    0.945657    11.00000    0.04172    0.05089 =
         0.03956    0.00378   -0.00888   -0.01740
C4    1    0.317038    0.578492    0.825640    11.00000    0.04258    0.06930 =
         0.03666    0.00404   -0.00594   -0.02340
C5    1    0.327458    0.437152    0.825839    11.00000    0.03806    0.06539 =
         0.03446   -0.00758   -0.00632   -0.01464
C6    1    0.267287    0.371500    0.928881    11.00000    0.03857    0.04828 =
         0.04112   -0.00343   -0.01234   -0.00714
C7    1    0.129999    0.638429    1.169383    11.00000    0.04435    0.04684 =
         0.04008    0.00152   -0.01117   -0.01303
C8    1    0.248489    0.778638    0.949414    11.00000    0.05294    0.05817 =
         0.04862    0.00491   -0.00621   -0.02302
MOLE    2
O3    4    0.369808    0.876332    1.512817    11.00000    0.05687    0.06316 =
         0.06145   -0.01303    0.01365   -0.02462
N3    3   -0.156474    0.764198    1.629440    11.00000    0.05006    0.04921 =
         0.03407    0.00719   -0.00998   -0.01745
N4    3    0.274597    1.058724    1.629620    11.00000    0.05176    0.06006 =
         0.05767   -0.00928    0.00272   -0.02271
H4A   2    0.380565    1.084336    1.599549    11.00000   -1.50000
H4B   2    0.189284    1.111685    1.679301    11.00000   -1.50000
C9    1    0.017225    0.802031    1.592532    11.00000    0.04391    0.05045 =
         0.03279    0.00203   -0.00316   -0.01214
AFIX  43
H9    2    0.117696    0.753396    1.532424    11.00000   -1.20000
AFIX   0
C10   1    0.048662    0.912294    1.642691    11.00000    0.04492    0.04518 =
         0.03670    0.00558   -0.00808   -0.01223
C11   1   -0.100396    0.980553    1.734602    11.00000    0.05654    0.04604 =
         0.05247   -0.00402    0.00308   -0.01336
AFIX  43
H11   2   -0.081612    1.054008    1.771251    11.00000   -1.20000
AFIX   0
C12   1   -0.277783    0.938911    1.771759    11.00000    0.05075    0.04909 =
         0.05467    0.00092    0.00744   -0.00759
AFIX  43
H12   2   -0.378937    0.984325    1.833406    11.00000   -1.20000
AFIX   0
C13   1   -0.303401    0.830460    1.717198    11.00000    0.04202    0.05313 =
         0.04432    0.01196   -0.00421   -0.01109
AFIX  43
H13   2   -0.422992    0.802752    1.741101    11.00000   -1.20000
AFIX   0
C14   1   -0.182824    0.643829    1.576543    11.00000    0.07654    0.06967 =
         0.04416   -0.00453   -0.00320   -0.03712
AFIX 123
H14A  2   -0.065843    0.607699    1.515300    10.50000   -1.50000
H14B  2   -0.197171    0.580241    1.640736    10.50000   -1.50000
H14C  2   -0.302618    0.665153    1.539141    10.50000   -1.50000
H14D  2   -0.311245    0.627696    1.614818    10.50000   -1.50000
H14E  2   -0.179917    0.655154    1.489382    10.50000   -1.50000
H14F  2   -0.074470    0.570242    1.590976    10.50000   -1.50000
AFIX   0
C15   1    0.244891    0.948542    1.590313    11.00000    0.04630    0.04848 =
         0.03638    0.00265   -0.00616   -0.01306
 
HKLF    4
 
 
 
 
REM  DDQ_niac_2 in P-1
REM R1 =  0.0456 for    2838 Fo > 4sig(Fo)  and  0.0480 for all    3075 data
REM    224 parameters refined using      2 restraints
 
END
 
WGHT      0.0786      0.2028
 
REM Highest difference peak  0.407,  deepest hole -0.465,  1-sigma level  0.055
Q1    1   0.3591  0.2330  0.8876  11.00000  0.05    0.41
Q2    1   0.4561  0.4210  0.6455  11.00000  0.05    0.27
Q3    1   0.3334  0.4049  0.8853  11.00000  0.05    0.25
Q4    1  -0.1196  0.6409  1.4816  11.00000  0.05    0.25
Q5    1   0.1798  0.8510  0.9931  11.00000  0.05    0.25
Q6    1   0.2269  0.2756  0.9787  11.00000  0.05    0.24
Q7    1   0.2585  0.3958  0.9841  11.00000  0.05    0.23
Q8    1   0.3589  0.1251  0.8756  11.00000  0.05    0.21
Q9    1  -0.0803  0.5507  1.6177  11.00000  0.05    0.20
Q10   1   0.1546  0.6479  1.2084  11.00000  0.05    0.20
Q11   1   0.1407  0.2917  0.8911  11.00000  0.05    0.20
Q12   1  -0.3584  0.6653  1.5812  11.00000  0.05    0.19
Q13   1   0.2838  0.8117  0.9153  11.00000  0.05    0.19
Q14   1   0.4683  0.5966  0.7669  11.00000  0.05    0.19
Q15   1   0.1989  0.9449  0.9774  11.00000  0.05    0.19
Q16   1   0.2353  0.6023  1.0043  11.00000  0.05    0.19
Q17   1   0.3709  0.4405  0.7342  11.00000  0.05    0.19
Q18   1   0.3251  0.6867  1.4650  11.00000  0.05    0.19
Q19   1   0.3105  0.4998  0.8392  11.00000  0.05    0.18
Q20   1   0.1405  0.2214  0.8836  11.00000  0.05    0.18
;
_cod_data_source_file            c7ce02146a2.cif
_cod_data_source_block           ddq_niac_2
_cod_depositor_comments
'Adding full bibliography for 7230151--7230160.cif.'
_cod_database_code               7230156
_iucr_refine_reflections_details
;
   0   0  -1 77147.8 1419.15   2
   0   0  -2 2815.17 193.926   2
   0   0  -3 204786. 3852.16   2
   0   0  -4 1506.21 203.983   2
   0   0  -5 36809.7 1277.93   2
   0   0  -6 27411.6 1170.99   2
   0   0   7 9267.22 797.824   1
   0   0  -7 12359.2 821.321   2
   0   0   8 23076.8 1351.19   1
   0   0  -8 38068.3 1582.93   2
   0   0  -9 111833. 2251.67  26
   0   0  -9 109657. 2218.66   8
   0   0  -9 109704. 2236.60  19
   0   0  -9 106070. 3186.83   2
   0   0 -10 9055.44 417.438   8
   0   0 -10 9089.23 432.573  19
   0   0 -10 8879.19 442.276  10
   0   0 -10 9212.14 439.450  26
   0   0 -11 3722.31 269.461  10
   0   0 -11 4069.42 273.141  19
   0   0 -11 4125.14 288.565  30
   0   0 -11 4030.04 254.982   8
   0   0 -12 1525.25 140.340  19
   0   0 -12 1480.02 153.697  30
   0   0 -12 1324.30 141.149  10
   0   0 -12 1435.05 127.918   8
   0   0 -13 216.848 50.5180  30
   0   0 -13 153.501 40.6163  10
   0   1 -13 2013.31 136.188  10
   0   1 -13 2321.16 148.901  30
   0   1 -12 1890.47 170.895  30
   0   1 -12 1752.95 164.585  10
   0   1 -12 1928.14 152.364  19
   0   1 -11 7036.68 376.798  10
   0   1 -11 7110.86 324.179   8
   0   1 -11 7615.41 365.003  19
   0   1 -10 4753.87 276.200   8
   0   1 -10 4542.13 292.328  19
   0   1 -10 4771.46 295.579  26
   0   1  -9 47587.1 1129.70   8
   0   1  -9 50781.9 1174.69  26
   0   1  -9 49263.0 1176.57  19
   0  -1   8 91713.0 3195.19   1
   0   1  -8 120579. 3051.65   2
   0  -1   7 69332.8 2523.53   1
   0   1  -7 79526.2 2256.54   2
   0   1  -6 10002.6 628.945   2
   0  -1   6 7923.10 719.590   1
   0   1  -5 22718.7 906.210   2
   0  -1   5 22226.9 1061.61   1
   0   1  -4 85340.4 1946.72   2
   0   1  -3 85377.2 1789.21   2
   0   1  -2 27228.9 581.381   3
   0   1  -2 24389.7 629.304   2
   0   1  -1 228886. 3798.87   3
   0  -1   1 225109. 3973.99   1
   0   1  -1 227890. 3753.88   2
   0  -1   0 28923.0 632.296   1
   0  -1   0 30912.5 569.741   2
   0  -1  -1 372280. 6275.87   2
   0  -1  -2 202169. 3717.97   2
   0  -1  -3 814.135 136.127   2
   0  -1  -4 168023. 3539.70   2
   0  -1  -5 3352.55 369.811   2
   0  -1  -6 62932.1 2027.37   2
   0  -1  -7 1837.15 331.059   2
   0  -1  -8 6155.22 646.025   2
   0  -1  -9 17437.1 636.360  26
   0  -1  -9 16096.0 605.957  10
   0  -1  -9 16547.1 1131.89   2
   0  -1  -9 16391.8 607.977  19
   0  -1  -9 17315.2 610.927   8
   0  -1 -10 456.109 101.752  30
   0  -1 -10 430.378 98.5029  19
   0  -1 -10 366.889 87.5749   8
   0  -1 -10 377.045 90.8975  10
   0  -1 -10 439.071 99.4116  26
   0  -1 -11-24.1842 37.2879  10
   0  -1 -11 0.97902 38.9136  19
   0  -1 -11-3.84291 46.7356   8
   0  -1 -11-15.4211 44.7659  30
   0  -1 -12 5456.28 270.507   8
   0  -1 -12 4753.58 268.764  10
   0  -1 -12 5678.29 288.497  19
   0  -1 -12 5867.37 306.409  30
   0  -1 -13 323.501 48.5947   8
   0  -1 -13 427.259 66.4057  30
   0   2 -13 205.189 43.5264  10
   0   2 -13 253.099 47.9003  30
   0   2 -12 971.644 120.841  10
   0   2 -11 1841.47 188.688  10
   0   2 -11 1839.63 165.026  19
   0   2 -10 102.147 43.1446  19
   0   2  -9 990.191 126.182  19
   0  -2   9 808.864 259.137   1
   0   2  -9 1057.54 130.552  15
   0  -2   8 509.304 205.077   1
   0  -2   7 34769.7 1647.78   1
   0  -2   6 18141.3 1071.38   1
   0   2  -6 17239.4 788.558   2
   0  -2   5 45163.2 1658.32   1
   0   2  -5 46769.3 1293.95   2
   0   2  -4 32939.1 922.663   2
   0  -2   4 33577.0 1237.76   1
   0   2  -3 144955. 2661.04   2
   0   2  -3 144344. 2569.15   3
   0   2  -2 240073. 3822.66   3
   0  -2   2 239578. 4247.68   1
   0  -2   1 82293.5 1738.17   1
   0  -2   0 29162.5 748.522   1
   0  -2   0 28706.0 612.103   2
   0  -2  -1 207002. 3494.44   1
   0  -2  -1 194440. 3503.42   2
   0  -2  -2 16165.7 617.985   2
   0  -2  -3 275.411 85.3460   2
   0  -2  -4 39233.5 1332.50   2
   0  -2  -5 53792.1 1773.79   2
   0  -2  -6 44211.9 1697.67   2
   0  -2  -7 15761.2 1028.29   2
   0  -2  -8 8635.11 399.102  10
   0  -2  -8 8743.96 398.349  23
   0  -2  -8 8432.43 405.568  19
   0  -2  -8 8715.23 802.494   2
   0  -2  -8 9208.85 409.711   8
   0  -2  -8 8848.74 422.932  26
   0  -2  -9 13388.2 531.726   8
   0  -2  -9 12207.6 541.813  26
   0  -2  -9 12025.7 528.382  19
   0  -2  -9 13197.8 544.593  30
   0  -2  -9 11516.5 504.296  10
   0  -2  -9 13105.5 1025.36   2
   0  -2 -10 3434.20 272.491  19
   0  -2 -10 3699.42 270.381   8
   0  -2 -10 3041.18 247.982  10
   0  -2 -10 3537.39 273.659  30
   0  -2 -11 3502.77 246.643   8
   0  -2 -11 3298.90 254.825  19
   0  -2 -11 3624.01 262.881  30
   0  -2 -11 2860.04 225.883  10
   0  -2 -12 1500.61 143.598  19
   0  -2 -12 1695.14 149.257   8
   0  -2 -12 1597.05 155.880  30
   0  -2 -13 9030.99 288.633   8
   0   3 -13 27.0724 19.1313  30
   0   3 -13-13.6814 18.3421  10
   0   3 -12 520.272 86.9088  10
   0   3 -11 6986.10 318.741  19
   0   3 -10 632.868 103.540  19
   0   3 -10 517.080 91.6566  15
   0   3  -9 5543.74 325.714  15
   0   3  -9 5919.31 328.386  19
   0  -3   8 1130.00 306.662   1
   0   3  -8 1036.93 131.792  15
   0   3  -8 991.033 131.238  19
   0  -3   7 21738.4 1350.81   1
   0  -3   6 280.650 142.481   1
   0  -3   5 32083.2 1389.35   1
   0  -3   4 414.320 143.877   1
   0   3  -3 7305.18 237.782   3
   0  -3   3 8367.86 555.798   1
   0   3  -2 59558.1 1275.47   3
   0  -3   2 60573.7 1599.34   1
   0  -3   1 698.597 126.981   1
   0  -3   0 132719. 2321.09   2
   0  -3   0 123997. 2599.61   1
   0  -3  -1 101245. 2116.09   1
   0  -3  -1 104013. 2075.75   2
   0  -3  -2 677679. 11602.1   2
   0  -3  -3 1881.14 247.948   2
   0  -3  -4 1336.89 235.286   2
   0  -3  -5 86448.6 2488.50   2
   0  -3  -6 6291.89 620.189   2
   0  -3  -7 84987.6 2770.20   2
   0  -3  -8-84.6775 90.7252   2
   0  -3  -8 97.9467 54.4827  19
   0  -3  -8 42.9479 36.1105  20
   0  -3  -8 130.288 56.3443  26
   0  -3  -8 51.2924 46.0666  10
   0  -3  -8 39.3555 32.9906  30
   0  -3  -9 485.510 99.8804  10
   0  -3  -9 620.316 112.882  30
   0  -3  -9 591.760 102.681   8
   0  -3  -9 557.935 112.833  19
   0  -3 -10 513.169 117.016  19
   0  -3 -10 533.606 105.405  10
   0  -3 -10 688.061 119.991   8
   0  -3 -10 667.006 123.142  30
   0  -3 -11 191.862 69.4334   8
   0  -3 -11 227.673 78.4000  19
   0  -3 -11 198.157 72.7128  30
   0  -3 -12 165.732 47.2009   8
   0  -3 -13 1131.73 86.7114   8
   0   4 -12 1002.02 108.865  10
   0   4 -11 191.845 54.7362  15
   0   4 -10 88.3681 38.2756  15
   0   4 -10 59.5700 33.3479  19
   0   4  -9 21.8161 37.6014  15
   0   4  -9 44.7905 38.1340  19
   0   4  -8 79.2956 45.0882  19
   0  -4   8 264.740 152.383   1
   0  -4   7 15405.1 1133.77   1
   0  -4   6 4034.86 540.810   1
   0  -4   5 109385. 3102.37   1
   0  -4   4 137.615 99.7859   1
   0  -4   3 55316.9 1752.23   1
   0   4  -2 95585.6 1963.26   3
   0  -4   2 89439.4 2316.79   1
   0  -4   1 6282.00 440.735   1
   0  -4   0 341293. 6214.67   1
   0  -4   0 339880. 5740.00   2
   0  -4  -1 4003.06 273.361   2
   0  -4  -1 3702.91 304.673   1
   0  -4  -2 50345.6 1394.62   2
   0  -4  -3 26866.5 1047.50   2
   0  -4  -4 8057.10 610.982   2
   0  -4  -5 1028.34 233.785   2
   0  -4  -6 86410.7 2706.09   2
   0  -4  -7 5523.09 318.275  30
   0  -4  -7 5557.47 638.537   2
   0  -4  -7 5643.69 349.041  19
   0  -4  -7 5643.17 311.207   8
   0  -4  -8 35313.8 1771.72   2
   0  -4  -8 34878.3 967.234   8
   0  -4  -8 34388.1 981.932  30
   0  -4  -8 34258.6 1031.36  19
   0  -4  -8 34062.3 951.760  20
   0  -4  -9 1770.61 213.178  19
   0  -4  -9 1802.86 187.587   8
   0  -4  -9 1744.42 178.749  20
   0  -4  -9 1690.85 191.241  30
   0  -4 -10 123.371 64.2667  19
   0  -4 -10 82.0741 45.4958   8
   0  -4 -10 119.635 59.7886  30
   0  -4 -10 117.558 55.7918  20
   0  -4 -11 27707.9 783.017   8
   0  -4 -12 152.471 42.6256   8
   0   5 -12 45.7374 27.6576  10
   0   5 -11 288.565 59.4406  15
   0   5 -10 51.2813 37.9993  19
   0   5 -10 32.9986 44.9731  15
   0   5  -9 27003.9 786.437  19
   0   5  -9 26618.9 841.330  15
   0   5  -8 29039.8 853.957  19
   0  -5   7 2453.94 469.347   1
   0  -5   6 2396.35 429.735   1
   0  -5   5 17552.9 1133.70   1
   0  -5   4 6343.96 636.247   1
   0  -5   3 1934.98 316.378   1
   0  -5   2 3317.06 396.697   1
   0  -5   1 202071. 4269.49   1
   0  -5   0 201953. 4158.15   1
   0  -5  -1 48235.9 1204.61   2
   0  -5  -1 44326.7 1387.45   1
   0  -5  -2 29677.3 1020.04   2
   0  -5  -3 16791.9 825.941   2
   0  -5  -4 48848.5 1691.71   2
   0  -5  -4 47322.5 1025.55   4
   0  -5  -5 278.957 128.281   2
   0  -5  -5 250.401 52.8436   4
   0  -5  -6 13084.5 950.106   2
   0  -5  -7 7031.92 425.665  19
   0  -5  -7 7393.17 742.593   2
   0  -5  -7 7374.04 364.889   8
   0  -5  -8 19025.6 651.328   8
   0  -5  -8 18003.1 657.902  20
   0  -5  -8 17571.0 713.347  19
   0  -5  -9 646.253 112.274   8
   0  -5  -9 644.201 111.227  20
   0  -5 -10 6756.84 352.173   8
   0  -5 -10 6436.83 325.147  20
   0  -5 -11 1910.39 161.573   8
   0  -5 -12 7853.68 280.899   8
   0   6 -12 2627.38 131.055  10
   0   6 -11 65.6895 29.5661  15
   0   6 -10 11023.2 446.040  15
   0   6  -9 6166.88 315.359  19
   0   6  -9 6001.60 357.090  15
   0   6  -8 9496.83 433.613  19
   0  -6   6 16703.4 1212.36   1
   0  -6   6 14448.7 515.025  14
   0  -6   5 26296.5 1487.94   1
   0  -6   4 8254.21 775.864   1
   0  -6   3 18068.3 1078.23   1
   0  -6   2 59851.5 2035.82   1
   0   6  -1 48.6524 37.8451   6
   0  -6   1 58.9678 77.9477   1
   0  -6   0 2976.05 350.633   1
   0   6   0 2961.14 195.744   6
   0  -6  -1 8377.49 589.301   1
   0   6   1 9151.84 353.126   6
   0   6   2 1122.87 117.045   6
   0  -6  -3 33814.0 1256.42   2
   0  -6  -4 150018. 2737.18   4
   0  -6  -4 138744. 3506.31   2
   0  -6  -5 23486.7 669.475   4
   0  -6  -5 22831.8 1213.13   2
   0  -6  -6 682.097 97.7991   4
   0  -6  -6 866.788 122.680  17
   0  -6  -6 705.300 100.156   8
   0  -6  -7 84089.0 1759.24   8
   0  -6  -7 80079.4 1716.22  17
   0  -6  -8 33892.9 995.261  20
   0  -6  -8 34797.2 941.940   8
   0  -6  -9 6549.99 358.781  20
   0  -6  -9 6020.16 317.494  31
   0  -6  -9 6980.57 349.079   8
   0  -6 -10 75.5804 31.0089   8
   0  -6 -10 66.0016 41.8313  20
   0  -6 -11 861.057 95.9034   8
   0  -6 -11 693.424 72.0189  20
   0   7 -11 1145.89 88.4825  15
   0   7 -10 1801.94 155.882  15
   0   7  -9 2413.95 210.060  15
   0   7  -8 5223.42 303.118  19
   0  -7   7 573.953 98.6685  14
   0  -7   6 3029.16 231.301  14
   0  -7   5 7601.99 808.698   1
   0  -7   5 6740.08 354.843  14
   0  -7   4 9963.83 433.734  14
   0  -7   4 11947.2 964.444   1
   0  -7   3 43021.2 1840.78   1
   0  -7   2 4802.91 541.453   1
   0  -7   1 6128.34 577.804   1
   0   7   0 114062. 2294.31   6
   0  -7   0 125333. 3087.46   1
   0   7   1 1630.50 161.205   6
   0   7   2 1965.46 172.493   6
   0  -7  -3 5986.64 306.499   4
   0   7   3 5102.07 272.622   6
   0  -7  -4 33276.7 888.678  12
   0  -7  -4 34031.3 896.778   4
   0  -7  -5 575.915 98.8000   4
   0  -7  -5 545.455 110.198  31
   0  -7  -5 605.505 101.704  12
   0  -7  -6 12518.2 509.264  17
   0  -7  -6 13470.8 522.259  31
   0  -7  -6 13986.1 491.158  12
   0  -7  -6 13691.9 494.762   4
   0  -7  -7 6741.21 340.436  17
   0  -7  -7 6707.72 331.451   8
   0  -7  -8 4977.92 322.803  20
   0  -7  -8 5005.72 265.066  17
   0  -7  -8 5261.16 289.018   8
   0  -7  -9 2138.14 170.263   8
   0  -7  -9 2051.75 185.212  20
   0  -7 -10 4795.63 243.469  20
   0  -7 -10 5460.94 243.300   8
   0  -7 -11 1497.76 90.9498   8
   0   8 -10 869.019 90.4756  15
   0   8  -9 1431.28 144.997  15
   0  -8   8 1353.78 123.941  14
   0   8  -8 1304.28 133.178  19
   0  -8   7 2943.62 217.014  14
   0  -8   6 121.806 53.1128  14
   0  -8   5 4614.20 302.543  14
   0  -8   4 631.636 113.971  14
   0  -8   3 7063.78 722.608   1
   0  -8   3 6901.89 369.748  14
   0  -8   2 5464.78 296.896  12
   0  -8   2 4938.35 305.953  14
   0  -8   1 670.710 108.380  14
   0  -8   1 845.582 119.186  12
   0  -8   0 862.353 117.615  14
   0  -8   0 915.140 122.136  12
   0  -8  -1 13075.4 466.511  14
   0  -8  -1 12411.7 501.360  12
   0  -8  -2 5733.01 322.748  12
   0  -8  -3-3.96244 42.8877  12
   0  -8  -3-6.92403 37.4174   4
   0  -8  -4 1960.08 183.817   4
   0  -8  -4 1922.36 186.267  12
   0  -8  -5 8048.03 379.869   4
   0  -8  -5 7765.97 375.096  12
   0  -8  -6 35881.3 901.062  12
   0  -8  -6 35219.9 901.702   4
   0  -8  -7 398.286 80.5649  17
   0  -8  -7 431.878 98.5877  20
   0  -8  -8 545.406 79.8693  17
   0  -8  -8 478.271 96.6910  20
   0  -8  -9 16139.4 520.182  20
   0  -8 -10 1180.31 95.7671  20
   0   9  -9 284.238 54.9087  15
   0   9  -8 1849.10 165.166  15
   0  -9   7 10341.5 390.877  14
   0   9  -7 8423.65 354.184  19
   0  -9   6 31.5832 45.7959  14
   0  -9   5 5360.58 328.285  14
   0  -9   4 6696.00 372.567  14
   0  -9   4 6473.43 309.196  11
   0  -9   3 10481.6 431.020  11
   0  -9   3 9931.12 467.481  14
   0  -9   2 21728.5 731.933  14
   0  -9   1 9119.83 429.991  14
   0  -9   1 9598.11 432.028  12
   0  -9   0 7831.22 380.971  14
   0  -9   0 7634.63 390.352  12
   0  -9  -1 2388.01 192.170  14
   0  -9  -1 2164.56 204.403  12
   0  -9  -2 175.751 61.5629   4
   0  -9  -2 191.166 67.0961  12
   0  -9  -3 1064.68 139.788   4
   0  -9  -3 960.348 137.297  12
   0  -9  -4 177.506 59.4212  12
   0  -9  -4 192.331 62.5683   4
   0  -9  -5 29941.3 825.773   4
   0  -9  -5 29843.6 827.478  12
   0  -9  -6 1192.65 139.082  17
   0  -9  -6 1260.06 128.010  12
   0  -9  -7 20.5030 33.7450  17
   0  -9  -7 66.5740 43.7082  20
   0  -9  -8 4829.25 264.193  20
   0  -9  -9 9121.21 309.122  20
   0  10  -8 109.945 33.8573  15
   0  10  -7 58.5654 39.6050  15
   0 -10   7 30.3548 20.6308  14
   0 -10   6 19.3213 31.6599  14
   0 -10   5 1278.73 145.401  14
   0 -10   4 44.9033 30.9592  14
   0 -10   3 116.446 55.6694  14
   0 -10   3 131.960 53.1672  11
   0 -10   2 944.003 126.578  11
   0 -10   2 913.212 132.760  14
   0 -10   1 2539.98 216.164  11
   0 -10   1 2719.31 222.819  14
   0 -10   0 39.5216 42.8196  14
   0 -10  -1 6845.39 363.386  12
   0 -10  -1 6722.76 362.696   4
   0 -10  -2 6669.69 354.057   4
   0 -10  -2 6479.99 355.970  12
   0 -10  -3 206.117 66.7268   4
   0 -10  -3 188.385 59.5574  12
   0 -10  -4 50.1158 34.4652   4
   0 -10  -4 54.6008 41.9166  12
   0 -10  -5 865.443 108.815  12
   0 -10  -5 854.122 116.223  17
   0 -10  -5 765.225 97.4811   4
   0 -10  -5 846.508 100.672  11
   0 -10  -5 797.028 116.832  20
   0 -10  -6 5683.55 267.045  17
   0 -10  -6 6089.34 299.569  20
   0 -10  -7 5499.25 256.753  20
   0 -10  -7 5048.39 207.275  17
   0 -10  -8 283.665 48.4888  20
   0  11  -6 323.051 55.5902  15
   0 -11   5 4323.67 223.671  14
   0 -11   4 3079.06 199.651  14
   0 -11   4 2067.04 153.138   4
   0 -11   3 485.602 87.8531  14
   0 -11   3 522.175 75.0049  11
   0 -11   2 2668.22 183.912  11
   0 -11   2 2280.49 184.149   4
   0 -11   2 2450.01 191.544  14
   0 -11   1 37.3927 36.5714  14
   0 -11   1 57.3936 39.2421  11
   0 -11   1 43.6598 36.7015   4
   0 -11   0 810.621 113.668   4
   0 -11   0 901.269 117.105  11
   0 -11   0 855.645 103.548  14
   0 -11  -1 720.303 106.307  11
   0 -11  -1 715.093 104.881   4
   0 -11  -2 341.299 73.9399  11
   0 -11  -2 322.298 69.8844   4
   0 -11  -3 3202.92 203.637   4
   0 -11  -3 3335.37 207.733  11
   0 -11  -4 1614.92 143.830  17
   0 -11  -4 1660.18 130.647  11
   0 -11  -4 1263.17 115.447  20
   0 -11  -4 1608.98 130.573   4
   0 -11  -5 861.265 76.7605  11
   0 -11  -5 1008.38 100.041  17
   0 -11  -5 703.543 81.1231  20
   0 -11  -6 2324.31 133.493  20
   0 -11  -6 2461.43 126.163  17
   0 -12   2 3821.57 185.009  14
   0 -12   2 4395.71 186.199  11
   0 -12   1 2971.04 167.173  11
   0 -12   0 5220.81 235.583  11
   0 -12  -1 1558.62 122.904  11
   0 -12  -2 1199.26 103.337  11
   0 -12  -2 899.886 94.7512  17
   0 -12  -3 278.489 46.5837  11
   0 -12  -3 344.183 56.0700  17
   0 -12  -4 109.869 30.2998  17
   1 -12  -2 2802.77 133.967  17
   1 -12  -2 3213.36 139.302  11
   1 -12  -1 134.573 31.4776  11
   1 -12   0 179.529 36.2377  11
   1 -12   1 56.0749 21.1571  11
   1 -11  -5 1015.60 79.4135  20
   1 -11  -4 4521.08 194.499  17
   1 -11  -4 5078.92 201.960  11
   1 -11  -3 451.864 63.9322  20
   1 -11  -3 637.798 83.5926   4
   1 -11  -3 759.571 86.6484  11
   1 -11  -2 1117.09 114.954  11
   1 -11  -2 989.102 108.881   4
   1 -11  -1 2481.55 178.988  11
   1 -11  -1 2734.99 190.552   4
   1 -11   0 1423.98 113.482  14
   1 -11   0 1429.07 134.224  11
   1 -11   0 1565.48 142.644   4
   1 -11   1 4845.01 237.330  14
   1 -11   1 4922.31 256.754   4
   1 -11   1 4976.52 248.564  11
   1 -11   2 3878.70 203.531  11
   1 -11   2 3651.84 211.094  14
   1 -11   2 3732.05 213.960   4
   1 -11   3 490.847 78.3259  14
   1 -11   3 542.481 74.8294   4
   1 -11   3 594.703 67.5179  11
   1 -11   4 119.457 37.5200  14
   1 -11   5 38.8455 27.7327  14
  -1  11  -6 4.04544 15.3739  15
   1 -11   6 36.0784 18.6631  14
   1 -10  -7 945.000 84.2697  20
   1 -10  -6 2075.24 150.113  20
   1 -10  -5 4021.24 216.771   4
   1 -10  -5 4302.62 218.128  12
   1 -10  -5 3988.77 204.523  17
   1 -10  -4 2949.88 201.905  12
   1 -10  -4 2937.48 204.730   4
   1 -10  -3 100.420 43.5484   4
   1 -10  -3 140.039 55.2275  12
   1 -10  -2 15479.0 551.042   4
   1 -10  -2 14767.5 538.087  12
   1 -10  -1 2452.76 207.181   4
   1 -10  -1 2407.51 202.918  12
   1 -10   0-29.9593 27.8153   4
   1 -10   0 72.6269 41.4607  12
   1 -10   0 80.6769 43.5706  14
   1 -10   1 344.296 78.2836  14
   1 -10   1 379.006 79.3229   4
   1 -10   2 538.532 92.8144   4
   1 -10   2 578.005 103.504  14
   1 -10   3 3728.33 239.901   4
   1 -10   3 4088.26 265.841  14
   1 -10   3 4272.77 233.640  11
   1 -10   4 1197.02 141.010  14
   1 -10   4 866.003 102.848   4
   1 -10   5 4020.16 243.985  14
  -1  10  -6 1230.34 127.740   5
   1 -10   6 1228.64 120.453  14
   1 -10   7 84.2837 30.8756  14
  -1  10  -7 20.3162 22.7455  19
  -1  10  -8 9.47849 16.6495  15
   1  -9  -8 1335.30 110.864  20
   1  -9  -7-57.2107 49.6159  20
   1  -9  -6 4298.85 227.369  12
   1  -9  -6 4001.85 226.804   4
   1  -9  -6 3879.74 207.750  17
   1  -9  -5 24.8909 34.6774   4
   1  -9  -5 53.5133 44.1583  17
   1  -9  -5 22.6645 32.3081  12
   1  -9  -4 4740.52 292.256  12
   1  -9  -4 4833.94 295.095   4
   1  -9  -3 12771.0 516.805  12
   1  -9  -3 12697.6 516.682   4
   1  -9  -2 22407.4 734.091   4
   1  -9  -2 21675.8 720.534  12
   1  -9  -1 20107.3 689.345  12
   1  -9  -1 20574.4 697.788   4
   1  -9   0 1322.09 148.583  14
   1  -9   0 1206.29 150.431  12
   1  -9   0 1449.61 168.733   4
   1  -9   1 237.479 71.0658  12
   1  -9   1 227.963 66.7133  14
   1  -9   2 674.750 114.189  14
   1  -9   2 792.339 112.320  12
   1  -9   3 29.0893 36.1901  14
   1  -9   4 2368.18 212.996  14
   1  -9   5 4752.57 300.044  14
   1  -9   6 1754.56 166.865  14
  -1   9  -7 1930.76 180.408  19
  -1   9  -7 2220.64 179.445   5
   1  -9   7 2477.66 175.531  14
  -1   9  -8 1068.05 106.302  19
   1  -9   8 1312.85 99.7218  14
  -1   9  -9 195.854 41.3819  15
   1  -8  -9 3275.61 173.041  20
   1  -8  -8 4760.59 260.347  20
   1  -8  -7 511.718 89.6749  31
   1  -8  -7 1168.59 111.547  12
   1  -8  -6 3351.21 216.386  17
   1  -8  -6 3840.47 240.786  12
   1  -8  -6 3508.06 237.652   4
   1  -8  -5 3643.61 255.597   4
   1  -8  -5 3413.12 247.050  12
   1  -8  -4 434.527 108.904  31
   1  -8  -4 617.344 112.261   4
   1  -8  -4 691.343 115.925  12
   1  -8  -3 1583.29 179.277   4
   1  -8  -3 1668.20 183.377  12
   1  -8  -2 12638.3 522.503  12
   1  -8  -2 11967.6 458.353  29
   1  -8  -2 13114.0 530.809   4
   1  -8  -1 11147.7 474.966  12
   1  -8  -1 11888.8 494.818   4
   1  -8  -1 10299.4 432.378  29
   1  -8   0 4024.16 263.948  29
   1  -8   0 4711.88 283.771  14
   1  -8   0 4588.57 289.816  12
   1  -8   1 1125.51 141.851  14
   1  -8   1 1061.28 272.281   1
   1  -8   1 1290.81 147.374  12
   1  -8   1 1044.46 134.312  29
   1  -8   2 209.357 71.6336  14
   1  -8   2 169.601 118.614   1
   1  -8   2 251.931 70.2181  12
   1  -8   3 29902.0 902.235  14
   1  -8   3 33079.6 837.719  12
   1  -8   4 3176.55 253.328  14
   1  -8   5 24274.2 772.504  14
   1  -8   6 1423.08 159.720  14
   1  -8   7 4658.49 272.543  14
  -1   8  -8 1985.44 183.919  19
   1  -8   8 2244.54 158.381  14
  -1   8  -8 1851.57 162.483   5
  -1   8  -9 351.110 69.0577  15
  -1   8  -9 174.634 48.8092  19
  -1   8 -10 71.7573 24.4499  15
   1  -7 -10 566.374 62.3409  20
   1  -7  -9 432.703 73.0219  31
   1  -7  -9 939.080 108.967  20
   1  -7  -8 9120.50 409.746  20
   1  -7  -8 7931.09 361.474  31
   1  -7  -7 1785.99 180.181  31
   1  -7  -7 1897.30 160.405  12
   1  -7  -6 386.552 83.2477   4
   1  -7  -6 426.078 108.389  31
   1  -7  -6 507.834 93.0693  12
   1  -7  -5 335.381 83.1742  12
   1  -7  -5 356.050 80.9769   4
   1  -7  -5 410.275 106.891  31
   1  -7  -4 188746. 3605.32  12
   1  -7  -4 192669. 3601.08   4
   1  -7  -4 187947. 3584.75  18
   1  -7  -3 78186.7 1707.31  31
   1  -7  -3 74480.6 1654.44   4
   1  -7  -3 74857.3 1659.15  12
   1  -7  -2 39.6997 58.1548  31
   1  -7  -2 43.6816 26.2083  29
   1  -7  -2 52.9857 43.8061  12
   1  -7  -2 20.0670 36.3310   4
   1  -7  -1 44239.6 1091.81  12
   1  -7   0 10861.4 843.256   1
   1  -7   1 83.9115 89.5757   1
   1  -7   2 2503.12 196.863  29
   1  -7   2 2779.68 212.753  14
   1  -7   2 2561.08 432.683   1
   1  -7   3 7.83063 58.7282   1
   1  -7   3 304.003 73.9676  14
   1  -7   4 16763.2 602.076  14
   1  -7   4 18362.8 1247.50   1
   1  -7   5 69140.8 1566.84  14
   1  -7   6 16605.8 596.921  14
   1  -7   7 1842.53 172.357  14
  -1   7  -8 5464.10 308.696   5
   1  -7   8 5508.97 275.989  14
  -1   7  -8 5428.62 342.010  19
  -1   7  -9 798.798 115.216  19
  -1   7 -10 938.611 105.219  15
  -1   7 -10 762.917 88.2839  19
   1  -6 -11 85.4432 23.8887   8
   1  -6 -10 3756.28 191.162  20
   1  -6 -10 2756.67 175.337  31
   1  -6  -9 41.4986 36.4597  20
   1  -6  -9 44.2877 32.1495   8
   1  -6  -9 38.2291 43.5856  31
   1  -6  -8 1587.38 182.812  31
   1  -6  -8 1559.44 153.791   8
   1  -6  -7 12450.9 465.165  18
   1  -6  -7 12511.8 469.818   8
   1  -6  -7 12119.1 538.887  31
   1  -6  -7 11286.9 462.952   4
   1  -6  -6 7712.82 416.469  31
   1  -6  -6 7825.52 371.143  18
   1  -6  -6 8151.80 389.465   4
   1  -6  -5 15199.8 588.589  31
   1  -6  -5 14604.1 535.966  18
   1  -6  -5 15378.0 555.191   4
   1  -6  -4 28474.5 804.653   4
   1  -6  -4 27134.1 1285.49   2
   1  -6  -4 30414.5 862.287  31
   1  -6  -4 28092.5 786.986  18
   1  -6  -3 24198.6 707.663   4
   1  -6  -2 10951.2 421.535   4
   1  -6  -1 28.2642 52.5392   1
   1  -6   0 45525.5 1715.23   1
   1  -6   1 24279.1 1228.88   1
   1  -6   2 626.013 204.784   1
   1  -6   3 597.791 202.801   1
   1  -6   4 21678.9 1315.93   1
   1  -6   5 572.098 96.6578  14
   1  -6   5 265.808 154.540   1
   1  -6   6 6106.37 735.638   1
   1  -6   6 5656.93 309.217  14
   1  -6   7 3978.07 250.748  14
  -1   6  -8 853.956 126.900   5
  -1   6  -8 813.093 144.872  19
  -1   6  -9-7.03905 35.7151  19
  -1   6 -10 1558.71 150.247  15
  -1   6 -10 1304.87 138.616  19
  -1   6 -11 111.572 35.0066  19
  -1   6 -11 66.5342 24.3834  15
   1  -5 -11 8414.48 292.323   8
   1  -5 -11 4241.44 210.351  31
   1  -5 -10 10641.2 411.346   8
   1  -5  -9 4096.87 265.147   8
   1  -5  -9 3751.39 249.883  20
   1  -5  -8 24989.3 766.906   8
   1  -5  -7 139.408 45.3143  18
   1  -5  -7-0.61046 42.1611   8
   1  -5  -6 10191.3 415.401  18
   1  -5  -6 10804.2 446.075   4
   1  -5  -6 10413.6 421.758   8
   1  -5  -6 10431.4 878.007   2
   1  -5  -5 2471.01 192.840   4
   1  -5  -5 2368.78 388.371   2
   1  -5  -4 75.2782 38.3234   4
   1  -5  -4 238.243 121.425   2
   1  -5  -3 34556.0 849.397   4
   1  -5  -3 36360.8 1403.32   2
   1  -5  -2 7490.51 533.909   2
   1  -5  -2 7992.73 318.221   4
   1  -5  -1 1586.68 206.611   2
   1  -5  -1 1628.81 267.428   1
   1  -5   0 9337.45 668.597   1
   1  -5   1 5014.03 492.904   1
   1  -5   2 54763.2 1882.86   1
   1  -5   3 1787.24 322.716   1
   1  -5   4 7157.86 687.818   1
   1  -5   5 61976.9 2364.94   1
   1  -5   6 11059.0 955.821   1
   1  -5   7 13198.4 1095.56   1
  -1   5  -8 1987.10 213.917  19
  -1   5  -8 1994.78 196.167   5
  -1   5  -9 7837.35 414.274  19
  -1   5 -10 24915.3 752.749  19
  -1   5 -10 25110.6 735.646  15
  -1   5 -11 3004.99 191.064  19
  -1   5 -12 7.09362 14.2897  19
  -1   5 -12 20.4546 19.7283  10
   1  -4 -12 875.044 80.4164   8
   1  -4 -12 260.061 40.7900  31
   1  -4 -11 3373.95 211.050   8
   1  -4 -10 1181.96 141.074   8
   1  -4  -9 13402.0 528.661   8
   1  -4  -9 12589.7 517.083  30
   1  -4  -9 11579.7 465.932  20
   1  -4  -8 208.152 71.1131  30
   1  -4  -8 256.128 71.3576   8
   1  -4  -7 246.580 77.1953  30
   1  -4  -7 320.620 80.8799   8
   1  -4  -7 213.705 85.9787  19
   1  -4  -7 65.8929 92.8485   2
   1  -4  -6 28936.5 801.877   4
   1  -4  -6 30616.1 1540.38   2
   1  -4  -5 2627.56 404.627   2
   1  -4  -5 2604.24 184.626   4
   1  -4  -4 49319.7 1748.81   2
   1  -4  -4 43215.9 987.889   4
   1  -4  -3 6465.14 539.426   2
   1  -4  -2 58232.3 1690.86   2
   1  -4  -1 46391.5 1573.33   1
   1  -4  -1 58666.8 1502.54   2
   1  -4   0 1023.58 147.931   2
   1  -4   0 1142.85 204.121   1
   1  -4   1 237984. 4851.13   1
   1  -4   2 19503.7 950.963   1
   1  -4   3 31847.0 1317.74   1
   1  -4   4 7738.48 658.232   1
   1  -4   5 20945.6 1187.37   1
   1  -4   6 1260.71 305.026   1
   1  -4   7 4257.86 579.463   1
  -1   4  -8 1865.49 178.597   5
  -1   4  -8 2074.88 211.700  19
   1  -4   8 1952.42 414.655   1
  -1   4  -9 3517.60 273.429  19
  -1   4 -10 12508.2 512.515  19
  -1   4 -10 12515.1 480.166  15
  -1   4 -11 1252.51 132.591  19
  -1   4 -12 359.030 61.5815  30
  -1   4 -12 566.262 71.4162  19
  -1   4 -12 533.142 80.3515  10
   1  -3 -12 206.424 48.5854   8
   1  -3 -11 36.6769 32.7400   8
   1  -3 -10 22023.2 711.089   8
   1  -3 -10 21422.4 707.987  30
   1  -3  -9 729.295 131.013  19
   1  -3  -9 701.784 117.135   8
   1  -3  -9 597.226 115.501  10
   1  -3  -9 745.541 123.359  30
   1  -3  -8 8417.67 413.480   8
   1  -3  -8 7702.57 415.413  10
   1  -3  -8 8454.66 433.312  19
   1  -3  -8 8780.71 415.803  30
   1  -3  -7 521.179 104.678  19
   1  -3  -7 706.876 110.982   8
   1  -3  -7 516.418 206.042   2
   1  -3  -7 644.763 106.193  30
   1  -3  -7 499.795 97.6580  10
   1  -3  -6 6467.93 307.875   4
   1  -3  -6 7200.83 708.431   2
   1  -3  -5 44589.6 1015.22   4
   1  -3  -5 52067.6 1871.79   2
   1  -3  -4 26325.8 1201.35   2
   1  -3  -3 9858.23 655.609   2
   1  -3  -2 34911.4 1195.84   2
   1  -3  -1 794.966 155.251   1
   1  -3  -1 1218.10 181.869   2
   1  -3   0 4056.27 295.838   2
   1  -3   0 4031.13 337.144   1
   1  -3   1 17219.8 765.781   1
   1  -3   2 310906. 5928.12   1
   1  -3   3 233651. 4776.12   1
   1  -3   4 98949.7 2628.30   1
   1  -3   5 9330.21 710.445   1
   1  -3   6 1815.15 337.554   1
  -1   3  -7 12142.2 457.063   5
   1  -3   7 13515.8 997.613   1
  -1   3  -8 17427.3 634.679  19
   1  -3   8 16950.5 1188.69   1
  -1   3  -9 1697.34 186.795  19
  -1   3 -10 87.8418 48.6478  19
  -1   3 -11 2930.13 219.489  19
  -1   3 -12 43.2710 28.5984  19
  -1   3 -12-5.29939 25.6808  10
  -1   3 -12 43.3962 28.7522  30
  -1   3 -13 1143.33 85.4959  10
  -1   3 -13 706.926 63.7236  30
   1  -2 -12 34762.6 819.153   8
   1  -2 -11 5732.03 311.389  30
   1  -2 -11 5764.40 311.193   8
   1  -2 -10 1610.35 185.715  10
   1  -2 -10 1805.00 179.512  19
   1  -2 -10 1790.93 185.049   8
   1  -2 -10 1919.80 189.218  30
   1  -2  -9 28568.3 855.061  30
   1  -2  -9 27314.5 848.809   8
   1  -2  -9 27876.1 841.349  19
   1  -2  -8 5628.09 326.033   8
   1  -2  -8 5255.84 312.567  19
   1  -2  -8 5184.68 648.229   2
   1  -2  -8 5385.29 333.003  10
   1  -2  -8 5555.71 321.249  30
   1  -2  -7 23045.8 1337.57   2
   1  -2  -6 71677.6 2418.32   2
   1  -2  -5 17845.9 1024.13   2
   1  -2  -4 398197. 7651.51   2
   1  -2  -3 98808.8 2470.55   2
   1  -2  -2 5335.63 407.026   2
   1  -2  -1 76983.8 1875.09   1
   1  -2   0 855.139 140.427   1
   1  -2   1 102506. 2219.16   1
   1  -2   2 676363. 11636.7   1
   1  -2   3 3379.88 326.327   1
   1  -2   4 58925.5 1725.38   1
   1  -2   5 156552. 3628.09   1
  -1   2  -5 156585. 3186.28   2
   1  -2   6 1782.18 312.212   1
   1  -2   7 88541.7 2738.77   1
  -1   2  -8 3942.96 269.180  19
  -1   2  -8 3718.12 248.434  23
   1  -2   8 3459.63 500.634   1
  -1   2  -9 711.103 108.369  26
  -1   2  -9 892.274 134.564  19
   1  -2   9 866.450 255.379   1
  -1   2 -10 26154.3 773.807  26
  -1   2 -10 25610.8 813.523  19
  -1   2 -11 10533.6 426.434  26
  -1   2 -11 11084.1 467.794  19
  -1   2 -12 13713.7 481.385  10
  -1   2 -12 13987.8 485.968  30
  -1   2 -12 14620.0 489.520  19
  -1   2 -13 798.620 79.9930  10
  -1   2 -13 952.394 84.0608  19
  -1   2 -13 921.653 86.3486  30
   1  -1 -12 11712.1 412.801  30
   1  -1 -12 10920.3 386.942   8
   1  -1 -11 281.026 74.2953  30
   1  -1 -11 272.293 69.6469   8
   1  -1 -11 200.651 67.8278  10
   1  -1 -10 422.094 97.5569  30
   1  -1 -10 443.470 94.3638   8
   1  -1 -10 455.061 99.3540  10
   1  -1  -9 8804.08 426.067   8
   1  -1  -9 8933.67 412.083  19
   1  -1  -9 8164.88 432.816  10
   1  -1  -8 18829.9 669.325  10
   1  -1  -8 21348.8 677.613   8
   1  -1  -8 19679.2 1242.15   2
   1  -1  -7 4471.49 555.077   2
   1  -1  -6 43062.5 1719.59   2
   1  -1  -5 391.766 155.131   2
   1  -1  -4 210325. 4454.55   2
   1  -1  -3 233253. 4671.87   2
   1  -1  -2 4490.90 338.780   3
   1  -1  -2 5134.12 376.450   2
   1  -1  -1 45117.1 1149.08   3
   1  -1   0 181198. 3286.50   1
   1  -1   0 177029. 3215.44   3
   1  -1   1 11276.4 449.183   1
   1  -1   1 11193.9 344.499   3
   1  -1   2 515178. 8562.64   3
   1  -1   2 575214. 9036.51   1
   1  -1   4 32120.0 1056.99   1
  -1   1  -4 31796.7 924.095   2
   1  -1   5 98989.2 2485.23   1
  -1   1  -5 98917.6 2308.75   2
   1  -1   6 14445.5 855.206   1
  -1   1  -6 13754.3 739.960   2
   1  -1   7 17.1536 67.0515   1
  -1   1  -7 78.7768 90.2019   2
   1  -1   8 8171.83 736.836   1
  -1   1  -9 1031.27 140.492  23
  -1   1  -9 822.440 123.547  19
  -1   1  -9 695.885 107.827  26
  -1   1 -10 25977.1 819.565  19
  -1   1 -10 25266.8 785.991  26
  -1   1 -11 1178.76 146.899  10
  -1   1 -11 1230.44 147.109  26
  -1   1 -11 1137.76 146.731  19
  -1   1 -12 4380.54 255.733  10
  -1   1 -12 4776.62 262.041  26
  -1   1 -12 5234.78 286.101  30
  -1   1 -12 5013.83 281.146  19
  -1   1 -13 877.974 84.9898  10
  -1   1 -13 1132.59 104.535  30
  -1   1 -13 1145.36 101.800  19
   1   0 -13 6198.27 224.082  30
   1   0 -12 1889.78 143.204   8
   1   0 -12 2179.20 167.450  30
   1   0 -12 1751.37 157.070  10
   1   0 -11 5398.00 296.324   8
   1   0 -11 5721.74 321.149  30
   1   0 -11 4877.76 309.558  10
   1   0 -10 149.450 67.0979   8
   1   0 -10 80.5701 52.7343  10
   1   0  -9 8854.16 445.214  10
   1   0  -9 9307.74 433.152   8
   1   0  -8 42458.2 1059.84   8
   1   0  -8 40136.0 1773.01   2
   1   0  -8 41414.5 1049.56  26
   1   0  -8 41339.9 1096.82  10
   1   0  -7 18414.7 1107.00   2
   1   0  -6 73811.5 2317.37   2
   1   0  -5 29514.8 1236.92   2
   1   0  -4 375412. 7079.14   2
   1   0  -3 355590. 6387.07   2
   1   0  -3 332572. 6240.73   3
   1   0  -2 2460.15 224.621   3
   1   0  -1 34427.3 918.733   3
   1   0   0 5101.64 252.250   1
   1   0   0 4734.81 265.406   3
   1   0   1 58030.6 1222.03   3
   1   0   1 59347.3 1195.81   1
  -1   0  -2 92353.1 1913.72   2
   1   0   2 96453.5 1867.13   1
   1   0   2 98328.0 1802.24   3
  -1   0  -3 236650. 4384.58   2
   1   0   3 242251. 4349.17   1
   1   0   4 40666.9 1174.00   1
  -1   0  -4 40663.3 1198.67   2
  -1   0  -5 203420. 4270.50   2
   1   0   5 217615. 4276.78   1
  -1   0  -6 44.1036 85.1047   2
   1   0   6 120.115 85.0053   1
  -1   0  -7 28430.6 1273.92   2
   1   0   7 27717.0 1285.50   1
  -1   0  -8 7836.86 683.032   2
  -1   0  -9 41743.1 1047.13   8
  -1   0  -9 44682.0 1151.89  23
  -1   0  -9 41735.8 1778.45   2
  -1   0  -9 44191.0 1121.06  26
  -1   0  -9 44623.6 1142.29  19
  -1   0 -10 46321.3 1196.99  19
  -1   0 -10 44800.5 1101.53   8
  -1   0 -10 43581.6 1150.40  10
  -1   0 -10 45680.0 1179.29  26
  -1   0 -11 569.504 105.599  19
  -1   0 -11 580.755 106.482  26
  -1   0 -11 684.257 111.648  30
  -1   0 -11 504.464 96.0846  10
  -1   0 -11 576.144 92.9684   8
  -1   0 -12 4421.25 254.841  10
  -1   0 -12 5095.51 295.319  19
  -1   0 -12 4678.07 277.180  26
  -1   0 -12 5283.40 293.620  30
  -1   0 -13 69.3401 26.6659  10
  -1   0 -13 167.689 46.0637  19
  -1   0 -13 158.672 43.2236  30
   1   1 -13 1081.79 86.5948  30
   1   1 -12 445.413 81.2329  10
   1   1 -12 480.141 80.4197  30
   1   1 -12 388.922 57.8281   8
   1   1 -11 1037.42 121.950   8
   1   1 -11 837.628 128.206  10
   1   1 -10 2274.26 197.055   8
   1   1 -10 2491.05 229.213  10
   1   1  -9 14705.6 538.951  28
   1   1  -9 15773.5 614.932  10
   1   1  -9 15380.6 564.140   8
   1   1  -8 907.761 120.561  28
   1   1  -8 851.642 117.050   8
   1   1  -8 828.078 118.449  15
   1   1  -8 899.475 229.595   2
   1   1  -7 23251.3 1182.40   2
   1   1  -6 237.287 121.177   2
   1   1  -5 24284.4 1052.63   2
   1   1  -4 134601. 3037.88   2
   1   1  -4 139501. 2959.31   3
   1   1  -3 22580.8 803.178   3
   1   1  -3 23919.8 864.440   2
   1   1  -2 158147. 3092.90   3
   1   1  -1 23552.7 756.997   3
   1   1   0 40735.5 1009.52   3
   1   1   1 190272. 3431.22   3
  -1  -1  -1 190253. 3414.51   2
  -1  -1  -2 17042.8 580.509   2
   1   1   2 16849.8 406.052   1
   1   1   3 170950. 3096.01   1
  -1  -1  -3 172731. 3351.48   2
  -1  -1  -4 46768.3 1386.24   2
   1   1   4 49714.9 1242.65   1
  -1  -1  -5 99794.2 2535.46   2
   1   1   5 105959. 2341.66   1
   1   1   6 57041.6 1682.66   1
  -1  -1  -6 58002.9 1865.72   2
  -1  -1  -7 134.457 99.2634   2
  -1  -1  -8 6117.59 640.569   2
  -1  -1  -9 22186.7 738.908  19
  -1  -1  -9 23150.0 744.175  23
  -1  -1  -9 22923.9 736.530  26
  -1  -1  -9 20796.6 681.623  10
  -1  -1  -9 21133.3 1273.12   2
  -1  -1  -9 21698.8 691.666   8
  -1  -1 -10 1969.42 186.836   8
  -1  -1 -10 2205.49 217.565  23
  -1  -1 -10 2315.82 219.407  26
  -1  -1 -10 2044.83 205.933  19
  -1  -1 -10 2536.55 228.196  30
  -1  -1 -10 2006.73 192.485  10
  -1  -1 -11 207.720 73.2619  19
  -1  -1 -11 161.565 61.6146  10
  -1  -1 -11 198.208 65.5743  30
  -1  -1 -11 281.136 68.5501   8
  -1  -1 -11 223.764 74.0706  26
  -1  -1 -12 2396.28 176.902  10
  -1  -1 -12 2563.69 180.571   8
  -1  -1 -12 2787.41 213.133  30
  -1  -1 -12 2735.31 215.658  19
  -1  -1 -13 9250.77 343.253  19
  -1  -1 -13 9172.79 342.001  30
   1   2 -13 302.512 46.6357  10
   1   2 -13 330.601 46.5261  30
   1   2 -12 197.775 53.5514  10
   1   2 -12 234.730 55.7374  30
   1   2 -11 31791.8 793.584   8
   1   2 -11 34310.4 935.187  10
   1   2 -10 2643.73 200.492   8
   1   2 -10 2551.95 200.913  28
   1   2 -10 2481.97 227.671  10
   1   2  -9 13465.5 535.211  15
   1   2  -9 12749.8 505.543  28
   1   2  -9 13210.7 494.646   8
   1   2  -8 8517.13 396.497  15
   1   2  -8 7434.53 345.449   8
  -1  -2   7 598.452 281.430   1
   1   2  -6 113224. 2796.29   2
   1   2  -5 69706.6 1905.30   2
   1   2  -4 62133.3 1640.02   2
   1   2  -4 64387.0 1617.77   3
   1   2  -3 25233.8 823.767   2
   1   2  -3 23447.9 821.318   3
   1   2  -2 672367. 11505.5   3
   1   2  -1 14380.6 583.916   3
   1   2   0 631.791 104.247   3
  -1  -2  -1 55.5015 45.2775   2
  -1  -2  -1 34.2825 10.6778   1
  -1  -2  -2 16666.1 614.070   2
  -1  -2  -3 8566.56 477.021   2
  -1  -2  -4 94305.2 2295.01   2
   1   2   5 431445. 7690.67   1
  -1  -2  -5 448666. 8219.61   2
  -1  -2  -6 8389.68 657.697   2
  -1  -2  -7 22603.6 1225.01   2
  -1  -2  -8 3595.24 507.368   2
  -1  -2  -9 3146.77 245.813  23
  -1  -2  -9 2866.47 474.230   2
  -1  -2  -9 3000.07 250.742  19
  -1  -2  -9 3196.60 255.561  26
  -1  -2  -9 3204.06 250.361  30
  -1  -2  -9 2945.67 234.109   8
  -1  -2  -9 2827.30 216.949  10
  -1  -2 -10 17647.3 629.190  10
  -1  -2 -10 20799.2 718.102  30
  -1  -2 -10 20797.9 707.995  23
  -1  -2 -10 19747.7 726.452  19
  -1  -2 -10 19670.7 724.573  26
  -1  -2 -10 20090.7 684.456   8
  -1  -2 -11 418.246 87.5716  10
  -1  -2 -11 533.004 98.8259   8
  -1  -2 -11 387.155 93.8912  19
  -1  -2 -11 441.698 104.449  26
  -1  -2 -11 508.632 106.972  30
  -1  -2 -12 148.273 60.7775  19
  -1  -2 -12 127.406 47.9719   8
  -1  -2 -12 177.559 58.6681  30
  -1  -2 -13 3387.38 168.256   8
  -1  -2 -13 3419.37 195.730  19
   1   3 -12 610.732 87.8866  10
   1   3 -11 425.377 89.3610  10
   1   3 -10 558.171 95.9562  28
   1   3 -10 595.064 105.602  15
   1   3  -9 9240.88 443.631  15
  -1  -3   8-48.7085 89.8137   1
   1   3  -8 319.459 81.9567  15
  -1  -3   7 1484.41 383.508   1
  -1  -3   6 8526.65 790.615   1
  -1  -3   5 6124.45 611.258   1
   1   3  -4 10.9076 24.8713   2
   1   3  -4 25.1024 36.5222   3
   1   3  -3 30260.0 837.690   2
   1   3  -3 31198.5 996.185   3
  -1  -3   3 29507.1 1169.59   1
  -1  -3   2 332293. 5965.50   1
   1   3  -2 304323. 5842.67   3
   1   3  -1 121873. 2594.81   3
  -1  -3   1 127244. 2585.33   1
  -1  -3   0 23201.7 680.123   1
   1   3   0 23409.5 806.592   3
  -1  -3  -1 2464.76 145.796   1
  -1  -3  -1 2626.12 208.826   2
  -1  -3  -2 2575.55 241.182   2
  -1  -3  -3 158450. 3294.58   2
  -1  -3  -4 29466.9 1124.41   2
  -1  -3  -5 1759.62 284.826   2
  -1  -3  -6 7098.40 637.733   2
  -1  -3  -7 20639.8 1216.87   2
  -1  -3  -8 8288.41 408.535  26
  -1  -3  -8 8217.90 380.395  23
  -1  -3  -8 8082.01 387.968   8
  -1  -3  -8 7649.93 401.065  19
  -1  -3  -8 8098.74 791.407   2
  -1  -3  -8 8400.63 391.795  20
  -1  -3  -8 8164.00 396.551  30
  -1  -3  -9 25265.2 857.231  19
  -1  -3  -9 27228.0 826.804   8
  -1  -3  -9 27610.8 818.368  23
  -1  -3  -9 26183.7 858.730  26
  -1  -3  -9 26584.2 802.759  20
  -1  -3  -9 27304.9 850.970  30
  -1  -3 -10 5896.98 375.180  26
  -1  -3 -10 6071.04 325.173  20
  -1  -3 -10 6138.45 367.665  30
  -1  -3 -10 6397.82 361.573   8
  -1  -3 -10 5885.64 376.403  19
  -1  -3 -11 36745.5 1020.38  30
  -1  -3 -11 37323.8 993.057   8
  -1  -3 -11 36253.1 1047.92  19
  -1  -3 -12 1074.13 120.560   8
  -1  -3 -12 1150.79 140.828  19
  -1  -3 -13 2671.46 149.075   8
   1   4 -12 629.218 82.3648  10
   1   4 -11 3011.52 220.180  10
   1   4 -11 2677.08 173.395  28
   1   4 -10 350.758 80.3602  15
   1   4  -9 5273.49 334.050  15
   1   4  -8 18236.0 668.311  15
  -1  -4   7 5246.12 692.951   1
   1   4  -7 5267.35 319.054  15
  -1  -4   6 12757.2 999.426   1
  -1  -4   5 71979.5 2444.20   1
  -1  -4   4 187057. 4350.44   1
  -1  -4   3 6942.72 551.865   1
   1   4  -3 6657.71 443.839   3
   1   4  -2 73128.0 1906.66   3
  -1  -4   2 75792.3 1998.35   1
   1   4  -1 1729.47 232.698   3
  -1  -4   1 1837.91 222.125   1
  -1  -4   0 206029. 3877.94   1
  -1  -4  -1 16609.7 606.935   2
  -1  -4  -1 16094.3 542.485   1
  -1  -4  -2 60552.1 1542.95   2
  -1  -4  -3 144299. 3170.53   2
  -1  -4  -4 13250.1 761.365   2
  -1  -4  -5 49078.2 1756.01   2
  -1  -4  -6 6523.41 636.303   2
  -1  -4  -7 22349.1 1305.19   2
  -1  -4  -8 560.191 112.173  26
  -1  -4  -8 673.616 111.532   8
  -1  -4  -8 788.389 127.961  30
  -1  -4  -8 577.133 96.7912  23
  -1  -4  -8 533.062 212.440   2
  -1  -4  -8 577.046 116.618  19
  -1  -4  -8 565.346 107.799  20
  -1  -4  -9 9988.50 501.485  26
  -1  -4  -9 10138.3 511.723  19
  -1  -4  -9 10631.4 448.593  23
  -1  -4  -9 10278.3 472.029  20
  -1  -4  -9 10298.2 474.254   8
  -1  -4  -9 10783.6 502.581  30
  -1  -4 -10 1551.06 177.654   8
  -1  -4 -10 1331.76 169.475  30
  -1  -4 -10 1253.98 177.032  19
  -1  -4 -10 1326.52 154.709  20
  -1  -4 -11 3410.67 246.708   8
  -1  -4 -11 2902.09 195.933  20
  -1  -4 -11 3075.30 256.269  19
  -1  -4 -12 2600.19 183.818   8
  -1  -4 -13 753.275 72.7730   8
   1   5 -12 6927.66 255.622  10
   1   5 -11 2950.37 172.365  28
   1   5 -11 3408.52 217.717  10
   1   5 -10 133.835 53.8951  15
   1   5  -9 31065.4 933.957  15
   1   5  -8 54.9196 53.9165  15
  -1  -5   7 9701.93 936.069   1
  -1  -5   6 12.8044 63.3073   1
  -1  -5   5 2944.88 456.214   1
  -1  -5   4 56348.0 2021.65   1
  -1  -5   3 27283.4 1225.38   1
   1   5  -2 94.9694 64.6747   3
  -1  -5   2 12.3016 66.5136   1
  -1  -5   1 13737.9 703.377   1
   1   5  -1 13948.3 739.311   3
  -1  -5   0 17513.6 726.542   1
   1   5   0 17121.3 832.554   3
  -1  -5  -1 10067.9 473.655   1
  -1  -5  -2 135365. 2886.97   2
  -1  -5  -3 1350.73 218.902   2
  -1  -5  -4 15373.5 878.597   2
  -1  -5  -4 16143.1 474.797   7
  -1  -5  -5 3191.12 419.385   2
  -1  -5  -6 2032.62 364.053   2
  -1  -5  -7 67995.9 1515.97   8
  -1  -5  -7 68308.5 1495.76  17
  -1  -5  -7 67666.7 2484.37   2
  -1  -5  -7 65898.8 1562.82  26
  -1  -5  -7 72103.4 1598.21  20
  -1  -5  -7 66137.9 1617.91  19
  -1  -5  -8 16818.2 687.913  19
  -1  -5  -8 17160.2 647.497  20
  -1  -5  -8 17044.1 620.431   8
  -1  -5  -8 16235.6 570.572  17
  -1  -5  -9 29547.5 885.039   8
  -1  -5  -9 28721.2 966.903  19
  -1  -5  -9 28484.4 882.484  20
  -1  -5 -10 16367.8 594.875  20
  -1  -5 -10 17615.3 623.412   8
  -1  -5 -10 16721.3 674.420  19
  -1  -5 -11 25045.2 718.541   8
  -1  -5 -11 22481.7 645.796  20
  -1  -5 -12 8421.85 327.184   8
   1   6 -11-2.77020 14.5271  28
   1   6 -11 7.68250 21.9780  10
   1   6 -10 329.373 74.1526  15
   1   6  -9 2172.28 208.187  15
   1   6  -8 4303.02 312.974  15
  -1  -6   6 8617.12 378.531  14
  -1  -6   6 9764.58 913.090   1
  -1  -6   5 16023.7 1124.38   1
  -1  -6   4 225.151 140.271   1
  -1  -6   3 16101.7 981.125   1
  -1  -6   2 31703.7 1324.89   1
   1   6  -2 29953.4 784.132   6
  -1  -6   1 30076.8 1184.07   1
   1   6  -1 29933.9 1230.03   3
   1   6  -1 27058.4 728.450   6
  -1  -6   0 182804. 3729.42   1
   1   6   0 187559. 4051.97   3
   1   6   1 48828.3 1086.79   6
  -1  -6  -3 58241.0 1655.33   2
  -1  -6  -3 45812.1 1010.77   7
  -1  -6  -4 17638.0 950.765   2
  -1  -6  -5 76416.2 2426.83   2
  -1  -6  -6 14992.9 544.661  17
  -1  -6  -6 14058.5 516.741   8
  -1  -6  -6 13840.7 599.028  19
  -1  -6  -7 23439.7 740.550  17
  -1  -6  -7 23787.9 1377.29   2
  -1  -6  -7 23843.5 753.736   8
  -1  -6  -7 25082.9 819.851  20
  -1  -6  -7 24806.1 868.487  19
  -1  -6  -8 294.448 77.4642  17
  -1  -6  -8 300.350 93.1656  20
  -1  -6  -9 774.995 133.969  20
  -1  -6  -9 727.240 119.232   8
  -1  -6 -10-6.35820 43.7120   8
  -1  -6 -10 31.2962 34.0746  20
  -1  -6 -11 1331.66 123.082  20
  -1  -6 -11 1556.46 142.137   8
  -1  -6 -12 224.775 45.8013   8
   1   7 -11 2056.46 118.812  10
   1   7 -10 359.457 71.3913  15
   1   7  -9 595.310 106.635  15
   1   7  -8 1594.10 185.115  15
  -1  -7   7 3510.13 235.540  14
  -1  -7   6 782.485 116.846  14
  -1  -7   5 33968.4 934.037  14
  -1  -7   5 37067.7 1806.60   1
  -1  -7   4 91368.9 1920.42  14
  -1  -7   4 98920.3 3047.17   1
  -1  -7   3 80943.5 2597.53   1
   1   7  -2 4797.39 288.690   6
  -1  -7   2 5612.17 566.279   1
  -1  -7   1 1454.44 254.897   1
   1   7  -1 990.547 130.439   6
   1   7   0 8150.98 380.070   6
   1   7   0 9394.71 725.827   3
   1   7   1 6362.14 330.212   6
   1   7   1 7671.26 684.590   3
   1   7   2 22427.7 679.437   6
   1   7   3 2443.04 190.517   6
   1   7   4 107064. 2102.23   6
  -1  -7  -4 106878. 2075.93   4
  -1  -7  -6 13265.9 506.730   8
  -1  -7  -6 13258.9 539.860  17
  -1  -7  -7 1652.53 176.294  17
  -1  -7  -7 1633.65 171.718   8
  -1  -7  -7 1618.71 190.517  20
  -1  -7  -8 1143.68 144.004   8
  -1  -7  -8 1137.27 138.521  17
  -1  -7  -8 1073.06 161.691  20
  -1  -7  -9 23948.0 769.449  20
  -1  -7  -9 24683.6 735.815   8
  -1  -7 -10 5863.28 289.006   8
  -1  -7 -10 5553.78 293.613  20
  -1  -7 -11 455.989 65.8770   8
  -1  -7 -11 308.945 53.4351  20
   1   8 -10 287.711 53.1399  15
   1   8  -9 211.758 60.1238  15
   1   8  -8 26.9347 35.4463  15
  -1  -8   7 4864.24 277.029  14
   1   8  -7 5122.61 337.308  15
  -1  -8   6 391.697 83.4346  14
  -1  -8   5 6204.46 352.948  14
  -1  -8   4 72197.5 1661.49  14
  -1  -8   4 74834.0 1549.77  11
  -1  -8   3 744.133 107.096  11
  -1  -8   3 889.639 131.018  14
  -1  -8   2 6765.97 361.071  14
  -1  -8   2 7105.84 345.565  11
   1   8  -1 1304.35 163.363   6
  -1  -8   1 1231.32 142.900  14
   1   8   0 272.289 82.9824   6
  -1  -8   0 306.703 72.6042  12
  -1  -8   0 326.052 76.3678  14
   1   8   1 10093.5 840.788   3
  -1  -8  -1 9231.99 408.454  12
   1   8   1 9243.26 433.204   6
   1   8   2 178.472 69.5737   6
   1   8   2 25.8182 83.9374   3
  -1  -8  -2 197.603 68.1579  12
   1   8   3 9202.63 418.911   6
  -1  -8  -3 9264.14 409.519  12
  -1  -8  -4 1901.74 177.187  12
  -1  -8  -4 2151.03 178.596   4
   1   8   4 2069.06 183.937   6
  -1  -8  -5 16839.4 569.412  12
  -1  -8  -6 1423.79 174.818  17
  -1  -8  -6 1481.53 185.194  20
  -1  -8  -7 1920.28 188.299  17
  -1  -8  -7 1912.14 206.911  20
  -1  -8  -7 2305.60 188.187   8
  -1  -8  -8 5735.59 304.813  17
  -1  -8  -8 5827.00 349.111  20
  -1  -8  -8 6505.96 312.771   8
  -1  -8  -9 476.561 94.6757  20
  -1  -8  -9 752.227 102.066   8
  -1  -8 -10 4237.07 221.434  20
   1   9  -9 541.173 74.0717  15
   1   9  -8 109.421 48.1505  15
   1   9  -8 79.1528 31.6734  13
   1   9  -7 6475.32 350.369  15
  -1  -9   6 4689.73 286.249  14
  -1  -9   5 1209.99 152.883  14
  -1  -9   4 840.164 131.217  14
  -1  -9   4 1000.69 122.199  11
  -1  -9   3 19.9153 46.1413  14
  -1  -9   3 139.756 61.8507  11
  -1  -9   2 4795.63 313.258  14
  -1  -9   2 4683.47 291.048  11
  -1  -9   1 1492.10 167.416  14
  -1  -9   1 1411.74 160.683  11
  -1  -9   0 570.588 105.947  14
  -1  -9  -1 4918.42 283.241  14
  -1  -9  -1 4252.73 287.288  12
   1   9   1 4206.99 303.461   6
  -1  -9  -2 30908.2 897.850  12
   1   9   2 32047.4 924.442   6
  -1  -9  -3 5298.65 317.626  12
  -1  -9  -3 5669.06 322.527   4
   1   9   3 5525.75 323.399   6
  -1  -9  -4 71.2443 46.9909  12
   1   9   4 47.5213 40.7371   6
  -1  -9  -4 23.5156 23.5163   4
  -1  -9  -5 1280.55 162.934  17
  -1  -9  -5 1353.27 141.952  11
  -1  -9  -5 1404.90 174.036  20
  -1  -9  -5 1379.95 146.130  12
  -1  -9  -6 1600.79 174.821  17
  -1  -9  -6 1410.96 172.866  20
  -1  -9  -7 2744.07 208.709  17
  -1  -9  -7 2923.40 235.362  20
  -1  -9  -8 879.562 104.723  17
  -1  -9  -8 868.928 118.698  20
  -1  -9  -9 1948.21 152.278  20
  -1  -9 -10 3840.24 164.480  20
   1  10  -8 609.889 71.5625  15
   1  10  -7 20.4910 24.7353  15
   1  10  -6 884.157 118.761  15
  -1 -10   6 846.626 107.407  14
  -1 -10   5 1698.16 170.086  14
  -1 -10   5 1615.74 137.639  25
  -1 -10   4 126.627 65.2149  14
  -1 -10   4 80.0217 34.0837  11
  -1 -10   3 3320.77 256.428  14
  -1 -10   3 3648.90 240.192  11
  -1 -10   2 8996.99 408.515  11
  -1 -10   2 8747.69 428.322  14
  -1 -10   1 2336.09 209.875  11
  -1 -10   1 2482.76 216.537  14
  -1 -10   0 7421.57 385.209  11
  -1 -10   0 7461.92 376.556  14
  -1 -10  -1 113.119 50.1764  14
  -1 -10  -1 126.798 61.3569  11
  -1 -10  -2 646.776 114.196  11
  -1 -10  -3 14314.1 537.168  11
  -1 -10  -3 15270.4 537.160   4
  -1 -10  -4 5733.67 295.380   4
  -1 -10  -4 5058.09 296.802  20
  -1 -10  -4 5374.67 295.281  11
  -1 -10  -5-4.02179 22.0721  11
  -1 -10  -5 2.57754 44.4650  17
  -1 -10  -5 14.6402 39.4025  20
  -1 -10  -6 2702.46 202.617  17
  -1 -10  -6 2508.52 200.055  20
  -1 -10  -7 2947.19 187.509  17
  -1 -10  -7 2970.75 204.097  20
  -1 -10  -8 1741.32 133.996  20
  -1 -10  -9 47.3976 23.5997  20
   1  11  -6 166.181 39.0258  15
   1  11  -5 1952.40 147.419  15
  -1 -11   4 1848.75 147.738  25
   1  11  -4 1765.25 146.452  15
  -1 -11   4 1816.62 162.252  14
  -1 -11   3 74.5895 44.8464  14
  -1 -11   3 3.53255 27.3926  11
  -1 -11   2 179.081 58.9184  14
  -1 -11   2 238.429 60.4166  11
  -1 -11   1 2783.79 211.388  14
  -1 -11   1 2864.61 214.789  11
  -1 -11   0 272.873 74.6691  11
  -1 -11   0 209.667 61.6340  14
  -1 -11  -1 6525.77 332.142   4
  -1 -11  -1 6575.47 339.107  11
  -1 -11  -2 1459.61 151.892  11
  -1 -11  -2 1376.34 141.319   4
  -1 -11  -3 3702.96 234.856  11
  -1 -11  -3 3657.08 222.514   4
  -1 -11  -4 2774.96 174.414   4
  -1 -11  -4 2975.50 215.399  17
  -1 -11  -4 3104.29 193.488  11
  -1 -11  -4 2501.75 165.178  20
  -1 -11  -5 4227.77 195.974  11
  -1 -11  -5 4233.87 240.218  17
  -1 -11  -5 3641.05 200.938  20
  -1 -11  -6 4583.89 220.130  17
  -1 -11  -6 3999.08 197.417  20
  -1 -11  -7 1092.21 85.1593  20
  -1 -12   4 4252.05 160.790  25
  -1 -12   3 4623.92 211.002  25
  -1 -12   2 20.4256 22.9453  11
  -1 -12   2 62.6962 30.3276   4
  -1 -12   1 1575.26 135.534   4
  -1 -12   1 1633.53 135.061  11
  -1 -12   0 60.8218 36.2019  11
  -1 -12   0 57.5238 35.8575   4
  -1 -12  -1 3562.47 206.367  11
  -1 -12  -1 3626.11 203.023   4
  -1 -12  -2 22.5707 27.0737  11
  -1 -12  -2-26.3516 33.7424  17
  -1 -12  -2 2.96770 23.1729   4
  -1 -12  -3 1960.98 147.321  17
  -1 -12  -3 2082.10 130.334  25
  -1 -12  -3 2111.48 141.408  11
  -1 -12  -4 10749.4 349.705  17
  -1 -12  -4 10481.3 307.009  11
  -1 -12  -5 7512.25 251.326  17
  -1 -13   0 2212.92 116.538  25
   2 -11  -3 2154.53 113.558  11
   2 -11  -2 1781.39 116.259  11
   2 -11  -1 4710.83 208.366  11
   2 -11   0 814.531 83.3467  11
   2 -11   1 44.9823 22.1814  14
   2 -11   1 19.0324 19.9036  11
   2 -11   2 524.077 63.7875  14
   2 -11   2 586.092 59.7378  11
   2 -11   3 1073.28 90.8698  14
   2 -11   4 669.967 67.3660  14
   2 -10  -6 774.204 65.9273  20
   2 -10  -5 4851.28 195.328  12
   2 -10  -5 5115.93 177.312  11
   2 -10  -4 172.020 46.2506   4
   2 -10  -4 198.081 49.9415  12
   2 -10  -3 1012.55 108.389  12
   2 -10  -3 739.349 98.4098   4
   2 -10  -2 230.244 58.9136   4
   2 -10  -2 237.539 58.5230  12
   2 -10  -1 14254.0 498.664   4
   2 -10  -1 14032.5 480.448  12
   2 -10   0 1362.15 120.217  14
   2 -10   0 1343.38 132.490  12
   2 -10   0 1340.44 141.663   4
   2 -10   1 6326.84 293.930  14
   2 -10   1 6470.81 310.723   4
   2 -10   2 3217.00 205.169   4
   2 -10   2 3248.17 212.893  14
   2 -10   3 13.4102 26.0580  14
   2 -10   3 15.4605 25.2667  11
   2 -10   3 10.7254 25.7307   4
   2 -10   4 26.7320 31.7526  14
  -2  10  -4 22.7806 25.4469   5
  -2  10  -5 1978.09 158.322   5
   2 -10   5 2238.27 159.221  14
   2 -10   6-17.7498 22.9199  14
  -2  10  -7 99.9153 30.3795  19
   2  -9  -7 1297.74 101.049  20
   2  -9  -6 80.2381 33.8481  12
   2  -9  -5 6265.20 283.248  12
   2  -9  -5 6034.02 291.431   4
   2  -9  -4 9875.68 404.652  12
   2  -9  -4 10303.3 423.921   4
   2  -9  -3 8557.85 391.281  12
   2  -9  -3 8766.28 403.304   4
   2  -9  -2 2866.81 223.007  12
   2  -9  -2 2896.17 228.259   4
   2  -9  -2 2830.20 196.824  29
   2  -9  -1 54.7933 34.5407  12
   2  -9  -1 11.1983 38.0188  29
   2  -9  -1 20.4738 36.1768   4
   2  -9   0 1866.36 175.334  29
   2  -9   0 1991.84 173.430  14
   2  -9   0 1895.04 186.211   4
   2  -9   0 2076.82 189.348  12
   2  -9   1 29897.7 819.161  12
   2  -9   1 29666.7 832.099  14
   2  -9   1 28485.1 838.162   4
   2  -9   2 2102.97 169.887  12
   2  -9   2 1935.79 185.330  14
   2  -9   2 1936.11 179.025   4
   2  -9   3 6793.42 356.756  14
   2  -9   3 6417.15 320.660   4
   2  -9   4 6307.08 340.542  14
   2  -9   5 3554.16 241.343  14
   2  -9   6 9804.85 386.518  14
  -2   9  -6 9015.92 401.544   5
  -2   9  -7 195.372 59.3968  19
  -2   9  -7 217.309 56.8861   5
   2  -9   7 163.053 42.3861  14
  -2   9  -8 2729.86 167.221  19
   2  -9   8 3455.97 140.549  14
   2  -8  -8 5996.79 235.104  20
   2  -8  -7 3947.83 187.871  12
   2  -8  -6 561.928 82.8310  12
   2  -8  -5 5959.55 317.593  12
   2  -8  -5 5867.43 326.274   4
   2  -8  -4 1217.56 150.337  12
   2  -8  -4 1306.75 156.132   4
   2  -8  -3 1072.36 145.624  12
   2  -8  -3 984.504 116.198  29
   2  -8  -3 1015.83 140.541   4
   2  -8  -2 2975.10 243.593   4
   2  -8  -2 2665.42 208.437  29
   2  -8  -2 2864.65 237.829  12
   2  -8  -1 16684.0 612.138   4
   2  -8  -1 16616.1 609.992  12
   2  -8  -1 15201.4 559.926  29
   2  -8   0 15985.8 582.494  29
   2  -8   0 17787.2 595.699  14
   2  -8   0 16514.3 612.419   4
   2  -8   0 17322.4 610.622  12
   2  -8   1 202.991 62.1183  29
   2  -8   1 281.900 80.2324  14
   2  -8   1 284.781 75.4143  12
   2  -8   1 215.236 69.0706   4
   2  -8   2 34.1139 36.8097  12
   2  -8   2 76.7261 42.1751   4
   2  -8   2 19.2340 40.9694  14
   2  -8   2 40.1718 33.5990  29
   2  -8   3 172.981 63.2432  14
   2  -8   3 115.270 48.5421   4
   2  -8   4 139.818 55.3361   4
   2  -8   4 198.792 74.9752  14
   2  -8   5 653.502 112.894  14
   2  -8   6 3042.38 228.381  14
  -2   8  -6 2978.21 250.508   5
   2  -8   7 440.667 78.6520  14
  -2   8  -7 417.412 86.5375   5
  -2   8  -8 1450.91 156.604  19
   2  -8   8 1752.91 129.785  14
  -2   8  -8 1585.92 147.510   5
  -2   8  -9 84.3516 36.6512  19
  -2   8  -9 169.956 44.1469  15
   2  -7  -9 948.034 90.3046  31
   2  -7  -9 2262.90 120.291  20
   2  -7  -8 183.651 53.5685  31
   2  -7  -8 218.986 51.7961  20
   2  -7  -7 12212.1 417.099  12
   2  -7  -7 10854.4 457.201  31
   2  -7  -6 13755.9 545.714  31
   2  -7  -6 11919.6 493.534   4
   2  -7  -6 13271.6 496.768  12
   2  -7  -5 2259.00 202.845  18
   2  -7  -5 1955.52 196.083   4
   2  -7  -5 2023.30 211.867  31
   2  -7  -4 6494.22 392.379  31
   2  -7  -4 5781.75 342.983  18
   2  -7  -4 6100.57 353.755   4
   2  -7  -3 2460.88 241.222  31
   2  -7  -3 2123.44 202.349  18
   2  -7  -3 1925.36 166.130  29
   2  -7  -3 2230.66 212.504   4
   2  -7  -2 4991.78 320.641   4
   2  -7  -2 4726.57 283.698  29
   2  -7  -1 1797.20 187.102   4
   2  -7  -1 1652.99 162.322  29
   2  -7   0 104.316 44.7889  29
   2  -7   0 81.6897 41.8775  12
   2  -7   0 55.3250 42.7562   4
   2  -7   1 19323.0 647.485   4
   2  -7   1 20451.6 651.368  29
   2  -7   1 21382.2 652.378  12
   2  -7   2 12291.5 1013.95   1
   2  -7   2 11796.3 486.384  29
   2  -7   2 12270.9 481.522   4
   2  -7   2 13124.8 468.475  12
   2  -7   3 13650.4 524.777  29
   2  -7   4 3333.34 254.944  14
   2  -7   5 2632.76 224.344  14
   2  -7   6 18530.7 641.395  14
  -2   7  -7 8206.16 430.168   5
   2  -7   7 8186.02 376.865  14
  -2   7  -8 1929.42 210.033  19
   2  -7   8 2144.06 162.943  14
  -2   7  -8 2276.76 198.194   5
  -2   7  -9 448.515 89.6634  19
  -2   7  -9 509.751 79.3391   5
  -2   7 -10 640.165 82.8367  19
  -2   7 -10 635.570 71.9189  15
   2  -6 -10 1385.53 99.6024  31
   2  -6  -9 762.531 101.932  31
   2  -6  -9 655.237 80.6995  20
   2  -6  -8 5110.87 303.603  31
   2  -6  -7 11355.7 450.769  18
   2  -6  -7 11669.8 515.344  31
   2  -6  -6 20262.7 665.812  18
   2  -6  -6 20470.7 737.774  31
   2  -6  -6 19277.9 676.474   4
   2  -6  -5 1483.00 166.376  18
   2  -6  -5 1690.66 202.635  31
   2  -6  -5 1464.27 171.930   4
   2  -6  -4 2952.93 239.765  18
   2  -6  -4 3255.36 270.151  31
   2  -6  -4 2972.37 247.152   4
   2  -6  -3 41548.8 1094.35  18
   2  -6  -3 45019.3 1179.56  31
   2  -6  -3 45388.3 1128.45   4
   2  -6  -3 43339.6 1023.89  29
   2  -6  -2 63810.0 1415.50  18
   2  -6  -2 60335.2 1349.70  29
   2  -6  -2 63757.2 1472.07  31
   2  -6  -2 63783.4 1435.38   4
   2  -6  -1 824.305 124.593   4
   2  -6   0 1424.25 147.737   4
   2  -6   0 738.794 256.510   1
   2  -6   1-50.3869 75.0483   1
   2  -6   2 3971.77 539.914   1
   2  -6   3 33992.9 1692.92   1
   2  -6   3 31507.1 842.088  29
   2  -6   4 5143.72 287.546  29
   2  -6   4 6572.34 728.227   1
   2  -6   5 18638.5 1287.35   1
   2  -6   6 6558.61 346.967  14
  -2   6  -7 4559.75 322.840   5
   2  -6   7 4630.19 278.674  14
  -2   6  -8 3837.87 303.182  19
  -2   6  -8 3684.22 272.713   5
  -2   6  -9 1439.84 170.370  19
  -2   6  -9 1392.02 144.621   5
  -2   6 -10 12799.9 472.866  19
  -2   6 -10 12594.6 420.840  15
  -2   6 -11 1040.36 97.5988  19
   2  -5 -10 3905.67 219.852  31
   2  -5 -10 4154.05 198.917   8
   2  -5  -9 5584.06 273.190   8
   2  -5  -9 5598.48 318.956  31
   2  -5  -8 17.7317 28.6044  18
   2  -5  -8 3.69252 26.0875   8
   2  -5  -7 9402.09 396.417   8
   2  -5  -7 8685.68 396.682  18
   2  -5  -6 32726.5 906.280  18
   2  -5  -6 32838.4 944.257   4
   2  -5  -5 602.372 209.859   2
   2  -5  -5 598.508 97.8567  18
   2  -5  -5 601.530 105.687   4
   2  -5  -4 1512.73 307.784   2
   2  -5  -4 1749.08 165.908  18
   2  -5  -4 1567.13 167.207   4
   2  -5  -3 28792.9 1361.41   2
   2  -5  -3 33000.3 872.821   4
   2  -5  -2 668.331 189.967   2
   2  -5  -2 716.527 103.237   4
   2  -5  -1 13898.8 481.446   4
   2  -5   0 22461.5 1250.11   1
   2  -5   0 27481.0 714.669   4
   2  -5   1 60853.4 2145.50   1
   2  -5   2 99036.0 2949.77   1
   2  -5   3 887.350 243.297   1
   2  -5   4 2004.77 386.226   1
   2  -5   5 10518.4 916.225   1
   2  -5   6 373.560 180.793   1
  -2   5  -7 13708.3 574.666   5
   2  -5   7 12868.7 476.275  14
  -2   5  -8 978.047 160.442  19
  -2   5  -8 906.235 138.554   5
  -2   5  -9 2116.40 216.279  19
  -2   5  -9 2269.01 196.036   5
  -2   5 -10 6918.70 364.397  19
  -2   5 -11 436.611 78.1260  19
  -2   5 -12 276.866 43.5584  19
  -2   5 -12 228.165 37.8948  10
   2  -4 -11 73.4133 31.6055   8
   2  -4 -11 20.3013 23.8673  31
   2  -4 -10 2321.25 173.885   8
   2  -4  -9 12618.3 480.310   8
   2  -4  -8 695.082 115.301   8
   2  -4  -8 708.754 103.301  18
   2  -4  -7 12006.4 487.887   8
   2  -4  -7 11719.4 464.775  18
   2  -4  -6 196.209 65.6991   4
   2  -4  -6 98.1006 40.3279   8
   2  -4  -5 41567.8 1854.65   2
   2  -4  -5 43181.6 1094.07   4
   2  -4  -4 21173.7 1201.47   2
   2  -4  -4 19329.3 625.351   4
   2  -4  -3 84.4214 42.2445   4
   2  -4  -3 20.5294 50.7431   2
   2  -4  -2 33405.8 1362.79   2
   2  -4  -2 30841.7 783.531   4
   2  -4  -1 9764.80 352.571   4
   2  -4  -1 9226.04 644.574   2
   2  -4   0 1016.45 231.955   1
   2  -4   0 1050.77 191.832   2
   2  -4   1 34939.2 1433.36   1
   2  -4   2 14545.1 897.112   1
   2  -4   3 55062.1 1946.98   1
   2  -4   4 899.962 239.670   1
   2  -4   5 52773.3 2065.35   1
   2  -4   6 76028.6 2698.47   1
   2  -4   7 28269.3 1564.77   1
  -2   4  -7 28288.5 862.905   5
  -2   4  -7 27966.4 801.982   9
  -2   4  -8 240.702 91.7182  19
  -2   4  -8 170.226 64.1961   5
  -2   4  -8 221.083 66.3908   9
  -2   4  -9 694.445 127.385  19
  -2   4  -9 749.068 114.636   5
  -2   4 -10 295.182 66.7651  26
  -2   4 -10 451.173 99.6148  19
  -2   4 -11 941.875 124.664  19
  -2   4 -12 1271.78 112.750  19
  -2   4 -12 1217.67 104.407  10
   2  -3 -12 1431.37 88.7248   8
   2  -3 -11 269.051 54.7830   8
   2  -3 -10 3498.74 235.510   8
   2  -3  -9 32110.8 901.177   8
   2  -3  -9 31632.0 859.647  30
   2  -3  -8 3545.41 262.289   8
   2  -3  -8 3650.32 245.894  30
   2  -3  -7 1331.90 161.711   8
   2  -3  -7 1852.60 387.980   2
   2  -3  -7 1455.78 149.893  30
   2  -3  -6 36552.4 949.080   8
   2  -3  -6 36662.9 1782.23   2
   2  -3  -5 28201.9 1456.81   2
   2  -3  -5 25938.0 757.041   4
   2  -3  -4 94885.9 2831.79   2
   2  -3  -4 90985.2 1832.43   4
   2  -3  -3 48507.6 1748.91   2
   2  -3  -3 41823.2 966.194   4
   2  -3  -2 129.273 111.308   2
   2  -3  -1 391130. 7433.72   2
   2  -3   0 31893.2 1296.77   1
   2  -3   1 24828.7 1086.66   1
   2  -3   2 140.109 74.1848   1
   2  -3   3 6302.26 551.336   1
   2  -3   4 24240.8 1178.82   1
   2  -3   5 190260. 4531.80   1
   2  -3   6 18304.3 1129.94   1
  -2   3  -6 17976.5 615.326   5
   2  -3   7 2628.89 451.747   1
  -2   3  -7 2512.71 212.656   5
  -2   3  -8 36624.2 1048.18  19
  -2   3  -8 35735.9 970.784   5
  -2   3  -8 35138.3 980.649   9
   2  -3   8 33710.2 1706.99   1
  -2   3  -9 1049.29 155.909  19
  -2   3  -9 864.546 124.336   5
  -2   3 -10 6466.74 377.067  19
  -2   3 -10 6438.84 339.520  26
  -2   3 -11 1078.16 138.504  19
  -2   3 -11 995.098 117.236  26
  -2   3 -12 2123.36 163.374  19
  -2   3 -12 1926.29 142.068  10
  -2   3 -13 890.524 75.5279  19
   2  -2 -12 1664.66 110.297   8
   2  -2 -11 51.5676 39.1359   8
   2  -2 -10 335.612 73.5149  30
   2  -2 -10 286.160 76.5809   8
   2  -2  -9 1984.14 199.347   8
   2  -2  -9 2152.84 190.372  30
   2  -2  -9 1838.82 200.635  10
   2  -2  -8 2784.56 252.193  10
   2  -2  -8 3119.57 228.096  30
   2  -2  -8 3043.56 248.794   8
   2  -2  -7 14611.8 1106.29   2
   2  -2  -7 13258.1 515.582  28
   2  -2  -7 13650.8 494.992  30
   2  -2  -7 14253.3 539.633   8
   2  -2  -7 13347.2 555.990  10
   2  -2  -6 13733.4 1030.55   2
   2  -2  -5 28781.2 1460.45   2
   2  -2  -4 3376.62 443.353   2
   2  -2  -4 3265.93 202.346   4
   2  -2  -3 735.646 210.575   2
   2  -2  -1 14270.9 732.206   3
   2  -2   0 184.341 106.402   1
   2  -2   0 307.955 97.4576   3
   2  -2   1 79003.3 1800.38   3
   2  -2   1 79437.7 2066.53   1
   2  -2   2 16448.2 786.539   1
   2  -2   3 56704.0 1698.39   1
   2  -2   4 78351.2 2203.70   1
   2  -2   5 139955. 3443.45   1
  -2   2  -5 141363. 2619.19   5
   2  -2   6 10765.2 791.629   1
  -2   2  -6 10731.8 421.553   5
   2  -2   7 38837.8 1678.18   1
  -2   2  -7 38874.6 980.983   5
  -2   2  -8 46726.5 1201.52  19
   2  -2   8 43721.8 1863.70   1
  -2   2  -8 45735.1 1107.53   5
  -2   2  -8 44075.7 1099.55  23
  -2   2  -8 45895.9 1165.71   9
  -2   2  -9 1156.80 156.597  19
  -2   2  -9 1057.36 138.849  23
  -2   2 -10 29.4513 38.5261  19
  -2   2 -10 23.7956 40.8092  26
  -2   2 -11 25.2658 37.2419  19
  -2   2 -11 52.4429 39.5132  26
  -2   2 -12 63.1742 41.9751  19
  -2   2 -12 51.3596 32.5048  30
  -2   2 -12 72.4997 40.4921  26
  -2   2 -12 55.1179 33.0653  10
  -2   2 -13 1208.04 103.385  19
   2  -1 -12 96.5587 32.0697   8
   2  -1 -11 14807.0 497.752   8
   2  -1 -11 14875.6 475.108  30
   2  -1 -10 1223.30 150.206   8
   2  -1 -10 1097.51 150.291  10
   2  -1 -10 1281.63 141.705  30
   2  -1  -9 50.9405 45.8827   8
   2  -1  -9-19.9666 32.9570  30
   2  -1  -9 35.3249 37.7305  10
   2  -1  -9 7.80850 28.6851  28
   2  -1  -8 8099.60 431.744  10
   2  -1  -8 8975.02 429.819   8
   2  -1  -8 8145.33 396.937  28
   2  -1  -7 1658.24 359.531   2
   2  -1  -7 1661.86 167.717  28
   2  -1  -7 1756.43 181.771  10
   2  -1  -6 277.308 154.065   2
   2  -1  -5 58600.3 2129.74   2
   2  -1  -4 2124.80 339.815   2
   2  -1  -3 263565. 5460.67   3
   2  -1  -3 272940. 5629.17   2
   2  -1  -2 545.445 144.667   3
   2  -1  -1 75215.0 1915.31   3
   2  -1   0 44553.8 1241.05   3
   2  -1   0 37641.4 1255.35   1
   2  -1   1 116571. 2423.40   3
   2  -1   1 116572. 2558.91   1
   2  -1   2 319994. 5671.95   3
   2  -1   2 323713. 5919.90   1
   2  -1   3 4928.97 257.648   3
   2  -1   3 4993.88 384.808   1
   2  -1   4 1910.08 253.516   1
   2  -1   5 1367.17 232.444   1
  -2   1  -6 13911.3 460.477   5
   2  -1   6 13375.6 812.310   1
  -2   1  -7 1549.69 146.577   5
   2  -1   7 1619.71 298.047   1
  -2   1  -8 20241.8 686.533  19
  -2   1  -8 20276.7 652.206  23
  -2   1  -8 20101.2 615.527   5
  -2   1  -8 20085.1 679.708   9
  -2   1  -9 15854.6 599.728  23
  -2   1  -9 16992.2 644.280  19
  -2   1 -10 28645.8 890.768  19
  -2   1 -10 27275.2 853.715  23
  -2   1 -10 27920.9 853.165  26
  -2   1 -11 3557.49 243.701  30
  -2   1 -11 3830.76 264.228  26
  -2   1 -11 3684.98 271.138  19
  -2   1 -11 3390.36 232.752  10
  -2   1 -12 4647.60 275.123  19
  -2   1 -12 4528.29 239.926  30
  -2   1 -12 4485.21 260.826  26
  -2   1 -13 3563.41 192.471  19
  -2   1 -13 1937.31 114.678  30
   2   0 -12 543.804 67.2571   8
   2   0 -12 574.455 67.3241  30
   2   0 -11 1933.44 162.754   8
   2   0 -11 1662.01 166.226  10
   2   0 -11 2015.42 161.707  30
   2   0 -10 432.993 80.7186  28
   2   0 -10 607.639 105.848   8
   2   0 -10 568.553 98.2335  30
   2   0 -10 451.593 100.591  10
   2   0  -9 23504.8 757.436   8
   2   0  -9 21736.4 707.937  28
   2   0  -9 22612.9 779.368  10
   2   0  -8 45958.9 1987.40   2
   2   0  -8 48613.8 1207.96   8
   2   0  -8 44963.0 1166.64  28
   2   0  -8 48170.6 1237.03  10
   2   0  -7 97369.5 3072.69   2
   2   0  -7 98744.0 2014.19  28
   2   0  -7 98714.4 2050.81  10
   2   0  -6 19115.9 1154.77   2
   2   0  -5 1685.49 317.633   2
   2   0  -4 29866.3 1314.51   2
   2   0  -4 28269.2 1236.93   3
   2   0  -3 171.103 94.9433   3
   2   0  -2 129370. 2925.15   3
   2   0  -1 38699.2 1222.85   3
   2   0   0 743899. 12766.4   3
   2   0   2 419565. 7633.71   3
   2   0   2 443541. 7543.58   1
   2   0   3 20583.8 740.160   3
   2   0   3 21168.5 739.360   1
   2   0   4 14933.0 649.864   1
   2   0   4 13849.8 575.516   3
   2   0   5 6374.05 451.311   1
  -2   0  -5 6497.92 508.848   2
  -2   0  -6 104255. 2732.59   2
  -2   0  -6 104138. 1970.19   5
   2   0   6 102373. 2552.83   1
  -2   0  -7 16720.4 519.203   5
  -2   0  -7 16169.9 959.832   2
  -2   0  -8 2751.79 223.063  19
  -2   0  -8 1936.73 351.466   2
  -2   0  -8 2247.70 202.245   9
  -2   0  -9 44748.1 1177.70  19
  -2   0  -9 43745.7 1152.76  23
  -2   0 -10 35977.9 1034.63  19
  -2   0 -10 36036.6 981.400  30
  -2   0 -10 34978.9 1014.84  23
  -2   0 -10 36144.9 1019.53  26
  -2   0 -11 5021.77 323.429  19
  -2   0 -11 4920.48 296.296  30
  -2   0 -11 4962.46 315.647  26
  -2   0 -12 3193.39 234.538  19
  -2   0 -12 3220.84 209.984  30
  -2   0 -12 3037.50 222.522  26
  -2   0 -13 425.195 59.5066  30
  -2   0 -13 448.724 73.2487  19
   2   1 -12 854.188 79.2612   8
   2   1 -12 898.430 85.8822  30
   2   1 -11 89.2697 44.5570  30
   2   1 -11 69.8788 44.7670  10
   2   1 -11 35.5288 31.5111   8
   2   1 -10 8853.26 406.886   8
   2   1 -10 9383.07 450.090  10
   2   1 -10 9097.47 398.920  28
   2   1  -9 256.431 74.3932  28
   2   1  -9 277.432 83.4931   8
   2   1  -9 266.424 87.9275  10
   2   1  -8 109277. 2233.93  28
   2   1  -8 112971. 2286.72  10
   2   1  -7 40311.7 1747.18   2
   2   1  -7 43079.9 1092.92  15
   2   1  -7 42745.8 1074.71  28
   2   1  -7 43298.8 1094.93  10
   2   1  -6 11921.7 861.038   2
   2   1  -5 353.077 140.440   2
   2   1  -5 252.695 115.409   3
   2   1  -4 6071.35 516.851   3
   2   1  -4 7096.46 581.843   2
   2   1  -3 99516.7 2486.98   3
   2   1  -2 3478.39 346.843   3
   2   1  -1 76154.9 1971.97   3
   2   1   0 3867.22 352.026   3
   2   1   1 999999. 16941.8   3
   2   1   2 4678.26 266.866   1
   2   1   2 5064.71 360.728   3
   2   1   3 39514.6 1154.21   3
   2   1   3 37637.0 948.374   1
  -2  -1  -4 6947.02 504.875   2
   2   1   4 6790.51 431.991   3
   2   1   4 6950.92 364.732   1
   2   1   5 17084.0 754.908   3
  -2  -1  -5 16904.2 880.355   2
   2   1   5 17376.5 674.224   1
  -2  -1  -6 8140.23 643.227   2
  -2  -1  -7 42085.1 1702.92   2
  -2  -1  -8-73.9496 94.2503   2
  -2  -1  -9 853.788 125.528  30
  -2  -1  -9 827.866 130.775  19
  -2  -1  -9 739.131 106.941   8
  -2  -1  -9 346.062 167.490   2
  -2  -1  -9 895.380 134.526  23
  -2  -1  -9 845.917 130.289  26
  -2  -1  -9 887.177 124.631  20
  -2  -1 -10 4173.10 303.783  19
  -2  -1 -10 3874.47 257.846   8
  -2  -1 -10 4113.45 295.354  23
  -2  -1 -10 4183.97 283.266  30
  -2  -1 -10 3971.29 291.925  26
  -2  -1 -11 1063.61 149.987  19
  -2  -1 -11 1034.86 123.743   8
  -2  -1 -11 1107.50 141.894  30
  -2  -1 -11 924.056 142.276  26
  -2  -1 -11 1015.38 142.038  23
  -2  -1 -12 762.086 114.548  19
  -2  -1 -12 676.446 100.046  30
  -2  -1 -12 679.039 111.950  26
  -2  -1 -13 35.2623 34.6490  19
   2   2 -12 802.267 81.9055  30
   2   2 -12 867.669 94.6099  10
   2   2 -11 2985.39 182.805   8
   2   2 -11 3229.97 227.567  10
   2   2 -11 3087.07 189.018  28
   2   2 -10 9113.47 391.897   8
   2   2 -10 8700.49 395.365  28
   2   2 -10 9389.63 445.992  10
   2   2  -9 3889.66 269.253   8
   2   2  -9 4057.88 278.838  28
   2   2  -9 4194.52 297.354  10
   2   2  -8 8130.58 420.864  15
   2   2  -8 8781.40 432.204  10
   2   2  -8 7990.46 404.134  28
   2   2  -7 3205.51 242.760  15
   2   2  -6 62959.8 2058.47   2
   2   2  -5 9104.98 657.941   3
   2   2  -5 9235.21 672.024   2
   2   2  -4 5514.82 488.295   2
   2   2  -4 5150.23 467.044   3
   2   2  -3 5758.15 476.133   3
   2   2  -2 165.850 89.8346   3
   2   2  -1 266446. 5285.60   3
   2   2   0 2621.06 298.318   3
   2   2   1 55423.1 1546.04   3
   2   2   2 90830.4 2162.22   3
   2   2   3 213.107 85.7767   3
  -2  -2  -3 101.136 65.3202   2
  -2  -2  -4 22541.2 982.049   2
  -2  -2  -5 325.291 137.038   2
  -2  -2  -6 51428.8 1117.21   7
  -2  -2  -6 51960.6 1855.46   2
  -2  -2  -7 26579.6 1363.66   2
  -2  -2  -8 209.148 61.9734  19
  -2  -2  -8 97.1712 101.218   2
  -2  -2  -8 55.9425 35.5920  26
  -2  -2  -8 62.6596 48.4032  23
  -2  -2  -9 29.4621 44.1941  19
  -2  -2  -9 24.8850 35.6674   8
  -2  -2  -9-88.5640 96.1100   2
  -2  -2  -9 47.6684 44.3035  30
  -2  -2  -9 75.5332 54.7430  23
  -2  -2  -9 31.9999 36.7833  26
  -2  -2  -9-22.5057 55.5220  20
  -2  -2 -10 15015.3 574.775   8
  -2  -2 -10 16019.5 639.872  19
  -2  -2 -10 15987.0 630.879  26
  -2  -2 -10 15622.3 597.834  30
  -2  -2 -10 16227.5 618.809  23
  -2  -2 -10 16117.3 573.807  20
  -2  -2 -11 10437.2 500.291  19
  -2  -2 -11 10726.3 447.949   8
  -2  -2 -11 10565.4 478.533  23
  -2  -2 -11 10958.0 474.704  30
  -2  -2 -11 10661.8 498.833  26
  -2  -2 -12 411.914 88.8074  19
  -2  -2 -12 356.732 71.5984   8
  -2  -2 -12 348.951 74.2310  30
  -2  -2 -12 330.134 78.3364  26
  -2  -2 -13 774.311 72.5950   8
  -2  -2 -13 973.194 110.070  19
   2   3 -12 194.907 40.0689  30
   2   3 -12 251.722 49.9156  10
   2   3 -11 714.928 103.734  10
   2   3 -11 560.655 78.1940  28
   2   3 -10 719.892 95.2172   8
   2   3 -10 837.808 116.574  28
   2   3 -10 824.073 124.630  10
   2   3  -9 7083.12 350.845   8
   2   3  -9 7254.34 385.710  28
   2   3  -9 7522.81 406.827  15
   2   3  -9 7835.17 408.553  10
   2   3  -8 155.746 60.6173  15
   2   3  -7 13318.5 517.524  15
  -2  -3   7 2862.32 634.503   1
   2   3  -5 71080.1 2040.75   3
   2   3  -5 65477.4 1963.67   2
   2   3  -4 3935.80 407.783   3
   2   3  -4 4068.46 391.422   2
   2   3  -3 123.759 82.9983   3
   2   3  -2 238827. 4975.93   3
   2   3  -1 267401. 5398.49   3
   2   3   0 11840.2 668.970   3
  -2  -3  -1 34507.7 957.571   1
   2   3   1 63678.7 1580.19   3
   2   3   2 4612.17 405.820   3
  -2  -3  -3 579676. 10321.8   2
  -2  -3  -4 20099.2 951.322   2
  -2  -3  -5 5292.66 246.132   7
  -2  -3  -5 5471.77 522.949   2
  -2  -3  -6 108457. 2093.08   7
  -2  -3  -6 108583. 3040.61   2
  -2  -3  -7 4040.80 526.564   2
  -2  -3  -8 53891.6 1341.40  19
  -2  -3  -8 52263.5 1283.32   8
  -2  -3  -8 54006.3 2227.47   2
  -2  -3  -8 54755.7 1299.68  30
  -2  -3  -8 56356.1 1331.93  26
  -2  -3  -8 57098.6 1306.77  23
  -2  -3  -8 58371.4 1343.43  20
  -2  -3  -9 7288.11 387.040   8
  -2  -3  -9 7706.74 400.746  30
  -2  -3  -9 7748.49 399.277  23
  -2  -3  -9 7681.66 396.670  20
  -2  -3  -9 7286.39 411.381  19
  -2  -3  -9 7360.57 404.537  26
  -2  -3 -10 451.116 110.322  19
  -2  -3 -10 657.869 116.859   8
  -2  -3 -10 581.041 115.065  30
  -2  -3 -10 522.887 110.354  26
  -2  -3 -10 650.412 115.226  23
  -2  -3 -10 528.721 106.497  20
  -2  -3 -11 249.651 86.2007  19
  -2  -3 -11 363.073 85.9918   8
  -2  -3 -11 395.898 90.1007  30
  -2  -3 -11 219.635 81.4474  26
  -2  -3 -11 314.760 87.5576  23
  -2  -3 -11 244.782 71.3340  20
  -2  -3 -12 7376.94 331.218   8
  -2  -3 -12 7209.17 372.082  19
  -2  -3 -13 3685.86 174.173   8
  -2  -3 -13 3790.88 212.770  19
   2   4 -12 5090.02 200.900  30
   2   4 -12 7229.82 237.713  10
   2   4 -11 1429.87 122.052  28
   2   4 -11 1488.83 139.230  10
   2   4 -10 8341.32 390.169  10
   2   4 -10 7880.29 368.639  28
   2   4  -9 12035.2 529.203  15
   2   4  -8 3242.33 267.942  15
   2   4  -7 4873.17 320.332  15
   2   4  -7 4742.11 281.644  13
  -2  -4   6 14465.0 1182.10   1
  -2  -4   5 4135.54 562.495   1
   2   4  -4 3790.84 400.592   3
  -2  -4   4 2548.49 403.473   1
   2   4  -3 17174.3 909.208   3
  -2  -4   3 15465.4 932.929   1
   2   4  -2 37109.1 1445.01   3
  -2  -4   2 39008.4 1374.93   1
   2   4  -1 111698. 2884.10   3
  -2  -4   1 117307. 2650.63   1
  -2  -4   0 11346.4 498.113   1
   2   4   0 9923.78 663.607   3
   2   4   1 173775. 3843.77   3
   2   4   2 44017.4 1522.26   3
  -2  -4  -3 6222.98 486.054   2
  -2  -4  -4 1961.40 299.349   2
  -2  -4  -5 77732.2 1562.87   7
  -2  -4  -5 76444.1 2357.28   2
  -2  -4  -6 24284.2 700.008   7
  -2  -4  -6 24269.6 1284.26   2
  -2  -4  -7 22796.4 1340.21   2
  -2  -4  -8 16078.5 625.224  19
  -2  -4  -8 15504.9 587.973   8
  -2  -4  -8 17140.3 629.320  20
  -2  -4  -8 15703.3 597.063  30
  -2  -4  -8 16687.6 1186.86   2
  -2  -4  -8 16457.0 575.725  23
  -2  -4  -8 15612.8 596.128  26
  -2  -4  -9 37397.8 1058.91  30
  -2  -4  -9 37541.7 1049.72   8
  -2  -4  -9 38359.8 1111.46  19
  -2  -4  -9 39234.0 1027.95  23
  -2  -4  -9 37137.9 1072.35  26
  -2  -4  -9 37837.7 1060.46  20
  -2  -4 -10 1533.50 173.820   8
  -2  -4 -10 1697.22 178.353  20
  -2  -4 -10 1564.63 191.183  26
  -2  -4 -10 1581.80 170.310  23
  -2  -4 -10 1527.44 191.698  19
  -2  -4 -11 3564.81 256.437   8
  -2  -4 -11 3520.98 235.903  20
  -2  -4 -11 3311.56 273.687  19
  -2  -4 -12 23339.3 649.894   8
  -2  -4 -12 23317.1 706.745  19
  -2  -4 -13 1395.39 101.943   8
   2   5 -11 4350.42 204.459  28
   2   5 -11 4615.86 225.490  10
   2   5 -10-23.3307 36.5195  28
   2   5 -10 58.9904 32.2157  10
   2   5  -9 4491.76 308.791  15
   2   5  -8 26617.5 865.816  15
   2   5  -7 31409.4 894.677  13
   2   5  -7 31449.2 959.871  15
  -2  -5   6 790.637 276.063   1
   2   5  -6 977.698 138.528  15
  -2  -5   5 505.000 198.915   1
  -2  -5   4 66612.0 2321.55   1
   2   5  -3 19451.0 1001.07   3
   2   5  -3 17357.5 498.334   6
  -2  -5   3 18897.7 1038.07   1
   2   5  -2 5145.62 530.570   3
  -2  -5   2 5600.96 491.058   1
   2   5  -1 3501.77 440.498   3
  -2  -5   1 3948.30 358.186   1
  -2  -5   0 65492.9 1579.21   1
   2   5   0 59508.8 1969.38   3
   2   5   1 356990. 7082.74   3
   2   5   2 874.472 216.505   3
  -2  -5  -3 142416. 3319.27   2
  -2  -5  -4 25151.4 667.869   7
  -2  -5  -4 27102.6 1209.18   2
  -2  -5  -5 58375.1 1291.02   7
  -2  -5  -5 61265.0 2081.39   2
  -2  -5  -6 837.159 116.245   7
  -2  -5  -6 745.503 226.535   2
  -2  -5  -7 106.418 61.7314  19
  -2  -5  -7 135.534 60.3883   8
  -2  -5  -7 117.230 62.7449  17
  -2  -5  -7 199.558 134.307   2
  -2  -5  -7 207.187 68.2212  26
  -2  -5  -7 106.940 58.7656  20
  -2  -5  -8 22034.9 744.969   8
  -2  -5  -8 23778.5 798.605  20
  -2  -5  -8 22335.5 761.911  26
  -2  -5  -8 24342.1 711.782  23
  -2  -5  -8 21985.9 793.881  19
  -2  -5  -9 12506.9 558.719  26
  -2  -5  -9 13087.1 552.092   8
  -2  -5  -9 13967.8 513.750  23
  -2  -5  -9 13065.6 559.189  20
  -2  -5  -9 12913.6 599.242  19
  -2  -5 -10 2870.16 240.871   8
  -2  -5 -10 2714.38 206.780  23
  -2  -5 -10 2621.14 225.037  20
  -2  -5 -10 2738.52 264.210  19
  -2  -5 -11 137.842 67.8655  19
  -2  -5 -11 182.452 61.2115   8
  -2  -5 -11 157.656 55.1416  20
  -2  -5 -12 634.877 76.6416  20
  -2  -5 -12 827.201 100.585   8
   2   6 -11 7672.08 254.565  28
   2   6 -11 8490.98 271.215  10
   2   6 -10 109.084 41.3004  28
   2   6 -10 108.600 39.2593  10
   2   6  -9 973.186 136.827  15
   2   6  -8 17895.2 670.748  15
   2   6  -8 16725.3 585.813  13
   2   6  -7 23562.8 806.105  15
   2   6  -6 819.435 133.599  15
  -2  -6   6 796.701 263.251   1
  -2  -6   5 9325.66 401.288  14
  -2  -6   5 9271.47 869.332   1
  -2  -6   4 21755.7 1256.64   1
   2   6  -3 3678.83 222.111   6
  -2  -6   3 3805.35 460.927   1
   2   6  -2 22835.4 1203.41   3
   2   6  -2 20899.8 620.652   6
  -2  -6   1 6158.06 478.440   1
   2   6  -1 6025.15 288.224   6
   2   6  -1 5855.61 596.926   3
   2   6   0 53073.3 1933.42   3
   2   6   1 2253.61 364.896   3
  -2  -6  -2 1411.03 118.352   7
   2   6   2 1429.89 298.319   3
  -2  -6  -3 605.510 84.2192   7
  -2  -6  -4 25957.8 1215.10   2
  -2  -6  -4 23548.1 664.751   7
  -2  -6  -5 37732.8 1616.17   2
  -2  -6  -5 37162.6 944.113   7
  -2  -6  -6 15062.9 555.462   8
  -2  -6  -6 16766.9 590.316  17
  -2  -6  -6 15328.4 615.118  19
  -2  -6  -6 13966.8 1017.22   2
  -2  -6  -6 16246.7 601.700  20
  -2  -6  -7 1167.26 155.155  17
  -2  -6  -7 1065.45 142.327   8
  -2  -6  -7 1016.60 284.345   2
  -2  -6  -7 1146.75 160.369  20
  -2  -6  -7 1103.63 172.103  19
  -2  -6  -8 9730.81 449.503  17
  -2  -6  -8 9897.97 489.422  20
  -2  -6  -8 9290.65 453.432   8
  -2  -6  -8 8904.08 496.273  19
  -2  -6  -9 313.207 107.949  19
  -2  -6  -9 311.997 87.7658   8
  -2  -6  -9 351.889 98.1308  20
  -2  -6 -10 19207.6 667.182   8
  -2  -6 -10 19436.4 658.594  20
  -2  -6 -11 712.386 101.136  20
  -2  -6 -11 852.631 117.210   8
  -2  -6 -12 542.620 62.2682  20
  -2  -6 -12 592.372 77.1427   8
   2   7 -10 1322.45 115.894  28
   2   7 -10 1281.61 103.589  10
   2   7  -9 492.182 92.0167  15
   2   7  -8 7.05114 25.3256  13
   2   7  -8 6.82548 40.0427  15
   2   7  -7 1395.84 176.376  15
   2   7  -6 31.6520 39.4445  15
  -2  -7   5 495.437 102.619  14
  -2  -7   5 329.946 167.119   1
  -2  -7   4 2447.84 208.817  14
  -2  -7   4 2250.64 402.316   1
  -2  -7   4 2521.16 185.253  11
  -2  -7   3 1301.77 150.194  14
   2   7  -3 1142.04 139.558   6
  -2  -7   3 1250.03 290.683   1
   2   7  -2 27794.6 796.026   6
   2   7  -1 2433.23 201.324   6
   2   7  -1 1722.47 346.396   3
   2   7   0 71788.8 2473.24   3
   2   7   0 71268.9 1558.06   6
   2   7   1 32605.2 886.043   6
   2   7   1 33456.4 1612.13   3
   2   7   2 195.434 136.511   3
  -2  -7  -3 11419.6 411.019   7
   2   7   3 10713.4 940.646   3
  -2  -7  -4 680.927 97.2891   7
  -2  -7  -5 7540.56 390.278  17
  -2  -7  -5 6958.84 353.377   8
  -2  -7  -5 7131.49 377.262  20
  -2  -7  -6 80869.3 1774.21   8
  -2  -7  -6 85375.1 1834.16  17
  -2  -7  -6 83851.1 1852.10  20
  -2  -7  -7 12378.0 523.899   8
  -2  -7  -7 12479.1 530.299  17
  -2  -7  -7 13010.5 563.561  20
  -2  -7  -8 1262.31 155.250   8
  -2  -7  -8 1312.95 160.908  17
  -2  -7  -8 1213.61 167.193  20
  -2  -7  -9 21792.9 715.163   8
  -2  -7  -9 21957.0 736.591  20
  -2  -7 -10 115.836 60.2347   8
  -2  -7 -10 68.4995 43.3849  20
  -2  -7 -11 1436.93 126.000  20
  -2  -7 -11 1646.17 136.455   8
   2   8 -10 751.451 68.9996  28
   2   8  -9 792.361 100.962  15
   2   8  -9 754.311 80.7430  10
   2   8  -8 1327.10 149.128  15
   2   8  -8 1161.18 126.636  13
   2   8  -7 140.263 64.2863  15
   2   8  -6 9003.62 455.179  15
  -2  -8   5 91.0708 48.0944  14
   2   8  -5 99.4636 54.6831  15
  -2  -8   4 623.177 114.344  14
  -2  -8   3 1336.66 164.643  14
  -2  -8   3 1477.35 156.568  11
  -2  -8   2 5782.46 337.413  14
   2   8  -2 6541.39 363.557   6
  -2  -8   2 5941.28 322.329  11
  -2  -8   1 2160.48 200.260  14
   2   8  -1 2467.71 222.837   6
  -2  -8   1 2232.93 193.465  11
  -2  -8   0 447.897 90.9788  14
   2   8   0 479.077 105.331   6
   2   8   0 435.042 159.831   3
  -2  -8   0 666.425 106.879  11
  -2  -8  -1 6575.32 325.850  14
   2   8   1 6925.65 375.027   6
   2   8   1 5942.94 720.088   3
  -2  -8  -1 6301.90 328.454  11
  -2  -8  -2 8815.63 394.996  11
   2   8   2 9604.61 904.041   3
   2   8   2 9566.85 448.683   6
  -2  -8  -3 3887.39 250.826  11
   2   8   3 3864.01 591.389   3
   2   8   3 4408.82 295.501   6
  -2  -8  -4 59.2919 28.7109  11
   2   8   4 21.5341 52.3435   6
  -2  -8  -4 125.084 60.0864  20
  -2  -8  -5 7847.26 413.810  17
   2   8   5 7304.09 371.216   6
  -2  -8  -5 7725.10 405.916  20
  -2  -8  -6 4784.67 318.908  17
  -2  -8  -6 4835.96 326.712  20
  -2  -8  -6 4952.42 305.299   8
  -2  -8  -7 7587.54 396.836  17
  -2  -8  -7 7394.49 416.287  20
  -2  -8  -7 7724.24 386.737   8
  -2  -8  -8 559.751 108.265  17
  -2  -8  -8 474.207 95.4656   8
  -2  -8  -8 506.172 108.978  20
  -2  -8  -9 1788.99 177.189  20
  -2  -8  -9 1912.35 169.196   8
  -2  -8 -10 8976.57 357.566  20
  -2  -8 -11 1892.39 118.003  20
   2   9  -9 3333.38 167.123  15
   2   9  -8 22.7845 21.3270  15
   2   9  -8-19.4649 21.5585  13
   2   9  -7 3036.62 220.643  13
   2   9  -7 3027.31 223.857  15
   2   9  -6 1505.05 167.132  15
  -2  -9   5 3229.81 248.432  14
   2   9  -5 3499.59 263.696  15
  -2  -9   5 3432.47 223.251  25
  -2  -9   4 3024.64 249.845  14
  -2  -9   3 16020.6 620.692  14
  -2  -9   3 16496.4 583.252  11
  -2  -9   2 7924.78 417.644  14
  -2  -9   2 9125.62 419.431  11
   2   9  -1 12234.3 535.683   6
  -2  -9   1 11040.4 491.400  14
  -2  -9   1 11268.1 484.228  11
  -2  -9   0 13226.7 529.094  14
   2   9   0 14636.2 591.615   6
  -2  -9   0 13305.8 535.362  11
  -2  -9  -1 7608.55 369.088  14
   2   9   1 7895.42 418.954   6
  -2  -9  -1 6815.33 369.217  11
   2   9   2 16033.7 620.023   6
  -2  -9  -2 14890.0 566.817  11
   2   9   3 11954.2 514.769   6
  -2  -9  -3 10684.3 464.931  11
   2   9   4 111.048 54.5531   6
  -2  -9  -4 120.441 50.9686  11
  -2  -9  -4 113.197 57.1605  20
  -2  -9  -5 100.774 65.8477  17
  -2  -9  -5 30.2417 25.3242  11
   2   9   5 46.6805 43.3104   6
  -2  -9  -5 35.1710 44.9662  20
  -2  -9  -6 14013.6 562.882  17
  -2  -9  -6 14312.1 569.077  20
  -2  -9  -7 5864.73 332.033  17
  -2  -9  -7 6356.54 353.711  20
  -2  -9  -8 468.220 98.7714  20
  -2  -9  -9 1611.81 145.202  20
  -2  -9 -10 11259.2 345.059  20
   2  10  -8 263.072 43.1545  15
   2  10  -7 335.453 59.8939  15
   2  10  -7 299.983 60.3072  13
   2  10  -6 5727.87 286.707  15
   2  10  -5 14165.4 507.383  15
  -2 -10   5 13849.7 448.677  25
   2  10  -4 944.876 121.756  15
  -2 -10   4 982.154 125.998  25
  -2 -10   3 3584.73 266.680  14
  -2 -10   3 3840.32 248.165  11
  -2 -10   2 1268.56 160.855  14
  -2 -10   2 1288.65 152.248  11
  -2 -10   1 4255.06 292.138  14
  -2 -10   1 4158.11 285.007  11
  -2 -10   0 460.170 98.4814  14
  -2 -10   0 578.599 113.262  11
  -2 -10  -1 70.8182 51.9299  11
   2  10   1 52.5082 58.2015   6
   2  10   2 5753.49 348.357   6
  -2 -10  -2 5357.71 321.286  11
   2  10   3 104.590 60.5766   6
  -2 -10  -3 59.9578 34.2258   4
  -2 -10  -3 58.3547 44.2782  11
  -2 -10  -4 1121.39 153.897  17
  -2 -10  -4 1178.75 138.498  11
   2  10   4 949.332 129.698   6
  -2 -10  -5 1146.18 148.657  17
  -2 -10  -5 1139.26 120.761  11
  -2 -10  -5 820.460 120.437  20
  -2 -10  -6 77.3468 54.7832  17
  -2 -10  -6 84.0278 45.3841  20
  -2 -10  -7 10118.2 397.699  17
  -2 -10  -7 10015.5 394.017  20
  -2 -10  -8 4485.43 227.220  20
  -2 -10  -9 60.3734 25.6046  20
   2  11  -6 891.796 94.0795  13
   2  11  -6 686.583 64.9057  15
   2  11  -5 6531.64 252.503  15
  -2 -11   4 836.556 99.7374  25
  -2 -11   3 2981.18 210.405  25
  -2 -11   2 4017.44 248.878  11
  -2 -11   1 2077.89 187.306  11
  -2 -11   0 112.126 63.9231  11
  -2 -11  -1 5626.38 315.256  11
  -2 -11  -2 505.662 82.1246   4
  -2 -11  -2 444.098 91.0461  11
  -2 -11  -3 75.2922 51.1274  17
  -2 -11  -3 118.825 48.3181  11
  -2 -11  -3 67.7499 35.9002   4
  -2 -11  -4 6269.00 323.524  17
  -2 -11  -4 6438.31 296.358  11
  -2 -11  -4 6282.21 278.874  25
  -2 -11  -5 103.888 47.4694  17
  -2 -11  -5 172.719 40.4053  11
  -2 -11  -6 19.3786 32.2443  17
  -2 -11  -6 42.6359 29.0720  20
  -2 -11  -7 1656.01 107.703  20
   2  12  -5-8.26637 14.0837  13
  -2 -12   3 30.1941 23.9661  25
  -2 -12   2 856.984 100.372  25
  -2 -12   1 1066.17 118.202  25
  -2 -12   0 3786.26 227.913  25
  -2 -12   0 3774.09 217.514  11
  -2 -12  -1 3507.26 199.305  17
  -2 -12  -1 3915.55 229.169  25
  -2 -12  -1 3551.76 199.162   4
  -2 -12  -1 3686.85 219.271  11
  -2 -12  -2 2191.94 159.922  17
  -2 -12  -2 2602.06 174.391  25
  -2 -12  -2 2331.09 166.319  11
  -2 -12  -3 1339.22 123.294  17
  -2 -12  -3 1351.47 111.924  25
  -2 -12  -3 1215.80 110.656  11
  -2 -12  -4 445.714 71.7277  17
  -2 -12  -5 1364.08 106.995  17
  -2 -12  -5 920.756 72.0981  22
  -2 -13   1 23.3874 14.4853  25
  -2 -13   0 152.528 35.6162  25
  -2 -13  -1 622.517 62.4795  25
   3 -10  -3 206.802 39.7688  12
   3 -10  -2 1750.05 116.167  12
   3 -10  -1 3517.89 173.732  12
   3 -10   1 1036.94 87.7889  14
   3 -10   2 49.1069 24.4749  14
   3 -10   2 94.9096 30.9862  11
   3 -10   3 1545.17 117.173  14
   3 -10   4 5297.46 219.346  14
   3 -10   5 781.909 72.0414  14
   3  -9  -5 134.907 33.3736  12
   3  -9  -4 137.118 41.6713  12
   3  -9  -3 40.4035 30.6697   4
   3  -9  -3-14.4147 27.3693  12
   3  -9  -2 24.8179 27.4224   4
   3  -9  -2 87.7177 43.0488  12
   3  -9  -1 2471.76 178.013  29
   3  -9  -1 2521.18 193.092   4
   3  -9  -1 2498.97 183.373  12
   3  -9   0 6792.85 317.958  29
   3  -9   0 6671.96 309.509  12
   3  -9   0 7451.63 301.547  14
   3  -9   0 6750.08 325.742   4
   3  -9   1 183.461 48.2992  12
   3  -9   1 122.595 45.0460  14
   3  -9   1 148.646 47.3079   4
   3  -9   2 134.923 43.4847  14
  -3   9  -2 175.246 54.2352   5
   3  -9   2 168.843 47.5244   4
   3  -9   3 128.656 46.9466  14
  -3   9  -3 105.327 45.5707   5
   3  -9   4 2033.90 166.784  14
  -3   9  -4 1421.61 143.416   5
  -3   9  -5 2270.29 174.542   5
   3  -9   5 2911.21 188.964  14
   3  -9   6 1389.86 116.447  14
  -3   9  -7 7.32427 22.1728  19
   3  -9   7 37.0874 19.0603  14
   3  -8  -7 971.617 75.0136  20
   3  -8  -6 1025.65 92.8389  12
   3  -8  -5 1749.11 145.471  12
   3  -8  -4 385.430 81.0318   4
   3  -8  -4 409.481 77.5164  12
   3  -8  -3 2393.98 172.736  29
   3  -8  -3 2430.18 200.392  12
   3  -8  -3 2383.84 206.231   4
   3  -8  -2 6582.09 319.305  29
   3  -8  -2 6910.29 354.735  12
   3  -8  -2 6650.03 356.991   4
   3  -8  -1 26.0503 35.1328  29
   3  -8  -1 85.9149 40.7033  12
   3  -8  -1 73.5327 44.2983   4
   3  -8   0 1031.61 130.227  12
   3  -8   0 973.466 132.955  29
   3  -8   0 1076.70 126.548  14
   3  -8   0 892.634 126.815   4
   3  -8   1 1481.29 156.895  14
   3  -8   1 1483.28 150.137  12
   3  -8   1 1459.77 155.301   4
   3  -8   1 1336.00 151.441  29
   3  -8   2 2012.50 178.404   4
   3  -8   2 2245.34 196.206  29
   3  -8   2 2358.75 205.846  14
   3  -8   2 2318.73 173.248  12
  -3   8  -2 1725.64 177.972   5
   3  -8   3 1919.99 187.530  14
   3  -8   3 1996.74 181.930  29
  -3   8  -3 1680.12 179.091   5
   3  -8   4 4374.23 285.665  14
  -3   8  -4 4223.66 288.946   5
   3  -8   5 243.542 66.7039  14
  -3   8  -5 155.227 62.0340   5
  -3   8  -6 1354.31 150.463   5
   3  -8   6 1497.03 145.407  14
  -3   8  -7 1893.43 180.015  19
  -3   8  -7 2072.67 171.022   5
   3  -8   7 2041.25 150.448  14
  -3   8  -8 676.803 96.2547  19
   3  -8   8 653.235 65.1086  14
  -3   8  -9 780.619 75.7571  19
   3  -7  -7 5947.38 287.702  31
   3  -7  -7 7326.55 261.233  12
   3  -7  -6 1597.42 142.083  12
   3  -7  -6 1439.64 153.974  31
   3  -7  -5 319.147 81.7726  31
   3  -7  -5 255.179 67.8582  12
   3  -7  -4 1168.60 148.510  18
   3  -7  -4 1304.91 173.539  31
   3  -7  -4 1112.00 115.145  29
   3  -7  -4 1311.98 159.382   4
   3  -7  -3 56567.9 1344.66  18
   3  -7  -3 54685.4 1248.26  29
   3  -7  -3 55048.0 1366.06   4
   3  -7  -2 18970.7 674.169   4
   3  -7  -2 18747.4 617.056  29
   3  -7  -1 12347.0 494.290  29
   3  -7  -1 12523.7 525.763   4
   3  -7   0 7616.16 381.861  29
   3  -7   0 8139.55 398.589  12
   3  -7   0 8180.49 401.800   4
   3  -7   1 11468.6 485.830  29
   3  -7   1 12159.1 478.851  12
   3  -7   1 11862.0 486.409   4
   3  -7   2 1002.98 122.419  12
   3  -7   2 956.025 133.663  29
   3  -7   2 902.791 120.899   4
   3  -7   3 2693.15 220.421  29
  -3   7  -4 444.491 108.005   5
   3  -7   4 515.772 98.3337  29
   3  -7   5 7877.97 399.984  14
  -3   7  -5 8003.52 433.783   5
  -3   7  -6 22804.8 767.207   5
   3  -7   6 22163.0 699.523  14
   3  -7   7 3166.36 215.899  14
  -3   7  -7 3433.62 253.333   5
  -3   7  -8 3163.65 240.557  19
  -3   7  -8 3452.19 228.854   5
   3  -7   8 3240.27 185.003  14
  -3   7  -9 412.178 79.0809  19
  -3   7 -10-1.01090 18.2162  19
   3  -6  -9 1187.70 95.1091  31
   3  -6  -8 821.983 102.362  31
   3  -6  -8 522.495 64.9806  20
   3  -6  -7 1101.72 138.072  31
   3  -6  -7 973.528 110.529  12
   3  -6  -7 1051.00 116.648  18
   3  -6  -6 5812.99 318.265  18
   3  -6  -6 6500.70 366.906  31
   3  -6  -5 283.476 82.5359   4
   3  -6  -5 256.342 82.2327  18
   3  -6  -5 192.431 78.9871  31
   3  -6  -4 8279.07 412.593  18
   3  -6  -4 8290.80 362.061  29
   3  -6  -4 9270.08 468.059  31
   3  -6  -4 8565.43 434.710   4
   3  -6  -3 23534.7 751.262  18
   3  -6  -3 21999.2 689.947  29
   3  -6  -3 23764.1 784.348   4
   3  -6  -2 3074.07 240.887  18
   3  -6  -2 3628.17 296.628  31
   3  -6  -2 3278.87 234.729  29
   3  -6  -2 3267.78 252.171   4
   3  -6  -1 5742.29 323.889  18
   3  -6  -1 5662.53 314.923  29
   3  -6  -1 5445.65 328.414   4
   3  -6   0 93.5349 49.6595  18
   3  -6   0 166.228 64.4751  29
   3  -6   0 76.5731 42.1805   4
   3  -6   1 8689.16 400.644  29
   3  -6   1 8475.71 390.285   4
   3  -6   2 8884.21 400.998  29
   3  -6   2 7902.28 368.403   4
   3  -6   3 333.093 77.9769  29
   3  -6   4 445.311 88.5932  29
   3  -6   5 5511.34 301.134  29
  -3   6  -5 5935.13 385.221   5
  -3   6  -6 228.730 80.9649   5
   3  -6   6 315.229 77.9791  14
   3  -6   7 10527.9 433.900  14
  -3   6  -7 10875.6 506.146   5
  -3   6  -8 10259.6 505.614  19
   3  -6   8 10490.2 390.248  14
  -3   6  -8 11266.4 478.451   5
  -3   6  -9 2575.63 218.641  19
  -3   6  -9 2798.53 199.602   5
  -3   6 -10 186.387 54.1885  19
  -3   6 -11 259.286 44.4243  19
   3  -5 -10 1899.70 107.222  31
   3  -5  -9 3552.64 206.426  31
   3  -5  -8 233.133 54.6464  18
   3  -5  -8 344.758 85.4455  31
   3  -5  -7 2052.13 180.777  18
   3  -5  -7 2531.89 228.762  31
   3  -5  -6 7024.03 360.778  18
   3  -5  -6 7209.05 413.040  31
   3  -5  -5 3069.49 247.272  18
   3  -5  -5 3523.45 285.137  31
   3  -5  -5 3456.47 271.194   4
   3  -5  -4 6353.53 348.688  18
   3  -5  -4 6378.89 395.558  31
   3  -5  -4 6173.53 306.372  29
   3  -5  -4 6678.74 382.400   4
   3  -5  -3 199.005 60.6234  18
   3  -5  -3 238.518 62.9445  29
   3  -5  -3 330.731 84.8072   4
   3  -5  -3 321.033 91.8076  31
   3  -5  -2 12485.0 486.839  18
   3  -5  -2 12123.7 521.041  31
   3  -5  -2 12441.3 508.008   4
   3  -5  -2 11989.4 457.639  29
   3  -5  -1 25655.8 724.403  18
   3  -5  -1 24113.8 734.019   4
   3  -5  -1 24038.5 699.956  29
   3  -5  -1 22633.1 750.063  31
   3  -5   0 468.537 84.1620  29
   3  -5   0 576.286 94.4853   4
   3  -5   1 9374.36 884.339   1
   3  -5   1 11685.2 439.768   4
   3  -5   2 2839.85 206.863  29
  -3   5  -2 2470.56 233.264  16
   3  -5   2 2692.60 460.270   1
   3  -5   2 2562.30 191.181   4
  -3   5  -3 26469.2 868.436  16
   3  -5   3 29953.2 790.586  29
   3  -5   3 28940.8 1592.01   1
   3  -5   4 3491.14 545.635   1
  -3   5  -4 3303.51 265.010  16
   3  -5   4 3431.44 223.587  29
   3  -5   5 33.3810 80.2452   1
   3  -5   5 57.3568 40.6842  29
  -3   5  -5 15.2316 51.7491   5
  -3   5  -5 4.04620 37.3873   9
  -3   5  -6 33433.9 1030.64   5
  -3   5  -6 34233.7 936.633   9
   3  -5   7 425.437 87.4506  14
  -3   5  -7 424.272 99.0872   5
  -3   5  -7 424.413 93.1889   9
  -3   5  -8 597.180 139.897  19
  -3   5  -8 665.369 119.510   5
  -3   5  -8 624.205 103.461   9
  -3   5  -9 3320.13 270.327  19
  -3   5  -9 3493.24 245.046   5
  -3   5 -10 24032.5 716.826  19
  -3   5 -10 22715.5 605.659  26
  -3   5 -10 23361.5 628.893   5
  -3   5 -11 7224.66 297.601  19
   3  -4 -10 3989.72 170.853   8
   3  -4 -10 4196.87 206.448  31
   3  -4  -9 1652.69 133.516   8
   3  -4  -9 1546.68 119.403  18
   3  -4  -9 1632.59 163.545  31
   3  -4  -8 15712.0 512.031   8
   3  -4  -8 15528.1 513.618  18
   3  -4  -7 2403.17 194.191   8
   3  -4  -7 2518.50 203.755  18
   3  -4  -6 17435.6 570.828   8
   3  -4  -6 16693.6 606.566  18
   3  -4  -4 935.329 115.458  29
   3  -4  -4 963.841 268.185   2
   3  -4  -4 1163.60 152.012   4
   3  -4  -3 4127.32 543.369   2
   3  -4  -3 3794.36 271.276  31
   3  -4  -3 4819.04 299.654   4
   3  -4  -2 17141.2 1088.12   2
   3  -4  -2 19566.9 629.245   4
   3  -4  -1 44965.8 1781.24   2
   3  -4  -1 52864.8 1187.43   4
   3  -4   0 1198.96 258.836   2
   3  -4   0 1851.68 155.098   4
   3  -4   1 8069.75 748.712   1
   3  -4   1 7633.19 324.854   4
   3  -4   2 154875. 3998.38   1
   3  -4   2 142697. 2620.72   4
   3  -4   3 6585.35 689.575   1
   3  -4   4 13253.0 995.792   1
  -3   4  -5 7217.04 374.241  16
  -3   4  -5 7634.81 409.663   5
  -3   4  -5 7730.62 373.318   9
   3  -4   5 6996.80 738.597   1
  -3   4  -6 162.747 59.0172  16
   3  -4   6 170.791 126.148   1
  -3   4  -6 146.003 72.0888   5
  -3   4  -6 236.333 70.5567   9
  -3   4  -7 5378.29 349.969   5
  -3   4  -7 5509.20 331.057   9
  -3   4  -8 36028.0 1083.41  19
  -3   4  -8 35579.0 1028.91   5
  -3   4  -8 35922.9 993.683   9
  -3   4  -9 444.733 102.616  19
  -3   4  -9 600.820 108.960   5
  -3   4  -9 485.524 91.9571   9
  -3   4 -10 7.10629 37.8187  19
  -3   4 -10-50.0713 45.1704   5
  -3   4 -11 15703.3 520.676  19
  -3   4 -11 15286.2 448.938  26
  -3   4 -12 477.709 65.5134  19
   3  -3 -11 1035.94 71.5571   8
   3  -3 -11 342.018 52.2169  31
   3  -3 -10 404.992 64.7900   8
   3  -3  -9 7808.91 348.520   8
   3  -3  -9 8260.40 318.102  18
   3  -3  -8 2497.32 207.001   8
   3  -3  -8 2395.10 189.597  18
   3  -3  -7 4640.60 290.456   8
   3  -3  -6 1877.35 181.750   8
   3  -3  -5 2377.25 195.014   8
   3  -3  -5 2440.21 449.668   2
   3  -3  -4 35619.8 1734.18   2
   3  -3  -4 36119.4 989.107   4
   3  -3  -3 6978.34 708.098   2
   3  -3  -3 7423.52 359.440   4
   3  -3  -2 232.447 60.5103   4
   3  -3  -2 238.004 139.158   2
   3  -3  -1 1226.71 122.927   4
   3  -3   0 9801.97 356.321   4
   3  -3   1 24362.2 1289.31   1
   3  -3   2 312.454 135.616   1
   3  -3   3 13848.1 929.292   1
  -3   3  -4 55639.2 1310.51   5
   3  -3   4 57934.9 2089.26   1
   3  -3   5 547.627 183.225   1
  -3   3  -5 453.038 98.3635   5
   3  -3   6-42.7636 72.4831   1
  -3   3  -6 91.0017 53.6520   9
  -3   3  -7 8989.74 447.469   5
  -3   3  -7 8889.76 431.782   9
  -3   3  -8 25821.2 861.315  19
  -3   3  -8 26136.0 828.142   5
  -3   3  -8 24826.5 812.281   9
  -3   3  -9 2659.12 248.004  19
  -3   3  -9 2568.25 220.225   5
  -3   3  -9 2731.60 235.953   9
  -3   3 -10 1483.34 175.587  19
  -3   3 -10 1413.12 143.873   5
  -3   3 -11 1424.26 151.292  19
  -3   3 -11 1374.44 135.836  26
  -3   3 -12 397.183 68.8415  19
  -3   3 -12 368.493 51.8851  26
   3  -2 -11 14697.2 400.865   8
   3  -2 -10 809.503 105.431   8
   3  -2  -9 1188.51 140.771   8
   3  -2  -8 20865.0 688.935   8
   3  -2  -7 948.298 141.588   8
   3  -2  -6 4324.28 601.741   2
   3  -2  -5 9928.48 904.048   2
   3  -2  -4 2866.71 470.221   2
   3  -2  -3 80764.8 2620.43   2
   3  -2  -3 75010.1 1600.56   4
   3  -2  -2 38625.1 920.233   4
   3  -2  -1 2483.02 348.868   3
   3  -2  -1 2239.49 156.904   4
   3  -2   0 65363.8 1943.03   3
   3  -2   1 1183.19 202.284   3
   3  -2   1 1000.84 243.131   1
   3  -2   2 4304.52 345.525   3
   3  -2   2 4461.20 472.540   1
  -3   2  -3 25.7479 33.7071   5
   3  -2   3 25.4626 66.8966   1
  -3   2  -4 7685.15 349.921   5
   3  -2   4 7856.43 644.484   1
  -3   2  -5 122865. 2410.41   5
   3  -2   5 119940. 3238.66   1
   3  -2   6 6635.77 628.426   1
  -3   2  -6 7482.69 378.633   5
  -3   2  -7 5238.82 326.195  19
  -3   2  -7 4628.33 299.575   9
  -3   2  -7 4641.78 302.245   5
  -3   2  -8 5218.16 343.131  19
  -3   2  -8 5318.46 326.766   5
  -3   2  -8 5346.03 299.537  23
  -3   2  -8 5457.42 340.628   9
  -3   2  -9 1514.85 180.855  19
  -3   2  -9 1555.01 161.996  23
  -3   2  -9 1368.90 172.669   9
  -3   2  -9 1604.50 168.813   5
  -3   2 -10 24.5217 48.6453  19
  -3   2 -10 30.1662 35.3436  23
  -3   2 -11 4640.02 295.283  19
  -3   2 -11 4508.87 274.861  26
  -3   2 -12 65.4200 37.8958  19
  -3   2 -12 76.8506 38.4365  26
  -3   2 -13 6949.82 250.105  19
   3  -1 -11 19961.5 524.647   8
   3  -1 -10 542.963 91.8649   8
   3  -1  -9 49.8049 35.5740   8
   3  -1  -8 3968.67 281.052   8
   3  -1  -8 3971.49 295.570  10
   3  -1  -7 798.946 127.740  28
   3  -1  -7 810.122 134.181  10
   3  -1  -6 29038.1 1601.42   2
   3  -1  -6 28411.7 849.137  28
   3  -1  -6 28076.3 854.252  10
   3  -1  -5 401.457 183.027   2
   3  -1  -4 18702.7 1187.07   2
   3  -1  -3 145160. 3718.37   3
   3  -1  -3 145800. 3813.27   2
   3  -1  -2 2678.28 370.795   3
   3  -1  -2 2604.23 173.931   4
   3  -1  -1 2139.88 320.071   3
   3  -1   0 16173.9 828.689   3
   3  -1   1 4107.09 384.039   3
   3  -1   1 3382.67 388.754   1
   3  -1   2 58096.6 1593.85   3
   3  -1   2 58009.9 1771.07   1
   3  -1   3 16475.9 646.320   3
   3  -1   3 7046.28 554.280   1
  -3   1  -4 101014. 1957.35   5
   3  -1   4 100391. 2601.46   1
  -3   1  -5 4918.07 273.542   5
   3  -1   5 5156.56 487.356   1
  -3   1  -6 3926.16 254.501   5
   3  -1   6 3871.60 436.076   1
  -3   1  -7 2800.00 223.029   5
  -3   1  -8 663.434 113.346  19
  -3   1  -8 665.480 113.262   5
  -3   1  -8 613.029 100.752  23
  -3   1  -8 764.087 119.755   9
  -3   1  -9 10682.7 502.595  19
  -3   1  -9 11270.7 467.489   5
  -3   1  -9 10227.9 461.433  23
  -3   1  -9 10101.7 491.628   9
  -3   1 -10 1380.91 176.536  19
  -3   1 -10 1467.43 164.996  23
  -3   1 -11 25805.7 794.610  19
  -3   1 -11 24284.1 734.638  23
  -3   1 -11 24662.5 764.911  26
  -3   1 -12 2006.30 173.250  19
  -3   1 -12 1946.27 162.669  26
  -3   1 -13 636.772 77.6760  19
  -3   1 -13 456.354 62.2051  26
   3   0 -11 777.136 87.9165   8
   3   0 -10 4715.22 267.826   8
   3   0  -9 73.6593 49.8472   8
   3   0  -9 22.5093 31.9075  28
   3   0  -9 65.4880 39.3376  30
   3   0  -9 24.5356 36.3610  10
   3   0  -8 4793.11 317.357   8
   3   0  -8 4539.08 305.743  28
   3   0  -8 4672.71 320.999  10
   3   0  -7 15679.3 1130.66   2
   3   0  -7 16332.9 624.128  10
   3   0  -7 16315.0 612.455  28
   3   0  -6 19618.4 1264.56   2
   3   0  -6 19503.6 662.014  28
   3   0  -6 19507.3 658.844  10
   3   0  -5 6719.99 711.534   2
   3   0  -4 8889.50 761.111   3
   3   0  -4 9479.85 804.653   2
   3   0  -3 62116.4 2063.94   3
   3   0  -2 100429. 2712.68   3
   3   0  -1 1260.70 242.734   3
   3   0   0 36271.7 1338.30   3
   3   0   1 26666.3 1083.75   3
   3   0   2 272949. 5492.27   3
   3   0   2 288665. 5445.33   1
   3   0   3 215574. 4452.92   3
   3   0   3 223206. 4399.91   1
   3   0   4 904.832 177.667   3
   3   0   4 955.580 178.907   1
  -3   0  -5 57022.5 1247.36   5
   3   0   5 57315.9 1676.36   1
  -3   0  -6 67726.9 1473.04   5
  -3   0  -7 486.186 89.2169   5
  -3   0  -8 8887.05 427.860  19
  -3   0  -8 8670.02 399.355   5
  -3   0  -8 8404.95 393.506  20
  -3   0  -8 8563.36 415.461  24
  -3   0  -8 8353.82 422.097   9
  -3   0  -9 4282.07 301.287  19
  -3   0  -9 4270.14 293.782  23
  -3   0  -9 4610.53 320.784   9
  -3   0  -9 4448.58 284.998  20
  -3   0 -10 44204.7 1170.60  19
  -3   0 -10 41737.4 1131.51  23
  -3   0 -10 42120.6 1149.71  26
  -3   0 -11 37934.4 1032.67  19
  -3   0 -11 36224.8 1008.81  26
  -3   0 -11 36560.4 996.091  23
  -3   0 -12 6416.11 329.602  19
  -3   0 -12 6158.67 317.674  26
  -3   0 -13 838.783 91.1014  26
  -3   0 -13 930.539 99.1233  19
   3   1 -11 2813.95 167.326   8
   3   1 -10 138.878 51.2222   8
   3   1 -10 138.285 43.3406  30
   3   1 -10 203.564 56.1620  28
   3   1 -10 130.250 46.3772  10
   3   1  -9 12402.5 508.218   8
   3   1  -9 12554.1 524.718  10
   3   1  -9 12357.7 509.666  28
   3   1  -8 24687.3 795.149  28
   3   1  -8 24301.5 798.226  10
   3   1  -7 5838.79 658.462   2
   3   1  -7 6857.47 374.330  10
   3   1  -7 7105.58 383.766  28
   3   1  -6 53673.5 2167.29   2
   3   1  -6 58088.8 1359.54  28
   3   1  -6 57690.3 1334.00  10
   3   1  -5 2408.60 399.990   3
   3   1  -5 2010.21 380.953   2
   3   1  -4 28783.6 1359.34   3
   3   1  -4 28768.9 1408.41   2
   3   1  -3 49998.3 1803.76   3
   3   1  -2 8069.02 634.461   3
   3   1  -1 12519.9 779.454   3
   3   1   0 117476. 2960.17   3
   3   1   1 36479.0 1396.56   3
   3   1   2 241392. 5034.22   3
   3   1   3 24615.2 1085.78   3
   3   1   3 25647.4 880.655   1
   3   1   4 8449.98 593.538   3
   3   1   4 8363.68 474.805   1
   3   1   5 21265.2 986.011   3
  -3  -1  -5 23251.1 639.768   5
  -3  -1  -6 15738.1 480.814   7
  -3  -1  -6 16524.9 540.199   5
  -3  -1  -8 2368.22 208.563  19
  -3  -1  -8 2244.62 203.429  24
  -3  -1  -8 2140.02 204.524   9
  -3  -1  -8 2496.71 212.245  20
  -3  -1  -9 112.858 56.0528  19
  -3  -1  -9 134.242 55.7054  24
  -3  -1  -9 148.819 54.7538  23
  -3  -1  -9 88.9818 36.9568   9
  -3  -1  -9 153.292 72.4597  20
  -3  -1 -10 14335.4 591.087  19
  -3  -1 -10 14397.0 589.663  26
  -3  -1 -10 14176.4 582.229  23
  -3  -1 -10 14708.3 548.775  20
  -3  -1 -11 107.503 49.4608  19
  -3  -1 -11 256.079 82.3642  26
  -3  -1 -11 199.927 67.4508  23
  -3  -1 -12 487.433 89.5111  19
  -3  -1 -12 410.270 81.7834  26
  -3  -1 -13 3914.56 210.988  26
  -3  -1 -13 4255.98 223.040  19
   3   2 -11 373.262 58.0652   8
   3   2 -11 369.077 52.0105  30
   3   2 -10 7246.64 325.069   8
   3   2 -10 7130.10 347.844  10
   3   2 -10 6997.68 334.947  28
   3   2  -9 2373.87 203.642   8
   3   2  -9 2430.95 214.210  10
   3   2  -9 2668.70 223.395  28
   3   2  -8 1422.71 168.290  28
   3   2  -8 1411.13 166.293  10
   3   2  -7 10358.4 475.779  28
   3   2  -7 10584.3 465.724  10
   3   2  -6 19791.8 1185.98   2
   3   2  -6 22057.0 675.617  13
   3   2  -6 22077.6 713.669  28
   3   2  -6 22093.1 677.232  10
   3   2  -5 27759.8 1369.73   3
   3   2  -5 26662.2 1375.20   2
   3   2  -4 153266. 3837.64   3
   3   2  -4 156300. 3889.29   2
   3   2  -3 60.3985 90.7106   3
   3   2  -2 214354. 4784.14   3
   3   2  -1 64395.7 2081.22   3
   3   2   0 62377.6 2029.82   3
   3   2   1 75483.7 2267.08   3
   3   2   2 14018.8 838.492   3
   3   2   3 3264.34 394.024   3
   3   2   4 4400.01 453.302   3
  -3  -2  -5 15982.3 482.776   7
   3   2   5 16917.4 923.610   3
  -3  -2  -6 256608. 4479.08   7
   3   2   6 253865. 5419.09   3
  -3  -2  -7 424.787 86.7824   7
  -3  -2  -8 4312.10 271.051   8
  -3  -2  -8 4976.80 307.049  19
  -3  -2  -8 5010.36 308.227  24
  -3  -2  -8 5144.64 311.445  20
  -3  -2  -8 4803.69 305.418   9
  -3  -2  -9 4430.45 285.737   8
  -3  -2  -9 4816.13 318.434  19
  -3  -2  -9 4923.77 321.333  26
  -3  -2  -9 4901.49 308.125  24
  -3  -2  -9 4516.91 307.062  23
  -3  -2  -9 4646.69 308.185  20
  -3  -2 -10 4817.31 298.694   8
  -3  -2 -10 5277.38 344.707  19
  -3  -2 -10 5004.06 293.222  30
  -3  -2 -10 5078.91 334.286  26
  -3  -2 -10 5376.76 310.708  24
  -3  -2 -10 5171.05 335.285  23
  -3  -2 -10 5378.57 324.376  20
  -3  -2 -11 8949.24 445.868  19
  -3  -2 -11 8680.52 425.253  23
  -3  -2 -11 8836.41 437.738  26
  -3  -2 -11 8874.00 390.115  20
  -3  -2 -11 8951.52 386.225   8
  -3  -2 -12 2283.05 197.470  19
  -3  -2 -12 2118.93 190.690  26
  -3  -2 -13 1364.57 124.285  19
   3   3 -11 1304.50 91.2383   8
   3   3 -11 1212.65 93.7914  30
   3   3 -11 1579.71 116.493  28
   3   3 -11 1640.84 124.296  10
   3   3 -10 18284.0 548.017   8
   3   3 -10 19435.2 601.601  28
   3   3 -10 20281.5 612.201  10
   3   3  -9 19222.9 628.065   8
   3   3  -9 20513.2 685.352  28
   3   3  -9 20884.4 679.376  10
   3   3  -8 18764.7 681.903  28
   3   3  -8 19198.9 663.091  10
   3   3  -7 34699.0 1025.04  15
   3   3  -7 34908.4 939.805  13
   3   3  -7 35768.7 1008.49  28
   3   3  -7 35721.0 965.188  10
   3   3  -6 6931.61 381.363  15
   3   3  -6 7074.91 346.350  10
   3   3  -6 7304.03 365.458  13
   3   3  -5 12191.5 863.360   3
   3   3  -5 11295.6 815.996   2
   3   3  -4 936.423 238.467   3
   3   3  -4 970.416 226.119   2
   3   3  -3 6922.98 630.506   3
   3   3  -2 3834.42 475.747   3
   3   3  -1 474.238 189.906   3
   3   3   0 110128. 3040.20   3
   3   3   1 39858.4 1581.00   3
   3   3   2 15624.8 929.444   3
   3   3   3 6288.82 571.733   3
   3   3   4 35739.5 1466.20   3
  -3  -3  -5 8787.69 350.231   7
   3   3   5 8663.96 708.052   3
  -3  -3  -6 1440.24 144.073   7
   3   3   6 1389.36 288.193   3
  -3  -3  -7 1475.75 156.443   7
  -3  -3  -8 27417.9 835.241  19
  -3  -3  -8 25461.9 798.860   8
  -3  -3  -8 27560.6 834.635  24
  -3  -3  -8 28845.0 838.464  26
  -3  -3  -8 25570.3 759.917  30
  -3  -3  -8 28743.1 858.672  20
  -3  -3  -9 5709.77 355.778  19
  -3  -3  -9 5440.35 331.508   8
  -3  -3  -9 5556.87 321.632  30
  -3  -3  -9 6046.18 358.916  26
  -3  -3  -9 5836.97 338.735  24
  -3  -3  -9 5754.42 344.663  23
  -3  -3  -9 5563.67 346.894  20
  -3  -3 -10 4812.95 332.849  19
  -3  -3 -10 4630.12 302.611   8
  -3  -3 -10 4742.49 319.795  26
  -3  -3 -10 4802.98 289.619  24
  -3  -3 -10 4878.39 317.354  23
  -3  -3 -10 4905.93 316.134  20
  -3  -3 -11 9322.05 446.452  26
  -3  -3 -11 9359.75 427.768  23
  -3  -3 -11 9084.14 403.987  20
  -3  -3 -11 9246.31 411.142   8
  -3  -3 -11 9067.12 451.223  19
  -3  -3 -12 17478.4 596.490  26
  -3  -3 -12 18677.1 546.338   8
  -3  -3 -12 18862.8 625.928  19
  -3  -3 -13 208.644 50.6500  19
   3   4 -11 12.2113 19.8848  28
   3   4 -11-10.7898 14.6041  30
   3   4 -11 8.25484 17.9165  10
   3   4 -10 3505.11 213.538  10
   3   4 -10 3634.21 226.031  28
   3   4  -9 2173.83 171.935   8
   3   4  -9 2669.37 218.000  28
   3   4  -9 2684.32 209.731  10
   3   4  -8 1033.55 127.705  13
   3   4  -8 1111.70 153.620  28
   3   4  -8 985.847 134.862  10
   3   4  -7 2791.41 248.475  15
   3   4  -7 2737.98 227.593  13
   3   4  -7 2960.92 227.699  10
  -3  -4   6 122.165 116.538   1
   3   4  -6 27.5767 51.4053  15
   3   4  -6 37.3243 39.5736  13
   3   4  -5 25265.4 773.029  15
   3   4  -4 15934.5 986.411   3
   3   4  -3 57121.9 2056.77   3
   3   4  -2 58648.1 2130.67   3
   3   4  -1 87039.8 2748.08   3
   3   4   0 5830.25 612.160   3
   3   4   1 30882.1 1428.84   3
   3   4   2 2188.65 348.283   3
   3   4   3 109.731 101.879   3
   3   4   4 98904.2 2915.10   3
  -3  -4  -5 13237.4 469.800   7
   3   4   5 13568.3 957.951   3
  -3  -4  -6 10014.0 419.200   7
   3   4   6 8654.57 791.193   3
  -3  -4  -7 118.571 52.0160  19
  -3  -4  -7 10.2336 50.3486   8
  -3  -4  -7 20.4442 33.7619   7
  -3  -4  -7 34.7507 40.9764  26
   3   4   7 110.783 111.502   3
  -3  -4  -7-49.2666 79.0467  20
  -3  -4  -8 22631.9 762.160  19
  -3  -4  -8 21054.4 728.815   8
  -3  -4  -8 22790.8 733.689  26
  -3  -4  -8 23283.5 774.702  20
  -3  -4  -9 10067.0 480.747   8
  -3  -4  -9 10244.6 478.288  26
  -3  -4  -9 10276.4 462.975  24
  -3  -4  -9 10240.4 469.128  23
  -3  -4  -9 10589.2 497.373  20
  -3  -4  -9 10433.1 502.782  19
  -3  -4 -10 2232.78 211.130   8
  -3  -4 -10 2240.19 216.394  26
  -3  -4 -10 1924.72 178.243  24
  -3  -4 -10 2226.42 203.916  23
  -3  -4 -10 2071.85 206.669  20
  -3  -4 -10 2352.77 233.432  19
  -3  -4 -11 85.1502 56.8230  19
  -3  -4 -11 105.435 52.6125   8
  -3  -4 -11 41.3557 38.1860  26
  -3  -4 -11 35.0301 39.0607  23
  -3  -4 -11 202.639 73.5243  20
  -3  -4 -12 708.493 108.029  19
  -3  -4 -12 555.192 77.8384  20
  -3  -4 -12 741.976 99.1840   8
   3   5 -11 5069.19 187.501  28
   3   5 -10 3786.79 218.972  28
   3   5 -10 3522.31 193.832  10
   3   5  -9 838.965 119.979  28
   3   5  -9 910.744 115.227  10
   3   5  -8 24394.9 730.337  13
   3   5  -8 25477.5 832.973  15
   3   5  -8 25962.4 753.090  10
   3   5  -7 113.108 61.2119  15
   3   5  -7 140.951 61.9486  13
   3   5  -6 3882.77 288.307  15
   3   5  -6 4051.91 287.583  13
  -3  -5   5 529.262 224.418   1
   3   5  -5 755.401 122.860  15
   3   5  -5 728.770 121.394  13
   3   5  -4 8876.86 722.750   3
  -3  -5   4 5389.62 644.553   1
   3   5  -3 80866.2 2527.24   3
  -3  -5   3 67201.5 2359.66   1
   3   5  -2 17734.7 1134.64   3
   3   5  -2 18364.1 513.857   6
  -3  -5   2 17126.0 955.436   1
   3   5  -1 835.390 261.202   3
   3   5   0 3317.05 491.532   3
   3   5   1 35535.9 1626.46   3
   3   5   2 107912. 3141.79   3
   3   5   3 2563.33 417.601   3
  -3  -5  -4 3382.89 220.370   7
   3   5   4 3385.87 493.594   3
  -3  -5  -5 14851.0 522.509   7
   3   5   5 13722.5 1039.94   3
  -3  -5  -6 250.883 82.9134   8
  -3  -5  -6 182.368 63.6929  17
  -3  -5  -6 169.383 62.1312   7
   3   5   6 53.8349 111.252   3
  -3  -5  -6 93.2367 61.7032  20
  -3  -5  -7 575.726 111.225  19
  -3  -5  -7 642.646 117.301   8
  -3  -5  -7 862.817 131.840   7
   3   5   7 312.070 172.844   3
  -3  -5  -7 764.645 114.147  26
  -3  -5  -7 745.094 128.803  20
  -3  -5  -8 5834.71 355.562   8
  -3  -5  -8 5612.53 322.818  23
  -3  -5  -8 5734.23 338.040  26
  -3  -5  -8 6332.09 378.238  20
  -3  -5  -8 5562.19 362.221  19
  -3  -5  -9 6377.98 377.462   8
  -3  -5  -9 6458.79 385.397  20
  -3  -5  -9 6078.69 361.115  26
  -3  -5  -9 6699.40 362.603  24
  -3  -5  -9 6281.60 345.941  23
  -3  -5  -9 6358.62 391.670  19
  -3  -5 -10 2749.26 237.491  26
  -3  -5 -10 2706.65 205.895  24
  -3  -5 -10 3128.86 228.382  23
  -3  -5 -10 3034.18 245.172  20
  -3  -5 -10 3199.09 269.508  19
  -3  -5 -10 3234.07 258.853   8
  -3  -5 -11 736.551 119.302  19
  -3  -5 -11 672.203 96.0311  23
  -3  -5 -11 722.911 113.432  20
  -3  -5 -11 864.311 123.449   8
  -3  -5 -12 2018.81 138.266  20
   3   6 -10 345.962 49.2800  10
   3   6 -10 457.497 70.9734  28
   3   6  -9 313.330 71.3038  28
   3   6  -9 318.735 59.5366  10
   3   6  -8 160.955 63.8751  15
   3   6  -8 154.747 51.5095  10
   3   6  -8 151.914 52.8740  13
   3   6  -7 11480.5 522.272  15
   3   6  -7 10752.3 486.785  13
   3   6  -6 11384.0 519.771  15
   3   6  -6 11459.8 517.289  13
  -3  -6   5 1177.63 312.470   1
   3   6  -5 2308.78 218.351  15
  -3  -6   4 3268.02 220.694  25
   3   6  -4 3372.02 248.339  15
  -3  -6   4 3106.22 499.050   1
  -3  -6   3 1422.49 292.975   1
   3   6  -3 1660.65 333.523   3
   3   6  -2 30788.6 1582.11   3
   3   6  -2 29836.6 781.377   6
   3   6  -1 15112.1 1108.04   3
   3   6   0 67.0074 128.759   3
   3   6   1 42033.4 1913.30   3
   3   6   2 6635.45 716.925   3
   3   6   3 57499.5 2296.29   3
  -3  -6  -4 3928.53 247.737   7
   3   6   4 3636.03 552.789   3
  -3  -6  -5 1106.27 133.713  17
  -3  -6  -5 1045.08 132.153   7
   3   6   5 816.487 269.951   3
  -3  -6  -5 1230.22 151.377   8
  -3  -6  -6 67437.6 1490.57  17
  -3  -6  -6 63363.7 1419.21  22
  -3  -6  -6 64535.3 1476.60   7
   3   6   6 55383.5 2459.84   3
  -3  -6  -6 65566.4 1506.42  20
  -3  -6  -6 57928.8 1470.28  19
  -3  -6  -6 63495.7 1485.79   8
  -3  -6  -7 17871.7 642.798  17
  -3  -6  -7 17351.5 658.248  20
  -3  -6  -7 15074.5 635.435  19
  -3  -6  -7 16111.6 629.942   8
  -3  -6  -8 1214.78 154.308  26
  -3  -6  -8 1312.56 143.449  23
  -3  -6  -8 1198.34 164.138  20
  -3  -6  -8 1129.63 164.112  19
  -3  -6  -8 1236.29 168.787   8
  -3  -6  -9 13059.6 524.654  24
  -3  -6  -9 13930.0 499.516  23
  -3  -6  -9 13868.6 575.170  20
  -3  -6  -9 13100.0 583.219  19
  -3  -6  -9 14069.4 578.398   8
  -3  -6 -10 694.054 98.6328  24
  -3  -6 -10 717.334 97.0625  23
  -3  -6 -10 725.956 124.967  20
  -3  -6 -10 923.741 143.429  19
  -3  -6 -10 912.245 138.805   8
  -3  -6 -11 5300.70 278.985  20
  -3  -6 -11 5824.50 300.178   8
  -3  -6 -12 4115.69 184.074  20
   3   7 -10 2120.81 125.354  28
   3   7  -9 156.259 50.6434  28
   3   7  -8 48.4147 35.5582  15
   3   7  -8 28.2252 33.6960  13
   3   7  -7 81.7542 51.9914  15
   3   7  -7 41.8870 30.5935  13
   3   7  -6 544.157 107.501  13
   3   7  -6 629.067 117.013  15
   3   7  -5 2713.72 237.116  15
   3   7  -4 9019.56 433.559  15
  -3  -7   4 8733.29 399.191  25
   3   7  -3 104895. 2149.43  15
   3   7  -3 108235. 2122.20   6
  -3  -7   3 106262. 2164.42  25
   3   7  -2 63935.2 1417.13   6
  -3  -7   2 63060.5 1406.95  11
  -3  -7   2 62626.9 1435.99  25
   3   7  -1 6620.85 768.556   3
   3   7  -1 6689.29 344.941   6
   3   7   0 3039.13 519.498   3
   3   7   1 1713.57 406.595   3
   3   7   2 23625.3 1474.01   3
  -3  -7  -3 23774.9 694.179   7
   3   7   3 22731.5 1476.73   3
  -3  -7  -4 238.169 73.0414  17
  -3  -7  -4 118.396 47.6750   7
   3   7   4 65.7320 108.272   3
  -3  -7  -4 150.489 54.2968  20
  -3  -7  -5 28183.1 837.037  17
   3   7   5 25305.4 1630.59   3
  -3  -7  -5 28157.7 816.760   7
  -3  -7  -5 26407.2 816.427  20
  -3  -7  -6 81104.8 1788.92  17
  -3  -7  -6 82473.7 1770.60   7
  -3  -7  -6 79065.5 1722.22  22
  -3  -7  -6 76623.0 1779.79  20
  -3  -7  -6 78537.0 1785.29   8
  -3  -7  -7 12615.3 539.430  17
  -3  -7  -7 12682.6 551.679  20
  -3  -7  -7 12371.5 542.633   8
  -3  -7  -8 559.576 121.703   8
  -3  -7  -8 479.843 106.479  20
  -3  -7  -9 192.193 82.7001   8
  -3  -7  -9-71.8270 64.4075  20
  -3  -7 -10 9500.43 357.776  24
  -3  -7 -10 13074.1 478.408  20
  -3  -7 -11 2933.79 183.179  20
   3   8  -9 783.793 84.2363  28
   3   8  -8 226.641 57.1776  15
   3   8  -8 208.743 51.9459  13
   3   8  -7 81.6729 42.9120  15
   3   8  -7 48.4897 28.7359  13
   3   8  -6 6347.63 356.290  15
   3   8  -6 6292.38 366.984  13
   3   8  -5 2083.33 203.938  15
   3   8  -4 20810.9 696.653  15
  -3  -8   4 20115.9 670.276  25
  -3  -8   3 19582.0 673.839  25
   3   8  -2 35771.9 975.359   6
  -3  -8   2 34746.5 956.700  11
  -3  -8   2 35021.3 988.669  25
   3   8  -1 344.528 95.8352   6
  -3  -8   1 216.051 72.0184  11
   3   8   0 15741.2 1245.29   3
   3   8   0 18600.9 655.020   6
  -3  -8   0 16489.5 596.911  11
   3   8   1 300.024 191.339   3
  -3  -8  -1 440.367 93.8751  11
   3   8   1 441.245 99.2457   6
  -3  -8  -2 9286.53 380.781   7
   3   8   2 7014.45 867.525   3
  -3  -8  -2 7924.04 382.693  11
  -3  -8  -3 174.667 67.5290  17
  -3  -8  -3 69.3574 40.2266   7
   3   8   3 6.67645 94.3873   3
  -3  -8  -3 57.7495 40.9393  11
  -3  -8  -4 18708.0 656.239  17
  -3  -8  -4 19755.9 630.108   7
  -3  -8  -4 17255.0 578.184  11
  -3  -8  -4 19402.1 617.535  25
  -3  -8  -4 16046.9 588.301  20
  -3  -8  -5 19173.1 685.657  17
  -3  -8  -5 20167.1 658.671   7
  -3  -8  -5 18219.9 652.281  20
  -3  -8  -6 449.807 104.856  17
  -3  -8  -6 406.463 82.2383  22
  -3  -8  -6 457.947 113.888  20
  -3  -8  -7 260.851 85.0525  17
   3   8   7 187.630 60.4801   6
  -3  -8  -7 214.501 80.8516  20
  -3  -8  -8 838.260 130.557  20
  -3  -8  -9 289.759 72.6787  20
  -3  -8 -10 948.246 111.338  20
  -3  -8 -11 3313.99 162.149  20
   3   9  -8 75.3982 27.4436  13
   3   9  -8 103.955 35.2739  28
   3   9  -7 2566.81 183.715  15
   3   9  -7 2634.03 188.947  13
   3   9  -6 2600.19 201.041  15
   3   9  -6 2453.29 211.597  13
   3   9  -5 14278.7 525.701  15
  -3  -9   5 13528.2 467.185  25
  -3  -9   4 7378.14 365.391  25
   3   9  -4 7372.47 363.424  15
  -3  -9   3 45951.0 1177.34  25
  -3  -9   2 23979.6 794.289  25
   3   9  -2 25298.7 794.055   6
  -3  -9   1 208.194 74.0297  11
   3   9  -1 156.881 75.2051   6
   3   9   0 18838.9 684.484   6
  -3  -9   0 17237.7 636.504  11
   3   9   1 99.6781 65.3150   6
  -3  -9  -1 17.6628 34.6292  11
  -3  -9  -2 4782.81 299.409  17
   3   9   2 5483.70 349.185   6
  -3  -9  -2 4623.34 302.279  11
  -3  -9  -3 16244.5 611.229  17
   3   9   3 17574.5 660.487   6
  -3  -9  -3 16243.0 588.094  11
  -3  -9  -4 9100.24 446.207  17
  -3  -9  -4 10301.7 413.623   7
   3   9   4 9775.15 465.496   6
  -3  -9  -4 9358.70 411.437  11
  -3  -9  -4 10241.2 434.293  25
  -3  -9  -5 2004.80 199.795  17
   3   9   5 1662.10 179.713   6
  -3  -9  -5 1800.25 177.379  20
  -3  -9  -6 1333.69 161.759  17
   3   9   6 1177.15 141.172   6
  -3  -9  -6 1426.91 156.519  22
  -3  -9  -6 1322.67 162.352  20
  -3  -9  -7 95.5935 64.2024  17
  -3  -9  -7-69.4418 51.2921  20
  -3  -9  -8 4029.05 250.201  20
  -3  -9  -9 134.668 36.6446  24
  -3  -9  -9 283.046 63.0937  20
  -3  -9 -10 3342.11 168.988  20
   3  10  -7 713.088 77.8185  13
   3  10  -6 700.941 82.6593  15
   3  10  -6 663.648 94.5147  13
   3  10  -5 2376.98 166.745  15
   3  10  -5 2454.53 205.238  13
  -3 -10   4 33.8958 32.9151  25
  -3 -10   3 497.142 96.6794  25
  -3 -10   2 19084.8 673.251  25
  -3 -10   1 17.5175 33.1573  25
  -3 -10   1 4.30990 42.4993  11
   3  10   0 924.511 149.695   6
  -3 -10   0 790.688 131.973  25
  -3 -10   0 898.326 134.130  11
  -3 -10  -1 1056.26 131.187  17
  -3 -10  -1 1236.09 154.755  11
   3  10   1 1290.73 172.060   6
  -3 -10  -2 5.72789 44.6552  17
  -3 -10  -2 27.8607 38.1160  25
  -3 -10  -2 21.3546 33.1037  11
   3  10   2 41.4519 48.8340   6
  -3 -10  -3 107.570 61.9081  17
  -3 -10  -3 130.163 46.0393  25
  -3 -10  -3 118.872 47.2406  11
   3  10   3 111.211 61.2574   6
  -3 -10  -4 12216.1 499.205  17
   3  10   4 11610.1 491.279   6
  -3 -10  -4 12627.3 469.684  25
  -3 -10  -4 12283.0 462.215  11
  -3 -10  -5 8748.05 408.718  17
   3  10   5 8080.87 374.736   6
  -3 -10  -6 1595.99 162.961  17
   3  10   6 1191.16 121.223   6
  -3 -10  -6 1598.52 147.952  22
  -3 -10  -6 1326.94 138.207  20
  -3 -10  -7 1648.07 142.364  20
  -3 -10  -8 734.651 88.9338  20
  -3 -10  -9 1018.14 83.4275  20
   3  11  -6 118.443 31.3801  13
   3  11  -5 907.801 103.067  13
   3  11  -4 3161.10 215.561  13
  -3 -11   4 3170.86 180.594  25
  -3 -11   3 5457.74 277.068  25
  -3 -11   2 2252.37 190.526  25
  -3 -11   1 2976.18 230.134  25
  -3 -11   0 329.881 82.4478  25
  -3 -11  -1 3319.88 207.085  17
  -3 -11  -1 3873.01 255.310  11
  -3 -11  -1 3880.30 262.743  25
  -3 -11  -2 83.7627 45.0702  17
   3  11   2 173.368 68.1421   6
  -3 -11  -2 126.761 54.1779  25
  -3 -11  -2 181.935 56.7932  11
  -3 -11  -3 1238.66 135.401  17
   3  11   3 1246.09 145.880   6
  -3 -11  -3 1274.59 137.052  11
  -3 -11  -3 1425.60 144.717  25
  -3 -11  -4 3002.09 210.550  17
   3  11   4 3003.06 208.089   6
  -3 -11  -4 3432.75 196.941  25
  -3 -11  -5 1180.40 124.187  17
  -3 -11  -5 1234.67 127.224  22
  -3 -11  -6 3865.90 189.753  22
   3  12  -4 3800.02 174.175  13
   3  12  -3 5711.95 245.487  13
  -3 -12   3 6607.03 241.477  25
  -3 -12   2 2924.37 147.658  22
   3  12  -2 3215.84 183.089  13
  -3 -12   1 659.246 90.3870  25
   3  12  -1 559.501 72.8441  13
  -3 -12   0 1442.64 135.909  25
  -3 -12  -1 495.987 79.0473  25
  -3 -12  -2 2318.79 142.993  17
  -3 -12  -2 3045.88 185.352  25
  -3 -12  -3 221.504 47.5272  17
  -3 -12  -3 247.127 47.4900  25
  -3 -12  -4 199.698 43.8014  17
  -3 -12  -4 290.468 56.9608  22
  -3 -12  -5 7889.99 257.977  22
  -3 -13   0 1489.88 95.6989  25
  -3 -13  -1 814.402 67.8330  25
  -3 -13  -1 776.125 70.5832  22
  -3 -13  -2 25.4584 15.9782  22
   4  -9  -3 2181.91 109.082  12
   4  -9  -2 1959.63 113.572  12
   4  -9  -1-12.1129 22.9194  12
   4  -9   0 580.475 60.5440  12
   4  -9   1 1982.96 118.223  14
   4  -9   2 2928.84 159.419  14
   4  -9   3 933.327 89.9902  14
   4  -9   4 1466.93 109.406  14
  -4   9  -5 599.461 67.1234  19
   4  -9   5 1141.90 86.3736  14
   4  -8  -5 230.521 37.0086  12
   4  -8  -4 2052.86 133.733  12
   4  -8  -3 4747.04 200.105  29
   4  -8  -3 4728.04 230.656  12
   4  -8  -2 122.203 39.3950  29
   4  -8  -2 111.892 40.5095  12
   4  -8  -1 46.0278 32.2487   4
   4  -8  -1 8.75173 25.6095  29
   4  -8  -1 44.2899 34.9889  12
   4  -8   0 3683.66 198.671  14
   4  -8   0 3198.49 194.054  12
   4  -8   0 3626.27 221.765  29
   4  -8   0 3153.71 205.797   4
   4  -8   1 2711.78 195.688  29
   4  -8   1 2871.29 189.567  14
   4  -8   1 2532.79 160.959  12
   4  -8   1 2330.77 169.206   4
   4  -8   2 2572.22 189.266  29
   4  -8   2 2471.33 186.169  14
   4  -8   3 213.006 56.6028  14
   4  -8   4 110.348 44.7571  14
  -4   8  -4 133.558 46.2223   5
  -4   8  -5 43.9973 30.9940   5
   4  -8   5 23.8868 28.0479  14
  -4   8  -6 150.874 52.2183  19
   4  -8   6 94.0753 38.2640  14
  -4   8  -7 1128.15 100.759  19
   4  -8   7 1738.21 103.487  14
   4  -7  -6 6256.23 224.450  12
   4  -7  -5 847.190 97.6292  12
   4  -7  -4 500.503 66.8485  29
   4  -7  -4 488.452 85.2507  12
   4  -7  -3 1125.27 115.496  29
   4  -7  -3 1191.40 136.427  12
   4  -7  -2 3886.41 239.583  29
   4  -7  -2 3912.46 255.076  12
   4  -7  -2 3746.33 256.174   4
   4  -7  -1 3043.16 223.098  29
   4  -7  -1 3186.60 231.362  12
   4  -7  -1 3051.55 235.212   4
   4  -7   0 1796.32 172.845  29
   4  -7   0 1692.21 162.467  12
   4  -7   0 1517.09 159.644   4
   4  -7   1 660.397 99.5846   4
   4  -7   1 715.954 97.4183  12
   4  -7   1 633.186 103.807  29
   4  -7   2 7589.44 366.252  29
  -4   7  -3 2528.22 206.664   5
   4  -7   3 3122.91 223.086  29
   4  -7   4 6601.20 318.841  29
  -4   7  -4 5715.09 325.326   5
   4  -7   5 734.188 108.364  14
  -4   7  -5 678.643 110.750   5
   4  -7   6 3951.52 236.841  14
  -4   7  -6 3905.53 252.349   5
   4  -7   7 7267.27 290.702  14
  -4   7  -7 7248.86 324.448   5
  -4   7  -8 5372.01 254.859  19
   4  -7   8 6188.89 209.537  14
  -4   7  -9 272.608 44.9464  19
   4  -6  -7 1740.44 108.225  12
   4  -6  -6 2233.40 161.968  18
   4  -6  -6 2337.26 181.510  31
   4  -6  -5 79.2161 44.9537  18
   4  -6  -5 109.847 54.5906  31
   4  -6  -4 12476.1 484.345  18
   4  -6  -4 12979.9 536.308  31
   4  -6  -4 12146.3 429.925  29
   4  -6  -3-13.4202 34.8189   4
   4  -6  -3 65.3940 50.9568  18
   4  -6  -3 36.2992 35.1542  29
   4  -6  -2 14483.3 542.785  18
   4  -6  -2 14683.9 534.772  29
   4  -6  -2 13749.1 557.818   4
   4  -6  -1 41569.4 1041.20  18
   4  -6  -1 38725.0 1030.48  29
   4  -6  -1 38051.6 1051.09   4
   4  -6   0 853.988 125.698  29
   4  -6   0 810.485 122.239   4
   4  -6   1 1015.80 136.377  29
   4  -6   1 889.542 122.602   4
   4  -6   2 635.514 109.908  29
  -4   6  -2 511.361 95.0400   5
  -4   6  -3 1128.23 145.978   5
   4  -6   3 1158.25 140.213  29
   4  -6   4 20018.9 633.635  29
  -4   6  -4 18597.7 682.888   5
   4  -6   5 1184.31 128.713  29
  -4   6  -5 1155.09 154.801   5
  -4   6  -6 6625.51 372.907   5
  -4   6  -7 5695.96 345.389  19
   4  -6   7 6457.05 306.022  14
  -4   6  -7 6586.28 351.016   5
  -4   6  -8 624.441 107.847  19
   4  -6   8 634.233 77.0618  14
  -4   6  -8 736.417 103.454   5
  -4   6  -9 3750.46 217.368  19
  -4   6 -10 1525.15 105.188  19
   4  -5  -8 5352.42 230.334  31
   4  -5  -7 56.2545 32.5585  18
   4  -5  -7 79.2882 41.5012  31
   4  -5  -6 4745.22 269.218  18
   4  -5  -6 4904.08 293.480  31
   4  -5  -5 23660.3 717.711  18
   4  -5  -5 24498.0 768.095  31
   4  -5  -5 21920.1 620.216  29
   4  -5  -4 1977.12 189.917  18
   4  -5  -4 2062.14 208.507  31
   4  -5  -4 1718.17 159.782  29
   4  -5  -3 963.425 133.996  18
   4  -5  -3 1179.96 161.639  31
   4  -5  -3 902.611 120.410  29
   4  -5  -3 1030.47 148.494   4
   4  -5  -2 3653.70 255.601  18
   4  -5  -2 3918.89 293.815  31
   4  -5  -2 3327.12 240.845  29
   4  -5  -2 3692.10 276.485   4
   4  -5  -1 281.122 76.5263   4
   4  -5  -1 284.326 71.5358  18
   4  -5  -1 250.042 74.7568  29
   4  -5   0 12474.6 469.383  18
   4  -5   0 10831.6 470.499  29
   4  -5   0 11669.7 484.540   4
   4  -5   1 1782.12 180.526  29
   4  -5   1 1798.58 169.765   4
   4  -5   2 32899.4 897.318  29
  -4   5  -2 30144.9 878.839   5
  -4   5  -3 12983.1 590.977  16
   4  -5   3 14396.9 525.353  29
  -4   5  -3 13045.1 545.027   5
   4  -5   4 481.333 88.6349  29
  -4   5  -4 517.309 110.352   5
   4  -5   5 1990.19 169.773  29
  -4   5  -5 1956.10 215.944   5
  -4   5  -5 2126.62 205.091   9
  -4   5  -6 3579.84 284.631   5
  -4   5  -6 3396.84 255.218   9
  -4   5  -7 3752.02 296.079  19
  -4   5  -7 4097.81 295.154   5
  -4   5  -7 4091.38 267.451   9
  -4   5  -8 4914.20 326.091  19
   4  -5   8 5032.34 249.525  14
  -4   5  -8 5817.38 331.843   5
  -4   5  -8 5555.29 288.016   9
  -4   5  -9 1700.17 166.383  19
  -4   5  -9 1786.82 160.661   5
  -4   5 -10 238.340 54.6379  19
  -4   5 -10 225.755 48.7830  26
  -4   5 -11 2578.09 129.664  19
   4  -4  -9 2443.77 136.376  31
   4  -4  -8 4342.72 213.127  18
   4  -4  -8 4610.49 243.310  31
   4  -4  -7 267.844 64.7488  18
   4  -4  -7 191.485 66.5114  31
   4  -4  -6 4846.97 287.426  18
   4  -4  -6 5168.28 323.535  31
   4  -4  -5 1316.42 156.672  18
   4  -4  -5 1378.40 171.147  31
   4  -4  -5 1383.32 137.059  29
   4  -4  -4 16677.9 600.570  18
   4  -4  -4 15447.1 620.434  31
   4  -4  -4 15710.7 542.411  29
   4  -4  -3 17673.2 614.676  18
   4  -4  -3 15836.2 633.390  31
   4  -4  -3 16895.3 577.975  29
   4  -4  -3 18165.9 662.736   4
   4  -4  -2 77.5675 53.4589   4
   4  -4  -2 118.354 49.0399  18
   4  -4  -2 131.113 54.0290  31
   4  -4  -2 144.673 59.7626  29
   4  -4  -2 166.628 111.672   2
   4  -4  -1 23356.4 677.433  18
   4  -4  -1 21810.1 670.272  29
   4  -4  -1 22551.2 724.752   4
   4  -4   0 737.706 110.901   4
   4  -4   0 859.117 110.388  18
  -4   4   0 524.240 106.372  16
   4  -4   0 759.858 112.590  29
   4  -4   1 643.716 99.3731   4
  -4   4  -1 401.272 99.7617  16
   4  -4   1 708.561 109.012  29
  -4   4  -2 105.423 65.2743  16
   4  -4   2 143.821 52.5446  29
  -4   4  -2 125.687 52.0556   5
  -4   4  -3 6080.22 382.111  16
   4  -4   3 6858.65 334.657  29
   4  -4   3 6142.14 738.841   1
  -4   4  -3 6409.55 358.457   5
  -4   4  -4 8507.67 450.853  16
   4  -4   4 8938.52 380.841  29
  -4   4  -4 9448.69 460.470   5
   4  -4   4 8637.49 856.415   1
  -4   4  -5 8309.93 443.440  16
  -4   4  -5 8866.73 460.780   5
  -4   4  -5 8674.62 452.210   9
  -4   4  -6 6789.84 398.176  16
  -4   4  -6 7536.68 427.954   5
  -4   4  -6 7510.46 409.348   9
  -4   4  -7 8453.43 458.514  19
  -4   4  -7 8891.35 460.754   5
  -4   4  -7 8509.92 430.067   9
  -4   4  -8 46.0977 44.5002  19
  -4   4  -8 80.2115 57.6303   5
  -4   4  -8 112.646 63.8148   9
  -4   4  -9 811.911 128.535  19
  -4   4  -9 948.729 126.881   5
  -4   4  -9 930.040 119.837   9
  -4   4 -10-11.6291 33.2690  19
  -4   4 -11 2801.73 166.735  19
  -4   4 -11 2632.94 144.149  26
   4  -3  -9 0.38617 20.8032  18
   4  -3  -9-4.34597 19.4377   8
   4  -3  -9 57.0466 39.9942  31
   4  -3  -8 6681.93 280.604   8
   4  -3  -8 7307.97 305.127  18
   4  -3  -7 236.259 66.4577  18
   4  -3  -7 162.043 51.6021   8
   4  -3  -7 141.047 71.8231  31
   4  -3  -6 2389.49 186.720   8
   4  -3  -6 2239.25 165.525  29
   4  -3  -5 10676.2 418.742  29
   4  -3  -4 4953.50 331.218  31
   4  -3  -4 7326.56 342.846  29
   4  -3  -3 4523.50 602.147   2
   4  -3  -3 3285.11 259.158  31
   4  -3  -2 2509.13 195.369  29
   4  -3  -2 2096.77 409.877   2
   4  -3  -2 2951.52 232.875   4
   4  -3  -1 212.002 67.5030   4
   4  -3  -1 129.020 56.5092  29
   4  -3  -1 135.870 111.288   2
   4  -3   0 27089.6 764.027   4
   4  -3   1 31675.2 817.486   4
  -4   3  -2 838.520 121.976   5
  -4   3  -3 1068.63 149.488  16
  -4   3  -3 1014.65 132.092   5
   4  -3   3 680.313 267.920   1
  -4   3  -4 3147.97 252.673  16
   4  -3   4 3118.94 491.272   1
  -4   3  -4 3548.36 261.865   5
  -4   3  -5 8615.39 429.903  16
   4  -3   5 8990.99 829.378   1
  -4   3  -5 9627.46 466.595   5
  -4   3  -5 9104.26 459.331   9
  -4   3  -6 4615.03 304.077  16
  -4   3  -6 4259.96 303.520   9
  -4   3  -7 2555.46 247.522  19
  -4   3  -7 2292.31 213.519  16
  -4   3  -7 2651.50 246.299   5
  -4   3  -7 2535.94 237.167   9
  -4   3  -8 4161.28 307.809  19
  -4   3  -8 4175.10 302.419   5
  -4   3  -8 4065.92 293.287   9
  -4   3  -9 228.897 79.1118  19
  -4   3  -9 337.609 80.8371   5
  -4   3  -9 324.933 85.7852   9
  -4   3 -10 68.7286 41.9020  19
  -4   3 -11 120.981 41.7531  19
  -4   3 -11 82.7755 37.9301  26
  -4   3 -12 5.90742 16.6861  19
   4  -2 -10 323.879 45.0387   8
   4  -2 -10 46.4214 25.8032  31
   4  -2  -9 675.934 84.5121   8
   4  -2  -9 657.372 76.2481  18
   4  -2  -8 5972.17 298.087   8
   4  -2  -7 3822.55 255.801   8
   4  -2  -6 1505.28 163.374   8
   4  -2  -6 1368.23 135.628  29
   4  -2  -5 386.177 76.2617  29
   4  -2  -4 1789.37 166.456  29
   4  -2  -4 1418.78 365.488   2
   4  -2  -3 19736.2 612.759  29
   4  -2  -3 14691.2 1137.13   2
   4  -2  -2 22230.3 1361.21   2
   4  -2  -1 32206.7 862.065   4
   4  -2   0 17357.2 1014.07   3
   4  -2   0 16518.4 541.758   4
   4  -2   1 10374.6 718.335   3
  -4   2  -2 26811.0 751.435   5
   4  -2   3 1076.92 262.519   1
  -4   2  -3 1001.51 132.761   5
   4  -2   4 102.729 91.7204   1
  -4   2  -4 174.941 61.4555   5
  -4   2  -5 2825.40 222.290  16
   4  -2   5 2480.98 413.044   1
  -4   2  -5 3097.63 247.454   5
  -4   2  -6 240.730 69.3459  19
  -4   2  -6 48.9350 39.9396  16
  -4   2  -6 100.331 61.6963   5
  -4   2  -6 42.0313 58.7133   9
  -4   2  -7 6649.59 388.000  19
  -4   2  -7 6478.32 347.454  16
  -4   2  -7 6883.10 398.058   5
  -4   2  -7 7257.00 400.376   9
  -4   2  -8 13363.4 568.255  19
  -4   2  -8 13205.5 564.521   5
  -4   2  -8 12826.9 563.068   9
  -4   2  -9 7354.66 402.933  19
  -4   2  -9 7555.94 392.454   5
  -4   2  -9 7488.83 409.579   9
  -4   2 -10 8287.97 405.355  19
  -4   2 -11-9.16534 32.9775  19
  -4   2 -11 39.0000 31.0725  26
  -4   2 -12 13.4675 20.4175  19
  -4   2 -12 59.5735 32.4912  26
   4  -1 -10 8531.27 255.599   8
   4  -1 -10 306.346 63.8700  31
   4  -1  -9 32.4698 28.8374   8
   4  -1  -8 25.7241 41.8078   8
   4  -1  -7 2251.96 204.774   8
   4  -1  -6 2263.96 179.848  29
   4  -1  -5 14200.4 1158.92   2
   4  -1  -5 20050.0 618.674  29
   4  -1  -4 13354.9 1088.78   2
   4  -1  -4 15218.3 528.036  29
   4  -1  -3-29.3654 79.6856   3
   4  -1  -3 217.022 182.105   2
   4  -1  -2 46511.2 1918.98   3
   4  -1  -1 40135.7 1671.45   3
   4  -1   0 14768.4 914.294   3
   4  -1   1 29236.4 1267.21   3
   4  -1   2 39702.7 1407.03   3
  -4   1  -2 36213.4 898.844   5
  -4   1  -3 13859.6 496.313   5
   4  -1   3 15112.4 939.724   1
   4  -1   4 1501.60 286.084   1
  -4   1  -4 1393.40 155.374   5
   4  -1   5 3998.81 465.392   1
  -4   1  -5 4431.08 288.602   5
  -4   1  -6 12807.0 502.083  19
  -4   1  -6 12489.3 485.924  16
  -4   1  -6 12616.1 533.921   5
  -4   1  -6 13098.8 539.033   9
  -4   1  -7 4.01823 52.5580  19
  -4   1  -7 16.3206 41.2878  16
  -4   1  -7-13.7913 45.4787   5
  -4   1  -7-0.37812 39.9364   9
  -4   1  -8 3106.75 254.859  19
  -4   1  -8 3462.88 268.067   5
  -4   1  -8 2778.69 221.743  23
  -4   1  -8 3014.89 258.422   9
  -4   1  -9 7638.85 408.544  19
  -4   1  -9 7777.79 381.865  23
  -4   1  -9 7708.12 425.336   9
  -4   1 -10 5737.27 335.666  19
  -4   1 -10 5397.57 301.575  23
  -4   1 -10 5817.07 350.512   9
  -4   1 -11 3093.22 219.909  19
  -4   1 -11 3094.78 224.048  26
  -4   1 -11 2836.80 191.936  23
  -4   1 -12 667.755 87.2313  19
  -4   1 -12 599.588 83.8168  26
   4   0 -10 4553.42 213.097   8
   4   0  -9 1389.31 142.587   8
   4   0  -8 6727.01 353.834   8
   4   0  -7 14481.6 484.179  29
   4   0  -7 14851.1 590.554  28
   4   0  -6 131542. 2647.78  28
   4   0  -6 129661. 2501.07  29
   4   0  -5 4135.04 597.796   2
   4   0  -5 4731.81 309.448  28
   4   0  -5 4746.04 276.429  29
   4   0  -4 126.212 52.9809  29
   4   0  -4 309.118 167.022   2
   4   0  -4-57.8410 93.3717   3
   4   0  -4 126.515 47.6933  28
   4   0  -3 24206.7 1363.81   3
   4   0  -2 6148.04 636.655   3
   4   0  -1 32166.0 1470.58   3
   4   0   0 1216.86 265.331   3
   4   0   1 43774.2 1642.33   3
   4   0   2 229032. 4878.88   3
  -4   0  -2 223088. 3935.21   5
   4   0   3 362012. 6932.92   3
  -4   0  -3 350628. 6067.48   5
  -4   0  -4 12128.8 463.424   5
   4   0   4 11018.7 758.917   1
  -4   0  -5 8580.94 400.417   5
  -4   0  -6 729.149 123.210   5
  -4   0  -6 612.327 106.461  24
  -4   0  -6 693.509 114.688   9
  -4   0  -7 25735.3 781.709  19
  -4   0  -7 26219.7 819.593   5
  -4   0  -7 26265.3 831.186  24
  -4   0  -7 25654.2 818.216   9
  -4   0  -8 19706.9 683.646  19
  -4   0  -8 19258.4 710.423   9
  -4   0  -9 308.549 80.8491  19
  -4   0  -9 290.227 75.4382  23
  -4   0  -9 338.624 89.6017   9
  -4   0 -10 13649.2 548.402  19
  -4   0 -10 13679.2 538.058  23
  -4   0 -11 17171.2 589.613  19
  -4   0 -11 17254.2 598.700  26
  -4   0 -11 16355.4 560.293  23
  -4   0 -12 126.899 48.6417  19
  -4   0 -12 99.4880 41.8051  26
  -4   0 -13 679.081 68.9251  26
  -4   0 -13 618.003 65.0361  19
   4   1 -10 2076.87 144.146   8
   4   1  -9 47.6769 34.0753   8
   4   1  -8 8011.65 403.362  28
   4   1  -7 20155.2 608.915  29
   4   1  -7 20387.9 716.192  28
   4   1  -7 19828.5 674.325  10
   4   1  -6 19173.4 684.142  28
   4   1  -6 18349.3 633.355  10
   4   1  -6 18176.2 599.425  29
   4   1  -5 23816.7 714.817  29
   4   1  -5 24389.3 771.789  28
   4   1  -4 48997.5 2041.45   3
   4   1  -4 46370.8 1133.48  28
   4   1  -3 6071.11 658.147   3
   4   1  -2 5867.68 623.809   3
   4   1  -1 29600.1 1419.47   3
   4   1   0 103301. 2969.06   3
   4   1   1 54654.4 1966.29   3
   4   1   2 152046. 3804.57   3
   4   1   3 29744.3 1356.95   3
  -4  -1  -3 28997.4 760.476   5
   4   1   4 417.313 151.000   3
  -4  -1  -4 287.347 63.5019   5
  -4  -1  -5 263.111 57.2821   7
  -4  -1  -5 360.922 77.1720   5
  -4  -1  -7 1500.58 157.776  19
  -4  -1  -7 1557.89 175.061  24
  -4  -1  -7 1478.64 172.245  20
  -4  -1  -7 1517.13 170.929   9
  -4  -1  -8 18201.1 642.666  19
  -4  -1  -8 18752.1 687.088  24
  -4  -1  -8 17917.4 671.674   9
  -4  -1  -8 17544.9 657.546  20
  -4  -1  -9 2181.96 207.044  19
  -4  -1  -9 2120.67 212.782  24
  -4  -1  -9 2150.74 212.077  23
  -4  -1  -9 1991.57 210.199   9
  -4  -1 -10 560.779 106.451  19
  -4  -1 -10 572.906 109.019  26
  -4  -1 -10 618.625 111.962  23
  -4  -1 -11 1873.24 179.314  19
  -4  -1 -11 1573.73 167.498  26
  -4  -1 -11 1574.14 163.974  23
  -4  -1 -12 191.585 54.3572  19
  -4  -1 -12 201.445 54.9954  26
  -4  -1 -12 167.465 48.7846  23
  -4  -1 -13 1488.49 109.957  26
  -4  -1 -13 1630.14 111.202  19
   4   2 -10 80.7125 33.8642   8
   4   2  -9 818.836 110.692   8
   4   2  -9 872.632 118.888  28
   4   2  -8 18921.3 663.538  28
   4   2  -8 19117.3 623.944  10
   4   2  -7 43742.7 1162.36  28
   4   2  -7 41931.6 1035.68  29
   4   2  -7 43376.4 1096.43  10
   4   2  -6 3151.11 231.210  10
   4   2  -6 3241.28 259.290  28
   4   2  -5 55843.3 2205.15   3
   4   2  -5 53052.5 1282.50  28
   4   2  -4 15011.3 1059.86   3
   4   2  -4 14190.3 529.156  28
   4   2  -4 15646.9 562.866  13
   4   2  -3 850.940 258.561   3
   4   2  -2 4671.67 568.493   3
   4   2  -1 21148.6 1228.72   3
   4   2   0 65173.0 2295.80   3
   4   2   1 16389.5 1061.19   3
   4   2   2 1298.59 296.757   3
   4   2   3 41804.1 1780.45   3
   4   2   4 3846.45 508.596   3
  -4  -2  -5 10854.6 413.963   7
   4   2   5 11190.6 864.246   3
  -4  -2  -6 5691.90 297.070   7
  -4  -2  -7 22189.0 689.566  19
  -4  -2  -7 23110.3 697.796   7
  -4  -2  -7 24810.4 791.111  24
  -4  -2  -7 24289.5 749.820   9
  -4  -2  -7 24145.9 771.994  20
  -4  -2  -8 36910.7 997.186  19
  -4  -2  -8 38194.3 1072.00  24
  -4  -2  -8 35984.9 1023.02   9
  -4  -2  -8 36500.5 1046.92  20
  -4  -2  -9 1524.60 173.212  19
  -4  -2  -9 1630.96 184.843  26
  -4  -2  -9 1597.01 184.249  24
  -4  -2  -9 1605.06 182.399   9
  -4  -2  -9 1670.66 189.195  20
  -4  -2 -10 3968.79 281.224  19
  -4  -2 -10 3658.77 272.630  26
  -4  -2 -10 3950.18 277.499  24
  -4  -2 -10 3580.18 272.521  23
  -4  -2 -10 3651.18 270.103  20
  -4  -2 -11 4282.62 277.420  19
  -4  -2 -11 4190.57 276.203  26
  -4  -2 -11 4224.24 276.280  23
  -4  -2 -12 488.364 80.1606  19
  -4  -2 -12 423.188 76.3839  26
  -4  -2 -12 389.640 72.2763  23
  -4  -2 -13 43.5225 23.6708  19
   4   3 -10 1298.61 103.266   8
   4   3  -9 419.464 83.8784  28
   4   3  -9 420.712 78.2671   8
   4   3  -9 406.005 70.2651  10
   4   3  -8 4230.35 231.544  29
   4   3  -8 4737.96 303.097  28
   4   3  -8 4440.21 262.096  10
   4   3  -7 158.729 65.7926  28
   4   3  -7 157.425 59.1704  10
   4   3  -6 17371.0 649.053  28
   4   3  -6 17797.2 642.323  13
   4   3  -5 5.01655 110.074   3
   4   3  -5 218.253 69.5793  13
   4   3  -5 80.7951 41.6578  28
   4   3  -4 14560.5 1037.15   3
   4   3  -4 14043.4 527.376  28
   4   3  -4 14450.2 552.399  13
   4   3  -3 211.445 136.796   3
   4   3  -2 25287.4 1398.22   3
   4   3  -1 15438.5 1080.73   3
   4   3   0 19874.2 1233.63   3
   4   3   1 69051.0 2498.60   3
   4   3   2 28128.3 1507.17   3
   4   3   3 944.783 268.296   3
   4   3   4 45378.2 1945.39   3
  -4  -3  -5 4847.29 273.355   7
   4   3   5 4866.77 598.008   3
  -4  -3  -6 100.479 41.2146   7
  -4  -3  -6 113.439 51.3157  27
  -4  -3  -7 38915.6 1043.01   7
  -4  -3  -7 42437.9 1131.80  24
  -4  -3  -7 41983.5 1050.50   9
  -4  -3  -7 41263.3 1105.73  20
  -4  -3  -7 40039.3 1065.88   8
  -4  -3  -8 232.994 79.3459  19
  -4  -3  -8 326.370 88.9396  26
  -4  -3  -8 255.109 80.7971  24
  -4  -3  -8 350.247 86.4449   9
  -4  -3  -8 399.594 116.105  20
  -4  -3  -8 281.306 85.2558   8
  -4  -3  -9 28098.5 852.838  19
  -4  -3  -9 28234.5 858.448  26
  -4  -3  -9 28345.8 886.570  24
  -4  -3  -9 28645.2 892.118  20
  -4  -3 -10 1482.05 170.105  19
  -4  -3 -10 1516.63 172.775  26
  -4  -3 -10 1621.67 173.544  24
  -4  -3 -10 1423.16 168.198  23
  -4  -3 -10 1690.28 185.701  20
  -4  -3 -11 39.2971 32.8602  19
  -4  -3 -11 103.795 49.3779  26
  -4  -3 -11 66.0598 44.3265  23
  -4  -3 -11 81.3827 53.9671  20
  -4  -3 -12 2401.36 178.584  26
  -4  -3 -12 2741.74 184.277  23
  -4  -3 -12 2865.08 193.659  19
   4   4 -10 64.6984 22.4333   8
   4   4 -10 27.6713 20.4074  28
   4   4  -9 169.920 45.4812   8
   4   4  -9 230.544 59.0927  28
   4   4  -8 3601.05 258.896  28
   4   4  -8 3490.03 210.318  29
   4   4  -7 2161.42 209.833  28
   4   4  -6 10467.3 488.112  28
   4   4  -6 10641.2 482.218  13
   4   4  -5 5032.36 583.024   3
   4   4  -5 5050.58 325.417  13
   4   4  -5 5111.89 318.024  28
   4   4  -4 909.938 132.330  13
   4   4  -4 609.362 215.601   3
   4   4  -3 737.207 236.625   3
   4   4  -2 6519.17 711.425   3
   4   4  -1 2220.37 418.496   3
   4   4   0 81013.5 2863.56   3
   4   4   1 218.303 175.017   3
   4   4   2 53284.0 2233.78   3
   4   4   3 16188.4 1163.43   3
   4   4   4 12343.1 1003.41   3
  -4  -4  -5 97425.7 1965.21   7
   4   4   5 86686.3 3047.57   3
  -4  -4  -6 1254.73 149.247   7
  -4  -4  -6 1327.98 147.982  27
   4   4   6 1175.78 314.047   3
  -4  -4  -6 1331.15 144.485  22
  -4  -4  -6 1464.50 168.823  20
  -4  -4  -7 12057.6 506.303   7
  -4  -4  -7 12042.1 472.930  26
  -4  -4  -7 12531.6 470.359  22
  -4  -4  -7 12099.7 526.274  20
  -4  -4  -7 11396.5 513.785   8
  -4  -4  -8 6462.30 353.642  26
  -4  -4  -8 6640.27 394.505  24
  -4  -4  -8 6717.92 391.669  20
  -4  -4  -8 6169.95 369.823   8
  -4  -4  -8 6578.38 363.049  19
  -4  -4  -9 3713.44 269.302  26
  -4  -4  -9 3612.64 278.717  24
  -4  -4  -9 3814.25 292.442  20
  -4  -4  -9 3509.57 277.364   8
  -4  -4  -9 3478.59 265.741  19
  -4  -4 -10 2613.21 221.664  26
  -4  -4 -10 2783.65 224.222  24
  -4  -4 -10 2889.91 233.289  23
  -4  -4 -10 2936.73 245.936  20
  -4  -4 -10 2577.67 223.997  19
  -4  -4 -11 1800.55 172.378  26
  -4  -4 -11 2205.26 182.099  23
  -4  -4 -11 2296.41 191.279  20
  -4  -4 -11 2175.74 189.013  19
  -4  -4 -12 1043.15 105.083  23
  -4  -4 -12 938.485 105.895  19
   4   5 -10 1023.79 88.0535  28
   4   5  -9 450.698 60.7917   8
   4   5  -9 725.506 94.8678  28
   4   5  -8 157.612 61.0705  28
   4   5  -7 17163.9 609.782  13
   4   5  -7 17045.3 630.077  28
   4   5  -6 23790.9 781.322  13
   4   5  -6 23067.8 769.007  28
   4   5  -5 47.2637 53.9296  15
   4   5  -5 37.5963 40.9460  13
   4   5  -4 2537.44 219.678  15
   4   5  -4 2480.86 425.049   3
   4   5  -4 2721.01 241.324  13
   4   5  -3 19512.2 1256.19   3
   4   5  -3 18324.9 617.351  15
   4   5  -3 19343.5 678.581  13
  -4  -5   3 18694.6 615.404  25
   4   5  -2 14013.9 1095.68   3
   4   5  -1 218.266 119.572   3
   4   5   0 9890.25 945.737   3
   4   5   1 26184.5 1582.10   3
   4   5   2 103832. 3467.40   3
   4   5   3 6007.36 739.824   3
   4   5   4 14982.7 1170.02   3
  -4  -5  -5 2453.79 210.718   7
  -4  -5  -5 2510.48 197.243  27
   4   5   5 2270.69 463.576   3
  -4  -5  -5 2825.36 224.903  22
  -4  -5  -5 2565.32 209.224  20
  -4  -5  -6 188.705 67.2040   7
  -4  -5  -6 350.483 81.1216  22
  -4  -5  -6 191.646 74.2764  20
  -4  -5  -7 6313.68 362.281   7
  -4  -5  -7 6250.59 326.815  22
  -4  -5  -7 6202.67 370.273  20
  -4  -5  -8 676.593 117.715  19
  -4  -5  -8 648.233 111.322  26
  -4  -5  -8 658.995 124.041  24
  -4  -5  -8 750.957 135.458  20
  -4  -5  -9 13097.1 519.813  26
  -4  -5  -9 14024.8 569.598  24
  -4  -5  -9 13263.5 534.069  23
  -4  -5  -9 13918.6 580.372  20
  -4  -5  -9 13351.9 547.567  19
  -4  -5 -10 10361.6 445.284  26
  -4  -5 -10 10561.2 447.823  24
  -4  -5 -10 11366.5 458.055  23
  -4  -5 -10 11431.6 489.181  20
  -4  -5 -10 10880.9 468.882  19
  -4  -5 -11 35.2333 37.3483  19
  -4  -5 -11 4.67789 23.7146  24
  -4  -5 -11 20.1268 28.6380  23
  -4  -5 -11 75.7247 49.3070  20
   4   6  -9-26.6927 26.5381  28
   4   6  -8 20.5566 24.5753  28
   4   6  -7 19462.4 651.137  13
   4   6  -7 19192.6 657.637  28
   4   6  -6 8133.31 424.034  13
   4   6  -5 437.249 96.2287  15
   4   6  -5 566.854 117.214  13
   4   6  -4 4277.52 290.976  15
   4   6  -4 4469.96 319.768  13
   4   6  -3 374.144 187.451   3
  -4  -6   3 657.374 101.685  25
   4   6  -3 766.310 132.605  13
   4   6  -2 9582.34 913.156   3
   4   6  -2 9898.04 463.941  13
  -4  -6   2 10051.8 440.996  25
   4   6  -1 42.4415 40.3987  13
   4   6  -1 195.478 181.851   3
  -4  -6   1 34.9564 56.9180  25
   4   6   0 10903.2 1046.88   3
   4   6   1 42288.9 2136.46   3
   4   6   2 14842.5 1225.20   3
   4   6   3 755.255 263.903   3
  -4  -6  -4 4423.88 264.205  17
  -4  -6  -4 4389.39 285.278   7
   4   6   4 4058.33 634.557   3
  -4  -6  -4 4635.22 258.798  27
  -4  -6  -4 4616.64 300.210  22
  -4  -6  -5 8409.64 398.686  17
  -4  -6  -5 9202.99 429.857   7
   4   6   5 8092.05 909.370   3
  -4  -6  -5 8590.22 378.637  27
  -4  -6  -5 8714.81 424.884  22
  -4  -6  -5 8439.76 402.217  20
  -4  -6  -6 11265.5 498.241   7
  -4  -6  -6 10818.8 474.018  22
  -4  -6  -6 10864.8 489.295  20
  -4  -6  -7 4037.82 294.178   7
  -4  -6  -7 4316.00 272.826  22
  -4  -6  -7 4213.03 304.434  20
  -4  -6  -8 9249.88 465.569  20
  -4  -6  -8 8645.76 422.936  19
  -4  -6  -9 5464.29 331.739  24
  -4  -6  -9 5378.25 298.427  23
  -4  -6  -9 5660.21 345.788  20
  -4  -6  -9 5109.87 312.904  19
  -4  -6 -10 565.998 95.4197  24
  -4  -6 -10 583.293 87.0591  23
  -4  -6 -10 667.860 114.844  20
  -4  -6 -11 7050.11 272.745  24
  -4  -6 -11 7656.39 279.339  23
   4   7  -9 3452.86 169.842  28
   4   7  -8 263.964 58.7540  28
   4   7  -7 212.028 61.3812  13
   4   7  -7 107.934 44.1929  28
   4   7  -6 1059.14 145.958  13
   4   7  -5 173.181 59.2623  15
   4   7  -5 200.075 75.8262  13
   4   7  -4 3324.25 248.185  15
   4   7  -4 3639.97 289.570  13
  -4  -7   4 3465.81 247.784  25
   4   7  -3 592.407 119.134  13
  -4  -7   3 517.978 99.2123  25
   4   7  -2 29939.5 1672.23   3
   4   7  -2 32276.9 848.991   6
   4   7  -2 30382.3 940.701  13
  -4  -7   2 30963.9 911.627  25
   4   7  -1 212.087 60.9639   6
   4   7  -1 394.243 208.339   3
  -4  -7   1 133.024 60.8503  25
   4   7   0 33843.0 1949.14   3
  -4  -7   0 33204.4 950.585  25
   4   7   1 1017.89 340.388   3
  -4  -7  -1 861.367 128.350  25
   4   7   2 1669.42 429.095   3
  -4  -7  -2 1824.65 183.860  25
   4   7   3 16899.5 1366.98   3
  -4  -7  -3 16790.2 595.499  25
  -4  -7  -4 15224.9 551.751  17
  -4  -7  -4 16362.0 599.433   7
  -4  -7  -4 16264.3 556.324  25
  -4  -7  -4 15548.3 616.493  22
  -4  -7  -5 689.106 116.425  17
  -4  -7  -5 716.025 121.893   7
  -4  -7  -5 790.804 131.273  22
  -4  -7  -5 677.346 111.947  20
  -4  -7  -6 9377.51 452.584   7
  -4  -7  -6 8869.25 430.530  22
  -4  -7  -6 8434.30 425.827  20
  -4  -7  -7 104846. 2207.06   7
  -4  -7  -7 106365. 2139.57  22
  -4  -7  -7 103521. 2209.73  20
  -4  -7  -8 2598.00 233.975  20
  -4  -7  -9 734.024 114.265  24
  -4  -7  -9 783.155 123.567  20
  -4  -7 -10 3733.28 217.902  24
  -4  -7 -10 4606.03 261.136  20
  -4  -7 -11 95.6594 40.3361  20
   4   8  -8 2562.00 153.229  28
   4   8  -7 602.234 89.9049  13
   4   8  -7 530.293 82.7155  28
   4   8  -6 159.379 57.9683  13
   4   8  -5 54.8836 32.9064  15
   4   8  -5 79.3083 61.0663  13
   4   8  -4 4183.76 265.473  15
   4   8  -4 4045.59 305.864  13
  -4  -8   4 3934.33 261.985  25
   4   8  -3 28.5281 42.7542  13
  -4  -8   3 41.0261 42.5702  25
   4   8  -2 9276.81 414.604   6
  -4  -8   2 9577.41 459.714  25
   4   8  -1 38623.9 1029.19   6
  -4  -8   1 37985.6 1073.71  25
   4   8   0 61423.8 1423.39   6
  -4  -8   0 55532.7 1420.38  25
  -4  -8  -1 21533.0 743.650  25
  -4  -8  -2 2212.36 195.643   7
  -4  -8  -2 1939.95 199.124  25
  -4  -8  -3 14344.4 525.545  17
  -4  -8  -3 16307.5 585.012   7
  -4  -8  -3 15229.5 580.607  25
  -4  -8  -4 571.620 101.962  17
  -4  -8  -4 715.821 119.370   7
  -4  -8  -4 671.296 105.978  25
  -4  -8  -5 305.857 87.4963  17
  -4  -8  -5 362.848 86.5398   7
  -4  -8  -5 307.320 82.7107  22
  -4  -8  -5 267.765 71.5428  20
  -4  -8  -6 6199.96 350.361   7
  -4  -8  -6 6250.87 351.445  22
  -4  -8  -6 5438.81 323.268  20
  -4  -8  -7 8961.43 391.633  22
  -4  -8  -7 8489.80 410.462  20
  -4  -8  -8 7.29368 43.8192  20
  -4  -8  -9 2277.95 179.890  24
  -4  -8  -9 2437.78 193.426  20
  -4  -8 -10-5.15789 19.0643  24
  -4  -8 -10 73.2846 41.8862  20
  -4  -8 -11 3386.34 148.187  20
   4   9  -7 1007.62 98.6770  13
   4   9  -7 1037.62 95.0496  28
   4   9  -6 153.449 53.7466  13
   4   9  -5 6568.48 351.569  13
   4   9  -4 314.486 84.0976  13
  -4  -9   4 435.579 81.7115  25
   4   9  -3 2536.63 236.980  13
  -4  -9   3 2723.24 221.397  25
   4   9  -2 7006.01 399.764  13
  -4  -9   2 7269.95 392.914  25
   4   9  -2 7062.31 356.311   6
   4   9  -1 1398.79 161.905   6
  -4  -9   1 1468.88 178.766  25
   4   9   0 1530.26 180.524   6
  -4  -9   0 1316.04 179.589  25
   4   9   1 32149.8 944.418   6
  -4  -9  -1 28775.4 911.819  25
  -4  -9  -2 2237.40 185.655   7
   4   9   2 2090.64 214.847   6
  -4  -9  -2 2155.48 211.999  25
  -4  -9  -3 2472.39 203.054  17
  -4  -9  -3 2687.50 210.150   7
   4   9   3 2883.45 253.604   6
  -4  -9  -3 2726.56 230.234  25
  -4  -9  -4 2852.63 223.508  17
  -4  -9  -4 3021.26 225.893   7
   4   9   4 2862.93 248.057   6
  -4  -9  -4 3336.76 235.484  25
  -4  -9  -4 3039.27 257.971  22
  -4  -9  -5 1610.39 166.664  17
  -4  -9  -5 1581.05 162.865   7
   4   9   5 1643.19 181.382   6
  -4  -9  -5 1537.30 176.963  22
   4   9   6-61.2204 59.7323   6
  -4  -9  -6 21.6671 36.0023  22
  -4  -9  -6 3.26707 41.9811  20
  -4  -9  -7 2920.63 194.660  22
  -4  -9  -7 2724.11 198.489  20
  -4  -9  -8 7387.61 323.291  20
  -4  -9  -9 1327.80 115.345  24
  -4  -9  -9 1562.57 128.355  20
  -4  -9 -10 418.712 51.6817  20
   4  10  -6 117.674 36.9669  13
   4  10  -6 112.600 29.3230  28
   4  10  -5 11.9892 20.8119  13
   4  10  -4 399.413 83.4124  13
   4  10  -3 290.698 76.4549  13
  -4 -10   3 353.863 76.7770  25
   4  10  -2 500.660 98.3098  13
  -4 -10   2 455.639 91.6812  25
   4  10  -1 62.6845 51.7676   6
   4  10  -1 17.7201 31.6397  13
  -4 -10   1 56.0958 49.9287  25
   4  10   0 2070.24 200.761   6
   4  10   0 2096.27 186.759  13
  -4 -10   0 2118.48 208.283  25
   4  10   1 3430.89 263.176   6
  -4 -10  -1 3403.69 261.951  25
   4  10   2 686.853 118.358   6
  -4 -10  -2 663.046 110.884  25
  -4 -10  -3 99.5405 41.7299  17
   4  10   3 50.7333 55.0398   6
  -4 -10  -3 132.447 53.0605  25
  -4 -10  -4 1830.38 163.798  17
   4  10   4 2017.74 195.755   6
  -4 -10  -4 2047.24 169.351  25
  -4 -10  -4 1967.49 195.578  22
   4  10   5 178.622 65.1225   6
  -4 -10  -5 139.838 58.4111  22
   4  10   6 276.878 65.2825   6
  -4 -10  -6 356.504 70.7510  22
  -4 -10  -7 240.197 47.8015  22
  -4 -10  -7 219.605 49.8655  20
  -4 -10  -8 2519.53 159.181  24
  -4 -10  -8 2326.44 133.439  20
   4  11  -5 458.110 59.0657  13
   4  11  -4 482.295 72.4164  13
   4  11  -3 143.597 47.4462  13
  -4 -11   3 145.842 41.2418  25
   4  11  -2 718.139 98.5924  13
  -4 -11   2 894.093 109.541  25
   4  11  -1 1380.56 132.212  13
  -4 -11   1 1612.26 155.646  25
  -4 -11   1 1289.60 125.502  22
  -4 -11   0 2250.28 190.389  25
  -4 -11   0 1924.89 172.056  22
  -4 -11  -1 35.4670 32.3173  25
  -4 -11  -1 84.0053 46.4061  22
   4  11   1 103.413 60.4849   6
  -4 -11  -2 4141.82 252.196  25
  -4 -11  -2 4008.63 262.293  22
   4  11   2 3963.87 257.579   6
   4  11   3 40.3383 40.5385   6
  -4 -11  -3 127.032 44.0289  25
  -4 -11  -3 140.853 54.5417  22
  -4 -11  -4 134.149 35.4073  25
   4  11   4 86.0347 44.0516   6
  -4 -11  -4 84.6840 34.7304  22
   4  11   5 2961.42 185.403   6
  -4 -11  -5 3588.57 210.312  22
  -4 -11  -6 23.4329 19.2582  22
  -4 -12   3 36.6381 19.1858  21
   4  12  -2 319.176 44.5522  13
  -4 -12   1 1764.00 130.911  25
  -4 -12   1 1226.26 88.6299  22
  -4 -12   0 216.282 49.0693  25
  -4 -12   0 127.024 35.5100  22
  -4 -12  -1 2568.30 167.043  25
  -4 -12  -1 2400.84 160.504  22
  -4 -12  -2 1307.76 110.898  25
  -4 -12  -2 1107.81 110.985  22
  -4 -12  -3 2521.54 137.916  25
  -4 -12  -3 2755.84 171.002  22
  -4 -12  -4 145.392 36.9205  22
  -4 -12  -5 32.0819 17.4604  22
   5  -8   1 640.284 56.4019  14
   5  -8   2 324.659 45.6900  14
   5  -8   3 855.400 76.7892  14
   5  -8   4 621.577 63.1635  14
   5  -7  -4 3.51198 13.7351  12
   5  -7  -3 951.972 75.3091  29
   5  -7  -3 851.728 82.0807  12
   5  -7  -2 1876.35 127.520  29
   5  -7  -2 1777.46 127.401  12
   5  -7  -1 17218.6 480.724  29
   5  -7  -1 14612.8 438.347  12
   5  -7   0 2064.05 153.747  29
   5  -7   0 1954.40 129.786  14
   5  -7   0 1769.20 124.298  12
   5  -7   1 915.683 103.968  29
   5  -7   1 962.453 99.6238  14
   5  -7   2 4525.36 236.169  29
   5  -7   3 70.7732 39.0824  14
   5  -7   3 60.3000 32.8111  29
   5  -7   4 2222.48 161.551  14
  -5   7  -5 138.183 39.0209  19
   5  -7   5 333.717 59.5936  14
  -5   7  -6 223.576 42.5260  19
   5  -7   6 829.953 80.2075  14
   5  -6  -5 730.107 74.0700  12
   5  -6  -4 668.249 69.9085  29
   5  -6  -3 2619.64 166.714  29
   5  -6  -2 9400.45 367.877  29
   5  -6  -1 432.661 82.1315  29
   5  -6   0 734.520 108.089  29
   5  -6   0 667.332 92.9814  12
   5  -6   1 397.394 77.2661  29
   5  -6   1 401.393 65.8330  12
   5  -6   2 402.949 79.8109  29
   5  -6   3 2420.10 181.436  29
  -5   6  -3 1859.41 166.680   9
   5  -6   4 33.7327 23.5417  29
  -5   6  -4-7.46770 25.2720   5
  -5   6  -4-30.4428 38.3390   9
  -5   6  -5 446.721 87.9179  19
  -5   6  -5 729.756 101.013   5
  -5   6  -5 675.327 90.0060   9
  -5   6  -6 610.176 92.6870  19
   5  -6   6 939.065 106.613  14
  -5   6  -6 796.400 100.899   5
  -5   6  -7 184.522 48.0770  19
   5  -6   7 392.686 60.3054  14
  -5   6  -8 641.029 64.9875  19
   5  -5  -6 182.000 41.9775  18
   5  -5  -5 1796.57 141.019  18
   5  -5  -5 1661.30 110.917  29
   5  -5  -4 3125.92 205.379  18
   5  -5  -4 3420.14 196.646  29
   5  -5  -3 1547.56 149.235  18
   5  -5  -3 1622.70 149.608  29
   5  -5  -2 157.867 57.3091  18
   5  -5  -2 74.5319 39.4273  29
   5  -5  -1 5811.37 299.014  18
   5  -5  -1 5600.80 314.421  29
   5  -5   0 12832.6 454.038  18
   5  -5   0 11950.8 489.097  29
   5  -5   1 715.846 115.511  29
   5  -5   2 569.955 99.1341  29
   5  -5   3 6052.79 314.509  29
  -5   5  -3 5624.72 303.787   5
   5  -5   4 14684.4 494.947  29
  -5   5  -4 13295.8 518.704   5
  -5   5  -4 14012.4 554.950   9
   5  -5   5 4787.13 242.212  29
  -5   5  -5 4351.45 284.124   5
  -5   5  -5 5153.42 305.015   9
  -5   5  -6 26.5297 35.5130  19
  -5   5  -6 98.9458 54.4326   5
  -5   5  -6 86.6460 46.0021   9
  -5   5  -7 1239.66 138.975   5
   5  -5   7 1241.71 120.540  14
  -5   5  -7 1193.43 124.695   9
   5  -5   8 2798.12 144.541  14
  -5   5  -8 2970.84 193.890   5
  -5   5  -8 2437.73 156.935   9
  -5   5  -9 188.312 42.0598  19
   5  -4  -7 3540.77 170.287  18
   5  -4  -6 1550.36 131.189  18
   5  -4  -6 1437.74 127.767  31
   5  -4  -5 3709.58 228.924  18
   5  -4  -5 3424.69 225.297  31
   5  -4  -5 3773.87 202.306  29
   5  -4  -4 1597.92 158.719  18
   5  -4  -4 1507.46 156.897  31
   5  -4  -4 1660.96 149.541  29
   5  -4  -3 112.280 40.0344  18
   5  -4  -3 85.2937 43.5948  29
   5  -4  -3 69.9429 54.4560  31
   5  -4  -2 98.9035 41.9548  18
   5  -4  -2 142.559 55.5640  29
   5  -4  -1 3216.84 226.770  18
   5  -4  -1 2974.80 230.393  29
   5  -4   0 2645.03 195.333  18
   5  -4   0 2469.46 209.513  29
  -5   4  -1 2301.52 231.162  16
   5  -4   1 2851.41 225.107  29
  -5   4  -2 13857.0 614.215  16
   5  -4   2 15433.8 555.979  29
  -5   4  -3 15903.6 664.650  16
   5  -4   3 16192.7 565.659  29
  -5   4  -3 16853.8 588.806   5
  -5   4  -4 8787.76 476.089  16
   5  -4   4 9495.87 391.722  29
  -5   4  -4 8727.91 425.955   5
  -5   4  -5 1410.18 185.711  16
  -5   4  -5 1668.73 180.998   5
  -5   4  -5 1764.47 196.929   9
  -5   4  -6 1716.31 183.444  19
  -5   4  -6 1950.69 208.675  16
  -5   4  -6 2320.77 216.103   5
  -5   4  -6 2191.85 214.711   9
  -5   4  -7-3.10175 31.1909  19
  -5   4  -7-25.0816 45.7173   5
  -5   4  -7 27.1602 49.4998   9
  -5   4  -8 2538.95 200.895  19
  -5   4  -8 3271.66 230.410   5
  -5   4  -8 3072.84 215.179   9
  -5   4  -9 1106.93 114.877  19
  -5   4  -9 1276.38 122.094   9
  -5   4 -10 69.6628 28.0326  19
   5  -3  -8 2107.70 113.729  18
   5  -3  -7 2301.89 151.022  18
   5  -3  -7 1268.05 111.506  31
   5  -3  -6 3287.39 211.044  18
   5  -3  -6 2957.16 165.681  29
   5  -3  -5 20.9969 35.4794  18
   5  -3  -5-12.1635 35.7404  31
   5  -3  -5 12.2316 21.3863  29
   5  -3  -4 2491.77 206.131  31
   5  -3  -4 3869.50 241.697  29
   5  -3  -3 1989.47 189.894  31
   5  -3  -3 3551.03 242.497  29
   5  -3  -2 16.9154 39.5582  31
   5  -3  -2 60.0096 44.2126  29
   5  -3  -1 42.2421 42.5464  18
  -5   3   1 42.5326 38.3407  16
   5  -3  -1 138.740 55.0513  29
  -5   3   0 1403.93 170.254  16
   5  -3   0 1651.48 169.101  29
  -5   3  -1 2652.63 244.005  16
   5  -3   1 2864.80 219.638  29
  -5   3  -2 6675.74 393.846  16
   5  -3   2 6911.36 346.823  29
  -5   3  -3 3009.19 261.694  16
   5  -3   3 2786.36 209.380  29
  -5   3  -3 3040.24 232.033   5
  -5   3  -4 2298.76 229.313  16
   5  -3   4 2389.49 183.534  29
  -5   3  -4 2420.73 222.921   5
  -5   3  -5 20998.8 767.016  16
  -5   3  -5 21970.3 755.759   5
  -5   3  -5 22440.4 799.408   9
  -5   3  -6 695.090 124.837  16
  -5   3  -6 546.780 119.481   9
  -5   3  -7 912.747 133.520  19
  -5   3  -7 763.500 132.575  16
  -5   3  -7 1106.51 149.838   5
  -5   3  -7 938.385 145.380   9
  -5   3  -8 632.952 106.678  19
  -5   3  -8 768.891 117.134   5
  -5   3  -8 851.160 126.561   9
  -5   3  -9 22.6243 31.9008  19
  -5   3  -9 50.0014 32.2142   9
  -5   3 -10 3604.58 193.227  19
  -5   3 -11 1328.90 98.0667  26
   5  -2  -8 463.031 61.6471  18
   5  -2  -8 361.310 47.4967   8
   5  -2  -7 5217.48 222.929   8
   5  -2  -7 5846.78 264.604  18
   5  -2  -6 508.894 78.0529   8
   5  -2  -6 430.281 69.1991  29
   5  -2  -5 468.869 84.6732   8
   5  -2  -5 565.070 90.8453  29
   5  -2  -4 61.3639 55.4242  31
   5  -2  -4 439.622 86.0814  29
   5  -2  -3 9368.34 419.070  29
   5  -2  -2 38247.9 1003.70  29
   5  -2  -1 15783.2 568.812  29
  -5   2   0 660.145 113.415  16
   5  -2   0 822.334 115.714  29
  -5   2  -1 9989.48 458.333  16
   5  -2   1 9451.85 408.366  29
  -5   2  -2 6449.92 378.340  16
   5  -2   2 6279.74 317.231  29
   5  -2   3 97.9095 43.8007  29
  -5   2  -3 112.818 59.6284   5
  -5   2  -4 3038.84 259.171  16
  -5   2  -4 3453.32 261.012   5
  -5   2  -5 18202.3 683.427  16
  -5   2  -5 18393.9 682.709   5
  -5   2  -6 13271.3 567.681  16
  -5   2  -6 14469.5 599.611   5
  -5   2  -6 14363.9 608.883   9
  -5   2  -7 4237.99 278.911  19
  -5   2  -7 4001.03 285.836  16
  -5   2  -7 4120.90 300.383   5
  -5   2  -7 4181.75 311.753   9
  -5   2  -8 1193.25 144.054  19
  -5   2  -8 1027.68 133.634  16
  -5   2  -8 1313.30 170.666   9
  -5   2  -9 965.963 122.170  19
  -5   2  -9 1054.96 140.452   9
  -5   2 -10 11.7038 27.3224  19
  -5   2 -11 42.2163 20.0621  19
  -5   2 -11 49.0232 27.0540  26
   5  -1  -9 122.525 27.1891   8
   5  -1  -8 1141.53 102.726   8
   5  -1  -8 47.1611 30.7766  31
   5  -1  -7 7587.27 304.551   8
   5  -1  -7 7434.18 249.996  29
   5  -1  -6 124.999 67.1294  31
   5  -1  -6 244.024 58.0877  29
   5  -1  -5 132.983 74.8995  31
   5  -1  -5 6203.84 303.584  29
   5  -1  -4 2311.13 199.290  29
   5  -1  -3 66961.6 1507.41  29
   5  -1  -2 197.670 63.6186  29
   5  -1  -1 198.667 136.527   3
   5  -1  -1 251.961 72.1209  29
   5  -1   0 4234.23 537.289   3
  -5   1   0 3565.10 246.029  16
   5  -1   0 3702.70 245.363  29
  -5   1  -1 726.321 114.604  16
   5  -1   1 740.924 107.628  29
  -5   1  -2 1129.93 151.489  16
   5  -1   2 1187.70 127.251  29
  -5   1  -2 1286.14 138.885   5
  -5   1  -3 993.198 141.154  16
  -5   1  -3 1059.27 132.533   5
  -5   1  -4 1900.23 199.532  16
  -5   1  -4 1953.87 191.050   5
  -5   1  -5 619.550 112.737  16
  -5   1  -5 885.865 137.791   5
  -5   1  -6 36812.0 1048.10  16
  -5   1  -6 39057.4 1094.95   5
  -5   1  -6 39304.4 1122.74   9
  -5   1  -7 5971.24 348.552  16
  -5   1  -7 6645.92 387.749   5
  -5   1  -7 6474.31 393.554   9
  -5   1  -8 1189.43 140.937  19
  -5   1  -8 1241.41 144.352  16
  -5   1  -8 1258.00 140.108  23
  -5   1  -8 1306.70 168.476   9
  -5   1  -9 71.1386 40.9776  19
  -5   1  -9 123.979 47.5027  23
  -5   1  -9 50.1730 54.0325   9
  -5   1 -10 2196.54 170.336  19
  -5   1 -10 1956.77 146.945  23
  -5   1 -10 2243.90 193.600   9
  -5   1 -11 24.6750 31.2397  19
  -5   1 -11 20.0577 30.6775  26
  -5   1 -12 12012.1 338.363  26
   5   0  -9 3973.06 174.825   8
   5   0  -9 3977.16 160.341  18
   5   0  -8 2945.98 186.538   8
   5   0  -7 321.747 73.3691   8
   5   0  -7 275.191 56.5333  29
   5   0  -6 1391.93 141.548  29
   5   0  -5 265.921 75.0915  29
   5   0  -4 21996.6 701.766  29
   5   0  -3 6649.58 791.186   2
   5   0  -3 13238.4 508.805  29
   5   0  -2 13115.0 1041.14   3
   5   0  -2 12496.9 491.878  29
   5   0  -1 74019.8 2621.00   3
   5   0  -1 74858.1 1607.73  29
   5   0   0 5801.30 638.894   3
   5   0   0 5812.89 303.251  29
   5   0   1 446.440 171.971   3
   5   0   2 3352.54 445.862   3
  -5   0  -2 3177.57 236.331  16
  -5   0  -3 161820. 3106.95  16
  -5   0  -4 47846.8 1230.78  16
  -5   0  -4 50727.0 1159.99  27
  -5   0  -5 702.830 119.017  16
  -5   0  -5 820.107 113.141  27
  -5   0  -5 771.919 131.199   9
  -5   0  -6 27401.4 843.989  16
  -5   0  -6 28534.1 900.462   9
  -5   0  -7 7010.73 375.034  16
  -5   0  -7 7430.40 421.578   9
  -5   0  -8 53.2364 45.6391  16
  -5   0  -8 35.4155 45.2242   9
  -5   0  -9 585.068 94.9107  19
  -5   0  -9 553.802 97.7328  23
  -5   0  -9 619.199 112.117   9
  -5   0 -10 376.824 72.1878  19
  -5   0 -10 363.068 74.9705  23
  -5   0 -10 424.307 89.4549   9
  -5   0 -11 20273.1 545.197  19
  -5   0 -11 19359.5 582.644  26
  -5   0 -12 12096.0 365.017  26
   5   1  -9 419.889 59.8116   8
   5   1  -8 1122.72 123.592   8
   5   1  -7 245.496 56.5740  29
   5   1  -6 1893.70 170.882  29
   5   1  -5 60195.4 1376.65  29
   5   1  -5 58181.3 1424.01  28
   5   1  -4 6202.50 342.151  29
   5   1  -4 6103.45 351.929  28
   5   1  -3 2005.86 188.277  29
   5   1  -3 1790.80 395.347   3
   5   1  -3 1964.43 188.771  28
   5   1  -2 28597.3 1546.49   3
   5   1  -2 25289.8 764.598  29
   5   1  -1 214.242 141.135   3
   5   1  -1 243.123 61.5414  29
   5   1   0 12929.6 985.574   3
   5   1   1 225.775 139.303   3
   5   1   2 2376.15 396.481   3
   5   1   3 71795.9 2435.90   3
  -5  -1  -3 71121.4 1583.93  16
  -5  -1  -4 33336.1 942.766  16
  -5  -1  -4 34908.1 910.643  27
  -5  -1  -4 33981.3 909.021  24
  -5  -1  -5 2239.70 206.433  16
  -5  -1  -5 2261.44 194.144  27
  -5  -1  -5 2161.91 200.050  24
  -5  -1  -5 2198.46 209.158   9
  -5  -1  -6 630.309 110.670  16
  -5  -1  -6 681.729 109.767  27
  -5  -1  -6 633.924 111.056  24
  -5  -1  -6 561.468 112.370   9
  -5  -1  -7 3640.84 259.458  16
  -5  -1  -7 3827.47 294.689  24
  -5  -1  -7 3617.25 280.663   9
  -5  -1  -8 18406.5 613.970  16
  -5  -1  -8 17817.5 675.794   9
  -5  -1  -9 355.511 72.8255  19
  -5  -1  -9 510.573 103.501   9
  -5  -1 -10 155.713 54.3598  19
  -5  -1 -10 128.228 63.7037  26
  -5  -1 -10 122.883 52.7257  23
  -5  -1 -11 7169.37 299.315  19
  -5  -1 -11 7371.62 332.957  26
  -5  -1 -11 7004.75 312.472  23
  -5  -1 -12 1785.94 128.280  26
  -5  -1 -12 1405.38 95.9139  19
   5   2  -9 2265.64 140.986   8
   5   2  -8 7968.04 339.204   8
   5   2  -8 7962.00 270.802  29
   5   2  -7 8647.43 347.443  29
   5   2  -7 8258.30 397.933  28
   5   2  -6 16.6747 29.9738  29
   5   2  -6 50.0006 50.2654  28
   5   2  -5 16090.2 581.861  29
   5   2  -5 16308.3 614.894  28
   5   2  -4 4159.30 278.121  29
   5   2  -4 4080.58 281.952  28
   5   2  -3 60016.1 1407.62  29
   5   2  -3 60875.7 1395.00  28
  -5  -2   3 59733.3 1384.28  21
   5   2  -2 1103.23 136.126  29
   5   2  -2 1373.78 340.541   3
  -5  -2   2 1200.38 142.551  21
   5   2  -1 28219.9 1552.23   3
   5   2  -1 27195.9 778.478  29
  -5  -2   1 27687.6 817.958  21
   5   2   0 6610.69 728.543   3
   5   2   1 271.110 182.489   3
   5   2   2 1326.48 321.967   3
   5   2   3 187.887 143.371   3
  -5  -2  -4 10786.2 449.811  27
  -5  -2  -5 717.061 111.894   7
  -5  -2  -5 905.559 131.883  16
  -5  -2  -5 830.674 120.763  27
  -5  -2  -5 873.586 127.660  24
  -5  -2  -5 880.286 121.753   9
  -5  -2  -6 6534.05 360.467  16
  -5  -2  -6 6676.20 331.011   7
  -5  -2  -6 6713.49 367.134  27
  -5  -2  -6 6466.24 374.935  24
  -5  -2  -6 7196.07 377.532   9
  -5  -2  -7 17996.0 633.059  16
  -5  -2  -7 18445.1 697.062  24
  -5  -2  -7 18303.5 659.644   9
  -5  -2  -8 3981.79 260.110  16
  -5  -2  -8 4092.97 310.105  24
  -5  -2  -8 4136.57 292.733   9
  -5  -2  -9 1347.46 170.701  24
  -5  -2  -9 1261.54 157.408   9
  -5  -2 -10 14.0558 32.5029  19
  -5  -2 -10 51.5326 39.1772  26
  -5  -2 -10-1.64013 30.3081  23
  -5  -2 -11 50.7769 31.1362  19
  -5  -2 -11 50.1688 35.8858  26
  -5  -2 -11 69.3213 35.9423  23
  -5  -2 -12 6347.32 259.351  26
  -5  -2 -12 7042.31 262.769  23
   5   3  -9 4067.42 185.623   8
   5   3  -8 8485.93 346.905   8
   5   3  -8 8592.90 292.535  29
   5   3  -8 9245.95 373.933  28
   5   3  -7 1009.94 114.501  29
   5   3  -7 975.039 131.274  28
   5   3  -6 708.852 104.629  29
   5   3  -6 478.070 97.4051  28
   5   3  -5 38.6480 34.3879  29
   5   3  -5 25.4633 36.8760  28
   5   3  -4 4770.92 300.637  28
  -5  -3   4 4537.92 272.737  21
   5   3  -3 1762.32 386.189   3
   5   3  -3 1835.07 175.183  28
  -5  -3   3 1617.34 170.076  21
   5   3  -2 194.320 145.258   3
  -5  -3   2 102.887 55.3968  21
   5   3  -1 3295.76 530.655   3
  -5  -3   1 2588.36 219.520  21
   5   3   0 531.916 205.175   3
  -5  -3   0 582.954 104.583  21
   5   3   1 47700.4 2143.51   3
   5   3   2 2508.81 466.766   3
   5   3   3 9096.47 904.542   3
  -5  -3  -3 9954.61 433.617  22
   5   3   4 95.8628 117.090   3
  -5  -3  -4 132.150 55.3803  27
  -5  -3  -4 95.1568 44.5856  24
  -5  -3  -4 175.590 66.8333  22
  -5  -3  -4 65.6675 30.3421  21
  -5  -3  -5 18710.9 632.128   7
  -5  -3  -5 19439.4 656.544  27
  -5  -3  -5 19084.9 669.402  24
  -5  -3  -5 18797.7 657.452  22
  -5  -3  -5 19401.0 663.218  20
  -5  -3  -6 6897.02 359.876   7
  -5  -3  -6 7254.45 385.271  27
  -5  -3  -6 7270.42 405.608  24
  -5  -3  -6 7046.08 390.686  20
  -5  -3  -6 7481.87 365.603   9
  -5  -3  -7 9042.00 427.611  16
  -5  -3  -7 8661.68 412.723   7
  -5  -3  -7 9418.01 478.285  24
  -5  -3  -7 9636.59 434.432   9
  -5  -3  -7 9236.86 468.035  20
  -5  -3  -8 14110.2 523.504  16
  -5  -3  -8 14167.5 543.666  26
  -5  -3  -8 14174.2 598.574  24
  -5  -3  -8 14037.3 542.345   9
  -5  -3  -8 13569.2 582.852  20
  -5  -3  -9 1984.68 187.708  26
  -5  -3  -9 2120.78 210.638  24
  -5  -3 -10 3460.92 235.064  26
  -5  -3 -10 3350.80 245.983  23
  -5  -3 -11 868.933 107.582  26
  -5  -3 -11 901.204 110.020  23
  -5  -3 -11 961.674 100.650  19
  -5  -3 -12 1498.17 112.296  26
  -5  -3 -12 2159.09 136.147  23
   5   4  -9 183.990 36.7607   8
   5   4  -8 1211.88 117.818   8
   5   4  -8 1216.86 99.4346  29
   5   4  -8 1437.22 134.644  28
   5   4  -7 1386.00 132.989  29
   5   4  -7 1439.17 152.182  28
   5   4  -6 3636.30 244.585  29
   5   4  -6 3563.00 257.581  28
   5   4  -5 106.403 43.0663  28
   5   4  -4 3137.04 264.053  13
   5   4  -4 2913.52 230.884  28
  -5  -4   4 2818.28 219.331  21
   5   4  -3 12235.7 539.410  13
   5   4  -3 11780.2 471.911  28
  -5  -4   3 11669.6 497.496  21
   5   4  -2 7142.99 794.246   3
   5   4  -2 6958.06 385.185  13
  -5  -4   2 6896.12 378.471  21
   5   4  -1 20701.5 1402.73   3
   5   4  -1 20862.5 696.512  13
  -5  -4   1 20770.3 708.562  21
   5   4   0 11149.7 1025.56   3
   5   4   0 12559.5 490.406  13
  -5  -4   0 12075.9 512.946  21
   5   4   1 1924.89 436.651   3
  -5  -4  -1 2332.20 192.525  22
  -5  -4  -1 2126.25 200.384  21
   5   4   2 6140.08 784.837   3
  -5  -4  -2 6647.07 348.182  22
  -5  -4  -2 6874.16 364.766  21
   5   4   3 1860.88 428.669   3
  -5  -4  -3 2257.73 198.302  22
  -5  -4  -3 2031.73 185.978  21
   5   4   4 5864.18 775.231   3
  -5  -4  -4 6563.30 348.845  27
  -5  -4  -4 6218.77 352.875  22
  -5  -4  -4 6145.97 322.610  21
  -5  -4  -4 6515.87 333.655  20
  -5  -4  -5 24272.2 767.666   7
   5   4   5 22259.6 1510.39   3
  -5  -4  -5 25200.8 772.925  27
  -5  -4  -5 23478.2 781.317  24
  -5  -4  -5 24013.8 775.199  22
  -5  -4  -5 25153.1 772.721  20
  -5  -4  -6 119.801 61.4501   7
  -5  -4  -6 190.959 69.1910  27
  -5  -4  -6 181.569 65.0655  22
  -5  -4  -6 236.677 82.3776  20
  -5  -4  -7 5907.60 344.512   7
  -5  -4  -7 5936.50 381.089  24
  -5  -4  -7 6045.03 372.601  20
  -5  -4  -8 248.050 63.8921  16
  -5  -4  -8 237.900 68.4687   7
  -5  -4  -8 293.977 75.0833  26
  -5  -4  -8 343.193 89.3585  24
  -5  -4  -8 382.006 106.418  20
  -5  -4  -9 2755.16 210.943  26
  -5  -4  -9 2906.94 243.731  24
  -5  -4  -9 2742.32 243.024  20
  -5  -4 -10 5229.77 280.137  26
  -5  -4 -10 5449.44 309.459  24
  -5  -4 -10 5370.20 305.231  23
  -5  -4 -11 1243.85 118.581  26
  -5  -4 -11 1515.85 137.005  23
  -5  -4 -12 21.8682 19.0974  23
   5   5  -8 77.8834 29.3106   8
   5   5  -8 108.763 30.4501  29
   5   5  -8 105.063 40.5953  28
   5   5  -7 2616.17 182.559  29
   5   5  -7 2636.94 197.802  28
   5   5  -6 22.5514 27.6876  28
   5   5  -5 13819.9 569.793  13
   5   5  -5 13350.9 528.158  28
   5   5  -4 1816.44 178.762  28
   5   5  -4 1959.40 207.796  13
  -5  -5   4 2048.60 191.356  21
   5   5  -3 1827.72 201.754  13
   5   5  -3 1815.87 171.179  28
  -5  -5   3 1920.45 197.117  21
   5   5  -2 22870.6 1453.75   3
   5   5  -2 21922.7 750.816  13
  -5  -5   2 21332.0 742.893  21
   5   5  -1 18876.2 1356.65   3
   5   5  -1 18469.3 658.975  13
  -5  -5   1 17991.7 669.264  21
   5   5   0 4830.37 693.784   3
   5   5   0 4374.40 280.655  13
  -5  -5   0 4265.38 266.045  22
  -5  -5   0 4125.31 295.464  21
   5   5   1 14805.0 1256.83   3
  -5  -5  -1 14941.4 550.575  22
  -5  -5  -1 14512.8 581.893  21
   5   5   2 946.960 328.488   3
  -5  -5  -2 742.309 115.034  22
  -5  -5  -2 857.479 130.505  21
   5   5   3 29772.3 1851.77   3
  -5  -5  -3 30995.4 909.195  22
  -5  -5  -3 31743.4 898.649  21
   5   5   4 288.870 173.919   3
  -5  -5  -4 273.488 75.2707  27
  -5  -5  -4 256.782 76.3021  22
  -5  -5  -4 192.525 56.7319  21
  -5  -5  -4 433.061 93.8413  20
  -5  -5  -5 29280.1 882.848   7
  -5  -5  -5 30316.2 870.212  27
  -5  -5  -5 28011.4 881.969  22
  -5  -5  -5 29895.2 862.867  20
  -5  -5  -6 5740.29 345.900   7
  -5  -5  -6 5485.17 329.834  27
  -5  -5  -6 5611.83 340.519  22
  -5  -5  -6 5609.20 345.891  20
  -5  -5  -7 1.04520 40.3803   7
  -5  -5  -7 59.8186 41.9892  24
  -5  -5  -7 30.9320 35.6872  22
  -5  -5  -7 81.9432 69.5819  20
  -5  -5  -8-7.93111 37.0334  24
  -5  -5  -8 59.6360 63.6378  20
  -5  -5  -9 204.122 67.5085  24
  -5  -5  -9 236.412 83.8562  20
  -5  -5 -10 27.6813 38.4165  24
  -5  -5 -10 10.0396 33.4537  23
  -5  -5 -10 12.0301 47.4031  20
  -5  -5 -11 8311.79 314.741  23
   5   6  -8 204.107 35.1581  29
   5   6  -8 203.745 44.2195  28
   5   6  -7 2176.43 155.911  29
   5   6  -7 2156.60 165.912  28
   5   6  -6 17433.5 579.699  28
   5   6  -5 11071.1 496.000  13
   5   6  -5 10836.9 450.712  28
  -5  -6   5 10392.6 412.202  21
   5   6  -4 856.215 138.067  13
   5   6  -4 1025.61 130.034  28
  -5  -6   4 1039.21 138.810  21
   5   6  -3 2280.43 227.726  13
  -5  -6   3 2281.97 216.784  21
   5   6  -2 460.427 101.113  13
  -5  -6   2 565.633 117.631  21
   5   6  -1 19606.7 695.025  13
   5   6   0 3264.05 245.863  13
   5   6   0 3909.46 644.256   3
  -5  -6   0 3081.89 251.736  25
  -5  -6   0 3133.03 237.354  22
   5   6   1 11438.7 1128.89   3
  -5  -6  -1 10487.7 479.703  25
  -5  -6  -1 10879.6 477.594  22
   5   6   2 7222.14 917.175   3
  -5  -6  -2 6471.49 373.141  22
  -5  -6  -2 6688.89 380.429  21
   5   6   3 75127.4 3179.93   3
  -5  -6  -3 76515.1 1645.83  27
  -5  -6  -3 73075.6 1706.20  22
  -5  -6  -3 72864.9 1671.38  21
  -5  -6  -4 10240.6 443.964  27
  -5  -6  -4 9759.47 477.568  22
  -5  -6  -4 10161.6 441.913  21
  -5  -6  -5 1237.81 158.061   7
  -5  -6  -5 1234.25 151.048  27
  -5  -6  -5 1137.67 159.380  22
  -5  -6  -5 1410.68 158.473  20
  -5  -6  -6 6358.85 371.527   7
  -5  -6  -6 6302.25 363.139  22
  -5  -6  -6 6056.71 350.815  20
  -5  -6  -7 28710.9 873.393   7
  -5  -6  -7 28552.1 834.254  22
  -5  -6  -7 27745.0 866.440  20
  -5  -6  -8 5590.13 351.689  24
  -5  -6  -8 5487.33 336.767  20
  -5  -6  -9 456.777 96.8793  24
  -5  -6  -9 350.704 73.8996  23
  -5  -6  -9 482.282 103.846  20
  -5  -6 -10 13686.3 471.326  24
  -5  -6 -10 12965.5 435.173  23
  -5  -6 -10 14253.7 487.665  20
  -5  -6 -11 27.7337 18.9364  23
   5   7  -8 250.613 39.4287  28
   5   7  -7 38.7299 23.9904  28
   5   7  -6 1686.98 160.274  13
   5   7  -6 1672.96 147.054  28
   5   7  -5 2190.71 203.365  13
   5   7  -5 2218.95 179.374  28
  -5  -7   5 2037.87 165.333  21
   5   7  -4 2120.30 211.078  13
   5   7  -4 2115.99 178.341  28
  -5  -7   4 2233.12 198.590  21
   5   7  -3 8263.88 436.565  13
  -5  -7   3 8228.95 425.852  21
   5   7  -2 16635.4 646.561  13
   5   7  -1 39980.1 1106.61  13
  -5  -7   1 41510.8 1135.08  25
  -5  -7   1 41158.7 1029.28  22
   5   7   0 808.304 124.928  13
  -5  -7   0 816.687 127.931  25
  -5  -7   0 879.370 130.855  22
  -5  -7  -1 5599.11 348.909  25
  -5  -7  -1 5753.24 346.798  22
  -5  -7  -2 11563.7 459.400  27
  -5  -7  -2 10935.6 496.162  25
  -5  -7  -2 11179.5 510.014  22
  -5  -7  -3 67796.9 1471.87  27
  -5  -7  -3 65456.7 1522.91  25
  -5  -7  -3 63272.3 1567.97  22
  -5  -7  -3 66380.2 1542.49  21
  -5  -7  -4 364.064 91.6645   7
  -5  -7  -4 405.474 84.9810  27
  -5  -7  -4 432.031 102.407  22
  -5  -7  -4 358.917 85.5967  21
  -5  -7  -5 588.528 113.164   7
  -5  -7  -5 509.215 93.4829  27
  -5  -7  -5 593.790 115.182  22
  -5  -7  -5 647.068 105.945  20
  -5  -7  -6 14934.0 583.237   7
  -5  -7  -6 14049.5 561.368  22
  -5  -7  -6 13388.8 527.043  20
  -5  -7  -7 23892.7 765.208   7
  -5  -7  -7 24290.1 731.617  22
  -5  -7  -7 22397.5 731.497  20
  -5  -7  -8 1808.25 187.974  24
  -5  -7  -8 1746.51 150.632  22
  -5  -7  -8 2003.30 188.190  20
  -5  -7  -9 139.515 53.8703  24
  -5  -7  -9 63.9657 30.4837  23
  -5  -7  -9 104.542 59.3456  20
  -5  -7 -10 43.7140 26.7205  24
  -5  -7 -10 37.3341 20.3276  23
  -5  -7 -10 28.8413 35.5101  20
   5   8  -7 110.818 31.3336  29
   5   8  -7 51.8350 17.6059  28
   5   8  -6 54.3742 34.6811  13
   5   8  -6 93.3089 29.9257  28
   5   8  -5 6756.58 340.583  13
   5   8  -5 6885.74 292.653  28
  -5  -8   5 6345.62 283.973  21
   5   8  -4 2205.00 203.974  13
  -5  -8   4 2254.39 192.701  21
   5   8  -3 498.561 101.674  13
   5   8  -2 36908.9 1042.03  13
   5   8  -1 20382.2 631.592   6
   5   8  -1 19320.2 685.690  13
  -5  -8   1 19910.6 709.610  25
  -5  -8   1 19930.3 636.228  22
   5   8   0 3799.63 261.799   6
   5   8   0 3453.12 251.324  13
  -5  -8   0 3302.75 268.131  25
  -5  -8   0 3142.74 244.941  22
   5   8   1 2346.48 211.979   6
  -5  -8  -1 1994.74 204.675  25
  -5  -8  -1 2197.05 211.142  22
  -5  -8  -2-42.1250 52.7166  25
  -5  -8  -2 9.33897 39.0784  22
  -5  -8  -3 358.963 90.4992   7
  -5  -8  -3 433.884 102.102  25
  -5  -8  -3 424.613 101.720  22
  -5  -8  -3 376.264 85.5355  21
  -5  -8  -4 1831.95 189.845   7
  -5  -8  -4 1856.95 203.574  22
  -5  -8  -5 4734.57 305.432   7
  -5  -8  -5 4998.55 324.304  22
  -5  -8  -6 1031.21 138.074   7
  -5  -8  -6 1090.58 146.133  22
  -5  -8  -6 1035.28 131.296  20
  -5  -8  -7 2020.38 173.667  22
  -5  -8  -7 1858.98 170.369  20
  -5  -8  -8 94.1418 50.4499  24
  -5  -8  -8 59.2713 46.3552  20
  -5  -8  -9 44.8436 28.7101  24
  -5  -8  -9 43.1205 38.3905  20
  -5  -8 -10 122.315 31.7471  24
   5   9  -5 480.981 79.0566  13
  -5  -9   5 396.957 58.1943  21
   5   9  -4 13824.2 499.655  13
  -5  -9   4 12984.6 460.162  21
   5   9  -3 79.4149 43.6953  13
  -5  -9   3 49.1273 39.8087  21
   5   9  -2 2370.90 207.668  13
   5   9  -1 79.7432 47.1153   6
   5   9  -1 38.8912 32.0586  13
  -5  -9   1 39.3783 42.3189  25
  -5  -9   1 54.3028 33.2089  22
   5   9   0 977.810 131.880   6
   5   9   0 831.064 115.484  13
  -5  -9   0 854.369 134.505  25
  -5  -9   0 854.653 124.380  22
  -5  -9  -1 3998.65 254.017   7
   5   9   1 4696.04 298.554   6
  -5  -9  -1 4051.72 288.525  25
  -5  -9  -1 4026.57 284.128  22
  -5  -9  -2 3325.57 233.070   7
   5   9   2 3538.00 263.337   6
  -5  -9  -2 3091.16 245.572  25
  -5  -9  -2 2912.45 247.222  22
  -5  -9  -3 725.386 109.415   7
   5   9   3 740.061 123.952   6
  -5  -9  -3 836.950 127.603  25
  -5  -9  -3 750.550 128.832  22
  -5  -9  -3 805.409 121.375  21
  -5  -9  -4 14745.4 539.398   7
  -5  -9  -4 15225.3 591.227  22
  -5  -9  -5 6777.87 342.910   7
  -5  -9  -5 7106.67 370.494  22
  -5  -9  -6 255.335 66.9554  22
   5   9   7 60.9315 40.9895   6
  -5  -9  -7 77.5020 34.3479  22
  -5  -9  -7 101.302 46.3909  20
  -5  -9  -8 37.3890 31.0174  24
  -5  -9  -8-0.16121 26.4574  20
  -5  -9  -9 1100.73 94.4048  24
   5  10  -5 493.001 62.5730  13
   5  10  -4 26.1946 25.4183  13
  -5 -10   4 67.0534 31.1257  21
   5  10  -3 38.8705 31.2590  13
  -5 -10   3 16.5107 29.3668  21
   5  10  -2 3392.06 216.698  13
   5  10  -1 452.498 77.7892  13
  -5 -10   1 348.823 76.2447  25
  -5 -10   1 341.973 65.3197  22
   5  10   0 418.281 81.7930   6
  -5 -10   0 532.013 98.3627  25
  -5 -10   0 358.328 75.6981  22
   5  10   1 897.829 121.573   6
  -5 -10  -1 791.964 119.030  25
  -5 -10  -1 784.596 114.888  22
   5  10   2 490.334 96.4550   6
  -5 -10  -2 357.286 79.8286  25
  -5 -10  -2 387.492 85.2356  22
  -5 -10  -2 316.128 78.0812  21
  -5 -10  -3 16.4483 30.8573   7
   5  10   3-55.4304 39.6527   6
  -5 -10  -3 24.1727 31.8547  22
  -5 -10  -3 43.9881 33.3843  21
  -5 -10  -4 497.897 76.6823   7
   5  10   4 475.629 88.0837   6
  -5 -10  -4 367.170 85.0511  22
   5  10   5 7024.89 330.942   6
  -5 -10  -5 7661.74 344.754  22
   5  10   6 2783.75 183.057   6
  -5 -10  -6 2969.64 185.713  22
  -5 -10  -7 276.292 59.0597  24
  -5 -10  -7 289.782 47.5912  22
  -5 -10  -8 204.177 40.4917  24
   5  11  -3 456.336 56.4642  13
  -5 -11   3 472.600 63.4046  21
   5  11  -2 1685.74 115.406  13
  -5 -11   2 1894.57 144.269  21
  -5 -11   1 337.150 68.6187  21
  -5 -11   0 85.7896 33.6096  22
  -5 -11   0 109.417 42.2353  21
   5  11   1 175.997 53.2164   6
  -5 -11  -1 134.465 40.9329  22
  -5 -11  -1 181.503 49.0879  21
   5  11   2 1890.21 154.377   6
  -5 -11  -2 1799.81 151.398  22
  -5 -11  -2 1651.07 133.670  21
   5  11   3 117.645 46.1968   6
  -5 -11  -3 162.338 52.2920  22
   5  11   4 221.786 51.4451   6
  -5 -11  -4 253.682 58.0325  22
  -5 -11  -5 676.558 81.2987  22
  -5 -11  -6 77.2665 26.0332  22
  -5 -12   1 1166.15 84.3110  21
  -5 -12   0 22.8235 17.7408  21
  -5 -12  -1 1005.72 76.7835  22
  -5 -12  -1 628.980 61.0848  21
  -5 -12  -2 397.374 53.0810  22
  -5 -12  -3 2679.13 138.717  22
  -5 -12  -4 15.3438 11.4610  22
   6  -6  -2 46.3180 18.4146  29
   6  -6  -1 5463.81 210.560  29
   6  -6   0 8354.79 286.562  29
   6  -6   1 1464.64 110.412  29
  -6   6  -1 693.837 75.2833   9
   6  -6   2 6.33199 21.3014  29
  -6   6  -2-39.9560 24.0691   9
   6  -6   3 214.307 37.6058  29
  -6   6  -3 108.484 32.0269   9
   6  -6   4 1065.72 95.1365  14
   6  -6   5 1043.46 86.7689  14
   6  -5  -4 2203.66 113.099  12
   6  -5  -3 264.280 44.8954  29
   6  -5  -2-31.1405 24.9646  29
   6  -5  -1 810.765 95.2172  29
   6  -5   0 49.2614 28.0060  29
   6  -5   0 21.4547 20.5767  12
   6  -5   1 4296.10 231.681  29
   6  -5   2 1032.50 108.377  29
   6  -5   3 1434.66 120.816  29
  -6   5  -3 1143.11 128.978   9
   6  -5   4 1840.38 122.540  29
  -6   5  -4 1548.77 141.447   9
  -6   5  -5 1714.81 139.168   9
   6  -5   6-11.1126 24.8992  14
  -6   5  -6 59.9073 28.9444   9
   6  -5   7 315.413 41.7014  14
   6  -4  -5 628.381 60.9285  18
   6  -4  -4 1404.24 107.814  18
   6  -4  -4 1466.66 105.470  29
   6  -4  -3 5235.37 235.632  18
   6  -4  -3 5921.60 257.831  29
   6  -4  -2 2865.75 174.636  18
   6  -4  -2 3227.54 202.233  29
   6  -4  -1 2974.37 175.125  18
   6  -4  -1 3245.98 214.086  29
   6  -4   0 2330.29 186.443  29
   6  -4   1 160.704 54.4640  29
   6  -4   2 69.3464 34.2247  29
   6  -4   3 131.828 45.4603  29
   6  -4   4 465.548 70.9518  29
  -6   4  -4 373.572 93.7758   9
  -6   4  -5 2590.72 209.031   9
  -6   4  -6 1269.44 135.162   9
  -6   4  -7 342.496 66.0111   9
  -6   4  -8 2198.59 136.680   9
   6  -3  -6 162.300 33.8320  18
   6  -3  -5 336.414 56.9068  18
   6  -3  -5 410.127 53.6914  29
   6  -3  -4 1700.39 136.431  18
   6  -3  -4 1950.79 141.860  29
   6  -3  -3 1279.91 124.831  18
   6  -3  -3 1466.92 137.208  29
   6  -3  -2-22.1276 30.4529  18
   6  -3  -2 28.7034 28.2095  29
   6  -3  -1 4203.21 230.282  18
   6  -3  -1 4481.65 268.393  29
   6  -3   0 11949.1 468.818  29
  -6   3  -1 3856.58 278.436  16
   6  -3   1 4052.51 256.666  29
  -6   3  -2 20586.7 732.354  16
   6  -3   2 22140.8 662.430  29
  -6   3  -3 1506.88 182.114  16
   6  -3   3 1833.61 158.918  29
  -6   3  -4 377.253 100.643  16
  -6   3  -5 430.082 100.987  16
  -6   3  -5 408.580 104.569   9
  -6   3  -6 726.172 123.846  16
  -6   3  -6 1022.18 140.185   9
  -6   3  -7 106.505 50.0806   9
  -6   3  -8 1357.24 132.279   9
  -6   3  -9 26.4346 24.7926   9
   6  -2  -6 50.7209 25.7314  18
   6  -2  -6 6.27874 12.7142  29
   6  -2  -5 4833.69 237.325  18
   6  -2  -5 5181.02 227.667  29
   6  -2  -4 1394.06 133.459  18
   6  -2  -4 1393.71 131.608  29
   6  -2  -3 554.467 91.7075  18
   6  -2  -3 547.640 92.3178  29
   6  -2  -2 3783.22 233.266  18
   6  -2  -2 3875.15 251.236  29
   6  -2  -1 21520.7 621.252  18
   6  -2  -1 21116.6 669.258  29
  -6   2   0 2012.51 192.657  16
   6  -2   0 2244.09 193.809  29
  -6   2  -1 4284.05 296.904  16
   6  -2   1 4610.99 276.462  29
  -6   2  -2 5139.10 337.765  16
   6  -2   2 5320.19 293.058  29
  -6   2  -3 1459.66 181.354  16
   6  -2   3 1520.62 144.562  29
  -6   2  -4 1339.56 176.053  16
  -6   2  -5 1318.13 173.788  16
  -6   2  -5 1256.95 180.158   9
  -6   2  -6 1875.83 198.859  16
  -6   2  -6 2128.46 214.674   9
  -6   2  -7 113.943 51.3684  16
  -6   2  -7 130.824 62.0916   9
  -6   2  -8 7497.22 329.323  16
  -6   2  -8 8058.24 372.843   9
  -6   2  -9 59.6442 36.3360   9
  -6   2 -10 3341.93 172.833  26
   6  -1  -7 346.788 47.8495  18
   6  -1  -6 3491.30 189.220  18
   6  -1  -6 3453.57 163.927  29
   6  -1  -5 1136.24 102.055   8
   6  -1  -5 1377.35 123.389  29
   6  -1  -4 2208.59 176.169  29
   6  -1  -3 12.5424 29.2867  29
   6  -1  -2 3435.57 242.508  29
   6  -1  -1 21739.9 692.591  29
  -6   1   0 36653.8 983.443  16
   6  -1   0 36114.0 961.140  29
  -6   1  -1 3997.34 285.504  16
   6  -1   1 3807.39 251.025  29
  -6   1  -2 16253.0 626.812  16
   6  -1   2 15521.4 535.777  29
  -6   1  -3 420.249 112.347  16
   6  -1   3 368.297 71.7119  29
  -6   1  -4 8018.75 437.644  16
  -6   1  -5 786.559 134.931  16
  -6   1  -5 887.974 150.959   9
  -6   1  -6 5648.72 355.694  16
  -6   1  -6 5728.45 365.134   9
  -6   1  -7 3634.60 263.429  16
  -6   1  -7 3787.33 280.693   9
  -6   1  -8 206.211 57.7431  16
  -6   1  -8 287.752 77.0918   9
  -6   1  -9 1615.30 153.577   9
  -6   1 -10 253.174 52.2114  26
   6   0  -7 2166.31 121.866   8
   6   0  -7 2000.13 97.2316  29
   6   0  -6 3981.41 205.895   8
   6   0  -6 4651.05 210.694  29
   6   0  -5 11632.5 417.506  29
   6   0  -4 2761.32 207.971  29
   6   0  -3 269.848 69.6712  29
   6   0  -2 5409.11 314.471  29
   6   0  -1 3036.56 231.918  29
  -6   0   0 10107.6 437.462  16
   6   0   0 9332.07 419.265  29
  -6   0  -1 157.846 60.5847  16
   6   0   1 59.0436 33.2064  29
  -6   0  -2 3805.26 279.671  16
   6   0   2 3369.57 222.703  29
  -6   0  -2 3555.13 242.651  27
  -6   0  -3 52080.2 1336.51  16
  -6   0  -3 52560.2 1231.16  27
  -6   0  -4 22826.5 783.082  16
  -6   0  -4 22449.6 689.741  27
  -6   0  -5 464.193 98.1822  16
  -6   0  -5 387.109 79.6745  27
  -6   0  -5 388.739 106.965   9
  -6   0  -6 243.496 76.4190  16
  -6   0  -6 310.869 86.6271   9
  -6   0  -7 415.865 94.9182  16
  -6   0  -7 410.142 94.9872   9
  -6   0  -8 6136.14 317.662  16
  -6   0  -8 6421.41 355.558   9
  -6   0  -9 3055.77 189.113  23
  -6   0  -9 3483.05 236.929   9
  -6   0 -10 655.269 87.2284  26
  -6   0 -10 421.469 56.1133  23
  -6   0 -11 4149.10 176.150  26
   6   1  -7 1109.21 97.6816   8
   6   1  -7 1180.57 83.6729  29
   6   1  -6 2706.64 167.953  29
   6   1  -5 33778.9 855.970  29
   6   1  -4 1717.43 166.582  29
   6   1  -3 6830.50 355.756  29
   6   1  -2 3381.14 248.921  29
   6   1  -1 935.219 131.840  29
  -6  -1   0 10632.3 442.370  16
   6   1   0 9564.63 423.845  29
  -6  -1  -1 5503.28 323.810  16
   6   1   1 5208.93 291.289  29
  -6  -1  -2 3192.97 252.670  16
   6   1   2 2948.02 202.687  29
  -6  -1  -3 13326.3 557.701  16
  -6  -1  -3 12745.0 516.551  27
  -6  -1  -4 345.515 78.8137  16
  -6  -1  -4 418.731 89.4969  27
  -6  -1  -5 11473.5 521.483  16
  -6  -1  -5 11598.1 485.098  27
  -6  -1  -5 11431.1 529.774   9
  -6  -1  -6 304.847 81.5305  16
  -6  -1  -6 266.159 79.8788   9
  -6  -1  -7-33.0507 62.2686  16
  -6  -1  -7 51.9231 46.5461   9
  -6  -1  -8 150.279 56.3807  16
  -6  -1  -8 138.520 63.0334   9
  -6  -1  -9 1249.16 133.944  23
  -6  -1  -9 1319.84 144.487   9
  -6  -1 -10 1655.03 137.394  26
  -6  -1 -10 1622.22 131.042  23
  -6  -1 -11 74.4215 24.4586  26
  -6  -1 -11 89.8790 23.6604  23
   6   2  -8 82.5879 21.1401   8
   6   2  -7 3758.99 194.359   8
   6   2  -7 4042.58 172.313  29
   6   2  -6 6025.39 269.785  29
   6   2  -5 1772.87 160.127  29
   6   2  -4 2157.98 190.165  29
   6   2  -3 40.5493 44.4099  29
   6   2  -2 5195.18 314.108  29
   6   2  -1 151.820 59.4242  29
  -6  -2   0 10848.3 443.144  16
   6   2   0 9559.20 425.379  29
  -6  -2  -1 26505.8 792.066  16
   6   2   1 24244.7 720.494  29
  -6  -2  -2 906.738 131.422  16
  -6  -2  -3 3250.46 260.530  16
  -6  -2  -3 3109.97 249.368  27
  -6  -2  -4 19538.6 707.491  16
  -6  -2  -4 20101.2 690.286  27
  -6  -2  -4 19359.2 685.711   9
  -6  -2  -5 896.654 140.383  16
  -6  -2  -5 997.649 140.337  27
  -6  -2  -5 913.713 130.190  24
  -6  -2  -5 1028.87 143.420   9
  -6  -2  -6 1641.73 181.093  16
  -6  -2  -6 1521.57 175.104  27
  -6  -2  -6 1533.12 173.791  24
  -6  -2  -6 1313.19 162.557   9
  -6  -2  -7 4180.04 285.457  16
  -6  -2  -7 4536.39 293.509   9
  -6  -2  -8 18926.9 616.931  16
  -6  -2  -8 19094.5 638.066   9
  -6  -2  -9 15576.6 514.457  26
  -6  -2  -9 15222.8 525.315   9
  -6  -2 -10 50.4554 34.7894  26
  -6  -2 -10 13.7660 27.2242  23
  -6  -2 -11 8.11141 15.3670  26
  -6  -2 -11 11.4673 18.3185  23
   6   3  -8 791.783 65.3403   8
   6   3  -7-10.0307 21.6437  29
   6   3  -6 1879.03 147.032  29
   6   3  -5 207.751 57.7223  29
   6   3  -4 1268.03 148.034  29
   6   3  -3 6420.40 348.856  29
   6   3  -2 3250.75 244.383  29
   6   3  -1 2372.72 206.770  29
  -6  -3   1 2591.18 234.976  21
  -6  -3   0 9723.32 414.997  16
   6   3   0 8648.35 398.720  29
  -6  -3   0 8899.54 455.388  21
  -6  -3  -1 786.017 118.597  16
   6   3   1 744.353 105.815  29
  -6  -3  -1 849.573 138.888  21
  -6  -3  -2 25319.1 801.421  16
  -6  -3  -3 407.790 89.6086  16
  -6  -3  -4 227.308 77.2647  16
  -6  -3  -4 296.433 79.4811  27
  -6  -3  -4 379.577 81.5620  24
  -6  -3  -5 5025.75 301.072   7
  -6  -3  -5 5177.30 337.456  16
  -6  -3  -5 5350.91 333.248  27
  -6  -3  -5 5075.52 313.933  24
  -6  -3  -6 7916.13 418.732  16
  -6  -3  -6 7695.81 368.869   7
  -6  -3  -6 8259.67 420.732  27
  -6  -3  -6 7916.89 412.352  24
  -6  -3  -6 8467.96 390.481   9
  -6  -3  -7 3898.52 274.134  16
  -6  -3  -7 3512.37 232.828   7
  -6  -3  -7 3996.37 288.661  24
  -6  -3  -7 3886.80 255.444   9
  -6  -3  -8 12542.6 479.595  16
  -6  -3  -8 12540.5 526.145  24
  -6  -3  -8 13039.4 477.205   9
  -6  -3  -9 4652.65 241.639  26
  -6  -3 -10 7072.09 276.374  26
  -6  -3 -10 7736.75 329.347  23
  -6  -3 -11 890.404 86.5599  23
   6   4  -7 69.2299 26.9573  29
   6   4  -6 162.020 50.7522  29
   6   4  -5 2185.84 180.652  29
   6   4  -4 292.976 77.8444  29
   6   4  -4 382.811 77.4690  28
   6   4  -3 1219.00 147.539  29
  -6  -4   3 1240.49 147.697  21
   6   4  -2 2030.13 194.734  29
  -6  -4   2 2024.71 201.359  21
   6   4  -1 134.589 54.0721  29
  -6  -4   1 70.6486 56.7260  21
  -6  -4   0 1885.90 173.760  16
   6   4   0 1808.01 173.057  29
  -6  -4   0 2165.13 218.909  21
   6   4   1 10648.9 423.120  29
  -6  -4  -1 10691.5 507.819  21
  -6  -4  -2 10508.2 493.334  21
  -6  -4  -3 28747.4 878.263  27
  -6  -4  -3 27010.6 852.384  21
  -6  -4  -4 940.817 137.683  27
  -6  -4  -4 900.615 124.219  24
  -6  -4  -5 922.547 128.983   7
  -6  -4  -5 1017.35 144.131  27
  -6  -4  -5 980.453 138.330  24
  -6  -4  -6 26119.4 795.226   7
  -6  -4  -6 26809.8 846.262  16
  -6  -4  -6 27262.5 843.332  27
  -6  -4  -6 26358.6 832.171  24
  -6  -4  -7 2640.27 222.530  16
  -6  -4  -7 2403.74 201.064   7
  -6  -4  -7 2658.86 232.685  24
  -6  -4  -8 221.304 59.0748  16
  -6  -4  -8 204.796 67.2278  24
  -6  -4  -9 98.7461 38.1243  24
  -6  -4 -10 930.285 106.942  23
  -6  -4 -11 235.078 44.5778  23
   6   5  -7-9.53487 15.5294  29
   6   5  -6 8605.33 325.309  29
   6   5  -5 15087.9 503.266  29
   6   5  -5 13861.5 459.879  28
   6   5  -4 2017.39 182.186  29
  -6  -5   3 6187.00 340.710  21
  -6  -5   2 4711.98 313.752  21
  -6  -5   1 9581.04 473.746  21
   6   5   0 46.8502 35.9947  29
  -6  -5   0 134.473 65.4122  21
  -6  -5  -1 2109.31 198.065  22
  -6  -5  -1 2070.91 214.878  21
  -6  -5  -2 12868.0 535.506  22
  -6  -5  -2 12622.1 553.051  21
  -6  -5  -3 18762.3 670.912  27
  -6  -5  -3 17904.1 666.248  22
  -6  -5  -3 17626.5 657.398  21
  -6  -5  -4 12822.0 534.887  27
  -6  -5  -4 11603.1 486.078  24
  -6  -5  -4 12095.7 534.239  22
  -6  -5  -4 12337.8 503.432  21
  -6  -5  -5 12576.6 527.429   7
  -6  -5  -5 12666.7 532.686  27
  -6  -5  -5 12072.4 515.813  24
  -6  -5  -5 12765.6 546.102  22
  -6  -5  -6 18105.3 644.429   7
  -6  -5  -6 18737.1 660.112  27
  -6  -5  -6 17764.2 658.763  24
  -6  -5  -7 146.515 62.0282  16
  -6  -5  -7 79.9323 36.6223   7
  -6  -5  -7 195.981 73.4863  24
  -6  -5  -8 12500.6 457.378  16
  -6  -5  -8 12418.7 504.472  24
  -6  -5  -9 3305.27 226.944  24
  -6  -5 -10 3151.47 185.980  23
  -6  -5 -11 3049.72 139.122  23
   6   6  -7 204.882 32.5745  29
   6   6  -6 7010.96 273.296  29
   6   6  -5 2273.68 170.263  29
   6   6  -5 2090.43 143.394  28
  -6  -6   4 69.9091 34.9205  21
  -6  -6   3 6410.44 343.248  21
  -6  -6   2 2915.17 244.040  21
  -6  -6   1 2238.20 220.195  21
  -6  -6   0 853.717 118.222  22
  -6  -6   0 724.897 128.665  21
  -6  -6  -1-20.9650 41.3608  22
  -6  -6  -1-27.8682 38.1210  21
  -6  -6  -2 9951.16 466.794  22
  -6  -6  -2 10106.1 488.242  21
  -6  -6  -3 28.9983 38.1866  27
  -6  -6  -3 32.9208 41.3421  22
  -6  -6  -3 45.3625 45.7178  21
  -6  -6  -4 7658.53 408.333   7
  -6  -6  -4 7369.29 384.507  27
  -6  -6  -4 6940.72 365.032  24
  -6  -6  -4 7136.78 402.171  22
  -6  -6  -4 7706.21 378.648  21
  -6  -6  -5 4838.70 314.177   7
  -6  -6  -5 4954.78 307.824  27
  -6  -6  -5 4632.38 302.609  24
  -6  -6  -5 4924.91 322.309  22
  -6  -6  -6 11575.5 491.781   7
  -6  -6  -6 10625.8 485.549  24
  -6  -6  -6 11719.5 496.728  22
  -6  -6  -7 1393.77 155.818   7
  -6  -6  -7 1377.63 161.491  24
  -6  -6  -8 7775.07 329.615  16
  -6  -6  -8 7405.25 365.916  24
  -6  -6  -9 4552.18 252.192  24
  -6  -6  -9 4265.03 229.764  23
  -6  -6 -10 364.529 54.2960  23
   6   7  -6 260.596 44.8839  29
   6   7  -5 226.497 52.5047  29
  -6  -7   4 30.1743 22.9950  21
  -6  -7   3 1795.05 168.963  21
  -6  -7   2 444.511 93.4467  21
  -6  -7   1 13105.4 554.327  21
  -6  -7   0 23111.6 687.274  22
  -6  -7   0 21220.7 756.726  21
  -6  -7  -1 2592.15 217.400  22
  -6  -7  -1 2527.31 236.850  21
  -6  -7  -2 2176.61 196.183  27
  -6  -7  -2 2206.21 209.155  22
  -6  -7  -2 2235.84 218.831  21
  -6  -7  -3 10105.7 437.073  27
  -6  -7  -3 9583.52 463.144  22
  -6  -7  -3 9795.65 454.827  21
  -6  -7  -4 520.915 106.921   7
  -6  -7  -4 636.935 107.066  27
  -6  -7  -4 510.803 95.4802  24
  -6  -7  -4 592.975 115.722  22
  -6  -7  -4 559.106 94.8860  21
  -6  -7  -5 1733.33 180.681   7
  -6  -7  -5 1878.56 176.044  27
  -6  -7  -5 1707.14 177.113  24
  -6  -7  -5 1908.05 194.808  22
  -6  -7  -6 320.746 78.7018   7
  -6  -7  -6 352.647 81.6893  24
  -6  -7  -6 357.428 81.9696  22
  -6  -7  -7 3598.39 240.063   7
  -6  -7  -7 3326.89 238.822  24
  -6  -7  -8 34668.7 813.629  16
  -6  -7  -8 35693.6 897.574  24
  -6  -7  -9 9984.48 352.910  24
  -6  -7  -9 8415.67 287.044  23
   6   8  -5 1373.40 106.955  29
  -6  -8   4 118.191 35.7112  21
  -6  -8   3 2990.51 205.895  21
  -6  -8   2-29.4000 31.5059  21
  -6  -8   1 17608.8 633.874  21
  -6  -8   0 5273.93 276.639  22
  -6  -8   0 4832.86 316.329  21
   6   8   1 179.627 59.5751   6
  -6  -8  -1 10.5098 27.4476  27
  -6  -8  -1 89.5191 48.1485  22
  -6  -8  -1 74.2787 49.6030  21
  -6  -8  -2 447.777 79.9232  27
  -6  -8  -2 467.781 95.2201  22
  -6  -8  -2 519.500 98.8835  21
  -6  -8  -3 15.5940 31.5380   7
  -6  -8  -3 37.4221 32.4062  27
  -6  -8  -3-4.48895 38.7860  22
  -6  -8  -3 13.7359 28.2567  21
  -6  -8  -4 1121.95 146.626   7
  -6  -8  -4 945.335 115.151  27
  -6  -8  -4 1217.10 150.771  22
  -6  -8  -4 1138.24 125.608  21
  -6  -8  -5 1863.94 176.386   7
  -6  -8  -5 1598.05 160.561  24
  -6  -8  -5 1790.98 177.390  22
  -6  -8  -6 1162.75 133.801   7
  -6  -8  -6 1049.32 128.986  24
  -6  -8  -6 1326.70 140.713  22
  -6  -8  -7 2700.74 196.049  24
  -6  -8  -8 7924.80 268.792  16
  -6  -8  -8 8666.16 331.957  24
  -6  -8  -9 86.1049 30.3173  24
   6   9  -4 536.379 64.5866  29
  -6  -9   4 394.819 50.0683  21
  -6  -9   3 1925.00 144.397  21
  -6  -9   2 640.462 95.5229  21
  -6  -9   1 366.804 80.7429  21
  -6  -9   0 50.9746 37.8995   7
  -6  -9   0-14.7624 23.6323  22
  -6  -9   0 7.38055 30.5332  21
  -6  -9  -1 6113.38 302.798   7
   6   9   1 7436.54 320.017   6
  -6  -9  -1 6711.68 319.580  22
  -6  -9  -1 6889.71 352.929  21
  -6  -9  -2 579.569 90.5106   7
   6   9   2 783.085 108.793   6
  -6  -9  -2 661.619 104.083  22
  -6  -9  -2 605.357 100.208  21
  -6  -9  -3 839.354 109.277   7
   6   9   3 835.294 114.240   6
  -6  -9  -3 957.527 125.732  22
  -6  -9  -3 847.509 106.772  21
  -6  -9  -4 1812.14 159.601   7
   6   9   4 1912.26 169.946   6
  -6  -9  -4 1830.45 168.359  22
  -6  -9  -5 1183.71 124.443   7
   6   9   5 1032.66 121.279   6
  -6  -9  -5 928.568 112.729  24
  -6  -9  -5 1085.65 123.103  22
   6   9   6 3034.97 190.998   6
  -6  -9  -6 2806.32 187.525  24
  -6  -9  -6 3094.33 192.490  22
  -6  -9  -7 367.837 64.3205  24
  -6  -9  -8 1124.71 91.2817  24
  -6 -10   3 365.327 48.8061  21
   6  10  -2 2226.44 116.095  29
  -6 -10   2 2738.36 164.170  21
  -6 -10   1 1319.44 125.166  21
  -6 -10   0 51.8173 22.3368  22
  -6 -10   0 116.334 41.1117  21
  -6 -10  -1 830.799 92.2153  22
  -6 -10  -1 754.650 98.1249  21
   6  10   2 723.552 92.1683   6
  -6 -10  -2 492.113 77.7460  22
  -6 -10  -2 596.845 81.8511  21
   6  10   3 185.476 51.7120   6
  -6 -10  -3 160.868 45.3000  22
  -6 -10  -3 168.407 38.0696  21
   6  10   4 376.416 67.9440   6
  -6 -10  -4 230.922 46.4735  24
  -6 -10  -4 342.542 64.2662  22
  -6 -10  -5 282.342 51.7715  24
  -6 -10  -5 266.258 53.2948  22
  -6 -10  -6 47.0628 24.1590  24
  -6 -11   1 579.418 60.1017  21
  -6 -11   0 113.693 30.7492  21
  -6 -11  -1 1031.30 85.9755  21
  -6 -11  -2 284.204 45.4984  22
  -6 -11  -3 2955.83 151.704  22
  -6 -11  -4 92.7840 28.2587  22
   7  -4  -1 6.46720 15.1829  29
   7  -4   0 51.8566 24.3988  29
   7  -4   1 233.586 40.4744  29
  -7   4  -1 80.7939 31.6721   9
   7  -4   2 6116.57 207.669  29
  -7   4  -2 5437.15 245.093   9
  -7   4  -3 14.9975 22.5410   9
  -7   4  -4 1005.38 93.6755   9
  -7   4  -5 4868.25 194.864   9
   7  -3  -3 23.4414 15.4453  29
   7  -3  -2 3568.50 167.079  29
   7  -3  -1 112.921 36.4416  29
   7  -3   0 60.9899 30.8075  29
   7  -3   1 417.190 64.1862  29
   7  -3   2 4743.90 210.883  29
   7  -3   3 1515.33 102.644  29
  -7   3  -3 1563.35 150.695   9
  -7   3  -4 385.343 75.3113   9
  -7   3  -5 1677.10 140.973   9
  -7   3  -6 576.563 75.5592   9
  -7   3  -7 631.590 67.0503   9
   7  -2  -4 14.3981 14.0796  29
   7  -2  -3 476.135 59.9191  29
   7  -2  -2 90.0500 32.8461  29
   7  -2  -1 4652.95 232.265  29
   7  -2   0 2668.47 175.749  29
   7  -2   1 1433.41 128.316  29
  -7   2  -2 951.069 124.863  16
   7  -2   2 1097.38 108.930  29
  -7   2  -3 7519.58 364.521  16
   7  -2   3 7158.49 266.026  29
  -7   2  -4 1549.01 161.702  16
  -7   2  -4 1550.27 164.359   9
  -7   2  -5 465.175 89.7874  16
  -7   2  -5 370.041 80.6026   9
  -7   2  -6 52.8231 35.9894  16
  -7   2  -6 16.9715 33.9295   9
  -7   2  -7 3854.96 205.864   9
  -7   2  -8 824.979 78.5987   9
   7  -1  -4 613.186 59.5975  18
   7  -1  -4 766.332 72.8835  29
   7  -1  -3 360.102 51.9128  18
   7  -1  -3 421.513 62.5899  29
   7  -1  -2 1130.83 113.288  29
   7  -1  -1 2537.42 178.623  29
   7  -1   0 186.735 49.3557  29
  -7   1  -1 269.629 63.9351  16
   7  -1   1 264.844 62.3044  29
  -7   1  -2 539.494 98.3265  16
   7  -1   2 516.659 80.6739  29
  -7   1  -3 63.8271 38.9462  16
  -7   1  -4 1856.78 186.023  16
  -7   1  -4 1856.73 186.886   9
  -7   1  -5 2855.13 225.095  16
  -7   1  -5 2771.09 218.895   9
  -7   1  -6 581.265 98.2777  16
  -7   1  -6 548.044 96.5689   9
  -7   1  -7 2091.13 162.240  16
  -7   1  -7 2000.52 161.991   9
  -7   1  -8 156.512 43.7819   9
   7   0  -5 2096.86 108.394  18
   7   0  -5 2311.87 114.390  29
   7   0  -4 1015.79 87.4312  18
   7   0  -4 1225.28 102.503  29
   7   0  -3 11291.1 363.141  18
   7   0  -3 13604.4 422.667  29
   7   0  -2 1232.89 104.449  18
   7   0  -2 1330.13 128.586  29
   7   0  -1 331.341 68.9049  29
   7   0   0 10854.3 411.288  29
  -7   0  -1 977.530 126.015  16
   7   0   1 870.961 107.165  29
  -7   0  -2 138.809 55.3257  16
   7   0   2 111.520 43.7867  29
  -7   0  -3 2531.97 219.303  16
  -7   0  -4 30164.9 871.287  16
  -7   0  -4 27270.8 839.234   9
  -7   0  -5 21234.4 698.533  16
  -7   0  -5 20349.5 678.687   9
  -7   0  -6 3479.42 242.283  16
  -7   0  -6 3112.78 227.372   9
  -7   0  -7 2135.24 174.038  16
  -7   0  -7 1860.21 162.062   9
  -7   0  -8 3585.12 191.626  16
  -7   0  -8 3421.33 200.039   9
   7   1  -5 91.1820 25.7981   8
   7   1  -5 147.541 34.5184  29
   7   1  -4 16702.2 472.466  29
   7   1  -3 610.131 86.6373  29
   7   1  -2 18.5382 29.6145  29
   7   1  -1-6.40836 31.5083  29
   7   1   0 596.345 90.6110  29
  -7  -1  -1 2553.61 203.519  16
   7   1   1 2318.71 174.774  29
  -7  -1  -1 2079.94 179.979  27
  -7  -1  -2 234.213 66.3416  16
   7   1   2 215.238 51.7298  29
  -7  -1  -2 218.608 57.5513  27
  -7  -1  -3 2615.17 225.197  16
  -7  -1  -3 2111.14 183.577  27
  -7  -1  -4 22478.3 734.405  16
  -7  -1  -4 21008.9 646.070  27
  -7  -1  -4 21000.1 694.755   9
  -7  -1  -5 11227.2 485.376  16
  -7  -1  -5 10518.6 453.836   9
  -7  -1  -6 553.590 100.539  16
  -7  -1  -6 410.466 80.1798   9
  -7  -1  -7 321.662 71.0113  16
  -7  -1  -7 291.792 71.6530   9
  -7  -1  -8 1533.80 127.656  16
  -7  -1  -8 1039.39 95.4383  26
  -7  -1  -8 1167.11 103.474  23
  -7  -1  -8 1346.51 124.895   9
   7   2  -5 1857.18 118.328  29
   7   2  -4 1214.82 111.667  29
   7   2  -3 1431.56 133.785  29
   7   2  -2 7764.28 344.320  29
   7   2  -1 33.6189 30.5929  29
   7   2   0 3664.31 230.359  29
  -7  -2  -1 2938.78 217.986  16
   7   2   1 2415.05 177.807  29
  -7  -2  -2 479.172 93.5407  16
  -7  -2  -2 560.335 105.487  27
  -7  -2  -3 129.167 59.3606  16
  -7  -2  -3 99.8182 57.1345  27
  -7  -2  -3 88.4427 45.3254   9
  -7  -2  -4 20.5486 36.2841  16
  -7  -2  -4 26.0015 44.3234  27
  -7  -2  -4 54.0101 30.7080   9
  -7  -2  -5 1848.33 187.640  16
  -7  -2  -5 1917.79 176.988  27
  -7  -2  -5 1848.79 174.655   9
  -7  -2  -6 2493.08 209.276  16
  -7  -2  -6 2441.59 190.298   9
  -7  -2  -7 73.1501 43.5279  16
  -7  -2  -7 33.7891 32.5923   9
  -7  -2  -8 262.868 53.3907  16
  -7  -2  -8 225.642 50.5414   9
  -7  -2  -9 4515.44 201.493  23
   7   3  -5 11.4889 16.8697  29
   7   3  -4 3154.69 184.884  29
   7   3  -3 2386.65 175.638  29
   7   3  -2 47.9910 34.0393  29
   7   3  -1 3016.58 210.378  29
   7   3   0 1064.05 121.478  29
  -7  -3  -1 605.565 97.1603  16
   7   3   1 534.071 83.5056  29
  -7  -3  -2 12128.2 492.539  16
  -7  -3  -2 11178.9 490.948  27
  -7  -3  -3 515.992 102.176  16
  -7  -3  -3 407.366 92.7870  27
  -7  -3  -4 150.379 58.0856  16
  -7  -3  -4 0.66657 24.9592   7
  -7  -3  -4 127.482 56.3905  27
  -7  -3  -5 3828.23 270.179  16
  -7  -3  -5 3614.99 255.813  27
  -7  -3  -6 10210.8 444.437  16
  -7  -3  -7 235.600 64.0403  16
  -7  -3  -8 140.137 43.8209  16
  -7  -3  -9 6022.00 251.946  23
   7   4  -5 76.4496 24.3346  29
   7   4  -4 139.804 39.8771  29
   7   4  -3 71.3590 38.7967  29
   7   4  -2 8174.14 350.981  29
   7   4  -1 4271.57 248.028  29
   7   4   0 712.613 96.8072  29
  -7  -4  -1 758.674 108.149  16
   7   4   1 671.378 91.5589  29
  -7  -4  -2 3144.55 235.638  16
  -7  -4  -2 3040.70 245.326  27
  -7  -4  -3 155.470 62.2285  16
  -7  -4  -3 111.251 53.1417  27
  -7  -4  -4 1286.24 142.626   7
  -7  -4  -4 1496.69 168.086  16
  -7  -4  -4 1586.56 174.966  27
  -7  -4  -5 483.365 95.9939  16
  -7  -4  -5 494.250 85.2082   7
  -7  -4  -5 637.434 108.845  27
  -7  -4  -6 1131.86 138.625  16
  -7  -4  -6 840.487 102.663   7
  -7  -4  -7 2058.79 171.481  16
  -7  -4  -8 9526.48 346.418  16
  -7  -4  -9 511.796 71.7431  23
   7   5  -5 39.3572 21.8365  29
   7   5  -4 9175.56 322.115  29
   7   5  -3-1.59362 27.2782  29
   7   5  -2 345.077 69.9631  29
   7   5  -1 2879.52 195.728  29
   7   5   0 10712.2 393.161  29
  -7  -5  -1 4436.91 262.255  16
  -7  -5  -2 626.105 103.914  16
  -7  -5  -2 477.846 99.2241  27
  -7  -5  -3 225.205 72.9732  16
  -7  -5  -3 191.470 73.0859  27
  -7  -5  -4 8195.17 389.076   7
  -7  -5  -4 9069.65 425.718  16
  -7  -5  -4 9163.07 423.460  27
  -7  -5  -5 5865.31 330.755  16
  -7  -5  -5 5569.25 301.698   7
  -7  -5  -5 6109.12 330.252  27
  -7  -5  -6 1916.58 174.939  16
  -7  -5  -6 1699.75 151.213   7
  -7  -5  -6 1655.00 145.148  24
  -7  -5  -7 6206.68 296.302  16
  -7  -5  -7 5338.14 251.043   7
  -7  -5  -8-6.35378 21.1801  16
  -7  -5  -9 71.2451 28.6642  23
   7   6  -5 6235.45 202.261  29
   7   6  -4 5466.66 222.371  29
   7   6  -3 229.510 51.5466  29
   7   6  -2 36.3717 25.6156  29
   7   6  -1 266.213 54.1957  29
   7   6   0 2932.90 178.181  29
  -7  -6   0 2968.96 231.010  21
  -7  -6  -1 4655.82 259.990  16
  -7  -6  -1 4207.72 274.260  27
  -7  -6  -1 4354.43 285.577  21
  -7  -6  -2-29.7590 32.4817  16
  -7  -6  -2-57.8321 59.6884  27
  -7  -6  -3 2176.11 193.425   7
  -7  -6  -3 2510.53 207.740  16
  -7  -6  -3 2415.26 202.929  27
  -7  -6  -4 12086.3 479.048   7
  -7  -6  -4 12922.1 506.668  16
  -7  -6  -4 13188.7 498.031  27
  -7  -6  -5 73.5020 50.3685  16
  -7  -6  -5-6.47380 29.1540   7
  -7  -6  -5 51.5066 41.5843  27
  -7  -6  -6 2849.17 207.221  16
  -7  -6  -6 2592.10 186.365   7
  -7  -6  -6 2466.55 169.368  24
  -7  -6  -7 143.310 45.6810  16
  -7  -6  -7 90.7410 37.1508  24
  -7  -6  -8 2067.23 127.386  16
  -7  -6  -9 1021.44 78.6475  23
   7   7  -4 202.837 35.0400  29
   7   7  -3 2083.69 130.632  29
   7   7  -2-11.5704 24.3546  29
   7   7  -1 2341.08 149.971  29
  -7  -7   1 2446.12 186.545  21
  -7  -7   0 12205.5 445.612  27
  -7  -7   0 14339.2 508.041  21
  -7  -7  -1 501.883 79.8836  16
  -7  -7  -1 335.010 70.4977  27
  -7  -7  -1 385.003 83.4475  21
  -7  -7  -2 751.688 105.192  16
  -7  -7  -2 614.772 95.3191  27
  -7  -7  -2 610.135 100.225  21
  -7  -7  -3 371.084 77.5034   7
  -7  -7  -3 483.982 79.9627  27
  -7  -7  -4 1826.78 165.947   7
  -7  -7  -4 1851.12 159.521  27
  -7  -7  -5 1538.92 150.678  16
  -7  -7  -5 1417.26 139.418   7
  -7  -7  -6 225.437 56.5278  16
  -7  -7  -6 226.119 56.5525   7
  -7  -7  -6 183.770 43.5812  24
  -7  -7  -7 548.200 73.7851  16
  -7  -7  -7 404.304 59.1085  24
  -7  -7  -8 2993.37 137.863  23
   7   8  -3 32.8651 15.7420  29
   7   8  -2 44.9286 20.1004  29
  -7  -8   2-2.26683 19.9896  27
   7   8  -1 9786.42 280.297  29
  -7  -8   1 7366.04 278.710  27
  -7  -8   0 764.906 85.5398  27
  -7  -8   0 1036.87 116.404  21
  -7  -8  -1 197.072 50.3622   7
  -7  -8  -1 231.088 50.6456  16
  -7  -8  -1 141.337 43.1355  27
  -7  -8  -1 191.562 54.8792  21
  -7  -8  -2 251.968 59.9216   7
  -7  -8  -2 176.451 41.4283  27
  -7  -8  -2 274.617 60.9386  21
  -7  -8  -3 106.279 41.3767   7
   7   8   3 152.008 43.9448   6
  -7  -8  -3 72.2922 33.5277  27
  -7  -8  -4 1563.09 139.946   7
   7   8   4 1687.88 133.113   6
  -7  -8  -5 6.05906 23.1389  16
  -7  -8  -5-9.70117 23.1409   7
  -7  -8  -6 1866.58 134.376  16
  -7  -8  -6 1087.68 85.3043  24
  -7  -8  -7 414.427 52.6093  16
  -7  -9   1 1082.16 94.1604  21
  -7  -9   0 4350.63 210.534  21
  -7  -9  -1 2755.40 135.933  16
  -7  -9  -1 3347.24 183.936  21
  -7  -9  -2 3888.28 189.129  16
  -7  -9  -4 670.506 80.7969  16
  -7  -9  -5 3115.00 164.536  16
  -7  -9  -6 2228.23 118.924  16
  -8   1  -1 437.300 57.9776   9
  -8   1  -2 38.7538 22.8706   9
  -8   1  -3 1571.35 112.583   9
  -8   1  -4 94.3427 30.3572   9
   8   0  -1 220.489 35.1479  29
   8   0   0 31.3770 20.1077  29
  -8   0   0-24.2061 17.9326   9
   8   0   1 468.967 47.7085  29
  -8   0  -1 327.990 52.8907   9
  -8   0  -2 1159.52 93.6971  16
  -8   0  -2 862.926 88.1891   9
  -8   0  -3 60.6712 28.5403  16
  -8   0  -3 19.6847 21.6313   9
  -8   0  -4 2630.27 162.869  16
  -8   0  -4 1844.63 126.670   9
  -8   0  -5 1766.82 127.494  16
  -8   0  -5 1168.66 92.6197   9
  -8   0  -6 525.541 62.2708  16
   8   1  -2 45.3155 20.3083  29
   8   1  -1 68.4594 24.7462  29
   8   1   0 143.530 32.1004  29
   8   1   1 873.192 69.3838  29
  -8  -1  -1 641.501 72.1253   9
  -8  -1  -2 446.438 64.5594  16
  -8  -1  -2 220.038 44.3042   9
  -8  -1  -3 446.861 70.2962  16
  -8  -1  -3 202.373 45.5433   9
  -8  -1  -4 951.614 104.512  16
  -8  -1  -4 552.377 67.8798   9
  -8  -1  -5 584.012 79.2702  16
  -8  -1  -5 342.913 50.4674   9
  -8  -1  -6 2296.66 143.680  16
   8   2  -2 299.110 40.9587  29
   8   2  -1 4279.78 169.440  29
  -8  -2   1 2629.28 137.335  27
   8   2   0 160.399 33.5018  29
  -8  -2   0 107.240 35.3039  27
  -8  -2  -1 533.940 68.4603  27
  -8  -2  -2 9325.73 321.859  16
  -8  -2  -2 7292.19 283.761  27
  -8  -2  -3 167.936 46.2884  16
  -8  -2  -3 95.6664 32.0579  27
  -8  -2  -4 3626.46 210.955  16
  -8  -2  -5 5935.52 268.340  16
  -8  -2  -6 861.959 90.4749  16
  -8  -2  -7 1322.79 95.2072  16
   8   3  -2 205.262 34.8030  29
  -8  -3   2 116.679 30.6605  27
   8   3  -1 875.263 74.0590  29
  -8  -3   1 631.211 74.9805  27
   8   3   0 238.672 39.9157  29
  -8  -3   0 195.403 46.9166  27
  -8  -3  -1 4310.39 220.303  27
  -8  -3  -2 489.251 69.4323  16
  -8  -3  -2 359.310 63.5751  27
  -8  -3  -3 3046.79 186.993  16
  -8  -3  -3 2557.67 170.682  27
  -8  -3  -4 194.795 54.1218  16
  -8  -3  -4 194.107 47.3831  27
  -8  -3  -5 196.857 49.3214  16
  -8  -3  -6 219.965 46.1017  16
  -8  -3  -7 144.558 34.1897  16
   8   4  -2 536.391 51.9601  29
  -8  -4   2 365.969 54.2941  27
   8   4  -1 925.449 72.2645  29
  -8  -4   1 779.677 86.0728  27
  -8  -4   0 38.0126 31.2705  27
  -8  -4  -1 814.155 96.8986  27
  -8  -4  -2 1179.21 104.106  16
  -8  -4  -2 990.768 108.267  27
  -8  -4  -3 5119.89 242.998  16
  -8  -4  -3 4474.35 235.200  27
  -8  -4  -4 2681.24 175.822  16
  -8  -4  -4 2544.23 171.232  27
  -8  -4  -5 494.351 72.7212  16
  -8  -4  -6 44.0342 26.4212  16
  -8  -4  -7 1010.74 81.8421  16
  -8  -5   2 277.477 44.4654  27
  -8  -5   1 113.821 36.7300  27
  -8  -5   0 27.6249 32.1206  27
  -8  -5  -1 607.066 81.3348  27
  -8  -5  -2 103.615 31.8457  16
  -8  -5  -2 79.7690 39.7108  27
  -8  -5  -3 958.487 97.3896  16
  -8  -5  -3 862.074 99.5402  27
  -8  -5  -4 6980.24 285.961  16
  -8  -5  -4 6960.49 286.661  27
  -8  -5  -5 75.7642 32.4709  16
  -8  -5  -6 269.486 46.3801  16
  -8  -6   1 117.234 33.5337  27
  -8  -6   0 711.783 77.7635  27
  -8  -6  -1 366.108 60.3297  27
  -8  -6  -2 1034.09 83.4218  16
  -8  -6  -2 919.453 96.4550  27
  -8  -6  -3 3941.81 188.390  16
  -8  -6  -3 3435.43 187.765  27
  -8  -6  -4 226.198 47.9032  16
  -8  -6  -5 2124.62 134.968  16
  -8  -6  -6 366.796 50.1033  16
  -8  -7   0 1890.85 104.061  27
  -8  -7  -1 7014.42 237.622  27
  -8  -7  -2 19.1475 21.7181  27
  -8  -7  -3 326.044 46.4701  16
  -8  -7  -4 230.375 41.2227  16
  -8  -7  -5 2.10466 13.7999  16
   0   0   0    0.00    0.00   0
TITL DDQ_niac_2 in P-1
REM P-1 (#2 in standard setting)
CELL 1.54184   6.879729  10.468436  11.018397  87.6182  79.6787  75.6271
ZERR    3.00   0.000450   0.000618   0.000398   0.0038   0.0042   0.0054
LATT  1
SFAC C H N O
UNIT 33.00 30.00 3.00 3.00
TREF
HKLF 4
END
;
loop_
_symmetry_equiv_pos_as_xyz
'x, y, z'
'-x, -y, -z'
loop_
_atom_site_label
_atom_site_fract_x
_atom_site_fract_y
_atom_site_fract_z
_atom_site_U_iso_or_equiv
_atom_site_adp_type
_atom_site_calc_flag
_atom_site_occupancy
_atom_site_type_symbol
Cl1 0.42387(9) 0.35733(7) 0.68695(5) 0.0656(2) Uani d 1 Cl
Cl2 0.28079(9) 0.20486(5) 0.92907(5) 0.05607(19) Uani d 1 Cl
O1 0.1232(3) 0.37883(14) 1.14266(13) 0.0486(3) Uani d 1 O
O2 0.3695(3) 0.6400(2) 0.73156(15) 0.0657(5) Uani d 1 O
N1 0.0834(3) 0.6899(2) 1.26253(18) 0.0550(5) Uani d 1 N
N2 0.2531(4) 0.8867(2) 0.9503(3) 0.0732(6) Uani d 1 N
C1 0.1868(3) 0.43705(19) 1.04911(17) 0.0396(4) Uani d 1 C
C2 0.1898(3) 0.57476(19) 1.05101(17) 0.0395(4) Uani d 1 C
C3 0.2491(3) 0.6423(2) 0.94566(18) 0.0428(4) Uani d 1 C
C4 0.3170(3) 0.5785(2) 0.82564(19) 0.0480(5) Uani d 1 C
C5 0.3275(3) 0.4372(2) 0.82584(18) 0.0454(4) Uani d 1 C
C6 0.2673(3) 0.3715(2) 0.92888(18) 0.0425(4) Uani d 1 C
C7 0.1300(3) 0.6384(2) 1.16938(19) 0.0430(4) Uani d 1 C
C8 0.2485(4) 0.7786(2) 0.9494(2) 0.0520(5) Uani d 1 C
O3 0.3698(3) 0.87633(18) 1.51282(17) 0.0614(4) Uani d 1 O
N3 -0.1565(3) 0.76420(17) 1.62944(15) 0.0434(4) Uani d 1 N
N4 0.2746(3) 1.0587(2) 1.6296(2) 0.0562(5) Uani d 1 N
H4A 0.381(4) 1.084(3) 1.600(3) 0.084 Uiso d 1 H
H4B 0.189(5) 1.112(3) 1.679(3) 0.084 Uiso d 1 H
C9 0.0172(3) 0.8020(2) 1.59253(17) 0.0428(4) Uani d 1 C
H9 0.117696 0.753396 1.532424 0.051 Uiso calc 1 H
C10 0.0487(3) 0.91229(19) 1.64269(18) 0.0421(4) Uani d 1 C
C11 -0.1004(4) 0.9806(2) 1.7346(2) 0.0530(5) Uani d 1 C
H11 -0.081612 1.054008 1.771251 0.064 Uiso calc 1 H
C12 -0.2778(4) 0.9389(2) 1.7718(2) 0.0545(5) Uani d 1 C
H12 -0.378937 0.984325 1.833406 0.065 Uiso calc 1 H
C13 -0.3034(3) 0.8305(2) 1.71720(19) 0.0474(5) Uani d 1 C
H13 -0.422992 0.802752 1.741101 0.057 Uiso calc 1 H
C14 -0.1828(4) 0.6438(3) 1.5765(2) 0.0608(6) Uani d 1 C
H14A -0.065843 0.607699 1.5153 0.091 Uiso calc 0.5 H
H14B -0.197171 0.580241 1.640736 0.091 Uiso calc 0.5 H
H14C -0.302618 0.665153 1.539141 0.091 Uiso calc 0.5 H
H14D -0.311245 0.627696 1.614818 0.091 Uiso calc 0.5 H
H14E -0.179917 0.655154 1.489382 0.091 Uiso calc 0.5 H
H14F -0.07447 0.570242 1.590976 0.091 Uiso calc 0.5 H
C15 0.2449(3) 0.9485(2) 1.59031(18) 0.0437(4) Uani d 1 C
loop_
_atom_site_aniso_label
_atom_site_aniso_U_11
_atom_site_aniso_U_22
_atom_site_aniso_U_33
_atom_site_aniso_U_12
_atom_site_aniso_U_13
_atom_site_aniso_U_23
Cl1 0.0596(3) 0.0967(5) 0.0427(3) -0.0278(3) 0.0025(2) -0.0232(3)
Cl2 0.0636(3) 0.0446(3) 0.0576(3) -0.0020(2) -0.0181(2) -0.0074(2)
O1 0.0635(9) 0.0477(7) 0.0351(7) -0.0123(6) -0.0137(6) 0.0082(6)
O2 0.0734(11) 0.0897(13) 0.0413(8) -0.0413(10) -0.0015(8) 0.0103(8)
N1 0.0612(11) 0.0605(11) 0.0446(10) -0.0165(9) -0.0085(8) -0.0089(8)
N2 0.0811(16) 0.0593(13) 0.0839(16) -0.0303(11) -0.0091(13) 0.0024(11)
C1 0.0405(9) 0.0452(9) 0.0337(9) -0.0073(7) -0.0128(7) 0.0013(7)
C2 0.0393(9) 0.0478(10) 0.0327(8) -0.0109(7) -0.0092(7) -0.0003(7)
C3 0.0417(9) 0.0509(10) 0.0396(9) -0.0174(8) -0.0089(7) 0.0038(8)
C4 0.0426(10) 0.0693(13) 0.0367(10) -0.0234(9) -0.0059(8) 0.0040(9)
C5 0.0381(9) 0.0654(12) 0.0345(9) -0.0146(8) -0.0063(7) -0.0076(8)
C6 0.0386(9) 0.0483(10) 0.0411(10) -0.0071(7) -0.0123(7) -0.0034(8)
C7 0.0443(10) 0.0468(10) 0.0401(10) -0.0130(8) -0.0112(8) 0.0015(8)
C8 0.0529(11) 0.0582(13) 0.0486(11) -0.0230(9) -0.0062(9) 0.0049(9)
O3 0.0569(9) 0.0632(10) 0.0615(10) -0.0246(8) 0.0137(8) -0.0130(8)
N3 0.0501(9) 0.0492(9) 0.0341(8) -0.0175(7) -0.0100(7) 0.0072(6)
N4 0.0518(10) 0.0601(11) 0.0577(11) -0.0227(9) 0.0027(8) -0.0093(9)
C9 0.0439(10) 0.0504(10) 0.0328(9) -0.0121(8) -0.0032(7) 0.0020(7)
C10 0.0449(10) 0.0452(10) 0.0367(9) -0.0122(8) -0.0081(7) 0.0056(7)
C11 0.0565(12) 0.0460(11) 0.0525(12) -0.0134(9) 0.0031(9) -0.0040(9)
C12 0.0507(11) 0.0491(11) 0.0547(12) -0.0076(9) 0.0074(9) 0.0009(9)
C13 0.0420(10) 0.0531(11) 0.0443(10) -0.0111(8) -0.0042(8) 0.0120(8)
C14 0.0765(16) 0.0697(14) 0.0442(11) -0.0371(12) -0.0032(11) -0.0045(10)
C15 0.0463(10) 0.0485(10) 0.0364(9) -0.0131(8) -0.0062(8) 0.0026(8)
loop_
_atom_type_symbol
_atom_type_description
_atom_type_scat_dispersion_real
_atom_type_scat_dispersion_imag
_atom_type_scat_source
C C 0.0181 0.0091 'International Tables Vol C Tables 4.2.6.8 and 6.1.1.4'
H H 0 0 'International Tables Vol C Tables 4.2.6.8 and 6.1.1.4'
N N 0.0311 0.018 'International Tables Vol C Tables 4.2.6.8 and 6.1.1.4'
O O 0.0492 0.0322 'International Tables Vol C Tables 4.2.6.8 and 6.1.1.4'
Cl Cl 0.3639 0.7018 'International Tables Vol C Tables 4.2.6.8 and 6.1.1.4'
loop_
_geom_angle_atom_site_label_1
_geom_angle_atom_site_label_2
_geom_angle_atom_site_label_3
_geom_angle
O1 C1 C2 122.33(17)
O1 C1 C6 122.80(18)
C2 C1 C6 114.86(17)
C3 C2 C7 121.17(18)
C3 C2 C1 122.61(17)
C7 C2 C1 116.22(17)
C2 C3 C8 121.67(19)
C2 C3 C4 122.06(19)
C8 C3 C4 116.27(18)
O2 C4 C3 121.6(2)
O2 C4 C5 123.3(2)
C3 C4 C5 115.03(18)
C6 C5 C4 122.75(18)
C6 C5 Cl1 121.37(18)
C4 C5 Cl1 115.88(15)
C5 C6 C1 122.46(19)
C5 C6 Cl2 122.68(16)
C1 C6 Cl2 114.87(15)
N1 C7 C2 179.3(2)
N2 C8 C3 178.1(3)
C13 N3 C9 121.37(18)
C13 N3 C14 119.17(19)
C9 N3 C14 119.40(19)
C15 N4 H4A 121(2)
C15 N4 H4B 125(3)
H4A N4 H4B 115(3)
N3 C9 C10 120.77(19)
N3 C9 H9 119.6
C10 C9 H9 119.6
C9 C10 C11 118.5(2)
C9 C10 C15 116.06(18)
C11 C10 C15 125.46(19)
C10 C11 C12 119.6(2)
C10 C11 H11 120.2
C12 C11 H11 120.2
C13 C12 C11 119.6(2)
C13 C12 H12 120.2
C11 C12 H12 120.2
N3 C13 C12 120.1(2)
N3 C13 H13 119.9
C12 C13 H13 119.9
N3 C14 H14A 109.5
N3 C14 H14B 109.5
H14A C14 H14B 109.5
N3 C14 H14C 109.5
H14A C14 H14C 109.5
H14B C14 H14C 109.5
H14D C14 H14E 109.5
H14D C14 H14F 109.5
H14E C14 H14F 109.5
O3 C15 N4 122.7(2)
O3 C15 C10 119.32(19)
N4 C15 C10 117.98(18)
loop_
_geom_bond_atom_site_label_1
_geom_bond_atom_site_label_2
_geom_bond_distance
Cl1 C5 1.717(2)
Cl2 C6 1.724(2)
O1 C1 1.243(2)
O2 C4 1.243(3)
N1 C7 1.135(3)
N2 C8 1.141(3)
C1 C2 1.448(3)
C1 C6 1.468(3)
C2 C3 1.385(3)
C2 C7 1.435(3)
C3 C8 1.429(3)
C3 C4 1.453(3)
C4 C5 1.463(3)
C5 C6 1.357(3)
O3 C15 1.228(3)
N3 C13 1.340(3)
N3 C9 1.341(3)
N3 C14 1.474(3)
N4 C15 1.323(3)
N4 H4A 0.846(19)
N4 H4B 0.837(18)
C9 C10 1.380(3)
C9 H9 0.93
C10 C11 1.383(3)
C10 C15 1.502(3)
C11 C12 1.385(3)
C11 H11 0.93
C12 C13 1.369(3)
C12 H12 0.93
C13 H13 0.93
C14 H14A 0.96
C14 H14B 0.96
C14 H14C 0.96
C14 H14D 0.96
C14 H14E 0.96
C14 H14F 0.96
loop_
_geom_torsion_atom_site_label_1
_geom_torsion_atom_site_label_2
_geom_torsion_atom_site_label_3
_geom_torsion_atom_site_label_4
_geom_torsion
O1 C1 C2 C3 -176.05(18)
C6 C1 C2 C3 4.8(3)
O1 C1 C2 C7 4.7(3)
C6 C1 C2 C7 -174.43(16)
C7 C2 C3 C8 -1.6(3)
C1 C2 C3 C8 179.22(18)
C7 C2 C3 C4 177.79(17)
C1 C2 C3 C4 -1.4(3)
C2 C3 C4 O2 179.9(2)
C8 C3 C4 O2 -0.7(3)
C2 C3 C4 C5 -2.9(3)
C8 C3 C4 C5 176.55(18)
O2 C4 C5 C6 -179.2(2)
C3 C4 C5 C6 3.6(3)
O2 C4 C5 Cl1 1.5(3)
C3 C4 C5 Cl1 -175.72(14)
C4 C5 C6 C1 -0.1(3)
Cl1 C5 C6 C1 179.18(14)
C4 C5 C6 Cl2 -179.69(15)
Cl1 C5 C6 Cl2 -0.4(2)
O1 C1 C6 C5 176.79(19)
C2 C1 C6 C5 -4.1(3)
O1 C1 C6 Cl2 -3.6(2)
C2 C1 C6 Cl2 175.55(13)
C13 N3 C9 C10 -1.1(3)
C14 N3 C9 C10 -178.28(19)
N3 C9 C10 C11 2.0(3)
N3 C9 C10 C15 -177.42(17)
C9 C10 C11 C12 -1.5(3)
C15 C10 C11 C12 177.9(2)
C10 C11 C12 C13 0.1(4)
C9 N3 C13 C12 -0.3(3)
C14 N3 C13 C12 176.9(2)
C11 C12 C13 N3 0.8(3)
C9 C10 C15 O3 -4.1(3)
C11 C10 C15 O3 176.5(2)
C9 C10 C15 N4 175.32(19)
C11 C10 C15 N4 -4.0(3)
