#------------------------------------------------------------------------------
#$Date: 2019-11-17 08:56:24 +0200 (Sun, 17 Nov 2019) $
#$Revision: 228974 $
#$URL: file:///home/coder/svn-repositories/cod/cif/7/23/08/7230872.cif $
#------------------------------------------------------------------------------
#
# This file is available in the Crystallography Open Database (COD),
# http://www.crystallography.net/
#
# All data on this site have been placed in the public domain by the
# contributors.
#
data_7230872
loop_
_publ_author_name
'Tran, Thao T.'
'Quintero, Michael A.'
'Arpino, Kathryn E.'
'Kelly, Zachary A.'
'Panella, Jessica R.'
'Wang, Xiaoping'
'McQueen, Tyrel M.'
_publ_section_title
;
 Chemically controlled crystal growth of (CH3NH3)2AgInBr6
;
_journal_issue                   39
_journal_name_full               CrystEngComm
_journal_page_first              5929
_journal_paper_doi               10.1039/C8CE00702K
_journal_volume                  20
_journal_year                    2018
_chemical_formula_moiety         '2(C1 N1 H6), Ag1 In1 Br6'
_chemical_formula_sum            'C2 H12 Ag Br6 In N2'
_chemical_formula_weight         766.29
_chemical_name_common            MA2AgInBr6
_space_group_crystal_system      trigonal
_space_group_IT_number           164
_space_group_name_Hall           '-P 3 2"'
_space_group_name_H-M_alt        'P -3 m 1'
_symmetry_space_group_name_Hall  '-P 3 2"'
_symmetry_space_group_name_H-M   'P -3 m 1'
_atom_sites_solution_hydrogens   difmap
_audit_creation_method           SHELXL-2014/7
_audit_update_record
;
2018-01-12 deposited with the CCDC.
2018-01-12 downloaded from the CCDC.
;
_cell_angle_alpha                90
_cell_angle_beta                 90
_cell_angle_gamma                120
_cell_formula_units_Z            1
_cell_length_a                   7.7414(5)
_cell_length_b                   7.7414(5)
_cell_length_c                   7.0841(7)
_cell_measurement_reflns_used    2116
_cell_measurement_temperature    295(2)
_cell_measurement_theta_max      78.26
_cell_measurement_theta_min      7.39
_cell_volume                     367.67(5)
_computing_cell_refinement       Mantidplot
_computing_data_collection       'SNS PyDas'
_computing_data_reduction        Mantidplot
_computing_structure_refinement  'SHELXL-2014/7 (Sheldrick, 2014)'
_diffrn_ambient_temperature      295(2)
_diffrn_measured_fraction_theta_full 0.918
_diffrn_measured_fraction_theta_max 0.899
_diffrn_measurement_device_type  TOPAZ
_diffrn_measurement_method       'time-of-flight Laue'
_diffrn_radiation_type           neutrons
_diffrn_radiation_wavelength     0.6
_diffrn_radiation_wavelength_details 'Based on neutron time of flight'
_diffrn_reflns_av_unetI/netI     0.0882
_diffrn_reflns_Laue_measured_fraction_full 0.918
_diffrn_reflns_Laue_measured_fraction_max 0.899
_diffrn_reflns_limit_h_max       9
_diffrn_reflns_limit_h_min       -9
_diffrn_reflns_limit_k_max       9
_diffrn_reflns_limit_k_min       -9
_diffrn_reflns_limit_l_max       9
_diffrn_reflns_limit_l_min       -9
_diffrn_reflns_number            2695
_diffrn_reflns_point_group_measured_fraction_full 0.918
_diffrn_reflns_point_group_measured_fraction_max 0.899
_diffrn_reflns_theta_full        25.214
_diffrn_reflns_theta_max         78.264
_diffrn_reflns_theta_min         7.387
_diffrn_source                   'The ORNL Spallation Neutron Scource'
_exptl_absorpt_coefficient_mu    0.1991
_exptl_absorpt_correction_T_max  0.8997
_exptl_absorpt_correction_T_min  0.6940
_exptl_absorpt_correction_type   sphere
_exptl_absorpt_process_details
; 
C. W. Dwiggins, Jr., Acta Cryst. A31, 395 (1975).
;
_exptl_crystal_colour            colorless
_exptl_crystal_density_diffrn    3.461
_exptl_crystal_description       block
_exptl_crystal_F_000             344
_exptl_crystal_size_max          1.150
_exptl_crystal_size_mid          0.900
_exptl_crystal_size_min          0.850
_refine_diff_density_max         0.244
_refine_diff_density_min         -0.279
_refine_diff_density_rms         0.051
_refine_ls_extinction_coef       0.18(2)
_refine_ls_extinction_expression Fc^*^=kFc[1+0.001xFc^2^\l^3^/sin(2\q)]^-1/4^
_refine_ls_extinction_method     'SHELXL-2014/7 (Sheldrick 2014'
_refine_ls_goodness_of_fit_ref   1.041
_refine_ls_hydrogen_treatment    refall
_refine_ls_matrix_type           full
_refine_ls_number_parameters     85
_refine_ls_number_reflns         2695
_refine_ls_number_restraints     67
_refine_ls_restrained_S_all      1.066
_refine_ls_R_factor_all          0.0628
_refine_ls_R_factor_gt           0.0545
_refine_ls_shift/su_max          0.000
_refine_ls_shift/su_mean         0.000
_refine_ls_structure_factor_coef Fsqd
_refine_ls_weighting_details
'w=1/[\s^2^(Fo^2^)+(0.0585P)^2^+0.0198P] where P=(Fo^2^+2Fc^2^)/3'
_refine_ls_weighting_scheme      calc
_refine_ls_wR_factor_gt          0.1144
_refine_ls_wR_factor_ref         0.1202
_reflns_Friedel_coverage         0.000
_reflns_number_gt                2381
_reflns_number_total             2695
_reflns_threshold_expression     'I > 2\s(I)'
_cod_data_source_file            c8ce00702k2.cif
_cod_data_source_block           neutron295K
_cod_depositor_comments
'Adding full bibliography for 7230872--7230875.cif.'
_cod_original_cell_volume        367.67(6)
_cod_database_code               7230872
_shelx_shelxl_version_number     2014/7
_shelx_space_group_comment
;
The symmetry employed for this shelxl refinement is uniquely defined
by the following loop, which should always be used as a source of
symmetry information in preference to the above space-group names.
They are only intended as comments.
;
_shelx_estimated_absorpt_t_min   0.971
_shelx_estimated_absorpt_t_max   0.978
_exptl_absorpt_special_details
; 
Neutron linear absorption coefficient is wavelength dependent.
For each peak, the absorption coefficient mu is calculated as:
          mu = 0.8930 + 1.9750/1.7982 * wavelength  [cm^-1^]
where 
 0.8930 cm^-1 is the absorption coefficient for total scattering;
 1.9750 cm^-1 is the absorption coefficient for true absorption at 1.7982 A.
 
The value of 0.1991 (mm^-1^) shown in _exptl_absorpt_coefficient_mu 
is the sample absorption coefficient for neutron wavelength at 1.0 \%A.
;
_shelx_res_file
;

    neutronht.res created by SHELXL-2014/7


TITL neutron structure 295 K in P-3m1
CELL 0.71000 7.7414  7.7414  7.0841 90 90 120
ZERR 1       0.0005  0.0005  0.0007  0  0   0
LATT 1
SYMM   -y, x-y, z
SYMM   -x+y, -x, z
SYMM   y, x, -z
SYMM   x-y, -y, -z
SYMM   -x, -x+y, -z
NEUT
SFAC C H N BR IN AG
UNIT 2 12 2 6 1 1
L.S. 9
ACTA

SPEC .01
FMAP -2
LIST 6
PLAN 10
MERG 0
TEMP 22.0
REM Instructions for potential hydrogen bonds
EQIV $1 x, y+1, z
HTAB N1 Br1_$1
EQIV $2 y, -x+y+1, -z
HTAB N1 Br1_$2
EQIV $3 x-y, x, -z
HTAB N1 Br1_$3
EQIV $4 -x+1, -y+1, -z
HTAB N1 Br1_$4
EQIV $5 -x+y+1, -x+1, z
HTAB N1 Br1_$5
HTAB C1 Br1
EQIV $6 x-y, x, -z+1
HTAB C1 Br1_$6
EQIV $7 -x+y, -x+1, z
HTAB C1 Br1_$7
EQIV $8 -x+1, -y+1, -z+1
HTAB C1 Br1_$8

SIZE 1.15 0.90 0.85

HTAB
DFIX 1.463 0.005 N1 C1

WGHT    0.058500    0.019800
EXTI    0.183717
FVAR       1.78628   0.68231
IN1   5    0.000000    0.000000    0.000000    10.08333    0.02576    0.02576 =
         0.01895    0.00000    0.00000    0.01288
AG1   6    0.000000    0.000000    0.500000    10.08333    0.09038    0.09038 =
         0.02226    0.00000    0.00000    0.04519
BR1   4    0.321619    0.160809    0.221000    10.50000    0.03083    0.05570 =
         0.03799   -0.00686   -0.01371    0.01541
RIGU
part -1
N1    3    0.363797    0.701079    0.161058    10.16667    0.06069    0.06870 =
         0.03349    0.01006    0.00574    0.03503

H11   2    0.361136    0.827647    0.134593    10.16667    0.08525    0.07148 =
         0.09621    0.02254   -0.00573    0.04170
H12   2    0.266461    0.588076    0.072942    10.16667    0.08585    0.08997 =
         0.05684   -0.00745   -0.00722    0.03939
H13   2    0.497962    0.719227    0.127118    10.16667    0.06572    0.05852 =
         0.07638    0.01584    0.02396    0.02959
C1    1    0.310102    0.640316    0.356799    10.16667    0.05892    0.05785 =
         0.03460    0.00402    0.00971    0.03185
H14   2    0.301311    0.499544    0.382797    10.16667    0.08928    0.07059 =
         0.10229    0.01128   -0.00773    0.04320
H15   2    0.163641    0.613275    0.391091    10.16667    0.06158    0.04708 =
         0.09053    0.01005    0.03062    0.02336
H16   2    0.421332    0.754252    0.441625    10.16667    0.09163    0.08655 =
         0.06376   -0.01965   -0.01943    0.04080
HKLF 2

REM  neutron structure 295 K in P-3m1
REM R1 =  0.0545 for    2381 Fo > 4sig(Fo)  and  0.0628 for all    2695 data
REM     85 parameters refined using     67 restraints

END

WGHT      0.0585      0.0198

REM Instructions for potential hydrogen bonds
HTAB N1 Br1_$1
HTAB N1 Br1_$2
HTAB N1 Br1_$3
HTAB N1 Br1_$4
HTAB N1 Br1_$5
HTAB C1 Br1
HTAB C1 Br1_$6
HTAB C1 Br1_$7
HTAB C1 Br1_$8

REM Highest difference peak  0.244,  deepest hole -0.279,  1-sigma level  0.051
Q1    1   0.3333  0.6667  0.0789  10.16667  0.05   -0.28
Q2    1   0.3333  0.6667 -0.1010  10.16667  0.05    0.24
Q3    1   0.4189  0.2094  0.2066  10.50000  0.05   -0.20
Q4    1   0.3535  0.1768  0.3353  10.50000  0.05   -0.19
Q5    1   0.1597  0.0799  0.2356  10.50000  0.05    0.18
Q6    1   0.1879  0.3757  0.4444  10.50000  0.05   -0.17
Q7    1  -0.0339  0.4831  0.3823  10.50000  0.05   -0.17
Q8    1   0.3628  0.1132  0.2265  11.00000  0.05   -0.17
Q9    1   0.0000  0.0000  0.4197  10.16667  0.05   -0.16
Q10   1   0.0697  0.1394  0.0419  10.50000  0.05   -0.16
;
_shelx_res_checksum              65271
_shelx_hkl_file
;
   1  -1   4  728.65   27.65   1 2.62682 0.07450 -0.24070  0.44825 -0.73506  0.54021  0.66200  0.81600 24926      1 0.7548  13
   1  -1   6  151.10   11.65   1 1.71460 0.07410 -0.24070  0.38162 -0.73506  0.60833  0.66200  0.78863 24926      4 0.8142  13
   1  -2   7   68.20   12.90   1 1.60449 0.07573 -0.24070  0.25391 -0.73506  0.37591  0.66200  0.92352 24926      5 0.8179  13
   1  -2   8  155.19   20.83   1 1.38700 0.07548 -0.24070  0.25356 -0.73506  0.42524  0.66200  0.90384 24926      6 0.8334  13
   2  -2   8  356.66   29.68   1 1.31265 0.07470 -0.24070  0.44825 -0.73506  0.54021  0.66200  0.81600 24926      7 0.8400  13
   0  -2   5  877.23   37.08   1 2.34354 0.07620 -0.24070 -0.09449 -0.73506  0.03626  0.66200  0.99084 24926     15 0.7680  14
   1  -3   6   11.87    8.88   1 1.95407 0.07684 -0.24070  0.10923 -0.73506  0.00614  0.66200  0.99244 24926     17 0.7919  14
   1  -4   8  223.98   26.89   1 1.47147 0.07752 -0.24070  0.03651 -0.73506 -0.03117  0.66200  0.99770 24926     22 0.8234  14
  -2  -4   4  348.08   18.62   1 1.88404 0.07693 -0.24070 -0.87241 -0.73506 -0.66965  0.66200  0.40772 24926     29 0.7963  16
  -2  -3   4  843.84   33.82   1 2.09707 0.07655 -0.24070 -0.84156 -0.73506 -0.51478  0.66200  0.52915 24926     30 0.7831  16
  -2  -5   5   75.55   16.60   1 1.59509 0.07754 -0.24070 -0.81933 -0.73506 -0.69210  0.66200  0.47152 24926     32 0.8147  16
  -2  -4   5   63.22   13.48   1 1.74820 0.07724 -0.24070 -0.79168 -0.73506 -0.56860  0.66200  0.57745 24926     33 0.8048  16
  -2  -5   6  190.53   22.99   1 1.49432 0.07779 -0.24070 -0.74933 -0.73506 -0.60118  0.66200  0.60835 24926     37 0.8212  16
  -2  -2   2 1135.71   44.07   1 2.77311 0.07501 -0.24070 -0.99170 -0.73506 -0.50413  0.66200  0.12824 24926     38 0.7444  17
  -4  -4   3   90.99   17.11   1 1.38930 0.07491 -0.24070 -0.99785 -0.73506 -0.50937  0.66200 -0.06442 24926     39 0.8344  17
  -4  -3   3  188.96   17.61   1 1.50967 0.07449 -0.24070 -0.99265 -0.73506 -0.39211  0.66200 -0.01282 24926     41 0.8270  17
  -3  -3   3   59.61    8.89   1 1.84939 0.07553 -0.24070 -0.99149 -0.73506 -0.50502  0.66200  0.12972 24926     42 0.8019  17
  -4  -4   4  186.41   21.56   1 1.38483 0.07574 -0.24070 -0.99170 -0.73506 -0.50413  0.66200  0.12824 24926     48 0.8330  17
  -6  -3   2   35.14   20.43   1 0.99554 0.07099 -0.24070 -0.87129 -0.73506 -0.15730  0.66200 -0.37087 24926     55 0.8685  18
  -5  -3   2   27.36   13.85   1 1.20017 0.07198 -0.24070 -0.91775 -0.73506 -0.24733  0.66200 -0.31315 24926     56 0.8529  18
  -7  -2   2   62.77   25.66   1 0.84584 0.06978 -0.24070 -0.76779 -0.73506  0.03978  0.66200 -0.41372 24926     57 0.8807  18
  -6  -2   2  375.45   32.27   1 1.01378 0.07032 -0.24070 -0.81607 -0.73506 -0.02121  0.66200 -0.36677 24926     58 0.8685  18
  -5  -2   2   71.65   14.18   1 1.24832 0.07129 -0.24070 -0.87284 -0.73506 -0.10263  0.66200 -0.29933 24926     59 0.8510  18
  -4  -2   2  147.33   10.75   1 1.57594 0.07253 -0.24070 -0.93084 -0.73506 -0.20497  0.66200 -0.20757 24926     60 0.8268  18
  -6  -2   3   36.76   16.08   1 1.07767 0.07141 -0.24070 -0.88248 -0.73506 -0.07080  0.66200 -0.19563 24926     66 0.8623  18
  -7   0   1   55.87   31.42   1 0.63560 0.07351 -0.24070 -0.42172 -0.73506  0.40306  0.66200 -0.56536 24926     67 0.8897  19
  -6   0   1   61.14   21.42   1 0.76706 0.07290 -0.24070 -0.44536 -0.73506  0.39203  0.66200 -0.54574 24926     68 0.8812  19
  -4   0   1 2696.28  108.86   1 1.28002 0.07182 -0.24070 -0.52268 -0.73506  0.35282  0.66200 -0.47317 24926     70 0.8479  19
  -3   0   1  176.45    7.84   1 1.85324 0.07143 -0.24070 -0.58681 -0.73506  0.32055  0.66200 -0.39123 24926     71 0.8114  19
  -8   0   2   36.34   36.27   1 0.64163 0.07108 -0.24070 -0.52373 -0.73506  0.35209  0.66200 -0.47237 24926     76 0.8927  19
  -6   0   2  357.08   30.85   1 0.92595 0.07026 -0.24070 -0.58730 -0.73506  0.31954  0.66200 -0.39211 24926     78 0.8745  19
  -7   1   3   44.31   24.41   1 0.75521 0.07089 -0.24070 -0.48910 -0.73506  0.45305  0.66200 -0.33454 24926     87 0.8851  19
   0   1   2  266.09    9.60   1 1.51955 0.07936 -0.24070  0.35816 -0.73506  0.96250  0.66200 -0.23107 24926     91 0.8161  20
  -1   2   3   27.57    8.37   1 0.80109 0.08368 -0.24070  0.24180 -0.73506  0.91340  0.66200 -0.32267 24926     92 0.8622  20
   1   2   4  752.54   64.19   1 0.49845 0.08652 -0.24070  0.39081 -0.73506  0.92116  0.66200 -0.38075 24926     94 0.8829  20
  -2   3   4  747.69   63.63   1 0.50125 0.08640 -0.24070  0.20502 -0.73506  0.88475  0.66200 -0.37695 24926     95 0.8828  20
   2   2   5 1168.18  110.75   1 0.45738 0.08409 -0.24070  0.44658 -0.73506  0.94007  0.66200 -0.33990 24926     97 0.8893  20
  -1   3   5 1605.51  103.01   1 0.53699 0.08233 -0.24070  0.28386 -0.73506  0.93607  0.66200 -0.28028 24926     99 0.8851  20
   0   3   6  713.10   84.61   1 0.50632 0.08013 -0.24070  0.35812 -0.73506  0.96219  0.66200 -0.23245 24926    100 0.8904  20
   1   3   7  129.01   62.83   1 0.45607 0.07887 -0.24070  0.41408 -0.73506  0.97389  0.66200 -0.21085 24926    102 0.8959  20
  -2   4   7  344.57   80.32   1 0.46687 0.07852 -0.24070  0.24437 -0.73506  0.94443  0.66200 -0.19705 24926    103 0.8955  20
   3   0   5   81.49   13.49   1 1.02454 0.07046 -0.24070  0.70459 -0.73506  0.96478  0.66200  0.05809 24926    110 0.8675  21
   4   0   7  160.76   30.14   1 0.76193 0.06998 -0.24070  0.70191 -0.73506  0.96305  0.66200  0.08821 24926    115 0.8860  21
   2   1   7  205.23   27.54   1 0.83332 0.07005 -0.24070  0.55804 -0.73506  0.98413  0.66200  0.16026 24926    116 0.8811  21
   3   0   8   55.49   22.25   1 0.86355 0.06976 -0.24070  0.63664 -0.73506  0.92922  0.66200  0.31159 24926    118 0.8795  21
   4   0   8  281.54   41.31   1 0.73733 0.06962 -0.24070  0.68763 -0.73506  0.95534  0.66200  0.16893 24926    119 0.8883  21
   3   1   8  256.73   45.42   1 0.67621 0.07004 -0.24070  0.59927 -0.73506  0.98762  0.66200  0.09885 24926    121 0.8918  21
   3  -2   6   29.23   10.60   1 1.53665 0.07366 -0.24070  0.70995 -0.73506  0.62260  0.66200  0.63283 24926    131 0.8270  22
   3  -2   7   42.32   14.52   1 1.35033 0.07363 -0.24070  0.65483 -0.73506  0.63502  0.66200  0.66711 24926    133 0.8396  22
   3  -2   8  227.89   26.85   1 1.19963 0.07355 -0.24070  0.61029 -0.73506  0.64678  0.66200  0.68697 24926    134 0.8500  22
   4  -2   8  168.26   28.41   1 1.06272 0.07216 -0.24070  0.72626 -0.73506  0.73613  0.66200  0.53576 24926    135 0.8619  22
   1  -2   4  330.19   12.91   1 2.89322 0.07558 -0.24070  0.25498 -0.73506  0.09036  0.66200  0.96600 24926    143 0.7353  23
   2  -3   5 1180.67   43.38   1 2.21711 0.07631 -0.24070  0.41826 -0.73506  0.07599  0.66200  0.89522 24926    144 0.7759  23
   2  -3   6   23.59    9.12   1 1.86990 0.07642 -0.24070  0.39296 -0.73506  0.17679  0.66200  0.91927 24926    146 0.7985  23
   2  -4   7  462.20   27.43   1 1.64220 0.07723 -0.24070  0.25442 -0.73506  0.00233  0.66200  0.95628 24926    147 0.8121  23
   3  -4   7   61.42   16.33   1 1.55481 0.07671 -0.24070  0.48505 -0.73506  0.15549  0.66200  0.86870 24926    148 0.8192  23
   2  -3   7   35.15   12.83   1 1.60502 0.07635 -0.24070  0.37417 -0.73506  0.25640  0.66200  0.92390 24926    149 0.8166  23
   2  -4   8  193.21   23.07   1 1.44555 0.07719 -0.24070  0.25498 -0.73506  0.09036  0.66200  0.96600 24926    151 0.8258  23
  -1  -4   2  182.13    8.95   1 2.42876 0.07609 -0.24070 -0.83773 -0.73506 -0.89123  0.66200  0.02661 24926    157 0.7628  26
  -1  -3   2   21.34    4.26   1 3.00042 0.07554 -0.24070 -0.86894 -0.73506 -0.83012  0.66200  0.19033 24926    158 0.7290  26
  -2  -6   3  530.32   32.40   1 1.51670 0.07677 -0.24070 -0.88363 -0.73506 -0.84709  0.66200 -0.01442 24926    159 0.8217  26
  -2  -4   3   36.02    8.11   1 1.97636 0.07646 -0.24070 -0.93075 -0.73506 -0.73949  0.66200  0.18310 24926    161 0.7913  26
  -2  -6   4  155.26   20.94   1 1.50067 0.07736 -0.24070 -0.86894 -0.73506 -0.83012  0.66200  0.19033 24926    166 0.8216  26
  -3  -5   4  346.76   26.52   1 1.46605 0.07674 -0.24070 -0.95447 -0.73506 -0.68644  0.66200  0.17500 24926    167 0.8253  26
  -5  -3   0   89.40   20.19   1 0.94160 0.06973 -0.24070 -0.67236 -0.73506 -0.03796  0.66200 -0.65525 24926    178 0.8743  28
  -5  -2   0  105.40   18.75   1 0.92949 0.07029 -0.24070 -0.59125 -0.73506  0.11174  0.66200 -0.65510 24926    181 0.8742  28
  -4  -2   0  425.85   22.59   1 1.17696 0.07032 -0.24070 -0.63795 -0.73506  0.03217  0.66200 -0.65468 24926    182 0.8576  28
  -3  -2   0   54.82    6.81   1 1.56121 0.07057 -0.24070 -0.69081 -0.73506 -0.08004  0.66200 -0.65490 24926    183 0.8320  28
  -2  -1   0    7.70    2.38   1 2.35465 0.07173 -0.24070 -0.63826 -0.73506  0.03088  0.66200 -0.65520 24926    185 0.7793  28
  -7   0   0   91.44   62.86   1 0.47260 0.07981 -0.24070 -0.25289 -0.73506  0.48877  0.66200 -0.65681 24926    192 0.8935  29
  -4   0   0 1168.03   51.67   1 0.82700 0.07956 -0.24070 -0.25289 -0.73506  0.48877  0.66200 -0.65681 24926    195 0.8665  29
  -3   0   0 1593.58   60.46   1 1.10252 0.07938 -0.24070 -0.25289 -0.73506  0.48877  0.66200 -0.65681 24926    196 0.8463  29
  -2   0   0  731.01   25.91   1 1.65454 0.07905 -0.24070 -0.25289 -0.73506  0.48877  0.66200 -0.65681 24926    197 0.8073  29
  -5   1   1   25.49   17.65   1 0.68996 0.08016 -0.24070 -0.22212 -0.73506  0.58000  0.66200 -0.56027 24926    202 0.8761  29
  -4   1   1  117.72   13.20   1 0.84987 0.08043 -0.24070 -0.20193 -0.73506  0.60833  0.66200 -0.53706 24926    203 0.8634  29
  -8   2   2  142.80   89.26   1 0.42432 0.08087 -0.24070 -0.20059 -0.73506  0.60901  0.66200 -0.53753 24926    205 0.8959  29
  -7   2   2  125.16   53.01   1 0.47839 0.08113 -0.24070 -0.18430 -0.73506  0.62962  0.66200 -0.52099 24926    206 0.8913  29
  -6   2   2  140.23   45.28   1 0.53721 0.08173 -0.24070 -0.15820 -0.73506  0.65511  0.66200 -0.50619 24926    207 0.8859  29
   2  -2   3 1323.23   45.06   1 3.18735 0.07482 -0.24070  0.72611 -0.73506  0.26197  0.66200  0.67760 24926    208 0.7200  33
   3  -3   5   54.00    7.93   1 1.96791 0.07556 -0.24070  0.69180 -0.73506  0.29487  0.66200  0.71968 24926    210 0.7940  33
   3  -3   6  852.96   35.90   1 1.70182 0.07558 -0.24070  0.63295 -0.73506  0.35437  0.66200  0.77296 24926    212 0.8117  33
   4  -3   6   18.13   11.18   1 1.47323 0.07415 -0.24070  0.80225 -0.73506  0.51539  0.66200  0.58222 24926    213 0.8302  33
   5  -5   7   47.76   17.11   1 1.33001 0.07592 -0.24070  0.74920 -0.73506  0.24069  0.66200  0.64404 24926    214 0.8364  33
   4  -4   7   24.11   15.73   1 1.41968 0.07583 -0.24070  0.67579 -0.73506  0.31098  0.66200  0.73644 24926    215 0.8304  33
   5  -4   7   37.71   16.32   1 1.25680 0.07451 -0.24070  0.81441 -0.73506  0.45299  0.66200  0.57787 24926    216 0.8443  33
   3  -3   7  206.36   19.15   1 1.48468 0.07549 -0.24070  0.58550 -0.73506  0.40292  0.66200  0.80063 24926    217 0.8266  33
   4  -4   8   70.49   20.68   1 1.27794 0.07577 -0.24070  0.63295 -0.73506  0.35437  0.66200  0.77296 24926    219 0.8404  33
   2  -3   4  540.66   18.59   1 2.66044 0.07597 -0.24070  0.45158 -0.73506 -0.05504  0.66200  0.83122 24926    226 0.7486  34
   3  -5   5  131.88   12.44   1 1.97033 0.07714 -0.24070  0.39939 -0.73506 -0.29108  0.66200  0.72065 24926    227 0.7901  34
   2  -4   5  977.55   34.41   1 2.18189 0.07689 -0.24070  0.25399 -0.73506 -0.23850  0.66200  0.87027 24926    228 0.7767  34
   3  -5   6   46.96   14.34   1 1.75381 0.07736 -0.24070  0.38506 -0.73506 -0.17950  0.66200  0.81682 24926    229 0.8042  34
   3  -6   7   67.65   21.75   1 1.52556 0.07795 -0.24070  0.25445 -0.73506 -0.28682  0.66200  0.84064 24926    231 0.8186  34
   3  -5   7   29.07   16.67   1 1.56101 0.07746 -0.24070  0.37009 -0.73506 -0.07913  0.66200  0.87749 24926    232 0.8172  34
   0  -6   3  294.53   17.71   1 1.91845 0.07726 -0.24070 -0.60836 -0.73506 -0.97860  0.66200  0.15312 24926    239 0.7933  36
  -1  -7   4   35.61   16.63   1 1.48592 0.07774 -0.24070 -0.74831 -0.73506 -0.92676  0.66200  0.18129 24926    243 0.8219  36
   0  -7   4  231.44   23.36   1 1.62218 0.07786 -0.24070 -0.59586 -0.73506 -0.95727  0.66200  0.25555 24926    244 0.8121  36
  -1  -6   4  410.47   25.77   1 1.67768 0.07760 -0.24070 -0.75004 -0.73506 -0.89046  0.66200  0.28846 24926    245 0.8089  36
   0  -6   4  261.70   19.41   1 1.84617 0.07762 -0.24070 -0.57351 -0.73506 -0.91475  0.66200  0.38113 24926    246 0.7973  36
  -2  -6   1  551.98   31.16   1 1.40369 0.07461 -0.24070 -0.80411 -0.73506 -0.73179  0.66200 -0.45655 24926    251 0.8340  37
  -1  -6   1   26.67    9.38   1 1.61683 0.07530 -0.24070 -0.72080 -0.73506 -0.83187  0.66200 -0.42903 24926    252 0.8181  37
  -2  -5   1  105.47   12.26   1 1.61374 0.07456 -0.24070 -0.83969 -0.73506 -0.70951  0.66200 -0.42784 24926    253 0.8199  37
  -2  -7   2   74.33   18.41   1 1.31134 0.07589 -0.24070 -0.83002 -0.73506 -0.82900  0.66200 -0.28732 24926    260 0.8378  37
  -3  -6   2   62.87   16.32   1 1.29278 0.07512 -0.24070 -0.91114 -0.73506 -0.70934  0.66200 -0.28975 24926    261 0.8406  37
  -2  -6   2   68.35   14.11   1 1.48692 0.07591 -0.24070 -0.86325 -0.73506 -0.81781  0.66200 -0.23651 24926    262 0.8256  37
  -2  -5   2   93.20   11.23   1 1.71048 0.07586 -0.24070 -0.90152 -0.73506 -0.79424  0.66200 -0.17309 24926    263 0.8105  37
  -3  -6  -1   69.75   22.33   1 0.95038 0.07025 -0.24070 -0.61014 -0.73506 -0.32739  0.66200 -0.79187 24926    271 0.8729  38
  -2  -6  -1  679.25   41.19   1 1.08569 0.07077 -0.24070 -0.57105 -0.73506 -0.39872  0.66200 -0.81044 24926    272 0.8629  38
  -4  -5  -1   35.84   24.18   1 0.87251 0.06966 -0.24070 -0.60961 -0.73506 -0.17938  0.66200 -0.77936 24926    273 0.8791  38
  -3  -5  -1   98.89   20.92   1 1.01768 0.07008 -0.24070 -0.59715 -0.73506 -0.25436  0.66200 -0.80050 24926    274 0.8686  38
  -4  -5   0  120.04   23.04   1 1.02663 0.07086 -0.24070 -0.75392 -0.73506 -0.33670  0.66200 -0.65532 24926    280 0.8667  38
  -3  -5   0  110.02   17.35   1 1.20851 0.07167 -0.24070 -0.75161 -0.73506 -0.43823  0.66200 -0.65566 24926    281 0.8530  38
  -4  -4   0 1392.81   65.43   1 1.09800 0.07046 -0.24070 -0.74144 -0.73506 -0.24813  0.66200 -0.65591 24926    282 0.8626  38
  -3  -4   0   15.10   11.10   1 1.33589 0.07135 -0.24070 -0.75568 -0.73506 -0.36038  0.66200 -0.65463 24926    283 0.8451  38
  -2  -4   0  434.31   19.17   1 1.64700 0.07237 -0.24070 -0.74150 -0.73506 -0.49318  0.66200 -0.65589 24926    284 0.8225  38
  -3  -3   0  192.83   13.19   1 1.46358 0.07091 -0.24070 -0.74144 -0.73506 -0.24813  0.66200 -0.65591 24926    285 0.8376  38
  -2  -3   0   52.74    5.72   1 1.90838 0.07210 -0.24070 -0.75469 -0.73506 -0.40395  0.66200 -0.65536 24926    286 0.8063  38
  -2  -2   0 3786.48  119.92   1 2.19716 0.07169 -0.24070 -0.74144 -0.73506 -0.24813  0.66200 -0.65591 24926    287 0.7891  38
  -3  -5  -3  136.64   41.00   1 0.59593 0.07335 -0.24070 -0.25267 -0.73506  0.15548  0.66200 -0.91119 24926    295 0.8927  39
  -2  -5  -3  213.75   34.68   1 0.65218 0.07357 -0.24070 -0.20077 -0.73506  0.15057  0.66200 -0.93580 24926    296 0.8884  39
  -4  -4  -3   55.82   55.70   1 0.49105 0.07764 -0.24070 -0.20079 -0.73506  0.29530  0.66200 -0.86655 24926    299 0.8948  39
  -3  -4  -3  232.32   51.59   1 0.53652 0.07798 -0.24070 -0.16174 -0.73506  0.29366  0.66200 -0.88702 24926    300 0.8909  39
  -4  -4  -2  248.54   35.92   1 0.69550 0.07192 -0.24070 -0.38528 -0.73506  0.11229  0.66200 -0.85298 24926    305 0.8877  39
  -3  -4  -2   44.87   17.19   1 0.80143 0.07175 -0.24070 -0.36118 -0.73506  0.07858  0.66200 -0.88317 24926    306 0.8806  39
  -6  -3  -2   70.75   51.52   1 0.49175 0.07597 -0.24070 -0.30910 -0.73506  0.29628  0.66200 -0.79591 24926    308 0.8969  39
  -4  -3  -2  209.75   33.81   1 0.64180 0.07556 -0.24070 -0.28701 -0.73506  0.25679  0.66200 -0.83904 24926    310 0.8863  39
  -3  -3  -2  420.87   31.40   1 0.74244 0.07542 -0.24070 -0.26135 -0.73506  0.23505  0.66200 -0.86796 24926    311 0.8792  39
  -2  -3  -2   34.19   12.69   1 0.85969 0.07559 -0.24070 -0.21060 -0.73506  0.22143  0.66200 -0.90184 24926    312 0.8704  39
  -4  -2  -2 1664.55  111.46   1 0.51193 0.08274 -0.24070 -0.14054 -0.73506  0.42951  0.66200 -0.80450 24926    313 0.8866  39
  -3  -2  -2   25.23   22.58   1 0.56704 0.08382 -0.24070 -0.09935 -0.73506  0.43913  0.66200 -0.81948 24926    314 0.8807  39
  -6  -2  -1  461.11   60.21   1 0.59100 0.07455 -0.24070 -0.37517 -0.73506  0.29700  0.66200 -0.73902 24926    317 0.8914  39
  -5  -2  -1   36.64   22.27   1 0.69966 0.07394 -0.24070 -0.38546 -0.73506  0.26660  0.66200 -0.75506 24926    318 0.8844  39
  -4  -2  -1 1817.20   70.12   1 0.85096 0.07331 -0.24070 -0.39345 -0.73506  0.22977  0.66200 -0.77632 24926    319 0.8747  39
  -3  -2  -1  248.28   15.26   1 1.06978 0.07287 -0.24070 -0.39949 -0.73506  0.17748  0.66200 -0.80665 24926    320 0.8602  39
  -2  -2  -1   88.42    6.95   1 1.39178 0.07258 -0.24070 -0.38528 -0.73506  0.11229  0.66200 -0.85298 24926    321 0.8389  39
   3  -4   4  722.19   28.70   1 2.31739 0.07628 -0.24070  0.59629 -0.73506 -0.12586  0.66200  0.63618 24926    323 0.7695  43
   3  -4   5  720.12   30.39   1 2.02614 0.07656 -0.24070  0.55492 -0.73506 -0.01762  0.66200  0.75892 24926    325 0.7878  43
   4  -5   6  387.33   26.75   1 1.62729 0.07680 -0.24070  0.61629 -0.73506  0.00987  0.66200  0.70821 24926    327 0.8141  43
   0  -5   1   85.78    6.75   1 2.23503 0.07573 -0.24070 -0.58754 -0.73506 -0.92878  0.66200 -0.34227 24926    333 0.7762  46
   0  -4   1 2058.40   71.25   1 2.84130 0.07545 -0.24070 -0.59961 -0.73506 -0.95542  0.66200 -0.25954 24926    334 0.7389  46
   0  -8   2  397.27   30.02   1 1.41750 0.07675 -0.24070 -0.59961 -0.73506 -0.95542  0.66200 -0.25954 24926    337 0.8287  46
   0  -6   2  535.20   23.48   1 1.92454 0.07672 -0.24070 -0.61263 -0.73506 -0.98324  0.66200 -0.11713 24926    339 0.7941  46
  -2  -6   0   97.69   17.15   1 1.26736 0.07276 -0.24070 -0.70359 -0.73506 -0.58705  0.66200 -0.65664 24926    352 0.8469  47
  -1  -5   0    8.76    7.70   1 1.69882 0.07347 -0.24070 -0.64631 -0.73506 -0.65771  0.66200 -0.65806 24926    354 0.8166  47
  -1  -4   0  650.33   24.58   1 2.04093 0.07343 -0.24070 -0.67143 -0.73506 -0.63318  0.66200 -0.65666 24926    355 0.7945  47
  -1  -3   0    9.00    2.94   1 2.53517 0.07333 -0.24070 -0.70359 -0.73506 -0.58705  0.66200 -0.65664 24926    356 0.7638  47
   0  -8  -3  171.28   35.42   1 0.74584 0.06963 -0.24070 -0.20699 -0.73506 -0.15547  0.66200 -0.97650 24926    363 0.8877  48
  -1  -6  -3   38.82   24.72   1 0.73111 0.07134 -0.24070 -0.20138 -0.73506  0.02529  0.66200 -0.96865 24926    369 0.8861  48
  -2  -7  -2  107.05   28.06   1 0.83537 0.06970 -0.24070 -0.44633 -0.73506 -0.26282  0.66200 -0.89370 24926    372 0.8815  48
  -3  -6  -2   33.82   23.29   1 0.78488 0.06963 -0.24070 -0.46442 -0.73506 -0.14301  0.66200 -0.87961 24926    374 0.8850  48
  -2  -6  -2  523.25   39.24   1 0.88106 0.06965 -0.24070 -0.41985 -0.73506 -0.18637  0.66200 -0.90718 24926    375 0.8785  48
  -3  -5  -2   37.69   20.26   1 0.80897 0.07008 -0.24070 -0.42348 -0.73506 -0.04859  0.66200 -0.88610 24926    377 0.8827  48
  -2  -5  -2  109.69   20.06   1 0.91871 0.07014 -0.24070 -0.37781 -0.73506 -0.08681  0.66200 -0.91835 24926    378 0.8752  48
  -1  -4  -2  621.89   29.66   1 1.05665 0.07167 -0.24070 -0.23584 -0.73506  0.02576  0.66200 -0.95753 24926    380 0.8632  48
  -1  -4  -1   35.68    5.92   1 1.56968 0.07088 -0.24070 -0.46433 -0.73506 -0.31917  0.66200 -0.87995 24926    381 0.8308  48
   3  -7  -4   53.67   52.60   1 0.49576 0.07834 -0.24070  0.20085 -0.73506  0.32981  0.66200 -0.94313 24926    387 0.8935  49
   0  -6  -4  271.11   65.00   1 0.50733 0.07800 -0.24070  0.01005 -0.73506  0.27979  0.66200 -0.94828 24926    389 0.8931  49
   1  -6  -4  338.20   69.17   1 0.49012 0.07989 -0.24070  0.09197 -0.73506  0.33341  0.66200 -0.93882 24926    390 0.8920  49
   2  -6  -4  324.53   88.62   1 0.44711 0.08261 -0.24070  0.17203 -0.73506  0.40236  0.66200 -0.91486 24926    391 0.8920  49
  -1  -5  -4  177.30   87.45   1 0.41908 0.08317 -0.24070  0.01972 -0.73506  0.39051  0.66200 -0.89801 24926    392 0.8936  49
   2  -5  -3  243.00   30.80   1 0.64672 0.07940 -0.24070  0.18914 -0.73506  0.35011  0.66200 -0.93657 24926    393 0.8805  49
   3  -5  -3  249.99   47.39   1 0.52322 0.08372 -0.24070  0.27545 -0.73506  0.46096  0.66200 -0.88590 24926    394 0.8844  49
   1  -4  -3  742.21   65.96   1 0.51851 0.08602 -0.24070  0.16089 -0.73506  0.46455  0.66200 -0.88171 24926    397 0.8818  49
  -2  -3  -3  148.83   69.42   1 0.40599 0.08788 -0.24070  0.02623 -0.73506  0.49229  0.66200 -0.83256 24926    398 0.8890  49
   2  -3  -2  896.15   48.26   1 0.58139 0.08882 -0.24070  0.28170 -0.73506  0.56211  0.66200 -0.82706 24926    401 0.8729  49
  -5   3  -2   26.08    5.26   2 2.27922 0.07518 -0.21877 -0.97946  0.65318 -0.48417 -0.42049 -0.20156 24927    403 0.7748  13
  -7   4  -3  219.88   17.45   2 1.58476 0.07520 -0.21877 -0.97140  0.65318 -0.53661 -0.42049 -0.23006 24927    404 0.8205  13
  -8   5  -3   97.83   15.97   2 1.45447 0.07579 -0.21877 -0.98263  0.65318 -0.43766 -0.42049 -0.17493 24927    405 0.8281  13
  -8   4  -3  140.63   18.00   2 1.32518 0.07409 -0.21877 -0.97332  0.65318 -0.65493 -0.42049 -0.12202 24927    406 0.8404  13
  -5   4  -2  459.77   20.22   2 2.45363 0.07616 -0.21877 -0.88721  0.65318 -0.10702 -0.42049 -0.24861 24927    414 0.7610  14
  -7   6  -3   53.59   15.16   2 1.74181 0.07727 -0.21877 -0.83045  0.65318 -0.00528 -0.42049 -0.29373 24927    417 0.8052  14
  -8   7  -3   37.47   19.08   2 1.54507 0.07755 -0.21877 -0.82822  0.65318  0.03539 -0.42049 -0.21130 24927    418 0.8181  14
  -4   6   0  382.46   16.76   2 2.28745 0.07631 -0.21877 -0.12658  0.65318  0.70673 -0.42049  0.43976 24927    427 0.7713  16
  -5   8   0  141.38   14.76   2 1.72273 0.07691 -0.21877 -0.04291  0.65318  0.75588 -0.42049  0.43873 24927    428 0.8073  16
  -5   7   0  120.62   11.55   2 1.93836 0.07673 -0.21877 -0.22003  0.65318  0.64389 -0.42049  0.44019 24927    429 0.7932  16
  -6   9   0   30.12   15.46   2 1.52359 0.07719 -0.21877 -0.12658  0.65318  0.70673 -0.42049  0.43976 24927    430 0.8204  16
  -6   8   0   63.40   13.77   2 1.67702 0.07702 -0.21877 -0.28730  0.65318  0.59312 -0.42049  0.44010 24927    431 0.8102  16
  -4   8   2  416.08   28.64   2 1.36656 0.07396 -0.21877  0.21779  0.65318  0.56812 -0.42049  0.81938 24927    438 0.8378  17
  -3   5   1  228.56   10.74   2 2.35749 0.07480 -0.21877  0.04308  0.65318  0.57394 -0.42049  0.76895 24927    446 0.7708  17
  -4   8   1   53.88   12.66   2 1.55618 0.07557 -0.21877  0.21508  0.65318  0.73573 -0.42049  0.65389 24927    447 0.8216  17
  -4   7   1   66.50   10.17   2 1.77533 0.07554 -0.21877  0.08361  0.65318  0.66646 -0.42049  0.68757 24927    448 0.8069  17
  -4   8   4  239.28   29.29   2 0.95413 0.07023 -0.21877  0.22126  0.65318  0.19953 -0.42049  0.96980 24927    453 0.8726  18
  -3   8   3  116.26   19.66   2 1.09012 0.07125 -0.21877  0.38237  0.65318  0.40264 -0.42049  0.89117 24927    457 0.8617  18
  -3   7   3  245.04   20.79   2 1.18537 0.07099 -0.21877  0.30912  0.65318  0.31807 -0.42049  0.93209 24927    458 0.8558  18
  -3   6   3   73.99   12.56   2 1.27186 0.07064 -0.21877  0.22126  0.65318  0.19953 -0.42049  0.96980 24927    459 0.8507  18
  -4   8   3  116.58   18.64   2 1.15939 0.07195 -0.21877  0.21937  0.65318  0.38195 -0.42049  0.92360 24927    460 0.8557  18
  -4   7   3  170.12   17.26   2 1.24747 0.07160 -0.21877  0.12729  0.65318  0.27478 -0.42049  0.96144 24927    461 0.8505  18
  -2   5   2   15.81    6.41   2 1.70577 0.07170 -0.21877  0.34767  0.65318  0.36275 -0.42049  0.91189 24927    462 0.8202  18
  -2   4   2 1749.96   61.42   2 1.91092 0.07137 -0.21877  0.22126  0.65318  0.19953 -0.42049  0.96980 24927    463 0.8078  18
  -4   7   6  182.67   63.59   2 0.57547 0.07240 -0.21877  0.18021  0.65318 -0.22626 -0.42049  0.91328 24927    473 0.8955  19
  -5   7   6  330.09   65.13   2 0.59965 0.07166 -0.21877  0.08796  0.65318 -0.25383 -0.42049  0.93488 24927    476 0.8948  19
  -3   6   5   78.82   30.05   2 0.68098 0.07247 -0.21877  0.22238  0.65318 -0.19748 -0.42049  0.90748 24927    479 0.8879  19
  -4   7   5  202.63   36.68   2 0.76183 0.06999 -0.21877  0.16608  0.65318 -0.08615 -0.42049  0.96657 24927    480 0.8860  19
  -4   6   5  135.90   30.97   2 0.72464 0.07152 -0.21877  0.11438  0.65318 -0.22195 -0.42049  0.93970 24927    481 0.8863  19
  -5   6   5  401.19   44.46   2 0.73619 0.07088 -0.21877  0.00317  0.65318 -0.27036 -0.42049  0.94941 24927    483 0.8864  19
  -2   5   4 1057.85   59.37   2 0.82675 0.07264 -0.21877  0.28297  0.65318 -0.16190 -0.42049  0.89286 24927    484 0.8774  19
  -3   6   4  250.59   25.55   2 0.94725 0.07010 -0.21877  0.22222  0.65318 -0.01920 -0.42049  0.96332 24927    485 0.8733  19
  -3   5   4 1190.82   61.68   2 0.91119 0.07143 -0.21877  0.15371  0.65318 -0.18013 -0.42049  0.94250 24927    486 0.8735  19
  -4   5   4  420.10   30.90   2 0.93998 0.07059 -0.21877  0.01268  0.65318 -0.23470 -0.42049  0.96040 24927    487 0.8730  19
  -2   4   3 1049.13   46.63   2 1.20936 0.07136 -0.21877  0.22266  0.65318 -0.11359 -0.42049  0.93966 24927    488 0.8535  19
  -3   0   0 1672.78   58.58   2 0.94291 0.08234 -0.21877 -0.20530  0.65318 -0.86577 -0.42049  0.42588 24927    496 0.8532  20
  -4   0   0 1253.56   52.97   2 0.70726 0.08265 -0.21877 -0.20530  0.65318 -0.86577 -0.42049  0.42588 24927    497 0.8711  20
  -5   0   0   39.40   24.48   2 0.56760 0.08290 -0.21877 -0.20390  0.65318 -0.86533 -0.42049  0.42594 24927    498 0.8819  20
  -6   0  -1   71.67   26.80   2 0.60819 0.07750 -0.21877 -0.32719  0.65318 -0.92695 -0.42049  0.34058 24927    502 0.8861  20
  -8   0  -1  360.43   98.53   2 0.43295 0.07854 -0.21877 -0.30131  0.65318 -0.91353 -0.42049  0.36503 24927    504 0.8981  20
  -4  -1  -2  202.53   35.23   2 0.54941 0.08362 -0.21877 -0.15329  0.65318 -0.89976 -0.42049  0.27044 24927    505 0.8824  20
  -5  -1  -2  182.59   55.45   2 0.47364 0.08338 -0.21877 -0.17089  0.65318 -0.90067 -0.42049  0.29099 24927    506 0.8889  20
  -4   0  -2  614.55   26.84   2 1.13785 0.07226 -0.21877 -0.46421  0.65318 -0.99347 -0.42049  0.10773 24927    510 0.8566  21
  -5   1  -2  187.01   11.96   2 1.37891 0.07035 -0.21877 -0.71162  0.65318 -0.96304 -0.42049  0.04430 24927    511 0.8443  21
  -6   1  -2  164.75   16.96   2 1.06131 0.07015 -0.21877 -0.65709  0.65318 -0.97111 -0.42049  0.13312 24927    512 0.8656  21
  -5   1  -3  144.13   11.69   2 1.35511 0.07060 -0.21877 -0.69821  0.65318 -0.95673 -0.42049 -0.14222 24927    514 0.8453  21
  -6   1  -3  339.86   23.43   2 1.08000 0.06988 -0.21877 -0.67346  0.65318 -0.97651 -0.42049 -0.02624 24927    516 0.8648  21
  -6   0  -3  335.71   32.38   2 0.75886 0.07189 -0.21877 -0.46421  0.65318 -0.99347 -0.42049  0.10773 24927    517 0.8833  21
  -7   1  -3   22.94   17.73   2 0.88205 0.06985 -0.21877 -0.64164  0.65318 -0.98310 -0.42049  0.05901 24927    518 0.8781  21
  -8   1  -3  200.26   35.34   2 0.73668 0.06992 -0.21877 -0.60827  0.65318 -0.98369 -0.42049  0.11952 24927    519 0.8878  21
  -5   0  -4   91.35   17.45   2 0.91720 0.07030 -0.21877 -0.47234  0.65318 -0.99548 -0.42049 -0.09032 24927    521 0.8750  21
  -6   1  -4   47.31   13.77   2 1.05202 0.07006 -0.21877 -0.65248  0.65318 -0.96729 -0.42049 -0.16232 24927    522 0.8664  21
  -6   0  -4  221.18   31.99   2 0.77298 0.07067 -0.21877 -0.47865  0.65318 -0.99967 -0.42049 -0.00828 24927    523 0.8842  21
  -7   1  -4  456.68   37.49   2 0.88092 0.06957 -0.21877 -0.64235  0.65318 -0.98250 -0.42049 -0.06520 24927    524 0.8786  21
  -7   0  -4  239.21   43.07   2 0.65916 0.07120 -0.21877 -0.47427  0.65318 -0.99799 -0.42049  0.05655 24927    525 0.8913  21
  -6   0  -5  574.89   47.72   2 0.76199 0.07004 -0.21877 -0.46968  0.65318 -0.99360 -0.42049 -0.10855 24927    531 0.8859  21
  -7   0  -5   46.62   33.81   2 0.66066 0.07021 -0.21877 -0.47820  0.65318 -0.99892 -0.42049 -0.03944 24927    532 0.8926  21
  -3   1  -2  506.43   17.86   2 2.66953 0.07292 -0.21877 -0.78598  0.65318 -0.85248 -0.42049 -0.31737 24927    539 0.7568  22
  -5   2  -3  252.77   13.64   2 1.78107 0.07322 -0.21877 -0.85266  0.65318 -0.78643 -0.42049 -0.31635 24927    540 0.8118  22
  -5   2  -4 1013.80   42.11   2 1.60991 0.07319 -0.21877 -0.75272  0.65318 -0.77345 -0.42049 -0.47242 24927    541 0.8231  22
  -6   3  -4  246.80   16.82   2 1.57940 0.07449 -0.21877 -0.85255  0.65318 -0.65320 -0.42049 -0.45221 24927    542 0.8223  22
  -6   2  -4  351.18   24.10   2 1.33349 0.07208 -0.21877 -0.78598  0.65318 -0.85248 -0.42049 -0.31737 24927    543 0.8438  22
  -7   3  -5  257.95   25.17   2 1.23898 0.07344 -0.21877 -0.80818  0.65318 -0.74621 -0.42049 -0.43679 24927    546 0.8475  22
  -8   4  -5  309.59   31.00   2 1.21018 0.07449 -0.21877 -0.87441  0.65318 -0.65374 -0.42049 -0.41580 24927    547 0.8475  22
  -5   4  -3   18.46    6.68   2 2.25630 0.07642 -0.21877 -0.80477  0.65318 -0.14873 -0.42049 -0.51629 24927    556 0.7730  23
  -8   6  -4  108.51   19.27   2 1.46668 0.07705 -0.21877 -0.88561  0.65318 -0.21841 -0.42049 -0.38542 24927    558 0.8246  23
  -2   4   0 2616.55   99.49   2 3.40094 0.07494 -0.21877  0.21311  0.65318  0.86393 -0.42049  0.43563 24927    564 0.7071  26
  -4   9   0  118.65   17.30   2 1.48132 0.07658 -0.21877  0.32368  0.65318  0.89029 -0.42049  0.43327 24927    567 0.8246  26
  -4   8   0 1330.06   56.01   2 1.69866 0.07662 -0.21877  0.21311  0.65318  0.86393 -0.42049  0.43563 24927    568 0.8096  26
  -4   7   0   13.93    7.09   2 1.96649 0.07655 -0.21877  0.06614  0.65318  0.80912 -0.42049  0.43888 24927    569 0.7917  26
  -5   9   0  132.86   17.61   2 1.52455 0.07698 -0.21877  0.09910  0.65318  0.82364 -0.42049  0.43730 24927    572 0.8208  26
  -3   8   5  253.82   39.58   2 0.71799 0.06979 -0.21877  0.32725  0.65318  0.03999 -0.42049  0.93409 24927    582 0.8893  28
  -1   7   4  139.29   32.20   2 0.73775 0.07033 -0.21877  0.49710  0.65318  0.06204 -0.42049  0.84054 24927    585 0.8872  28
  -2   8   4   57.61   27.43   2 0.81343 0.06950 -0.21877  0.46304  0.65318  0.19538 -0.42049  0.88535 24927    587 0.8833  28
  -1   7   3   51.76   18.70   2 0.93746 0.06965 -0.21877  0.56854  0.65318  0.25314 -0.42049  0.82187 24927    589 0.8747  28
  -1   6   3  349.53   25.80   2 0.99848 0.07007 -0.21877  0.51878  0.65318  0.16484 -0.42049  0.84791 24927    590 0.8699  28
  -2   6   3  799.52   36.80   2 1.15893 0.07013 -0.21877  0.39424  0.65318  0.21036 -0.42049  0.91888 24927    592 0.8592  28
  -2   5   3  257.40   16.50   2 1.22098 0.07030 -0.21877  0.31221  0.65318  0.07320 -0.42049  0.94518 24927    593 0.8547  28
  -2   6   6  142.44   91.38   2 0.42141 0.08010 -0.21877  0.28370  0.65318 -0.34080 -0.42049  0.78034 24927    595 0.8971  29
  -3   6   6  230.83   82.51   2 0.47595 0.07765 -0.21877  0.22064  0.65318 -0.33532 -0.42049  0.82856 24927    596 0.8959  29
  -4   5   6  428.38  117.11   2 0.41847 0.08156 -0.21877  0.12700  0.65318 -0.46794 -0.42049  0.77929 24927    597 0.8956  29
  -2   5   5  175.04   51.63   2 0.53434 0.07885 -0.21877  0.25991  0.65318 -0.33634 -0.42049  0.80159 24927    600 0.8899  29
  -3   4   5  833.91  105.95   2 0.45625 0.08386 -0.21877  0.15342  0.65318 -0.48464 -0.42049  0.74586 24927    601 0.8897  29
  -4   4   5   93.43   53.89   2 0.49483 0.08136 -0.21877  0.07381  0.65318 -0.50654 -0.42049  0.77509 24927    602 0.8897  29
   0   4   4  534.75   90.05   2 0.43356 0.08611 -0.21877  0.34937  0.65318 -0.39566 -0.42049  0.66650 24927    603 0.8888  29
  -1   4   4 1040.85   75.54   2 0.58459 0.08137 -0.21877  0.30814  0.65318 -0.34895 -0.42049  0.75344 24927    604 0.8826  29
  -2   4   4  146.88   20.40   2 0.71379 0.07764 -0.21877  0.22087  0.65318 -0.33620 -0.42049  0.82779 24927    605 0.8780  29
  -2   3   4  848.49   83.75   2 0.47101 0.08735 -0.21877  0.18580  0.65318 -0.51403 -0.42049  0.68871 24927    606 0.8841  29
   0   3   3   75.54   25.77   2 0.57810 0.08576 -0.21877  0.34922  0.65318 -0.39491 -0.42049  0.66752 24927    608 0.8772  29
  -2   2   3 1179.53   67.31   2 0.56073 0.08849 -0.21877  0.13657  0.65318 -0.57124 -0.42049  0.66032 24927    610 0.8751  29
   0   2   2 1263.87   49.69   2 0.86845 0.08524 -0.21877  0.34937  0.65318 -0.39566 -0.42049  0.66650 24927    611 0.8544  29
  -1   2   2   51.25    4.04   2 1.42754 0.07747 -0.21877  0.22087  0.65318 -0.33620 -0.42049  0.82779 24927    612 0.8265  29
  -5   3  -4  894.29   33.87   2 1.87494 0.07533 -0.21877 -0.77151  0.65318 -0.51334 -0.42049 -0.61893 24927    615 0.8007  33
  -5   3  -5  184.25   14.87   2 1.64118 0.07506 -0.21877 -0.64969  0.65318 -0.52946 -0.42049 -0.72255 24927    616 0.8169  33
  -6   4  -5  245.36   19.12   2 1.57821 0.07599 -0.21877 -0.73557  0.65318 -0.41766 -0.42049 -0.67500 24927    617 0.8192  33
  -7   4  -5  116.66   18.72   2 1.38472 0.07533 -0.21877 -0.82705  0.65318 -0.55008 -0.42049 -0.53956 24927    618 0.8338  33
  -6   4  -6  152.83   19.24   2 1.41094 0.07574 -0.21877 -0.63550  0.65318 -0.44139 -0.42049 -0.75879 24927    619 0.8312  33
  -7   5  -6  111.89   20.28   2 1.35521 0.07649 -0.21877 -0.70363  0.65318 -0.34900 -0.42049 -0.71056 24927    620 0.8336  33
  -7   4  -6   24.63   17.51   2 1.26976 0.07514 -0.21877 -0.73965  0.65318 -0.55833 -0.42049 -0.63682 24927    621 0.8422  33
  -5   5  -4   48.04   10.60   2 2.03324 0.07710 -0.21877 -0.55339  0.65318  0.10427 -0.42049 -0.70728 24927    629 0.7860  34
  -6   6  -4  397.43   21.82   2 1.82077 0.07754 -0.21877 -0.60953  0.65318  0.15833 -0.42049 -0.58526 24927    630 0.7992  34
  -6   6  -5  380.84   25.41   2 1.66248 0.07761 -0.21877 -0.53918  0.65318  0.09033 -0.42049 -0.73251 24927    631 0.8099  34
  -3   7  -1   53.91    9.43   2 1.99101 0.07679 -0.21877  0.35829  0.65318  0.97686 -0.42049  0.15216 24927    638 0.7895  36
  -3   7  -2  222.98   14.47   2 1.99491 0.07712 -0.21877  0.35529  0.65318  0.97957 -0.42049 -0.12777 24927    640 0.7885  36
  -4   8  -2  348.38   22.37   2 1.79346 0.07756 -0.21877  0.20846  0.65318  0.94905 -0.42049 -0.07014 24927    642 0.8010  36
  -5   9  -2   28.54   16.77   2 1.61107 0.07792 -0.21877  0.08864  0.65318  0.90679 -0.42049 -0.01799 24927    645 0.8128  36
  -1   4   0   14.93    3.24   2 2.91909 0.07460 -0.21877  0.64869  0.65318  0.86847 -0.42049  0.42946 24927    650 0.7367  37
  -2   8   0   76.71   15.14   2 1.45899 0.07507 -0.21877  0.64902  0.65318  0.86916 -0.42049  0.42808 24927    652 0.8293  37
  -2   6   0  413.43   16.22   2 2.08498 0.07549 -0.21877  0.52487  0.65318  0.89848 -0.42049  0.43023 24927    654 0.7865  37
  -3   9   0   22.13   14.56   2 1.38757 0.07587 -0.21877  0.52487  0.65318  0.89848 -0.42049  0.43023 24927    657 0.8326  37
  -3   8   0  132.81   13.51   2 1.60506 0.07604 -0.21877  0.45377  0.65318  0.90188 -0.42049  0.43197 24927    658 0.8172  37
   0   8   2  139.60   30.16   2 0.87672 0.06989 -0.21877  0.74225  0.65318  0.39312 -0.42049  0.66964 24927    670 0.8784  38
  -1   8   2  203.40   27.03   2 1.02342 0.07081 -0.21877  0.67686  0.65318  0.49242 -0.42049  0.71431 24927    674 0.8670  38
   0   8   1  255.80   32.12   2 0.99652 0.07086 -0.21877  0.81227  0.65318  0.53751 -0.42049  0.56321 24927    679 0.8687  38
   0   7   1   83.75   18.54   2 1.12195 0.07085 -0.21877  0.80231  0.65318  0.51716 -0.42049  0.58168 24927    680 0.8603  38
   0   6   1   48.86   13.36   2 1.27819 0.07083 -0.21877  0.78893  0.65318  0.49014 -0.42049  0.60447 24927    681 0.8499  38
   0   5   1   21.67    8.59   2 1.48157 0.07089 -0.21877  0.76987  0.65318  0.45193 -0.42049  0.63350 24927    682 0.8365  38
   0   4   1 2343.54   78.77   2 1.75307 0.07103 -0.21877  0.74225  0.65318  0.39312 -0.42049  0.66964 24927    683 0.8187  38
  -1   8   1   30.69   15.34   2 1.16637 0.07226 -0.21877  0.73936  0.65318  0.65101 -0.42049  0.58977 24927    684 0.8547  38
  -1   7   1   37.64   11.80   2 1.33999 0.07238 -0.21877  0.71646  0.65318  0.64321 -0.42049  0.61514 24927    685 0.8428  38
  -1   6   1   29.56    7.84   2 1.56558 0.07252 -0.21877  0.68492  0.65318  0.63229 -0.42049  0.64721 24927    686 0.8275  38
   1   7   4   68.81   54.39   2 0.51450 0.07415 -0.21877  0.56488  0.65318 -0.07762 -0.42049  0.71278 24927    695 0.8976  39
   0   6   4  383.92   49.04   2 0.61036 0.07436 -0.21877  0.49227  0.65318 -0.11021 -0.42049  0.76705 24927    697 0.8903  39
   2   5   3  140.77   60.50   2 0.46338 0.08071 -0.21877  0.53030  0.65318 -0.23874 -0.42049  0.61664 24927    703 0.8931  39
   1   7   3   59.72   33.09   2 0.64798 0.07122 -0.21877  0.65498  0.65318  0.07263 -0.42049  0.69598 24927    704 0.8921  39
   1   6   3   53.49   27.98   2 0.65516 0.07280 -0.21877  0.60997  0.65318 -0.02023 -0.42049  0.69779 24927    705 0.8893  39
   1   5   3  307.88   40.24   2 0.62962 0.07633 -0.21877  0.54849  0.65318 -0.13770 -0.42049  0.68766 24927    706 0.8861  39
   0   5   3  395.11   27.23   2 0.83012 0.07272 -0.21877  0.52834  0.65318 -0.03863 -0.42049  0.77370 24927    708 0.8771  39
   2   6   2  482.69   50.55   2 0.64815 0.07232 -0.21877  0.70272  0.65318  0.02508 -0.42049  0.60352 24927    713 0.8905  39
   2   5   2  121.24   31.28   2 0.64057 0.07504 -0.21877  0.64915  0.65318 -0.07851 -0.42049  0.60164 24927    714 0.8871  39
   2   4   2  146.98   33.49   2 0.58520 0.07980 -0.21877  0.56992  0.65318 -0.21518 -0.42049  0.58453 24927    715 0.8847  39
   1   4   2  575.59   29.63   2 0.86670 0.07459 -0.21877  0.60727  0.65318 -0.07191 -0.42049  0.66572 24927    717 0.8715  39
   1   3   2  104.92   14.84   2 0.75561 0.08113 -0.21877  0.50189  0.65318 -0.25949 -0.42049  0.63302 24927    718 0.8696  39
   3   5   1   49.13   34.77   2 0.60082 0.07469 -0.21877  0.71124  0.65318 -0.06806 -0.42049  0.50478 24927    720 0.8905  39
   2   4   1 1942.51   74.39   2 0.82915 0.07373 -0.21877  0.71344  0.65318 -0.03228 -0.42049  0.53781 24927    721 0.8755  39
  -3   3  -4  709.58   27.16   2 2.43605 0.07589 -0.21877 -0.34097  0.65318 -0.10866 -0.42049 -0.93736 24927    724 0.7629  43
  -5   5  -6  202.32   20.58   2 1.58884 0.07701 -0.21877 -0.38999  0.65318 -0.06104 -0.42049 -0.90773 24927    727 0.8163  43
  -5   5  -7   27.15   17.52   2 1.39697 0.07671 -0.21877 -0.31904  0.65318 -0.13062 -0.42049 -0.94716 24927    730 0.8302  43
  -1   4  -1  349.03   13.23   2 3.13004 0.07517 -0.21877  0.67434  0.65318  0.97656 -0.42049 -0.01318 24927    736 0.7223  46
  -2   6  -1 1259.64   44.93   2 2.21119 0.07621 -0.21877  0.53916  0.65318  0.99163 -0.42049  0.11901 24927    737 0.7765  46
  -2   9  -2  105.99   21.30   2 1.35495 0.07640 -0.21877  0.71441  0.65318  0.96195 -0.42049  0.04464 24927    738 0.8338  46
  -2   8  -2   55.16   14.65   2 1.56093 0.07661 -0.21877  0.67545  0.65318  0.97625 -0.42049 -0.01180 24927    739 0.8190  46
  -2   7  -2  110.22   12.05   2 1.83401 0.07668 -0.21877  0.61841  0.65318  0.98555 -0.42049 -0.08749 24927    740 0.8003  46
   0   8   0   85.43   22.13   2 1.09680 0.07204 -0.21877  0.86944  0.65318  0.65617 -0.42049  0.42271 24927    751 0.8598  47
   0   7   0  126.97   18.41   2 1.25409 0.07217 -0.21877  0.86944  0.65318  0.65617 -0.42049  0.42271 24927    752 0.8489  47
   0   6   0 2114.48   85.65   2 1.46330 0.07233 -0.21877  0.86944  0.65318  0.65617 -0.42049  0.42271 24927    753 0.8347  47
   0   4   0  832.98   29.94   2 2.19734 0.07279 -0.21877  0.86944  0.65318  0.65617 -0.42049  0.42271 24927    755 0.7862  47
  -1   7   0  249.42   18.13   2 1.49442 0.07393 -0.21877  0.77121  0.65318  0.79450 -0.42049  0.42697 24927    760 0.8292  47
   0   8  -1  325.44   31.13   2 1.16609 0.07316 -0.21877  0.90861  0.65318  0.73894 -0.42049  0.25768 24927    763 0.8530  47
   0   6  -1   93.47   11.45   2 1.57465 0.07360 -0.21877  0.91712  0.65318  0.75701 -0.42049  0.20033 24927    765 0.8246  47
  -1   9  -1   92.76   21.54   2 1.18156 0.07449 -0.21877  0.82841  0.65318  0.84428 -0.42049  0.25908 24927    767 0.8495  47
   1   7   2  169.10   29.90   2 0.78589 0.06985 -0.21877  0.74604  0.65318  0.22626 -0.42049  0.64398 24927    769 0.8846  48
   2   7   1   38.04   27.59   2 0.73934 0.06979 -0.21877  0.82586  0.65318  0.23146 -0.42049  0.52349 24927    774 0.8879  48
   2   6   1  674.91   48.37   2 0.78559 0.07016 -0.21877  0.80290  0.65318  0.16690 -0.42049  0.53103 24927    775 0.8842  48
   1   6   1   23.32   14.51   2 1.00861 0.06975 -0.21877  0.82032  0.65318  0.32696 -0.42049  0.56377 24927    777 0.8698  48
   1   5   1   36.10   12.18   2 1.11537 0.07019 -0.21877  0.80046  0.65318  0.26346 -0.42049  0.57821 24927    778 0.8619  48
   1   4   1   62.95    9.28   2 1.22446 0.07073 -0.21877  0.76610  0.65318  0.16944 -0.42049  0.59351 24927    779 0.8537  48
   2   6   0  115.78   20.84   2 0.90406 0.06972 -0.21877  0.89014  0.65318  0.29198 -0.42049  0.42000 24927    785 0.8768  48
   2   5   0  103.76   18.22   2 0.98024 0.07013 -0.21877  0.87488  0.65318  0.22525 -0.42049  0.41781 24927    786 0.8711  48
   2   4   0  454.91   25.38   2 1.05245 0.07082 -0.21877  0.84419  0.65318  0.13248 -0.42049  0.41893 24927    787 0.8650  48
   1   4   0  590.31   23.45   2 1.53784 0.07068 -0.21877  0.90391  0.65318  0.38011 -0.42049  0.41960 24927    788 0.8333  48
   1   3   0    6.76    4.24   2 1.80770 0.07095 -0.21877  0.89014  0.65318  0.29198 -0.42049  0.42000 24927    789 0.8154  48
   4   4   0 1394.27  132.33   2 0.49640 0.07890 -0.21877  0.66204  0.65318 -0.20781 -0.42049  0.41784 24927    793 0.8928  49
   3   3   0  170.19   25.57   2 0.66044 0.07888 -0.21877  0.66098  0.65318 -0.20904 -0.42049  0.41832 24927    795 0.8802  49
   3   2   0   72.12   35.16   2 0.47781 0.08794 -0.21877  0.50256  0.65318 -0.40399 -0.42049  0.41824 24927    796 0.8828  49
   1   1   0  155.86    5.40   2 1.98354 0.07822 -0.21877  0.66204  0.65318 -0.20781 -0.42049  0.41784 24927    798 0.7866  49
   5   4  -1  100.18   69.84   2 0.42701 0.07965 -0.21877  0.66046  0.65318 -0.24089 -0.42049  0.35901 24927    799 0.8972  49
   4   2  -1 1891.74  185.26   2 0.40579 0.08749 -0.21877  0.52007  0.65318 -0.41037 -0.42049  0.36095 24927    801 0.8895  49
   3   2  -1  401.70   27.44   2 0.73154 0.07993 -0.21877  0.65332  0.65318 -0.27008 -0.42049  0.31365 24927    802 0.8733  49
   4   2  -2  187.43   43.55   2 0.54442 0.08144 -0.21877  0.62225  0.65318 -0.32732 -0.42049  0.26329 24927    805 0.8857  49
   3   1  -2  117.14   17.90   2 0.67761 0.08324 -0.21877  0.56961  0.65318 -0.39960 -0.42049  0.22579 24927    806 0.8726  49
   5   3  -3  150.64   54.25   2 0.50009 0.07719 -0.21877  0.69931  0.65318 -0.24305 -0.42049  0.20633 24927    808 0.8947  49
   5   2  -3  223.82   80.89   2 0.42289 0.08269 -0.21877  0.59380  0.65318 -0.36867 -0.42049  0.23824 24927    809 0.8939  49
   1  -2   3   16.12    2.78   3 3.08520 0.07435 -0.17493  0.18504 -0.89053  0.20486  0.33093  0.97413 24928    811 0.7275  13
   2  -3   4  717.14   28.19   3 2.24694 0.07468 -0.17493  0.35151 -0.89053  0.22538  0.33093  0.93443 24928    812 0.7782  13
   2  -4   5 1383.37   55.94   3 1.86233 0.07549 -0.17493  0.18555 -0.89053  0.06118  0.33093  0.98196 24928    813 0.8012  13
   3  -5   6   90.27   14.81   3 1.51812 0.07557 -0.17493  0.29864 -0.89053  0.10193  0.33093  0.95279 24928    814 0.8242  13
   2  -4   6  168.35   16.55   3 1.53987 0.07466 -0.17493  0.18504 -0.89053  0.20486  0.33093  0.97413 24928    815 0.8246  13
   4  -6   7  191.66   24.84   3 1.27292 0.07555 -0.17493  0.37469 -0.89053  0.13537  0.33093  0.92521 24928    816 0.8412  13
   3  -6   7   99.77   20.67   3 1.32640 0.07609 -0.17493  0.18538 -0.89053  0.00509  0.33093  0.97745 24928    817 0.8364  13
   3  -5   7   52.56   17.73   3 1.30151 0.07480 -0.17493  0.28177 -0.89053  0.21502  0.33093  0.95565 24928    818 0.8406  13
   2  -5   7   51.88   15.74   3 1.33952 0.07527 -0.17493  0.08573 -0.89053  0.09418  0.33093  0.99455 24928    819 0.8371  13
   2  -5   4  963.05   41.22   3 2.15684 0.07671 -0.17493  0.02450 -0.89053 -0.38927  0.33093  0.88569 24928    825 0.7788  14
   2  -6   5   65.33   14.33   3 1.74524 0.07721 -0.17493 -0.07495 -0.89053 -0.40611  0.33093  0.90177 24928    826 0.8051  14
   3  -7   6  135.40   22.20   3 1.46900 0.07740 -0.17493  0.07675 -0.89053 -0.30992  0.33093  0.91234 24928    828 0.8238  14
   2  -7   6  254.45   27.42   3 1.46253 0.07752 -0.17493 -0.14111 -0.89053 -0.41159  0.33093  0.90830 24928    829 0.8240  14
  -1  -6   2   45.68   11.44   3 1.77144 0.07690 -0.17493 -0.87756 -0.89053 -0.82427  0.33093  0.17818 24928    832 0.8040  16
  -1  -5   2  150.44   10.73   3 2.04151 0.07650 -0.17493 -0.88544 -0.89053 -0.77963  0.33093  0.25427 24928    833 0.7869  16
  -1  -7   3  237.82   23.08   3 1.51554 0.07735 -0.17493 -0.83721 -0.89053 -0.80278  0.33093  0.31983 24928    836 0.8206  16
  -1  -6   3   27.04   12.35   3 1.69760 0.07704 -0.17493 -0.83125 -0.89053 -0.75170  0.33093  0.39804 24928    837 0.8087  16
  -2  -6   1  511.69   30.43   3 1.52484 0.07589 -0.17493 -0.96173 -0.89053 -0.70021  0.33093 -0.10453 24928    839 0.8230  17
  -2  -5   1   76.96   11.07   3 1.72250 0.07551 -0.17493 -0.97965 -0.89053 -0.65047  0.33093 -0.07667 24928    840 0.8105  17
  -3  -6   1   24.66   17.50   3 1.29840 0.07489 -0.17493 -0.98728 -0.89053 -0.56309  0.33093 -0.13728 24928    844 0.8407  17
  -3  -6   2   37.39   17.34   3 1.30760 0.07538 -0.17493 -0.99477 -0.89053 -0.57408  0.33093  0.05094 24928    849 0.8391  17
  -3  -3   0  177.60   11.58   3 1.59079 0.07178 -0.17493 -0.89464 -0.89053 -0.17754  0.33093 -0.32027 24928    852 0.8275  18
  -4  -4   0 1379.02   62.92   3 1.19211 0.07140 -0.17493 -0.89464 -0.89053 -0.17754  0.33093 -0.32027 24928    853 0.8546  18
  -5  -4   0   89.24   22.19   3 0.97880 0.07033 -0.17493 -0.84766 -0.89053 -0.05828  0.33093 -0.32140 24928    856 0.8708  18
  -4  -4   1   64.30   12.80   3 1.25740 0.07220 -0.17493 -0.94958 -0.89053 -0.23276  0.33093 -0.14206 24928    858 0.8487  18
  -5  -4   1   53.39   19.59   3 1.03013 0.07101 -0.17493 -0.90182 -0.89053 -0.10868  0.33093 -0.17481 24928    861 0.8662  18
  -3  -1   0    7.60    4.80   3 1.46569 0.07199 -0.17493 -0.59037 -0.89053  0.34592  0.33093 -0.32161 24928    865 0.8352  19
  -4  -1   0  672.45   34.15   3 1.01865 0.07308 -0.17493 -0.50965 -0.89053  0.43551  0.33093 -0.32380 24928    866 0.8633  19
  -6  -2   0   82.48   27.13   3 0.73285 0.07117 -0.17493 -0.59143 -0.89053  0.34487  0.33093 -0.32106 24928    867 0.8862  19
  -4  -1   1   42.04   10.07   3 1.16915 0.07119 -0.17493 -0.60923 -0.89053  0.36859  0.33093 -0.15678 24928    870 0.8565  19
  -5  -1   1   30.38   15.95   3 0.87752 0.07222 -0.17493 -0.54415 -0.89053  0.43374  0.33093 -0.19915 24928    871 0.8746  19
  -6  -2   1  586.50   50.04   3 0.79863 0.07010 -0.17493 -0.65973 -0.89053  0.29494  0.33093 -0.21033 24928    872 0.8834  19
  -6  -1   1   42.92   24.56   3 0.69154 0.07307 -0.17493 -0.49471 -0.89053  0.47924  0.33093 -0.22659 24928    873 0.8863  19
  -7  -2   2   91.95   35.90   3 0.69001 0.06994 -0.17493 -0.64976 -0.89053  0.32435  0.33093 -0.12574 24928    880 0.8910  19
  -7  -1   2  205.18   53.60   3 0.60826 0.07255 -0.17493 -0.50532 -0.89053  0.48287  0.33093 -0.15271 24928    881 0.8930  19
   1   0   4  711.22   29.41   3 0.93531 0.07754 -0.17493  0.31900 -0.89053  0.96217  0.33093  0.19798 24928    889 0.8617  20
  -1   1   4  690.77   58.69   3 0.46438 0.08951 -0.17493  0.14295 -0.89053  0.92659  0.33093 -0.06792 24928    890 0.8820  20
   2   0   5 1572.26   79.98   3 0.61241 0.08073 -0.17493  0.36012 -0.89053  0.98317  0.33093  0.10166 24928    891 0.8813  20
   1   0   5 1601.96   64.47   3 0.79097 0.07678 -0.17493  0.29852 -0.89053  0.95180  0.33093  0.22830 24928    892 0.8735  20
  -1   1   5 1614.09  107.42   3 0.48295 0.08629 -0.17493  0.14200 -0.89053  0.92819  0.33093  0.01161 24928    893 0.8844  20
   2   0   6 1624.91  102.35   3 0.56137 0.07920 -0.17493  0.34544 -0.89053  0.97566  0.33093  0.14508 24928    894 0.8873  20
  -1   1   6   60.36   45.80   3 0.46717 0.08394 -0.17493  0.14365 -0.89053  0.92695  0.33093  0.06615 24928    895 0.8887  20
  -2   1   6 2529.91  153.65   3 0.50579 0.08178 -0.17493  0.06640 -0.89053  0.89293  0.33093  0.10038 24928    896 0.8883  20
  -1   1   7  635.68   99.94   3 0.43812 0.08228 -0.17493  0.14678 -0.89053  0.92521  0.33093  0.10487 24928    899 0.8931  20
   2   0   8  147.39   60.76   3 0.46897 0.07771 -0.17493  0.31778 -0.89053  0.96217  0.33093  0.19663 24928    901 0.8964  20
   2  -1   3   14.92    4.03   3 1.78671 0.07128 -0.17493  0.58142 -0.89053  0.89268  0.33093  0.42283 24928    906 0.8160  21
   4  -2   5 1540.81   64.53   3 1.02895 0.07026 -0.17493  0.64139 -0.89053  0.89191  0.33093  0.39188 24928    908 0.8676  21
   3  -2   5 1808.29   68.44   3 1.28291 0.07030 -0.17493  0.56535 -0.89053  0.79710  0.33093  0.57231 24928    909 0.8507  21
   4  -2   6  191.32   23.83   3 0.89373 0.07013 -0.17493  0.58142 -0.89053  0.89268  0.33093  0.42283 24928    911 0.8769  21
   3  -2   6   19.07   12.92   3 1.06712 0.06984 -0.17493  0.50078 -0.89053  0.81304  0.33093  0.57194 24928    912 0.8658  21
   6  -3   7  147.77   33.71   3 0.71774 0.06980 -0.17493  0.66294 -0.89053  0.89256  0.33093  0.37516 24928    913 0.8893  21
   5  -3   7   71.35   21.85   3 0.84868 0.06952 -0.17493  0.62471 -0.89053  0.82940  0.33093  0.50328 24928    914 0.8809  21
   4  -2   7  635.80   48.25   3 0.78214 0.07005 -0.17493  0.53195 -0.89053  0.89272  0.33093  0.43965 24928    916 0.8846  21
   3  -2   7   51.05   17.75   3 0.90461 0.06978 -0.17493  0.45233 -0.89053  0.82666  0.33093  0.56089 24928    917 0.8767  21
   4  -3   8   29.92   20.35   3 0.85090 0.06980 -0.17493  0.49946 -0.89053  0.76604  0.33093  0.62858 24928    920 0.8803  21
   4  -2   8  260.07   42.10   3 0.69074 0.06998 -0.17493  0.49023 -0.89053  0.89260  0.33093  0.44798 24928    921 0.8909  21
   3  -2   8  261.93   35.09   3 0.78129 0.06973 -0.17493  0.41569 -0.89053  0.83482  0.33093  0.55052 24928    922 0.8851  21
   2  -2   3 1636.77   56.03   3 2.63452 0.07337 -0.17493  0.57572 -0.89053  0.50078  0.33093  0.77981 24928    932 0.7576  22
   4  -4   5  303.49   19.30   3 1.54514 0.07360 -0.17493  0.64347 -0.89053  0.43248  0.33093  0.75472 24928    934 0.8266  22
   3  -3   5   65.00   10.33   3 1.58358 0.07255 -0.17493  0.53721 -0.89053  0.53927  0.33093  0.78341 24928    935 0.8263  22
   5  -5   6  220.05   22.81   3 1.27629 0.07364 -0.17493  0.65914 -0.89053  0.41797  0.33093  0.74506 24928    936 0.8446  22
   4  -4   6 1124.66   54.17   3 1.31568 0.07281 -0.17493  0.57572 -0.89053  0.50078  0.33093  0.77981 24928    938 0.8436  22
   5  -5   7   47.75   18.68   3 1.11850 0.07298 -0.17493  0.60126 -0.89053  0.47558  0.33093  0.77309 24928    941 0.8566  22
   4  -4   7   72.03   18.99   3 1.12777 0.07202 -0.17493  0.52230 -0.89053  0.55609  0.33093  0.78180 24928    943 0.8578  22
   3  -5   4  865.56   33.33   3 2.08575 0.07648 -0.17493  0.33918 -0.89053 -0.19269  0.33093  0.84259 24928    950 0.7840  23
   4  -6   5  248.23   18.82   3 1.65117 0.07662 -0.17493  0.43012 -0.89053 -0.09112  0.33093  0.83066 24928    952 0.8128  23
   3  -6   5   41.74   11.55   3 1.73147 0.07704 -0.17493  0.18596 -0.89053 -0.26798  0.33093  0.88977 24928    953 0.8064  23
   3  -5   5  170.84   13.51   3 1.77958 0.07617 -0.17493  0.31842 -0.89053 -0.03367  0.33093  0.92141 24928    954 0.8051  23
   4  -7   6   18.43   16.21   3 1.43597 0.07708 -0.17493  0.29284 -0.89053 -0.17472  0.33093  0.88133 24928    956 0.8267  23
   4  -6   6  110.34   17.68   3 1.45025 0.07616 -0.17493  0.40122 -0.89053  0.02844  0.33093  0.89415 24928    957 0.8276  23
   3  -6   6  310.27   23.87   3 1.51596 0.07667 -0.17493  0.18618 -0.89053 -0.12129  0.33093  0.95082 24928    958 0.8220  23
  -1  -7   1   25.79   13.88   3 1.55717 0.07687 -0.17493 -0.87101 -0.89053 -0.85183  0.33093 -0.10117 24928    966 0.8188  26
  -1  -6   1   37.80   10.31   3 1.78507 0.07660 -0.17493 -0.88774 -0.89053 -0.83796  0.33093 -0.06960 24928    967 0.8038  26
  -4  -4  -3  107.91   23.71   3 0.79784 0.06997 -0.17493 -0.54524 -0.89053  0.17424  0.33093 -0.66065 24928    972 0.8836  28
  -3  -3  -2  440.83   24.11   3 1.13072 0.07025 -0.17493 -0.58800 -0.89053  0.13052  0.33093 -0.64340 24928    976 0.8608  28
  -4  -4  -2  369.16   29.47   3 0.94736 0.06972 -0.17493 -0.67674 -0.89053  0.04173  0.33093 -0.59110 24928    977 0.8739  28
  -4  -3  -2  251.43   24.51   3 0.90978 0.07026 -0.17493 -0.57571 -0.89053  0.21088  0.33093 -0.58044 24928    978 0.8756  28
  -5  -3  -2   28.71   23.63   3 0.74867 0.07081 -0.17493 -0.55326 -0.89053  0.27646  0.33093 -0.53481 24928    981 0.8857  28
  -2  -2  -1  102.06    5.21   3 1.89684 0.07099 -0.17493 -0.67778 -0.89053  0.04070  0.33093 -0.59033 24928    986 0.8096  28
  -3  -2  -1  260.70   13.97   3 1.34692 0.07070 -0.17493 -0.63192 -0.89053  0.18696  0.33093 -0.51327 24928    988 0.8457  28
  -4  -3  -1   92.94   14.53   3 1.08513 0.06987 -0.17493 -0.71787 -0.89053  0.08111  0.33093 -0.47588 24928    989 0.8645  28
  -4  -2  -1 1901.76   74.91   3 1.00970 0.07113 -0.17493 -0.57996 -0.89053  0.28852  0.33093 -0.46629 24928    990 0.8674  28
  -6  -3  -1   66.31   27.70   3 0.71979 0.07003 -0.17493 -0.63149 -0.89053  0.24627  0.33093 -0.42435 24928    994 0.8888  28
  -5  -1  -2  123.72   61.80   3 0.44630 0.08449 -0.17493 -0.19312 -0.89053  0.65766  0.33093 -0.45193 24928    999 0.8897  29
  -6  -1  -1  136.06   49.49   3 0.49970 0.07969 -0.17493 -0.31229 -0.89053  0.59136  0.33093 -0.39682 24928   1001 0.8915  29
  -2   0   0  775.54   29.35   3 1.18254 0.08479 -0.17493 -0.17745 -0.89053  0.71535  0.33093 -0.32627 24928   1004 0.8305  29
  -3   0   0 1637.75   65.16   3 0.78835 0.08555 -0.17493 -0.17745 -0.89053  0.71535  0.33093 -0.32627 24928   1005 0.8604  29
  -4   0   0 1327.53   73.80   3 0.59086 0.08595 -0.17493 -0.17745 -0.89053  0.71535  0.33093 -0.32627 24928   1006 0.8759  29
  -5   0   0   61.75   41.43   3 0.47561 0.08612 -0.17493 -0.17903 -0.89053  0.71398  0.33093 -0.32733 24928   1007 0.8853  29
  -3   0   1  173.87   10.23   3 1.13867 0.07790 -0.17493 -0.33310 -0.89053  0.63761  0.33093 -0.16375 24928   1010 0.8463  29
  -7   0   1  111.64   69.28   3 0.41700 0.08243 -0.17493 -0.25841 -0.89053  0.67422  0.33093 -0.26939 24928   1014 0.8946  29
  -5   0   2  149.84   22.34   3 0.70609 0.07709 -0.17493 -0.34964 -0.89053  0.62931  0.33093 -0.12488 24928   1015 0.8794  29
  -6   0   2  472.83   60.74   3 0.56873 0.07808 -0.17493 -0.33310 -0.89053  0.63761  0.33093 -0.16375 24928   1016 0.8883  29
  -8   0   3  107.20   88.78   3 0.43636 0.07748 -0.17493 -0.34493 -0.89053  0.63114  0.33093 -0.14132 24928   1019 0.8992  29
   3  -3   3   81.87    5.03   3 2.42629 0.07425 -0.17493  0.72438 -0.89053  0.35075  0.33093  0.68928 24928   1021 0.7680  33
   4  -5   4  424.39   18.89   3 1.90028 0.07589 -0.17493  0.60737 -0.89053  0.04363  0.33093  0.73548 24928   1022 0.7977  33
   4  -4   4  462.53   19.93   3 1.81914 0.07428 -0.17493  0.72438 -0.89053  0.35075  0.33093  0.68928 24928   1023 0.8069  33
   6  -7   5  138.64   20.14   3 1.38283 0.07609 -0.17493  0.69795 -0.89053  0.06827  0.33093  0.63859 24928   1024 0.8324  33
   6  -6   5  466.85   31.67   3 1.34531 0.07471 -0.17493  0.78191 -0.89053  0.28932  0.33093  0.61224 24928   1025 0.8378  33
   5  -6   5   87.06   15.56   3 1.51451 0.07586 -0.17493  0.63479 -0.89053  0.10263  0.33093  0.73181 24928   1026 0.8238  33
   5  -5   5  367.49   23.55   3 1.45423 0.07426 -0.17493  0.72438 -0.89053  0.35075  0.33093  0.68928 24928   1027 0.8313  33
   3  -6   3   55.47   10.59   3 2.20347 0.07700 -0.17493  0.18126 -0.89053 -0.58446  0.33093  0.59956 24928   1039 0.7750  34
   3  -5   3  257.92   12.18   3 2.41488 0.07643 -0.17493  0.36150 -0.89053 -0.36549  0.33093  0.68665 24928   1040 0.7628  34
   5  -8   4   43.42   17.29   3 1.58664 0.07768 -0.17493  0.41808 -0.89053 -0.40988  0.33093  0.56078 24928   1041 0.8150  34
   4  -8   4  283.20   23.67   3 1.65186 0.07791 -0.17493  0.18126 -0.89053 -0.58446  0.33093  0.59956 24928   1042 0.8099  34
   4  -7   4   93.57   14.64   3 1.77216 0.07745 -0.17493  0.31413 -0.89053 -0.42845  0.33093  0.66649 24928   1043 0.8027  34
   3  -6   4  218.39   13.93   3 1.97077 0.07713 -0.17493  0.18432 -0.89053 -0.42695  0.33093  0.77892 24928   1044 0.7900  34
   5  -8   5  201.24   23.93   3 1.46667 0.07758 -0.17493  0.40231 -0.89053 -0.30877  0.33093  0.70104 24928   1048 0.8236  34
   4  -8   5  346.15   28.32   3 1.52290 0.07788 -0.17493  0.18452 -0.89053 -0.46621  0.33093  0.74169 24928   1049 0.8190  34
   1  -8   1   42.52   14.43   3 1.68471 0.07767 -0.17493 -0.57757 -0.89053 -0.99166  0.33093 -0.08776 24928   1055 0.8082  36
   1  -7   1   34.25   12.06   3 1.94662 0.07734 -0.17493 -0.54894 -0.89053 -0.99704  0.33093 -0.05015 24928   1056 0.7911  36
   0  -5  -1   12.39    5.03   3 2.14648 0.07535 -0.17493 -0.63032 -0.89053 -0.71200  0.33093 -0.62667 24928   1063 0.7829  37
  -1  -7  -1   19.64   13.51   3 1.41689 0.07545 -0.17493 -0.77767 -0.89053 -0.69294  0.33093 -0.52146 24928   1066 0.8314  37
  -1  -6  -1   39.99   11.09   3 1.59314 0.07508 -0.17493 -0.77942 -0.89053 -0.65425  0.33093 -0.54699 24928   1067 0.8201  37
  -1  -5  -1   24.11    7.87   3 1.81822 0.07465 -0.17493 -0.77647 -0.89053 -0.60142  0.33093 -0.58009 24928   1068 0.8061  37
  -2  -6  -3   58.60   19.60   3 1.06312 0.07122 -0.17493 -0.62425 -0.89053 -0.22216  0.33093 -0.77428 24928   1076 0.8636  38
  -2  -5  -3  228.18   23.23   3 1.10404 0.07045 -0.17493 -0.57150 -0.89053 -0.09971  0.33093 -0.79198 24928   1077 0.8622  38
  -3  -5  -3   98.60   24.03   3 0.95034 0.06998 -0.17493 -0.61061 -0.89053 -0.03461  0.33093 -0.72764 24928   1081 0.8733  38
  -2  -5  -2   86.61   14.75   3 1.31951 0.07196 -0.17493 -0.71436 -0.89053 -0.29164  0.33093 -0.69568 24928   1084 0.8450  38
  -2  -4  -2  193.34   14.77   3 1.39955 0.07109 -0.17493 -0.66423 -0.89053 -0.15392  0.33093 -0.71865 24928   1085 0.8414  38
  -2  -3  -2   13.81    7.95   3 1.42782 0.07039 -0.17493 -0.57600 -0.89053  0.03588  0.33093 -0.72688 24928   1086 0.8410  38
  -3  -5  -2   17.99   15.78   3 1.11333 0.07104 -0.17493 -0.74207 -0.89053 -0.18948  0.33093 -0.63670 24928   1087 0.8605  38
  -3  -4  -2   72.79   16.08   3 1.14703 0.07033 -0.17493 -0.68409 -0.89053 -0.05094  0.33093 -0.64732 24928   1088 0.8596  38
  -4  -5  -2   59.14   21.81   3 0.94195 0.07023 -0.17493 -0.74254 -0.89053 -0.09369  0.33093 -0.58813 24928   1090 0.8735  38
  -2  -3  -1  345.20   13.86   3 1.83203 0.07187 -0.17493 -0.78419 -0.89053 -0.20254  0.33093 -0.58063 24928   1092 0.8117  38
  -2  -4  -5  256.42   42.06   3 0.62827 0.07359 -0.17493 -0.20679 -0.89053  0.41833  0.33093 -0.77091 24928   1098 0.8901  39
  -3  -4  -5  143.98   47.84   3 0.57190 0.07382 -0.17493 -0.25723 -0.89053  0.41826  0.33093 -0.73149 24928   1099 0.8938  39
  -4  -4  -5  414.92   78.93   3 0.51640 0.07421 -0.17493 -0.29114 -0.89053  0.42640  0.33093 -0.69212 24928   1100 0.8973  39
  -4  -3  -5  176.55   81.85   3 0.41090 0.08083 -0.17493 -0.16403 -0.89053  0.58310  0.33093 -0.61908 24928   1101 0.8971  39
  -2  -3  -4 1059.84   54.96   3 0.71597 0.07525 -0.17493 -0.20464 -0.89053  0.45964  0.33093 -0.73284 24928   1105 0.8813  39
  -3  -3  -4  220.87   35.83   3 0.63522 0.07557 -0.17493 -0.25567 -0.89053  0.46289  0.33093 -0.68509 24928   1106 0.8868  39
  -4  -4  -4  172.89   38.26   3 0.65124 0.07150 -0.17493 -0.41234 -0.89053  0.30712  0.33093 -0.69187 24928   1107 0.8914  39
  -5  -3  -4  200.06   74.26   3 0.48928 0.07652 -0.17493 -0.30324 -0.89053  0.48841  0.33093 -0.60155 24928   1110 0.8964  39
  -2  -2  -3 1126.93   46.20   3 0.80225 0.07790 -0.17493 -0.18842 -0.89053  0.52860  0.33093 -0.66881 24928   1113 0.8710  39
  -3  -3  -3   79.61   16.52   3 0.86746 0.07173 -0.17493 -0.41234 -0.89053  0.30712  0.33093 -0.69187 24928   1114 0.8761  39
  -3  -2  -3  299.62   28.69   3 0.68243 0.07819 -0.17493 -0.23530 -0.89053  0.53273  0.33093 -0.61697 24928   1115 0.8795  39
  -4  -3  -3  158.56   27.30   3 0.72751 0.07230 -0.17493 -0.42477 -0.89053  0.34892  0.33093 -0.63204 24928   1116 0.8849  39
  -4  -2  -3   72.50   30.29   3 0.57881 0.07869 -0.17493 -0.25797 -0.89053  0.54582  0.33093 -0.57123 24928   1117 0.8867  39
  -5  -3  -3   54.32   35.29   3 0.61424 0.07282 -0.17493 -0.42527 -0.89053  0.38515  0.33093 -0.58540 24928   1118 0.8922  39
  -6  -3  -3  187.30   60.08   3 0.52942 0.07367 -0.17493 -0.41735 -0.89053  0.41848  0.33093 -0.54899 24928   1120 0.8971  39
  -2  -2  -2 1964.02   63.75   3 1.30139 0.07219 -0.17493 -0.41229 -0.89053  0.30814  0.33093 -0.69092 24928   1123 0.8457  39
  -3  -2  -2   23.45    9.90   3 1.00365 0.07281 -0.17493 -0.42789 -0.89053  0.36568  0.33093 -0.60742 24928   1124 0.8648  39
  -4  -2  -2 1613.14   67.31   3 0.79261 0.07385 -0.17493 -0.41717 -0.89053  0.41941  0.33093 -0.54784 24928   1125 0.8779  39
  -5  -2  -2  162.75   30.91   3 0.64430 0.07504 -0.17493 -0.40174 -0.89053  0.45996  0.33093 -0.50630 24928   1126 0.8869  39
  -1  -1  -1   25.67    1.55   3 2.60595 0.07327 -0.17493 -0.41229 -0.89053  0.30814  0.33093 -0.69092 24928   1127 0.7596  39
   4  -5   2  468.50   19.03   3 2.39351 0.07600 -0.17493  0.71287 -0.89053 -0.17650  0.33093  0.33633 24928   1129 0.7653  43
   5  -6   3  304.38   17.79   3 1.85879 0.07629 -0.17493  0.73317 -0.89053 -0.07585  0.33093  0.44884 24928   1131 0.7995  43
   6  -8   4  117.76   21.79   3 1.48052 0.07719 -0.17493  0.62160 -0.89053 -0.21226  0.33093  0.49884 24928   1136 0.8234  43
   6  -7   4  143.49   19.64   3 1.50606 0.07630 -0.17493  0.74197 -0.89053 -0.00441  0.33093  0.51146 24928   1137 0.8235  43
   2  -9  -1   28.86   16.33   3 1.45021 0.07712 -0.17493 -0.37165 -0.89053 -0.84475  0.33093 -0.53194 24928   1145 0.8257  46
   1  -8  -1   20.29   14.43   3 1.53619 0.07671 -0.17493 -0.51557 -0.89053 -0.83166  0.33093 -0.54321 24928   1148 0.8205  46
   1  -7  -1   25.78   10.33   3 1.75625 0.07644 -0.17493 -0.48301 -0.89053 -0.81392  0.33093 -0.57430 24928   1149 0.8061  46
   1  -6  -1   16.88    7.27   3 2.04376 0.07607 -0.17493 -0.43826 -0.89053 -0.78703  0.33093 -0.61474 24928   1150 0.7878  46
   0  -8  -3  239.73   29.57   3 1.15349 0.07384 -0.17493 -0.51809 -0.89053 -0.48768  0.33093 -0.81356 24928   1155 0.8527  47
  -1  -7  -3   64.47   20.27   3 1.12868 0.07265 -0.17493 -0.58877 -0.89053 -0.37552  0.33093 -0.80285 24928   1159 0.8566  47
  -1  -6  -3   39.83   15.51   3 1.20413 0.07186 -0.17493 -0.55007 -0.89053 -0.27979  0.33093 -0.83510 24928   1160 0.8529  47
   0  -6  -2  459.72   24.00   3 1.60198 0.07438 -0.17493 -0.54683 -0.89053 -0.54481  0.33093 -0.77638 24928   1162 0.8211  47
   0  -5  -2  241.68   13.33   3 1.80065 0.07373 -0.17493 -0.50143 -0.89053 -0.45312  0.33093 -0.83303 24928   1163 0.8094  47
   0  -3  -1  160.61    6.55   3 3.20855 0.07418 -0.17493 -0.54683 -0.89053 -0.54481  0.33093 -0.77638 24928   1166 0.7208  47
   0  -6  -5  411.62   37.23   3 0.87057 0.06958 -0.17493 -0.22082 -0.89053  0.10905  0.33093 -0.94182 24928   1175 0.8793  48
  -1  -6  -5  152.29   29.96   3 0.81273 0.06954 -0.17493 -0.31692 -0.89053  0.09854  0.33093 -0.90083 24928   1176 0.8833  48
  -1  -5  -5   91.36   26.03   3 0.77361 0.07023 -0.17493 -0.23519 -0.89053  0.25373  0.33093 -0.87227 24928   1177 0.8849  48
  -2  -5  -5  137.55   33.35   3 0.70952 0.07036 -0.17493 -0.30775 -0.89053  0.25257  0.33093 -0.82766 24928   1180 0.8890  48
  -1  -5  -4  352.18   27.59   3 1.00152 0.06976 -0.17493 -0.35477 -0.89053  0.06520  0.33093 -0.89201 24928   1183 0.8703  48
  -1  -4  -4  455.16   29.80   3 0.94716 0.07052 -0.17493 -0.25454 -0.89053  0.25295  0.33093 -0.86166 24928   1184 0.8726  48
  -2  -4  -4  596.03   39.10   3 0.84683 0.07071 -0.17493 -0.33571 -0.89053  0.25740  0.33093 -0.80385 24928   1186 0.8791  48
   1  -4  -6  107.94   60.27   3 0.45068 0.08180 -0.17493  0.10377 -0.89053  0.65440  0.33093 -0.71077 24928   1195 0.8927  49
   0  -4  -6 1019.74  129.06   3 0.47130 0.08001 -0.17493  0.02974 -0.89053  0.60677  0.33093 -0.72937 24928   1196 0.8933  49
  -1  -4  -6  465.97   92.16   3 0.47191 0.07884 -0.17493 -0.04000 -0.89053  0.57133  0.33093 -0.72950 24928   1197 0.8947  49
   3  -4  -5  962.25   82.33   3 0.55954 0.07964 -0.17493  0.25142 -0.89053  0.67891  0.33093 -0.72715 24928   1198 0.8869  49
   1  -3  -5 2009.72  168.06   3 0.42914 0.08657 -0.17493  0.13878 -0.89053  0.72921  0.33093 -0.63266 24928   1200 0.8886  49
   0  -3  -5   64.09   42.38   3 0.47558 0.08414 -0.17493  0.06642 -0.89053  0.67631  0.33093 -0.66645 24928   1201 0.8878  49
  -1  -3  -5 1037.23  100.90   3 0.49024 0.08249 -0.17493 -0.01167 -0.89053  0.63350  0.33093 -0.67444 24928   1202 0.8887  49
   2  -3  -4  927.47   50.02   3 0.67525 0.08089 -0.17493  0.22081 -0.89053  0.68668  0.33093 -0.71305 24928   1203 0.8762  49
   1  -3  -4  870.32   42.26   3 0.78664 0.07779 -0.17493  0.11234 -0.89053  0.59548  0.33093 -0.77432 24928   1204 0.8723  49
  -1  -2  -4  823.88   82.30   3 0.44808 0.08807 -0.17493  0.03807 -0.89053  0.72244  0.33093 -0.58210 24928   1205 0.8852  49
  -2  -2  -4  112.84   44.40   3 0.45295 0.08650 -0.17493 -0.02985 -0.89053  0.68700  0.33093 -0.58496 24928   1206 0.8867  49
   2  -2  -3 1372.80   72.33   3 0.54957 0.08877 -0.17493  0.25369 -0.89053  0.80715  0.33093 -0.56441 24928   1207 0.8756  49
   0  -2  -3 3361.12  120.91   3 0.94182 0.07967 -0.17493  0.02974 -0.89053  0.60677  0.33093 -0.72937 24928   1209 0.8577  49
  -1  -1  -2   41.40    5.95   3 0.90416 0.08557 -0.17493 -0.03108 -0.89053  0.68713  0.33093 -0.58371 24928   1210 0.8510  49
  -4   6  -7  141.61   21.98   4 1.31344 0.07608 -0.09269 -0.10794  0.77467  0.00962 -0.30438 -0.99144 24929   1218 0.8373  13
  -3   5  -7   23.19   15.51   4 1.31632 0.07498 -0.09269 -0.01064  0.77467 -0.08663 -0.30438 -0.99553 24929   1219 0.8392  13
  -3   5  -6   62.77   13.96   4 1.53999 0.07580 -0.09269 -0.02839  0.77467  0.02888 -0.30438 -0.99836 24929   1220 0.8222  13
  -2   4  -6  176.79   16.10   4 1.52220 0.07446 -0.09269  0.08609  0.77467 -0.09460 -0.30438 -0.98353 24929   1221 0.8263  13
  -2   4  -5 1349.07   54.89   4 1.84722 0.07536 -0.09269  0.08717  0.77467  0.05021 -0.30438 -0.99616 24929   1222 0.8025  13
  -2   3  -4  696.93   27.51   4 2.30780 0.07497 -0.09269 -0.08528  0.77467 -0.08718 -0.30438 -0.99503 24929   1223 0.7735  13
  -5   7  -6   91.01   20.62   4 1.43455 0.07731 -0.09269 -0.23320  0.77467  0.18758 -0.30438 -0.90678 24929   1228 0.8264  14
  -5   7  -5   79.29   18.31   4 1.60175 0.07757 -0.09269 -0.27221  0.77467  0.29845 -0.30438 -0.82105 24929   1230 0.8142  14
  -4   6  -5  269.91   20.82   4 1.72065 0.07709 -0.09269 -0.16861  0.77467  0.25104 -0.30438 -0.90644 24929   1231 0.8070  14
  -3   5  -4  816.09   35.41   4 2.13935 0.07666 -0.09269 -0.07331  0.77467  0.33962 -0.30438 -0.89769 24929   1233 0.7800  14
  -3   4  -3  505.39   21.55   4 2.70606 0.07597 -0.09269 -0.31522  0.77467  0.23157 -0.30438 -0.83588 24929   1234 0.7457  14
  -8   8  -2   76.21   18.70   4 1.48914 0.07741 -0.09269 -0.79800  0.77467  0.11427 -0.30438 -0.10925 24929   1237 0.8223  16
  -7   7  -1   79.02   13.02   4 1.70943 0.07694 -0.09269 -0.79977  0.77467  0.11646 -0.30438  0.06992 24929   1240 0.8081  16
  -6   6  -1   51.68    9.21   4 1.99361 0.07667 -0.09269 -0.80146  0.77467  0.11659 -0.30438  0.02865 24929   1241 0.7896  16
  -5   5  -1   17.27    6.22   4 2.39413 0.07625 -0.09269 -0.80159  0.77467  0.11646 -0.30438 -0.02673 24929   1242 0.7646  16
  -4   4  -1 1316.07   49.55   4 2.98345 0.07557 -0.09269 -0.79804  0.77467  0.11399 -0.30438 -0.11057 24929   1243 0.7299  16
  -9   7   0   18.98   15.88   4 1.24896 0.07463 -0.09269 -0.93292  0.77467 -0.30889 -0.30438  0.31072 24929   1246 0.8446  17
  -7   6   0  223.41   16.71   4 1.64789 0.07544 -0.09269 -0.89232  0.77467 -0.16136 -0.30438  0.30921 24929   1250 0.8157  17
  -5   4   0  478.87   19.85   4 2.27086 0.07472 -0.09269 -0.92430  0.77467 -0.26819 -0.30438  0.30906 24929   1252 0.7765  17
  -9   6   1   45.39   16.78   4 1.08504 0.07186 -0.09269 -0.87973  0.77467 -0.53379 -0.30438  0.46295 24929   1259 0.8609  18
  -7   4   1   63.78   12.87   4 1.21706 0.07054 -0.09269 -0.81671  0.77467 -0.68579 -0.30438  0.47996 24929   1261 0.8545  18
  -5   3   1  231.76   11.28   4 1.67480 0.07108 -0.09269 -0.78280  0.77467 -0.65152 -0.30438  0.54499 24929   1263 0.8236  18
  -9   6   2   40.48   18.85   4 0.98250 0.07083 -0.09269 -0.78817  0.77467 -0.55644 -0.30438  0.58621 24929   1266 0.8697  18
  -9   3  -1   59.96   27.81   4 0.72143 0.07004 -0.09269 -0.71277  0.77467 -0.93696 -0.30438  0.20623 24929   1270 0.8887  19
  -9   3   0   34.01   33.02   4 0.66734 0.07105 -0.09269 -0.65484  0.77467 -0.92505 -0.30438  0.30817 24929   1275 0.8909  19
  -8   3   0   71.55   23.73   4 0.83173 0.07013 -0.09269 -0.71650  0.77467 -0.90044 -0.30438  0.30769 24929   1276 0.8811  19
  -7   2   0   80.89   23.37   4 0.75114 0.07282 -0.09269 -0.57951  0.77467 -0.94347 -0.30438  0.30720 24929   1277 0.8825  19
  -6   2   0  397.57   26.51   4 0.99952 0.07145 -0.09269 -0.65487  0.77467 -0.92552 -0.30438  0.30693 24929   1278 0.8675  19
  -5   2   0   67.54    6.82   4 1.41026 0.07069 -0.09269 -0.75097  0.77467 -0.88179 -0.30438  0.30701 24929   1279 0.8416  19
  -9   4   1   34.51   24.47   4 0.78340 0.06980 -0.09269 -0.72736  0.77467 -0.83463 -0.30438  0.41860 24929   1285 0.8849  19
  -8   3   1   73.92   25.91   4 0.74041 0.07134 -0.09269 -0.62584  0.77467 -0.88700 -0.30438  0.41097 24929   1286 0.8855  19
  -6   2   1 1785.44   85.31   4 0.83421 0.07362 -0.09269 -0.53097  0.77467 -0.90089 -0.30438  0.42398 24929   1288 0.8754  19
  -5   2   1  338.35   19.80   4 1.15138 0.07201 -0.09269 -0.59511  0.77467 -0.86223 -0.30438  0.46979 24929   1289 0.8562  19
   0   2  -8  118.58   24.81   4 0.84674 0.06956 -0.09269  0.21312  0.77467 -0.52362 -0.30438 -0.65198 24929   1307 0.8810  21
   1   1  -8  206.51   38.49   4 0.66844 0.07136 -0.09269  0.23909  0.77467 -0.62501 -0.30438 -0.45132 24929   1308 0.8904  21
   1   2  -8  103.57   27.58   4 0.78709 0.06970 -0.09269  0.32355  0.77467 -0.48078 -0.30438 -0.58722 24929   1309 0.8848  21
   2   2  -8  187.10   35.71   4 0.71361 0.06987 -0.09269  0.40836  0.77467 -0.45496 -0.30438 -0.50394 24929   1310 0.8895  21
   0   1  -7  558.04   39.22   4 0.83846 0.07040 -0.09269  0.15082  0.77467 -0.65049 -0.30438 -0.52411 24929   1311 0.8802  21
   1   1  -7   86.57   23.51   4 0.77638 0.07113 -0.09269  0.26377  0.77467 -0.60041 -0.30438 -0.46411 24929   1313 0.8833  21
   1   2  -7  189.52   24.00   4 0.91987 0.06971 -0.09269  0.36340  0.77467 -0.43081 -0.30438 -0.60640 24929   1314 0.8758  21
   0   1  -6  108.30   15.02   4 1.01498 0.07037 -0.09269  0.16446  0.77467 -0.62375 -0.30438 -0.55535 24929   1315 0.8683  21
   0   2  -6 1554.13   62.13   4 1.21692 0.07044 -0.09269  0.26948  0.77467 -0.41115 -0.30438 -0.72804 24929   1316 0.8547  21
   1   1  -6 2473.86   99.52   4 0.92274 0.07087 -0.09269  0.29552  0.77467 -0.56814 -0.30438 -0.47887 24929   1317 0.8737  21
   0   1  -5 1435.74   54.55   4 1.27548 0.07050 -0.09269  0.18462  0.77467 -0.58432 -0.30438 -0.59621 24929   1318 0.8508  21
   0   1  -4  678.49   24.49   4 1.69356 0.07074 -0.09269  0.21432  0.77467 -0.52243 -0.30438 -0.65235 24929   1320 0.8232  21
   1   1  -4  427.14   18.07   4 1.42860 0.07085 -0.09269  0.40836  0.77467 -0.45496 -0.30438 -0.50394 24929   1321 0.8400  21
  -1   4  -8  321.22   33.80   4 1.05109 0.07207 -0.09269  0.24349  0.77467 -0.22635 -0.30438 -0.88270 24929   1328 0.8629  22
  -1   5  -7  207.59   24.78   4 1.24026 0.07420 -0.09269  0.36280  0.77467  0.05582 -0.30438 -0.92052 24929   1331 0.8460  22
  -1   4  -6  105.56   14.11   4 1.46324 0.07399 -0.09269  0.30379  0.77467 -0.01235 -0.30438 -0.93367 24929   1332 0.8312  22
  -1   3  -5 1418.96   54.25   4 1.76546 0.07365 -0.09269  0.21754  0.77467 -0.11802 -0.30438 -0.94026 24929   1333 0.8118  22
  -3   6  -6  302.00   24.28   4 1.50907 0.07663 -0.09269  0.08668  0.77467  0.23805 -0.30438 -0.97053 24929   1340 0.8226  23
  -3   7  -6  159.98   21.29   4 1.44091 0.07715 -0.09269  0.19328  0.77467  0.40579 -0.30438 -0.91390 24929   1341 0.8262  23
  -3   6  -5   67.99   12.61   4 1.73183 0.07703 -0.09269  0.08648  0.77467  0.38625 -0.30438 -0.91414 24929   1343 0.8064  23
  -2   5  -5  482.94   23.93   4 1.78584 0.07622 -0.09269  0.22074  0.77467  0.29019 -0.30438 -0.95297 24929   1344 0.8046  23
  -2   6  -5   69.90   12.67   4 1.67322 0.07677 -0.09269  0.33403  0.77467  0.47174 -0.30438 -0.87442 24929   1345 0.8110  23
  -2   4  -4  146.94    8.76   4 2.26541 0.07596 -0.09269  0.08801  0.77467  0.23825 -0.30438 -0.97054 24929   1346 0.7736  23
  -2   5  -4  918.40   35.12   4 2.10301 0.07655 -0.09269  0.24167  0.77467  0.47565 -0.30438 -0.87962 24929   1347 0.7827  23
  -8   8   0   46.85   16.02   4 1.44954 0.07668 -0.09269 -0.77396  0.77467  0.09091 -0.30438  0.31060 24929   1350 0.8266  26
  -7   7   0  125.85   13.81   4 1.65966 0.07650 -0.09269 -0.77436  0.77467  0.09089 -0.30438  0.30924 24929   1351 0.8125  26
  -6   6   0 1698.42   64.10   4 1.93676 0.07625 -0.09269 -0.77517  0.77467  0.08947 -0.30438  0.30929 24929   1352 0.7944  26
  -4   4   0  657.13   24.12   4 2.90742 0.07537 -0.09269 -0.77517  0.77467  0.08947 -0.30438  0.30929 24929   1354 0.7351  26
  -4   2   1   74.64    5.48   4 1.68441 0.07110 -0.09269 -0.66176  0.77467 -0.77659 -0.30438  0.54516 24929   1360 0.8229  28
  -8   4   2  389.20   34.91   4 0.84232 0.06998 -0.09269 -0.66176  0.77467 -0.77659 -0.30438  0.54516 24929   1363 0.8806  28
  -7   4   2  197.82   20.04   4 1.04065 0.06984 -0.09269 -0.68407  0.77467 -0.69875 -0.30438  0.60199 24929   1364 0.8675  28
  -6   3   2  402.09   25.13   4 1.00163 0.07082 -0.09269 -0.57980  0.77467 -0.77667 -0.30438  0.58984 24929   1365 0.8684  28
  -5   3   2   19.25    7.95   4 1.30509 0.07052 -0.09269 -0.58739  0.77467 -0.67874 -0.30438  0.67623 24929   1367 0.8488  28
  -8   4   3  119.07   28.33   4 0.70650 0.07114 -0.09269 -0.53881  0.77467 -0.77576 -0.30438  0.60648 24929   1372 0.8881  28
  -9   6   3  113.52   24.84   4 0.86635 0.06994 -0.09269 -0.68301  0.77467 -0.58098 -0.30438  0.67604 24929   1373 0.8790  28
  -8   5   3   21.15   20.12   4 0.87585 0.06961 -0.09269 -0.62607  0.77467 -0.64530 -0.30438  0.67885 24929   1374 0.8789  28
  -7   4   3  137.34   22.18   4 0.85128 0.07025 -0.09269 -0.54214  0.77467 -0.71277 -0.30438  0.66779 24929   1375 0.8796  28
  -6   4   3   29.11   12.90   4 1.02956 0.07015 -0.09269 -0.52093  0.77467 -0.62197 -0.30438  0.74457 24929   1376 0.8677  28
  -8   5   4  364.31   43.71   4 0.72762 0.07001 -0.09269 -0.50413  0.77467 -0.66643 -0.30438  0.71898 24929   1383 0.8883  28
  -4   0  -1 5229.21  254.75   4 0.51419 0.08764 -0.09269 -0.21365  0.77467 -0.92864 -0.30438  0.23203 24929   1390 0.8801  29
  -7   1   0  179.32   73.81   4 0.43859 0.08282 -0.09269 -0.33222  0.77467 -0.93891 -0.30438  0.30550 24929   1391 0.8924  29
  -5   1   0  613.88   34.70   4 0.78086 0.07804 -0.09269 -0.43183  0.77467 -0.95090 -0.30438  0.30537 24929   1393 0.8724  29
  -8   2   1  426.48   81.05   4 0.50155 0.07778 -0.09269 -0.43148  0.77467 -0.92606 -0.30438  0.37561 24929   1395 0.8938  29
  -5   1   1   36.17   28.22   4 0.57285 0.08386 -0.09269 -0.29242  0.77467 -0.90337 -0.30438  0.38743 24929   1397 0.8802  29
  -4   1   1  127.88   13.97   4 0.81507 0.08126 -0.09269 -0.33343  0.77467 -0.89760 -0.30438  0.42020 24929   1398 0.8648  29
  -8   2   2  296.01  120.34   4 0.40749 0.08176 -0.09269 -0.33186  0.77467 -0.89680 -0.30438  0.42147 24929   1400 0.8962  29
  -7   2   2   53.63   48.53   4 0.50326 0.07992 -0.09269 -0.35800  0.77467 -0.88811 -0.30438  0.44877 24929   1401 0.8909  29
  -6   2   2  133.42   29.29   4 0.64038 0.07796 -0.09269 -0.38546  0.77467 -0.87136 -0.30438  0.48721 24929   1402 0.8830  29
  -6   2   3  604.02   95.12   4 0.45377 0.08379 -0.09269 -0.24605  0.77467 -0.84355 -0.30438  0.49725 24929   1405 0.8900  29
  -1   5  -6  363.10   24.73   4 1.43849 0.07502 -0.09269  0.40799  0.77467  0.18971 -0.30438 -0.91284 24929   1413 0.8308  33
  -1   6  -6  130.09   19.83   4 1.37571 0.07574 -0.09269  0.49726  0.77467  0.35274 -0.30438 -0.85923 24929   1414 0.8336  33
  -1   5  -5   78.15   11.51   4 1.67607 0.07573 -0.09269  0.46122  0.77467  0.34930 -0.30438 -0.87664 24929   1416 0.8131  33
  -1   4  -4  941.76   33.27   4 2.13961 0.07561 -0.09269  0.40474  0.77467  0.34012 -0.30438 -0.90049 24929   1417 0.7827  33
  -4   8  -5  330.13   28.65   4 1.52781 0.07792 -0.09269  0.08761  0.77467  0.59082 -0.30438 -0.77030 24929   1420 0.8186  34
  -3   6  -4  234.19   14.84   4 1.97618 0.07715 -0.09269  0.08640  0.77467  0.54864 -0.30438 -0.80740 24929   1425 0.7896  34
  -2   6  -4  390.87   19.26   4 1.90150 0.07698 -0.09269  0.37014  0.77467  0.64113 -0.30438 -0.76530 24929   1427 0.7950  34
  -3   8  -4  337.88   26.12   4 1.61862 0.07783 -0.09269  0.32796  0.77467  0.79127 -0.30438 -0.60645 24929   1428 0.8124  34
  -6   9  -1   64.19   19.19   4 1.64035 0.07798 -0.09269 -0.27727  0.77467  0.69065 -0.30438  0.07846 24929   1436 0.8106  36
  -3   4   0   13.61    2.90   4 3.47474 0.07499 -0.09269 -0.42777  0.77467  0.52166 -0.30438  0.30926 24929   1438 0.7027  36
  -7   9   0   18.24   16.98   4 1.52275 0.07760 -0.09269 -0.47642  0.77467  0.47466 -0.30438  0.30895 24929   1440 0.8196  36
  -6   8   0   82.79   14.82   4 1.74110 0.07738 -0.09269 -0.42648  0.77467  0.52297 -0.30438  0.30893 24929   1441 0.8050  36
  -5   7   0  126.79   11.29   4 2.02365 0.07704 -0.09269 -0.35998  0.77467  0.58251 -0.30438  0.30854 24929   1442 0.7867  36
  -4   6   0  337.97   14.69   4 2.40659 0.07653 -0.09269 -0.26696  0.77467  0.65720 -0.30438  0.30848 24929   1443 0.7631  36
  -6   6   1   77.15    9.40   4 1.78252 0.07541 -0.09269 -0.70536  0.77467  0.02216 -0.30438  0.56136 24929   1448 0.8067  37
  -5   5   1   67.74    6.12   4 2.09373 0.07505 -0.09269 -0.68745  0.77467  0.00471 -0.30438  0.60459 24929   1449 0.7871  37
  -6   7   1   16.09    8.90   4 1.73550 0.07628 -0.09269 -0.55575  0.77467  0.25919 -0.30438  0.55367 24929   1450 0.8079  37
  -7   8   2  144.77   17.93   4 1.38562 0.07549 -0.09269 -0.52695  0.77467  0.15415 -0.30438  0.69984 24929   1457 0.8335  37
  -6   7   2   59.01   11.98   4 1.55198 0.07514 -0.09269 -0.48480  0.77467  0.15074 -0.30438  0.74759 24929   1458 0.8228  37
  -5   4   2  193.84   11.56   4 1.62205 0.07154 -0.09269 -0.63341  0.77467 -0.41398 -0.30438  0.76562 24929   1463 0.8260  38
  -4   4   2  516.20   18.59   4 1.97606 0.07261 -0.09269 -0.49567  0.77467 -0.18717 -0.30438  0.86568 24929   1464 0.8007  38
  -7   6   3   19.91   14.40   4 1.15712 0.07136 -0.09269 -0.59786  0.77467 -0.34482 -0.30438  0.79984 24929   1467 0.8570  38
  -6   5   3  278.92   21.37   4 1.21769 0.07062 -0.09269 -0.54281  0.77467 -0.41200 -0.30438  0.82402 24929   1468 0.8544  38
  -6   6   3  307.32   22.06   4 1.31605 0.07216 -0.09269 -0.49494  0.77467 -0.18570 -0.30438  0.86599 24929   1469 0.8448  38
  -7   6   4  385.81   35.61   4 0.96386 0.07008 -0.09269 -0.48182  0.77467 -0.41575 -0.30438  0.85269 24929   1475 0.8722  38
  -7   7   4  250.30   28.15   4 1.03695 0.07121 -0.09269 -0.44846  0.77467 -0.23368 -0.30438  0.89374 24929   1477 0.8654  38
  -6   6   4  235.67   25.57   4 1.07501 0.07044 -0.09269 -0.38626  0.77467 -0.29326 -0.30438  0.91511 24929   1478 0.8642  38
  -7   7   5   47.17   22.90   4 0.86855 0.06995 -0.09269 -0.35689  0.77467 -0.32305 -0.30438  0.91910 24929   1483 0.8789  38
  -3   2   2  679.92   22.19   4 1.57429 0.07250 -0.09269 -0.37628  0.77467 -0.66038 -0.30438  0.74904 24929   1488 0.8270  39
  -4   2   3  948.01   44.98   4 0.69554 0.08097 -0.09269 -0.21662  0.77467 -0.77523 -0.30438  0.60003 24929   1491 0.8745  39
  -3   2   3  450.20   22.01   4 0.84657 0.07968 -0.09269 -0.15910  0.77467 -0.71186 -0.30438  0.66453 24929   1493 0.8649  39
  -6   3   4  275.13   49.34   4 0.55373 0.07825 -0.09269 -0.27749  0.77467 -0.77544 -0.30438  0.61846 24929   1496 0.8892  39
  -6   4   4  376.64   31.57   4 0.78632 0.07173 -0.09269 -0.37628  0.77467 -0.66038 -0.30438  0.74904 24929   1497 0.8817  39
  -5   3   4 1059.26   61.36   4 0.65012 0.07723 -0.09269 -0.24493  0.77467 -0.72634 -0.30438  0.67364 24929   1498 0.8833  39
  -4   3   4 1131.02   52.38   4 0.74898 0.07638 -0.09269 -0.18594  0.77467 -0.66300 -0.30438  0.72951 24929   1499 0.8772  39
  -8   4   5  225.36   82.53   4 0.45283 0.07711 -0.09269 -0.31024  0.77467 -0.77623 -0.30438  0.62401 24929   1502 0.8984  39
  -7   4   5  204.44   61.64   4 0.51658 0.07614 -0.09269 -0.29043  0.77467 -0.73709 -0.30438  0.66974 24929   1504 0.8948  39
  -7   5   5   46.01   28.44   4 0.66797 0.07124 -0.09269 -0.35629  0.77467 -0.62729 -0.30438  0.77723 24929   1505 0.8906  39
  -6   4   5  111.86   37.43   4 0.58201 0.07527 -0.09269 -0.25539  0.77467 -0.68926 -0.30438  0.71715 24929   1506 0.8911  39
  -5   4   5   58.57   26.17   4 0.64928 0.07461 -0.09269 -0.19623  0.77467 -0.63007 -0.30438  0.76433 24929   1508 0.8871  39
  -4   4   5  144.65   26.25   4 0.70222 0.07420 -0.09269 -0.11731  0.77467 -0.56583 -0.30438  0.80204 24929   1509 0.8839  39
  -7   5   6  143.72   56.35   4 0.52075 0.07394 -0.09269 -0.25563  0.77467 -0.65926 -0.30438  0.74704 24929   1514 0.8974  39
  -6   4   6  501.60  122.08   4 0.42300 0.08003 -0.09269 -0.15764  0.77467 -0.71146 -0.30438  0.66446 24929   1515 0.8971  39
  -6   5   6  125.50   45.77   4 0.56883 0.07332 -0.09269 -0.20223  0.77467 -0.60551 -0.30438  0.78733 24929   1516 0.8947  39
  -5   4   6  293.24   86.13   4 0.45640 0.07964 -0.09269 -0.10916  0.77467 -0.67156 -0.30438  0.69321 24929   1517 0.8949  39
  -5   5   7  153.12   75.47   4 0.44881 0.07743 -0.09269 -0.07399  0.77467 -0.60819 -0.30438  0.74800 24929   1523 0.8983  39
  -1   6  -4   59.26   12.80   4 1.74669 0.07657 -0.09269  0.60725  0.77467  0.65611 -0.30438 -0.68234 24929   1534 0.8065  43
  -1   7  -4  499.20   31.37   4 1.56488 0.07682 -0.09269  0.66957  0.77467  0.73951 -0.30438 -0.57730 24929   1535 0.8183  43
  -1   5  -3  171.19   10.78   4 2.23709 0.07632 -0.09269  0.58717  0.77467  0.72287 -0.30438 -0.63993 24929   1537 0.7745  43
  -6   8   1  528.84   28.39   4 1.63813 0.07684 -0.09269 -0.39609  0.77467  0.44534 -0.30438  0.53962 24929   1538 0.8132  46
  -5   7   1  124.70   11.66   4 1.88080 0.07655 -0.09269 -0.32741  0.77467  0.48593 -0.30438  0.57455 24929   1539 0.7975  46
  -4   6   1 1329.94   47.29   4 2.19729 0.07616 -0.09269 -0.23407  0.77467  0.53310 -0.30438  0.61777 24929   1540 0.7775  46
  -3   5   1  215.22    9.21   4 2.60654 0.07564 -0.09269 -0.10093  0.77467  0.58286 -0.30438  0.67455 24929   1541 0.7529  46
  -6   9   1   45.59   16.53   4 1.51975 0.07724 -0.09269 -0.24709  0.77467  0.58251 -0.30438  0.52370 24929   1543 0.8206  46
  -6   9   2   33.46   17.27   4 1.39555 0.07642 -0.09269 -0.22061  0.77467  0.47599 -0.30438  0.70214 24929   1548 0.8309  46
  -3   4   2   18.34    4.09   4 2.25849 0.07332 -0.09269 -0.24314  0.77467  0.06721 -0.30438  0.94518 24929   1552 0.7810  47
  -5   6   3  317.28   20.65   4 1.45501 0.07281 -0.09269 -0.34078  0.77467 -0.01643 -0.30438  0.92318 24929   1554 0.8342  47
  -6   8   3  509.27   34.14   4 1.31299 0.07452 -0.09269 -0.29877  0.77467  0.20252 -0.30438  0.86349 24929   1555 0.8404  47
  -5   7   3   59.41   12.80   4 1.42696 0.07392 -0.09269 -0.22588  0.77467  0.18376 -0.30438  0.91192 24929   1556 0.8338  47
  -4   6   3   12.34    9.35   4 1.53947 0.07311 -0.09269 -0.13563  0.77467  0.14499 -0.30438  0.95980 24929   1557 0.8280  47
  -7   8   4   25.10   19.76   4 1.06598 0.07242 -0.09269 -0.38351  0.77467 -0.05928 -0.30438  0.91078 24929   1559 0.8612  47
  -6   8   4  216.51   27.69   4 1.13000 0.07280 -0.09269 -0.24314  0.77467  0.06721 -0.30438  0.94518 24929   1562 0.8562  47
  -3   3   3   74.70    7.52   4 1.35756 0.07110 -0.09269 -0.21020  0.77467 -0.47244 -0.30438  0.88085 24929   1568 0.8442  48
  -2   3   3  471.41   18.91   4 1.45852 0.07109 -0.09269 -0.01468  0.77467 -0.33984 -0.30438  0.92324 24929   1569 0.8376  48
  -3   4   4 1234.47   50.64   4 1.08634 0.07059 -0.09269 -0.06802  0.77467 -0.37013 -0.30438  0.91909 24929   1572 0.8631  48
  -6   6   5  673.56   46.64   4 0.85949 0.06962 -0.09269 -0.29074  0.77467 -0.39021 -0.30438  0.91408 24929   1573 0.8800  48
  -5   5   5  515.36   40.63   4 0.81458 0.07039 -0.09269 -0.20972  0.77467 -0.47119 -0.30438  0.88152 24929   1574 0.8818  48
  -5   6   5  335.50   31.64   4 0.91770 0.06961 -0.09269 -0.18033  0.77467 -0.29572 -0.30438  0.95454 24929   1575 0.8761  48
  -4   5   5   74.34   18.95   4 0.86296 0.07029 -0.09269 -0.09881  0.77467 -0.38872 -0.30438  0.91473 24929   1576 0.8787  48
  -4   6   5   68.60   18.24   4 0.94870 0.06968 -0.09269 -0.04786  0.77467 -0.20897 -0.30438  0.97573 24929   1577 0.8739  48
  -5   6   6  199.05   37.01   4 0.71371 0.07008 -0.09269 -0.11933  0.77467 -0.40298 -0.30438  0.91028 24929   1582 0.8892  48
  -5   7   6  209.91   37.03   4 0.77990 0.06949 -0.09269 -0.08067  0.77467 -0.25215 -0.30438  0.96627 24929   1583 0.8856  48
  -4   6   6  888.62   63.02   4 0.72892 0.07013 -0.09269 -0.01468  0.77467 -0.33984 -0.30438  0.92324 24929   1584 0.8881  48
  -4   7   6  190.13   31.51   4 0.78446 0.06954 -0.09269  0.03611  0.77467 -0.19022 -0.30438  0.96998 24929   1585 0.8852  48
  -1   2   3   17.77    7.92   4 0.93415 0.08076 -0.09269  0.09308  0.77467 -0.56653 -0.30438  0.70014 24929   1592 0.8565  49
   0   2   3 3434.19  126.15   4 0.75857 0.08392 -0.09269  0.20559  0.77467 -0.54894 -0.30438  0.62561 24929   1593 0.8652  49
  -2   3   4  862.94   39.88   4 0.84764 0.07643 -0.09269  0.03035  0.77467 -0.52237 -0.30438  0.78345 24929   1595 0.8699  49
  -1   3   4  863.57   41.45   4 0.79160 0.07769 -0.09269  0.15169  0.77467 -0.48045 -0.30438  0.75124 24929   1596 0.8721  49
   1   3   4 1116.19   86.59   4 0.53004 0.08339 -0.09269  0.28976  0.77467 -0.49839 -0.30438  0.60357 24929   1598 0.8843  49
  -2   3   5 1533.71  121.66   4 0.48290 0.08449 -0.09269  0.05621  0.77467 -0.63168 -0.30438  0.64531 24929   1599 0.8867  49
  -1   3   5 1927.06  159.37   4 0.44218 0.08604 -0.09269  0.12635  0.77467 -0.60985 -0.30438  0.61651 24929   1600 0.8882  49
   0   4   5  262.93   46.17   4 0.57864 0.07809 -0.09269  0.26697  0.77467 -0.42910 -0.30438  0.71185 24929   1601 0.8875  49
  -3   4   6  122.31   56.67   4 0.48377 0.08018 -0.09269  0.02146  0.77467 -0.59459 -0.30438  0.71483 24929   1603 0.8921  49
  -2   4   6  129.66   64.13   4 0.46747 0.08117 -0.09269  0.09474  0.77467 -0.56492 -0.30438  0.70083 24929   1604 0.8922  49
   0   5   6  116.29   50.93   4 0.50223 0.07717 -0.09269  0.28073  0.77467 -0.40326 -0.30438  0.72605 24929   1606 0.8945  49
  -3   5   7  139.40   67.69   4 0.45168 0.07815 -0.09269  0.05791  0.77467 -0.54054 -0.30438  0.75114 24929   1607 0.8972  49
  -2  -1  -5 1298.52   51.42   5 1.95611 0.07503 -0.36947 -0.36087  0.23059 -0.81077 -0.79593 -0.58311 24930   1612 0.7961  13
  -3  -1  -6   91.15   12.84   5 1.60276 0.07541 -0.36947 -0.46834  0.23059 -0.82479 -0.79593 -0.56174 24930   1613 0.8188  13
  -2  -1  -6   41.90   10.13   5 1.72357 0.07536 -0.36947 -0.27361  0.23059 -0.74125 -0.79593 -0.66182 24930   1614 0.8107  13
  -3  -1  -8  307.39   29.37   5 1.31860 0.07596 -0.36947 -0.32062  0.23059 -0.71918 -0.79593 -0.69337 24930   1617 0.8372  13
  -4   1  -6   82.10   13.18   5 1.84797 0.07712 -0.36947 -0.59567  0.23059 -0.50215 -0.79593 -0.76780 24930   1623 0.7983  14
  -5   1  -7  243.98   24.48   5 1.52036 0.07737 -0.36947 -0.65208  0.23059 -0.56674 -0.79593 -0.70537 24930   1624 0.8202  14
  -6   4  -3  672.90   28.43   5 2.00860 0.07659 -0.36947 -0.82690  0.23059  0.07161 -0.79593 -0.05011 24930   1632 0.7888  16
  -5   3  -3  229.29   11.61   5 2.37937 0.07638 -0.36947 -0.87082  0.23059 -0.04999 -0.79593 -0.20886 24930   1633 0.7652  16
  -7   4  -4   77.49   13.94   5 1.70324 0.07710 -0.36947 -0.90034  0.23059 -0.10122 -0.79593 -0.16442 24930   1636 0.8082  16
  -6   4  -4  455.75   22.07   5 1.94914 0.07718 -0.36947 -0.79285  0.23059  0.06306 -0.79593 -0.29983 24930   1637 0.7914  16
  -8   5  -5  220.50   24.06   5 1.47714 0.07768 -0.36947 -0.84325  0.23059 -0.00726 -0.79593 -0.24495 24930   1641 0.8226  16
  -9   6  -2   50.93   19.31   5 1.24870 0.07458 -0.36947 -0.74896  0.23059  0.05041 -0.79593  0.44537 24930   1645 0.8447  17
  -8   6  -2  482.63   31.86   5 1.40737 0.07504 -0.36947 -0.68068  0.23059  0.19049 -0.79593  0.40121 24930   1646 0.8329  17
  -8   5  -2   26.12   13.83   5 1.42779 0.07484 -0.36947 -0.80329  0.23059 -0.01558 -0.79593  0.39496 24930   1647 0.8319  17
  -7   5  -2  114.17   13.23   5 1.64934 0.07537 -0.36947 -0.73783  0.23059  0.13999 -0.79593  0.33210 24930   1648 0.8157  17
  -7   4  -2   74.76   11.40   5 1.65380 0.07505 -0.36947 -0.86427  0.23059 -0.10431 -0.79593  0.33127 24930   1649 0.8161  17
  -6   4  -2  189.62   11.69   5 1.97128 0.07562 -0.36947 -0.80562  0.23059  0.06546 -0.79593  0.24208 24930   1650 0.7937  17
  -9   6   0   30.09   16.81   5 1.00104 0.07072 -0.36947 -0.52462  0.23059 -0.00624 -0.79593  0.79833 24930   1661 0.8686  18
  -8   6   0  101.03   16.66   5 1.11321 0.07100 -0.36947 -0.46192  0.23059  0.10319 -0.79593  0.79859 24930   1662 0.8606  18
  -9   5   0  119.10   21.71   5 0.98201 0.07035 -0.36947 -0.58184  0.23059 -0.15580 -0.79593  0.79820 24930   1663 0.8706  18
  -8   5   0  146.07   18.63   5 1.12024 0.07075 -0.36947 -0.55080  0.23059 -0.06358 -0.79593  0.79799 24930   1664 0.8606  18
  -7   5   0  126.92   14.31   5 1.28079 0.07113 -0.36947 -0.49070  0.23059  0.05577 -0.79593  0.79895 24930   1665 0.8492  18
  -6   4   0  416.84   20.50   5 1.49673 0.07128 -0.36947 -0.52488  0.23059 -0.00748 -0.79593  0.79864 24930   1667 0.8347  18
  -5   3   0   53.25    6.25   5 1.78552 0.07142 -0.36947 -0.56346  0.23059 -0.09686 -0.79593  0.79809 24930   1668 0.8157  18
  -9   4   2   59.28   48.39   5 0.56483 0.07318 -0.36947 -0.22085  0.23059 -0.27388 -0.79593  0.95687 24930   1678 0.8952  19
  -9   4   1   57.08   28.75   5 0.75431 0.06994 -0.36947 -0.41912  0.23059 -0.28752 -0.79593  0.90346 24930   1684 0.8866  19
  -8   4   1   66.80   21.33   5 0.85461 0.07007 -0.36947 -0.39400  0.23059 -0.23163 -0.79593  0.91824 24930   1685 0.8796  19
  -9   3   1   61.50   34.08   5 0.68124 0.07062 -0.36947 -0.39458  0.23059 -0.38318 -0.79593  0.89344 24930   1688 0.8906  19
  -8   3   1   91.29   25.96   5 0.77432 0.07072 -0.36947 -0.38168  0.23059 -0.34690 -0.79593  0.90656 24930   1689 0.8841  19
  -6   3   1   21.92   12.06   5 1.03227 0.07109 -0.36947 -0.32327  0.23059 -0.23031 -0.79593  0.94298 24930   1691 0.8659  19
  -8   2   1  566.94   60.22   5 0.67201 0.07221 -0.36947 -0.33227  0.23059 -0.43107 -0.79593  0.89219 24930   1692 0.8889  19
  -7   2   1   60.85   23.18   5 0.76840 0.07241 -0.36947 -0.31729  0.23059 -0.40245 -0.79593  0.90558 24930   1693 0.8819  19
  -6   2   1 1930.30   90.01   5 0.88699 0.07270 -0.36947 -0.29329  0.23059 -0.36363 -0.79593  0.92261 24930   1694 0.8731  19
  -5   2   1  365.78   22.20   5 1.04135 0.07315 -0.36947 -0.25224  0.23059 -0.30810 -0.79593  0.94457 24930   1695 0.8617  19
  -2  -4  -2  171.83   35.76   5 0.56425 0.08057 -0.36947  0.03073  0.23059 -0.65282 -0.79593  0.63542 24930   1699 0.8853  20
  -1  -4  -2  517.04   53.42   5 0.52385 0.08450 -0.36947  0.13414  0.23059 -0.58267 -0.79593  0.64740 24930   1700 0.8834  20
   0  -4  -2 2075.55  156.61   5 0.40583 0.08979 -0.36947  0.24803  0.23059 -0.47336 -0.79593  0.68020 24930   1701 0.8868  20
  -2  -5  -3  156.34   46.86   5 0.52976 0.07784 -0.36947  0.01388  0.23059 -0.70420 -0.79593  0.57053 24930   1704 0.8916  20
  -1  -5  -3  272.74   52.60   5 0.51008 0.08047 -0.36947  0.10117  0.23059 -0.65089 -0.79593  0.57764 24930   1705 0.8897  20
   0  -5  -3  345.08   63.02   5 0.45268 0.08453 -0.36947  0.19830  0.23059 -0.57002 -0.79593  0.60301 24930   1706 0.8892  20
   1  -5  -4  424.59   49.42   5 0.57207 0.07910 -0.36947  0.23942  0.23059 -0.61503 -0.79593  0.47211 24930   1707 0.8867  20
  -1  -6  -4  129.21   56.02   5 0.47076 0.07815 -0.36947  0.08584  0.23059 -0.68840 -0.79593  0.52871 24930   1708 0.8957  20
   0  -6  -4  217.82   79.61   5 0.43724 0.08113 -0.36947  0.17169  0.23059 -0.62385 -0.79593  0.54678 24930   1709 0.8946  20
   1  -6  -5   51.51   46.70   5 0.50971 0.07735 -0.36947  0.21674  0.23059 -0.64885 -0.79593  0.43418 24930   1710 0.8938  20
   1  -3  -4  802.10   33.03   5 1.23578 0.07077 -0.36947  0.27622  0.23059 -0.69001 -0.79593  0.09662 24930   1715 0.8529  21
   0  -4  -5  298.16   23.70   5 0.99866 0.07010 -0.36947  0.06918  0.23059 -0.82589 -0.79593  0.08935 24930   1716 0.8699  21
   1  -4  -5  980.67   47.82   5 0.94329 0.07053 -0.36947  0.22613  0.23059 -0.72319 -0.79593  0.12815 24930   1717 0.8729  21
   0  -4  -6 1075.53   53.24   5 1.00429 0.06992 -0.36947  0.06706  0.23059 -0.82914 -0.79593 -0.05687 24930   1718 0.8698  21
   1  -4  -6   34.77   14.84   5 0.96229 0.06985 -0.36947  0.22369  0.23059 -0.73207 -0.79593 -0.01919 24930   1719 0.8727  21
   0  -5  -6  205.61   30.62   5 0.79360 0.06995 -0.36947  0.07216  0.23059 -0.82107 -0.79593  0.12326 24930   1720 0.8839  21
   1  -5  -6  457.09   42.78   5 0.75908 0.07048 -0.36947  0.19714  0.23059 -0.74035 -0.79593  0.15083 24930   1721 0.8855  21
   0  -5  -7   44.17   23.23   5 0.80425 0.06944 -0.36947  0.06753  0.23059 -0.83028 -0.79593 -0.00210 24930   1722 0.8840  21
   1  -5  -7   27.20   21.64   5 0.78017 0.06972 -0.36947  0.19246  0.23059 -0.75333 -0.79593  0.02465 24930   1723 0.8852  21
   0  -1  -3  201.42    7.71   5 3.01884 0.07340 -0.36947  0.14152  0.23059 -0.67855 -0.79593 -0.48098 24930   1735 0.7344  22
   0  -1  -4  806.31   28.22   5 2.44530 0.07377 -0.36947  0.18368  0.23059 -0.59427 -0.79593 -0.58188 24930   1736 0.7681  22
   0  -2  -5  233.60   13.10   5 1.68544 0.07234 -0.36947  0.11371  0.23059 -0.73222 -0.79593 -0.39610 24930   1737 0.8201  22
  -1  -2  -6   34.17   11.04   5 1.51418 0.07349 -0.36947 -0.08501  0.23059 -0.79367 -0.79593 -0.49035 24930   1738 0.8288  22
   0  -2  -6  915.94   40.66   5 1.50747 0.07282 -0.36947  0.14081  0.23059 -0.67821 -0.79593 -0.48265 24930   1739 0.8307  22
  -1  -2  -7   40.04   13.92   5 1.36787 0.07387 -0.36947 -0.04216  0.23059 -0.73837 -0.79593 -0.55876 24930   1740 0.8379  22
   0  -2  -7  195.12   18.65   5 1.35126 0.07319 -0.36947  0.16521  0.23059 -0.63135 -0.79593 -0.54136 24930   1741 0.8404  22
  -1  -2  -8  284.53   27.73   5 1.24009 0.07414 -0.36947 -0.00387  0.23059 -0.69139 -0.79593 -0.60513 24930   1742 0.8461  22
   0  -2  -8  473.23   33.59   5 1.22095 0.07346 -0.36947  0.18243  0.23059 -0.59478 -0.79593 -0.58247 24930   1743 0.8487  22
  -1  -3  -8   21.84   19.83   5 1.08870 0.07268 -0.36947 -0.03948  0.23059 -0.79821 -0.79593 -0.43637 24930   1744 0.8592  22
   0  -3  -8  277.48   31.33   5 1.08288 0.07211 -0.36947  0.12412  0.23059 -0.71288 -0.79593 -0.42881 24930   1745 0.8606  22
  -2   0  -6 1440.58   54.35   5 1.95084 0.07635 -0.36947 -0.21248  0.23059 -0.51702 -0.79593 -0.85432 24930   1754 0.7933  23
  -3   0  -8  129.89   19.46   5 1.44465 0.07687 -0.36947 -0.27835  0.23059 -0.54909 -0.79593 -0.83575 24930   1757 0.8266  23
  -5   4  -2  468.11   18.80   5 2.33249 0.07584 -0.36947 -0.67345  0.23059  0.29168 -0.79593  0.14123 24930   1764 0.7697  26
  -7   6  -3   37.18   12.18   5 1.63502 0.07658 -0.36947 -0.60598  0.23059  0.37958 -0.79593  0.10767 24930   1766 0.8140  26
  -7   5  -3  223.66   16.20   5 1.70732 0.07656 -0.36947 -0.77648  0.23059  0.15361 -0.79593  0.07497 24930   1767 0.8091  26
  -6   5  -3  292.71   16.06   5 1.93157 0.07670 -0.36947 -0.63859  0.23059  0.34695 -0.79593 -0.01892 24930   1768 0.7937  26
  -8   7  -4   43.71   16.78   5 1.42190 0.07721 -0.36947 -0.58478  0.23059  0.41011 -0.79593 -0.00399 24930   1772 0.8274  26
  -8   6  -4   91.10   17.34   5 1.48359 0.07724 -0.36947 -0.73710  0.23059  0.21567 -0.79593 -0.04004 24930   1773 0.8231  26
  -9   7   2  124.21   38.15   5 0.64878 0.07061 -0.36947 -0.16186  0.23059  0.01241 -0.79593  0.98091 24930   1781 0.8929  28
  -8   7   1   26.30   19.35   5 0.87949 0.06955 -0.36947 -0.22062  0.23059  0.16387 -0.79593  0.92255 24930   1789 0.8788  28
  -9   6   1   48.37   23.01   5 0.82667 0.06954 -0.36947 -0.37067  0.23059 -0.04675 -0.79593  0.91488 24930   1791 0.8823  28
  -8   6   1  609.42   41.79   5 0.90376 0.06968 -0.36947 -0.30509  0.23059  0.03943 -0.79593  0.92616 24930   1792 0.8769  28
  -7   6   1   22.31   15.30   5 0.97747 0.06987 -0.36947 -0.21352  0.23059  0.13352 -0.79593  0.93671 24930   1793 0.8717  28
  -6   6   1   96.09   14.86   5 1.02868 0.07010 -0.36947 -0.09103  0.23059  0.22990 -0.79593  0.94370 24930   1794 0.8679  28
  -7   5   1   81.05   16.73   5 0.99863 0.07002 -0.36947 -0.30201  0.23059 -0.00821 -0.79593  0.93894 24930   1796 0.8700  28
  -6   5   1   78.66   13.54   5 1.09322 0.07025 -0.36947 -0.20225  0.23059  0.09487 -0.79593  0.95282 24930   1797 0.8633  28
  -5   5   1  100.47   11.05   5 1.15642 0.07054 -0.36947 -0.06258  0.23059  0.20001 -0.79593  0.96164 24930   1798 0.8586  28
  -6   4   1 1834.11   70.98   5 1.10008 0.07044 -0.36947 -0.28743  0.23059 -0.06670 -0.79593  0.95367 24930   1799 0.8625  28
  -7   3   2  100.37   34.69   5 0.58199 0.07747 -0.36947 -0.10785  0.23059 -0.27483 -0.79593  0.96089 24930   1806 0.8881  29
  -6   3   2  361.20   44.82   5 0.60877 0.07933 -0.36947 -0.03963  0.23059 -0.23192 -0.79593  0.96874 24930   1807 0.8835  29
  -9   2   2  134.19   96.20   5 0.43080 0.07789 -0.36947 -0.14651  0.23059 -0.39263 -0.79593  0.91790 24930   1811 0.8991  29
  -8   2   2  334.58   94.54   5 0.45668 0.07913 -0.36947 -0.10801  0.23059 -0.36781 -0.79593  0.92576 24930   1812 0.8955  29
  -6   2   2  140.74   52.35   5 0.49129 0.08347 -0.36947  0.00225  0.23059 -0.30496 -0.79593  0.93546 24930   1814 0.8873  29
  -5   1   1   44.51   13.42   5 0.80606 0.07711 -0.36947 -0.17204  0.23059 -0.41311 -0.79593  0.90981 24930   1816 0.8719  29
  -4   1   1  133.72   12.25   5 0.91454 0.07888 -0.36947 -0.10801  0.23059 -0.36781 -0.79593  0.92576 24930   1817 0.8611  29
  -4   0   1 3433.96  164.19   5 0.56977 0.08614 -0.36947  0.02982  0.23059 -0.40110 -0.79593  0.87656 24930   1819 0.8774  29
  -1   0  -6  101.61    9.18   5 1.97849 0.07596 -0.36947  0.07258  0.23059 -0.37415 -0.79593 -0.87756 24930   1821 0.7924  33
   0  -1  -6  187.76   12.67   5 1.73737 0.07428 -0.36947  0.23819  0.23059 -0.48570 -0.79593 -0.67495 24930   1822 0.8123  33
  -1   0  -7  551.61   26.50   5 1.69134 0.07608 -0.36947  0.11512  0.23059 -0.35230 -0.79593 -0.87337 24930   1823 0.8113  33
  -1  -1  -7  102.13   14.41   5 1.55239 0.07520 -0.36947  0.02020  0.23059 -0.57364 -0.79593 -0.73841 24930   1824 0.8226  33
   0  -1  -7   68.23   13.24   5 1.51318 0.07446 -0.36947  0.25409  0.23059 -0.45239 -0.79593 -0.69842 24930   1825 0.8269  33
  -1  -1  -8  225.74   22.83   5 1.37488 0.07532 -0.36947  0.05969  0.23059 -0.53427 -0.79593 -0.75640 24930   1827 0.8345  33
   0  -1  -8  570.95   35.31   5 1.33730 0.07460 -0.36947  0.26738  0.23059 -0.42638 -0.79593 -0.71433 24930   1828 0.8386  33
   0  -1  -9  412.50   36.75   5 1.19845 0.07470 -0.36947  0.27787  0.23059 -0.40630 -0.79593 -0.72554 24930   1831 0.8479  33
  -3   2  -7   36.83   15.70   5 1.80569 0.07754 -0.36947 -0.17001  0.23059 -0.09048 -0.79593 -0.98542 24930   1840 0.8002  34
  -2   1  -7   92.00   12.89   5 1.78868 0.07703 -0.36947 -0.03091  0.23059 -0.22637 -0.79593 -0.96940 24930   1841 0.8026  34
  -4   3  -8   26.04   22.69   5 1.56262 0.07813 -0.36947 -0.21550  0.23059  0.00744 -0.79593 -0.96740 24930   1842 0.8157  34
  -3   2  -8  270.69   24.20   5 1.58616 0.07774 -0.36947 -0.10420  0.23059 -0.10786 -0.79593 -0.99247 24930   1843 0.8149  34
  -5   5  -3  349.37   15.89   5 2.13372 0.07662 -0.36947 -0.42555  0.23059  0.56575 -0.79593 -0.10384 24930   1850 0.7805  36
  -6   6  -4  395.59   23.35   5 1.76142 0.07729 -0.36947 -0.41734  0.23059  0.56001 -0.79593 -0.19495 24930   1852 0.8038  36
  -6   5  -4  368.42   20.25   5 1.88790 0.07729 -0.36947 -0.61466  0.23059  0.33559 -0.79593 -0.26660 24930   1853 0.7952  36
  -5   5  -4   78.11   10.84   5 2.04978 0.07714 -0.36947 -0.39403  0.23059  0.53590 -0.79593 -0.35851 24930   1854 0.7848  36
  -7   6  -5  169.18   21.12   5 1.58426 0.07784 -0.36947 -0.57551  0.23059  0.36399 -0.79593 -0.32006 24930   1858 0.8148  36
  -6   6  -5  400.46   26.19   5 1.69216 0.07776 -0.36947 -0.38605  0.23059  0.52917 -0.79593 -0.39440 24930   1859 0.8075  36
  -4   4  -1 1700.50   53.55   5 2.50004 0.07453 -0.36947 -0.37529  0.23059  0.51607 -0.79593  0.44595 24930   1865 0.7626  37
  -3   3  -1  151.64    6.08   5 3.45628 0.07455 -0.36947 -0.40315  0.23059  0.54376 -0.79593  0.31106 24930   1866 0.7052  37
  -8   8  -2  128.29   21.56   5 1.24756 0.07470 -0.36947 -0.37401  0.23059  0.51684 -0.79593  0.44675 24930   1867 0.8446  37
  -6   6  -2  461.72   21.67   5 1.72801 0.07548 -0.36947 -0.40315  0.23059  0.54376 -0.79593  0.31106 24930   1870 0.8102  37
  -8   8  -3  207.14   25.09   5 1.31154 0.07607 -0.36947 -0.41322  0.23059  0.55335 -0.79593  0.24333 24930   1877 0.8374  37
  -7   8  -3   32.83   15.41   5 1.37453 0.07599 -0.36947 -0.24633  0.23059  0.69508 -0.79593  0.21593 24930   1878 0.8332  37
  -7   9   0   32.48   21.92   5 0.93045 0.07023 -0.36947  0.02418  0.23059  0.53180 -0.79593  0.79956 24930   1890 0.8742  38
  -8   8   0   77.29   22.61   5 1.00178 0.07084 -0.36947 -0.22892  0.23059  0.36696 -0.79593  0.79911 24930   1891 0.8684  38
  -7   7   0  145.09   19.54   5 1.14424 0.07099 -0.36947 -0.22751  0.23059  0.36747 -0.79593  0.79967 24930   1893 0.8585  38
  -6   6   0 2184.49   83.54   5 1.33592 0.07121 -0.36947 -0.22892  0.23059  0.36696 -0.79593  0.79911 24930   1895 0.8454  38
  -5   6   0   17.29   10.29   5 1.39329 0.07096 -0.36947 -0.04564  0.23059  0.49700 -0.79593  0.79852 24930   1896 0.8421  38
  -5   5   0   27.46    7.48   5 1.60314 0.07148 -0.36947 -0.22751  0.23059  0.36747 -0.79593  0.79967 24930   1897 0.8273  38
  -4   5   0  669.49   25.57   5 1.67330 0.07119 -0.36947 -0.00504  0.23059  0.51901 -0.79593  0.79832 24930   1898 0.8234  38
  -4   4   0  961.94   32.32   5 2.00554 0.07187 -0.36947 -0.22892  0.23059  0.36696 -0.79593  0.79911 24930   1899 0.8007  38
  -3   3   0  990.99   31.62   5 2.67552 0.07239 -0.36947 -0.22892  0.23059  0.36696 -0.79593  0.79911 24930   1900 0.7579  38
  -7   8   3  159.60   74.92   5 0.44215 0.07818 -0.36947  0.17093  0.23059  0.06617 -0.79593  0.98503 24930   1912 0.8979  39
  -8   7   3  166.73   72.97   5 0.47107 0.07698 -0.36947  0.05241  0.23059 -0.02061 -0.79593  0.99716 24930   1914 0.8971  39
  -6   9   2   70.55   45.58   5 0.55612 0.07319 -0.36947  0.24444  0.23059  0.26648 -0.79593  0.95525 24930   1920 0.8958  39
  -7   8   2  122.16   33.25   5 0.64355 0.07186 -0.36947  0.08183  0.23059  0.20057 -0.79593  0.97945 24930   1922 0.8914  39
  -6   8   2   34.39   33.52   5 0.61175 0.07314 -0.36947  0.18615  0.23059  0.22397 -0.79593  0.97083 24930   1923 0.8919  39
  -5   8   2   62.18   39.52   5 0.55142 0.07592 -0.36947  0.28654  0.23059  0.22246 -0.79593  0.95370 24930   1924 0.8925  39
  -5   7   2   83.48   33.78   5 0.61052 0.07607 -0.36947  0.23396  0.23059  0.17948 -0.79593  0.96956 24930   1927 0.8879  39
  -6   6   2  586.32   43.06   5 0.70361 0.07393 -0.36947  0.05460  0.23059  0.08171 -0.79593  0.99653 24930   1928 0.8842  39
  -5   6   2   85.99   26.65   5 0.66262 0.07649 -0.36947  0.17230  0.23059  0.11562 -0.79593  0.98446 24930   1929 0.8834  39
  -4   6   2 1559.70   93.94   5 0.56920 0.08041 -0.36947  0.28625  0.23059  0.11130 -0.79593  0.95745 24930   1930 0.8851  39
  -6   5   2  151.75   23.60   5 0.71887 0.07499 -0.36947 -0.00486  0.23059 -0.01963 -0.79593  0.99979 24930   1931 0.8815  39
  -4   5   2  175.84   29.63   5 0.60540 0.08175 -0.36947  0.23603  0.23059  0.04165 -0.79593  0.96774 24930   1933 0.8805  39
  -3   5   1  274.37   16.02   5 1.00886 0.07363 -0.36947  0.29264  0.23059  0.29660 -0.79593  0.94035 24930   1934 0.8631  39
  -3   3   1   16.95    4.86   5 1.40845 0.07428 -0.36947  0.05508  0.23059  0.08321 -0.79593  0.99641 24930   1936 0.8343  39
  -1   1  -6  177.22   11.92   5 2.07191 0.07641 -0.36947  0.21307  0.23059 -0.07246 -0.79593 -0.95492 24930   1940 0.7851  43
  -1   1  -7   53.55   12.43   5 1.75972 0.07657 -0.36947  0.23639  0.23059 -0.09650 -0.79593 -0.93950 24930   1941 0.8056  43
  -1   1  -8  579.86   35.20   5 1.52873 0.07666 -0.36947  0.25290  0.23059 -0.11325 -0.79593 -0.92706 24930   1943 0.8212  43
  -1   1  -9  410.93   34.94   5 1.34948 0.07667 -0.36947  0.26774  0.23059 -0.12643 -0.79593 -0.91541 24930   1947 0.8336  43
  -4   5  -2  476.36   18.36   5 2.25741 0.07554 -0.36947 -0.13366  0.23059  0.77978 -0.79593  0.16273 24930   1952 0.7753  46
  -5   6  -3  301.20   16.25   5 1.88430 0.07644 -0.36947 -0.19113  0.23059  0.75449 -0.79593  0.00175 24930   1954 0.7975  46
  -4   5  -3   13.79    6.61   5 2.25374 0.07640 -0.36947 -0.13383  0.23059  0.78074 -0.79593 -0.15514 24930   1955 0.7732  46
  -7   8  -4   19.93   17.77   5 1.39841 0.07695 -0.36947 -0.25674  0.23059  0.70857 -0.79593  0.01084 24930   1958 0.8296  46
  -6   8  -4   88.01   19.38   5 1.42781 0.07672 -0.36947 -0.05523  0.23059  0.83706 -0.79593 -0.00757 24930   1959 0.8280  46
  -6   7  -4  122.89   17.08   5 1.60000 0.07712 -0.36947 -0.22665  0.23059  0.72533 -0.79593 -0.10409 24930   1960 0.8152  46
  -5   6  -4  361.18   18.97   5 1.84825 0.07711 -0.36947 -0.18012  0.23059  0.73581 -0.79593 -0.24112 24930   1961 0.7983  46
  -6   8  -1  673.14   40.95   5 1.21797 0.07227 -0.36947  0.00660  0.23059  0.67792 -0.79593  0.62700 24930   1966 0.8512  47
  -5   7  -1   71.46   12.84   5 1.41237 0.07251 -0.36947  0.05530  0.23059  0.71899 -0.79593  0.59973 24930   1968 0.8377  47
  -5   6  -1   19.48    8.41   5 1.67108 0.07344 -0.36947 -0.12916  0.23059  0.64175 -0.79593  0.56402 24930   1969 0.8185  47
  -4   6  -1 1722.73   66.25   5 1.67459 0.07279 -0.36947  0.11983  0.23059  0.76853 -0.79593  0.56226 24930   1970 0.8198  47
  -4   5  -1   41.55    5.62   5 2.06991 0.07386 -0.36947 -0.09327  0.23059  0.69536 -0.79593  0.50718 24930   1971 0.7916  47
  -7   9  -2   96.04   23.86   5 1.16924 0.07391 -0.36947 -0.06563  0.23059  0.73032 -0.79593  0.46819 24930   1976 0.8514  47
  -6   9  -2   43.50   20.78   5 1.16248 0.07335 -0.36947  0.10973  0.23059  0.81340 -0.79593  0.46989 24930   1977 0.8529  47
  -6   8  -2  484.34   32.03   5 1.34101 0.07423 -0.36947 -0.02937  0.23059  0.77081 -0.79593  0.42009 24930   1978 0.8390  47
  -6   9   1   48.46   28.34   5 0.73829 0.06994 -0.36947  0.20490  0.23059  0.43075 -0.79593  0.90239 24930   1986 0.8877  48
  -6   8   1  647.12   45.62   5 0.83417 0.06996 -0.36947  0.12028  0.23059  0.39056 -0.79593  0.91650 24930   1988 0.8812  48
  -5   7   1  101.29   18.83   5 0.90538 0.07032 -0.36947  0.16598  0.23059  0.37690 -0.79593  0.92589 24930   1990 0.8758  48
  -4   7   1   44.61   16.89   5 0.82392 0.07188 -0.36947  0.30813  0.23059  0.38293 -0.79593  0.91390 24930   1991 0.8788  48
  -6   9   0   37.79   19.21   5 0.90827 0.06995 -0.36947  0.16584  0.23059  0.58483 -0.79593  0.79788 24930   1997 0.8762  48
  -5   9   0  101.01   24.70   5 0.85913 0.06952 -0.36947  0.30616  0.23059  0.60294 -0.79593  0.79777 24930   1998 0.8802  48
  -5   8   0  149.71   19.67   5 1.00574 0.06996 -0.36947  0.21960  0.23059  0.59570 -0.79593  0.79811 24930   1999 0.8696  48
  -4   8   0 1436.85   68.46   5 0.92470 0.06984 -0.36947  0.37000  0.23059  0.59774 -0.79593  0.79747 24930   2000 0.8753  48
  -4   6   0  419.80   20.52   5 1.36502 0.07056 -0.36947  0.16584  0.23059  0.58483 -0.79593  0.79788 24930   2002 0.8448  48
  -3   6   0  176.65   14.35   5 1.23280 0.07028 -0.36947  0.37000  0.23059  0.59774 -0.79593  0.79747 24930   2003 0.8540  48
  -3   5   0   50.20    6.52   5 1.58925 0.07068 -0.36947  0.25130  0.23059  0.60020 -0.79593  0.79786 24930   2004 0.8300  48
  -2   4   0 4569.11  147.80   5 1.84986 0.07107 -0.36947  0.36965  0.23059  0.59661 -0.79593  0.79829 24930   2005 0.8124  48
  -3   6   2  327.94   83.66   5 0.42591 0.08630 -0.36947  0.36860  0.23059  0.05541 -0.79593  0.91760 24930   2008 0.8892  49
  -2   8   1  445.15  100.48   5 0.46151 0.07952 -0.36947  0.50797  0.23059  0.25097 -0.79593  0.86137 24930   2011 0.8947  49
  -2   7   1   50.46   38.83   5 0.53172 0.07933 -0.36947  0.48910  0.23059  0.24738 -0.79593  0.87222 24930   2012 0.8895  49
  -2   6   1 2047.68  102.80   5 0.63051 0.07915 -0.36947  0.46327  0.23059  0.23977 -0.79593  0.88617 24930   2013 0.8821  49
  -2   5   1  311.96   23.59   5 0.76175 0.07899 -0.36947  0.42585  0.23059  0.22456 -0.79593  0.90469 24930   2015 0.8724  49
  -1   4   1  176.52   30.55   5 0.51270 0.08886 -0.36947  0.44473  0.23059  0.03583 -0.79593  0.86938 24930   2017 0.8787  49
   0   6   0 2609.36  167.22   5 0.51323 0.08136 -0.36947  0.59849  0.23059  0.22805 -0.79593  0.79690 24930   2019 0.8883  49
   0   4   0 1282.45   54.65   5 0.76887 0.08110 -0.36947  0.59849  0.23059  0.22805 -0.79593  0.79690 24930   2021 0.8686  49
   0   3   0 1781.55   64.69   5 1.02480 0.08079 -0.36947  0.59888  0.23059  0.22942 -0.79593  0.79675 24930   2022 0.8496  49
   0   2   0  854.03   29.64   5 1.53711 0.08038 -0.36947  0.59849  0.23059  0.22805 -0.79593  0.79690 24930   2023 0.8127  49
  -2  -7   2   55.27   19.35   6 1.30599 0.07586 -0.73574 -0.33775 -0.86871 -0.69149 -0.35246  0.72233 24931   2032 0.8382  13
  -1  -7   2  139.87   18.62   6 1.36173 0.07519 -0.73574 -0.17892 -0.86871 -0.65302 -0.35246  0.73791 24931   2033 0.8357  13
  -2  -6   2   48.93   15.08   6 1.44882 0.07551 -0.73574 -0.34747 -0.86871 -0.64443 -0.35246  0.76410 24931   2034 0.8290  13
  -1  -6   2   50.70   12.41   6 1.52095 0.07483 -0.73574 -0.17166 -0.86871 -0.60366 -0.35246  0.78294 24931   2035 0.8256  13
  -2  -5   2  127.00   13.65   6 1.62171 0.07510 -0.73574 -0.35240 -0.86871 -0.58078 -0.35246  0.81091 24931   2036 0.8182  13
  -1  -5   2  170.45   12.98   6 1.71060 0.07434 -0.73574 -0.15694 -0.86871 -0.53224 -0.35246  0.83715 24931   2037 0.8139  13
  -3  -6   1   42.16   17.67   6 1.48873 0.07696 -0.73574 -0.59418 -0.86871 -0.79384 -0.35246  0.56385 24931   2043 0.8233  14
  -3  -6   0   17.04   16.51   6 1.57832 0.07759 -0.73574 -0.67778 -0.86871 -0.89750 -0.35246  0.35293 24931   2047 0.8157  14
  -3  -5   0  120.04   15.74   6 1.79342 0.07730 -0.73574 -0.73456 -0.86871 -0.86814 -0.35246  0.35488 24931   2048 0.8016  14
  -2  -4   0  379.36   18.27   6 2.37288 0.07648 -0.73574 -0.67754 -0.86871 -0.89702 -0.35246  0.35413 24931   2050 0.7653  14
  -2  -3   0   49.49    5.96   6 2.88152 0.07579 -0.73574 -0.76595 -0.86871 -0.84731 -0.35246  0.35474 24931   2051 0.7354  14
  -7  -2  -2   90.95   18.61   6 1.43416 0.07724 -0.73574 -0.97678 -0.86871 -0.30798 -0.35246 -0.05008 24931   2053 0.8265  16
  -6  -2  -2   45.32   14.82   6 1.64261 0.07723 -0.73574 -0.98203 -0.86871 -0.35825 -0.35246 -0.11006 24931   2054 0.8121  16
  -5  -1  -2  150.62   10.48   6 2.02314 0.07642 -0.73574 -0.92290 -0.86871 -0.18517 -0.35246 -0.21562 24931   2056 0.7883  16
  -6  -2  -3  508.07   30.22   6 1.59699 0.07740 -0.73574 -0.93211 -0.86871 -0.32238 -0.35246 -0.32195 24931   2061 0.8149  16
  -6   0  -2  575.16   28.39   6 1.71989 0.07542 -0.73574 -0.80485 -0.86871  0.09896 -0.35246 -0.13049 24931   2063 0.8108  17
  -4   0  -2  467.24   18.83   6 2.47398 0.07519 -0.73574 -0.74039 -0.86871  0.13001 -0.35246 -0.34384 24931   2065 0.7624  17
  -8   1  -3  158.41   23.79   6 1.23780 0.07422 -0.73574 -0.65174 -0.86871  0.31421 -0.35246 -0.17015 24931   2069 0.8461  17
  -6   0  -3  308.10   20.07   6 1.64754 0.07563 -0.73574 -0.74039 -0.86871  0.13001 -0.35246 -0.34384 24931   2070 0.8153  17
  -9   3  -2   51.67   20.11   6 0.94124 0.07031 -0.73574 -0.31913 -0.86871  0.65767 -0.35246  0.08752 24931   2078 0.8734  18
  -7   2  -2  114.48   14.17   6 1.28255 0.07162 -0.73574 -0.41408 -0.86871  0.58122 -0.35246 -0.00824 24931   2079 0.8481  18
  -8   3  -2   47.46   16.68   6 1.00568 0.07013 -0.73574 -0.23986 -0.86871  0.71874 -0.35246  0.06816 24931   2080 0.8694  18
  -6   2  -2 1369.63   55.61   6 1.41686 0.07125 -0.73574 -0.32311 -0.86871  0.65705 -0.35246 -0.04600 24931   2081 0.8400  18
  -8   2  -3  524.16   35.21   6 1.14786 0.07230 -0.73574 -0.46462 -0.86871  0.52602 -0.35246 -0.13182 24931   2085 0.8559  18
  -9   3  -3  230.55   30.20   6 0.94465 0.07071 -0.73574 -0.32311 -0.86871  0.65705 -0.35246 -0.04600 24931   2086 0.8725  18
  -7   2  -3   33.50   12.44   6 1.25677 0.07193 -0.73574 -0.39042 -0.86871  0.58683 -0.35246 -0.17924 24931   2088 0.8492  18
  -8   3  -3   33.81   17.70   6 1.00366 0.07032 -0.73574 -0.23973 -0.86871  0.71865 -0.35246 -0.07114 24931   2089 0.8691  18
  -9   4   0   89.81   33.68   6 0.68905 0.07085 -0.73574  0.01624 -0.86871  0.81743 -0.35246  0.35555 24931   2095 0.8897  19
  -8   4   0 1324.46   92.12   6 0.67077 0.07286 -0.73574  0.13528 -0.86871  0.86912 -0.35246  0.35383 24931   2098 0.8881  19
  -5   2   0   59.47    7.83   6 1.36517 0.07076 -0.73574 -0.08018 -0.86871  0.76666 -0.35246  0.35465 24931   2099 0.8444  19
  -6   3   0  191.78   20.58   6 0.89380 0.07304 -0.73574  0.13528 -0.86871  0.86912 -0.35246  0.35383 24931   2100 0.8721  19
  -2   1   0  153.43    5.77   6 2.68477 0.07418 -0.73574  0.13528 -0.86871  0.86912 -0.35246  0.35383 24931   2102 0.7522  19
  -8   4  -1   59.66   24.77   6 0.75189 0.07129 -0.73574  0.06271 -0.86871  0.86828 -0.35246  0.24929 24931   2107 0.8847  19
  -9   5  -1   92.16   50.17   6 0.56359 0.07370 -0.73574  0.18764 -0.86871  0.91038 -0.35246  0.27525 24931   2108 0.8946  19
  -3  -2   6   49.94   46.80   6 0.50324 0.07792 -0.73574  0.43477 -0.86871  0.60504 -0.35246  0.78141 24931   2115 0.8935  20
   0  -4   6  172.95   90.25   6 0.40563 0.08323 -0.73574  0.61520 -0.86871  0.62702 -0.35246  0.69677 24931   2117 0.8946  20
  -1  -3   5  879.79   58.68   6 0.62889 0.07718 -0.73574  0.49996 -0.86871  0.53925 -0.35246  0.79904 24931   2119 0.8850  20
  -2  -2   5 1711.99   95.79   6 0.59482 0.07848 -0.73574  0.46899 -0.86871  0.60196 -0.35246  0.77460 24931   2120 0.8858  20
  -3  -1   5 1066.74   88.33   6 0.52703 0.08077 -0.73574  0.45882 -0.86871  0.67077 -0.35246  0.72784 24931   2121 0.8880  20
   1  -4   5  848.61  125.80   6 0.40225 0.08612 -0.73574  0.67507 -0.86871  0.65916 -0.35246  0.63746 24931   2122 0.8914  20
  -2  -1   4  801.42   47.59   6 0.62431 0.08243 -0.73574  0.50288 -0.86871  0.68231 -0.35246  0.70681 24931   2125 0.8780  20
   0  -2   3 1150.59   44.31   6 0.81131 0.08260 -0.73574  0.61440 -0.86871  0.62609 -0.35246  0.69780 24931   2126 0.8630  20
   0  -6   5  607.55   47.40   6 0.81076 0.06982 -0.73574  0.37181 -0.86871  0.14304 -0.35246  0.92699 24931   2141 0.8830  21
   1  -6   5  401.76   44.86   6 0.70274 0.07154 -0.73574  0.52597 -0.86871  0.29200 -0.35246  0.84984 24931   2142 0.8878  21
   1  -7   4  447.43   35.63   6 0.93701 0.06990 -0.73574  0.38525 -0.86871 -0.04019 -0.35246  0.88278 24931   2143 0.8743  21
   1  -6   4   38.01   18.22   6 0.92838 0.06996 -0.73574  0.45764 -0.86871  0.10774 -0.35246  0.87807 24931   2145 0.8748  21
   0  -5   4  153.27   18.91   6 1.02358 0.06997 -0.73574  0.35317 -0.86871  0.10598 -0.35246  0.93200 24931   2146 0.8684  21
   1  -5   3  147.79   14.11   6 1.20071 0.07018 -0.73574  0.46608 -0.86871  0.06206 -0.35246  0.86243 24931   2149 0.8563  21
   0  -4   3 1334.52   50.11   6 1.37545 0.07030 -0.73574  0.32488 -0.86871  0.04875 -0.35246  0.93660 24931   2150 0.8446  21
   0  -8   2  413.91   33.14   6 1.24710 0.07466 -0.73574 -0.00968 -0.86871 -0.61787 -0.35246  0.70629 24931   2159 0.8447  22
   1  -8   2  120.99   21.09   6 1.22836 0.07346 -0.73574  0.18557 -0.86871 -0.50432 -0.35246  0.70013 24931   2160 0.8482  22
   1  -7   2   88.37   14.87   6 1.34749 0.07291 -0.73574  0.23176 -0.86871 -0.43664 -0.35246  0.73434 24931   2162 0.8412  22
   0  -6   2  605.84   29.93   6 1.53991 0.07377 -0.73574  0.04616 -0.86871 -0.50824 -0.35246  0.78834 24931   2163 0.8265  22
   0  -5   2  211.27   12.83   6 1.72515 0.07314 -0.73574  0.09147 -0.86871 -0.41704 -0.35246  0.84029 24931   2164 0.8157  22
   0  -4   1 2222.49   75.75   6 2.49786 0.07450 -0.73574 -0.00968 -0.86871 -0.61787 -0.35246  0.70629 24931   2165 0.7628  22
   0  -3   1   10.39    2.74   6 3.08178 0.07390 -0.73574  0.04616 -0.86871 -0.50824 -0.35246  0.78834 24931   2166 0.7291  22
  -1  -8   1   79.39   21.65   6 1.33563 0.07655 -0.73574 -0.25992 -0.86871 -0.82269 -0.35246  0.54093 24931   2170 0.8348  23
  -1  -7   1   41.42   15.64   6 1.50408 0.07635 -0.73574 -0.27188 -0.86871 -0.81006 -0.35246  0.56583 24931   2172 0.8235  23
  -2  -6   1  579.14   31.13   6 1.61114 0.07663 -0.73574 -0.46453 -0.86871 -0.81058 -0.35246  0.58162 24931   2173 0.8155  23
  -1  -6   1   40.19   11.00   6 1.71839 0.07611 -0.73574 -0.28743 -0.86871 -0.79323 -0.35246  0.59572 24931   2174 0.8094  23
  -2  -7   0   53.30   16.95   6 1.51052 0.07750 -0.73574 -0.50556 -0.86871 -0.93389 -0.35246  0.35477 24931   2179 0.8206  23
  -1  -4   0  488.41   18.50   6 2.69540 0.07595 -0.73574 -0.46837 -0.86871 -0.93536 -0.35246  0.35370 24931   2183 0.7464  23
  -6  -1  -3   13.53   11.21   6 1.64689 0.07670 -0.73574 -0.86564 -0.86871 -0.11730 -0.35246 -0.34339 24931   2185 0.8129  26
  -4  -1  -3  148.34    9.33   6 2.22420 0.07628 -0.73574 -0.75622 -0.86871 -0.12522 -0.35246 -0.58553 24931   2187 0.7755  26
  -6  -2  -4  211.17   22.51   6 1.51413 0.07746 -0.73574 -0.84626 -0.86871 -0.26157 -0.35246 -0.49904 24931   2189 0.8205  26
  -6  -1  -4  449.89   28.83   6 1.54768 0.07672 -0.73574 -0.76647 -0.86871 -0.05589 -0.35246 -0.51928 24931   2191 0.8197  26
  -5  -1  -4   65.40   11.09   6 1.74036 0.07653 -0.73574 -0.69270 -0.86871 -0.03918 -0.35246 -0.62798 24931   2192 0.8070  26
  -2   1  -1   27.76    1.67   6 3.21956 0.07246 -0.73574  0.01426 -0.86871  0.86871 -0.35246 -0.10024 24931   2197 0.7257  28
  -6   3  -2  430.37   24.52   6 1.08237 0.07037 -0.73574  0.00842 -0.86871  0.86921 -0.35246  0.04783 24931   2198 0.8638  28
  -8   4  -3  101.89   25.98   6 0.81597 0.06990 -0.73574  0.00434 -0.86871  0.86816 -0.35246  0.00829 24931   2201 0.8825  28
  -6   3  -3   79.26   14.24   6 1.07266 0.07009 -0.73574  0.01283 -0.86871  0.86802 -0.35246 -0.10013 24931   2202 0.8650  28
  -7   4  -3  177.47   27.32   6 0.79531 0.07109 -0.73574  0.14142 -0.86871  0.92791 -0.35246  0.01654 24931   2203 0.8820  28
  -5   3  -3  237.07   17.11   6 1.02770 0.07135 -0.73574  0.19718 -0.86871  0.94473 -0.35246 -0.08077 24931   2204 0.8657  28
  -8   4  -4  200.73   31.50   6 0.80410 0.06970 -0.73574  0.01426 -0.86871  0.86871 -0.35246 -0.10024 24931   2210 0.8836  28
  -6   3  -4  252.89   22.20   6 1.01844 0.06986 -0.73574  0.05005 -0.86871  0.86810 -0.35246 -0.22314 24931   2212 0.8690  28
  -7   4  -4   65.00   23.52   6 0.78696 0.07028 -0.73574  0.14794 -0.86871  0.92695 -0.35246 -0.08955 24931   2213 0.8839  28
  -8   4  -5  317.14   42.39   6 0.77608 0.06953 -0.73574  0.03920 -0.86871  0.86816 -0.35246 -0.19593 24931   2216 0.8858  28
  -7   4  -5   70.94   27.00   6 0.75570 0.07003 -0.73574  0.17068 -0.86871  0.92429 -0.35246 -0.18004 24931   2219 0.8864  28
  -7   4   1  138.12   54.98   6 0.47246 0.08251 -0.73574  0.38299 -0.86871  0.90358 -0.35246  0.42098 24931   2224 0.8901  29
  -5   3   1  295.70   48.20   6 0.49182 0.08720 -0.73574  0.47941 -0.86871  0.90540 -0.35246  0.42344 24931   2225 0.8826  29
  -5   3   0   58.00   15.27   6 0.75303 0.07976 -0.73574  0.34220 -0.86871  0.92505 -0.35246  0.35353 24931   2228 0.8719  29
  -6   4   0  374.65   75.79   6 0.44708 0.08625 -0.73574  0.46940 -0.86871  0.93549 -0.35246  0.35334 24931   2229 0.8875  29
  -3   2   0   15.06    6.89   6 0.89401 0.08528 -0.73574  0.46787 -0.86871  0.93501 -0.35246  0.35461 24931   2230 0.8523  29
  -6   4  -1 1911.34  112.84   6 0.58806 0.08070 -0.73574  0.38459 -0.86871  0.95656 -0.35246  0.27071 24931   2233 0.8833  29
  -4   3  -1  166.12   20.41   6 0.64520 0.08559 -0.73574  0.49519 -0.86871  0.96472 -0.35246  0.26285 24931   2234 0.8719  29
  -7   5  -2  139.79   58.83   6 0.46279 0.08177 -0.73574  0.42406 -0.86871  0.97206 -0.35246  0.22355 24931   2236 0.8918  29
  -5   4  -2  501.96   68.28   6 0.47361 0.08632 -0.73574  0.52389 -0.86871  0.97461 -0.35246  0.21988 24931   2237 0.8852  29
   1  -9   1   86.84   21.23   6 1.22594 0.07512 -0.73574  0.09501 -0.86871 -0.68445 -0.35246  0.52596 24931   2241 0.8452  33
   0  -8   1  336.56   27.63   6 1.36851 0.07587 -0.73574 -0.08090 -0.86871 -0.76255 -0.35246  0.54610 24931   2242 0.8339  33
   0  -7   1   17.70   12.19   6 1.54520 0.07563 -0.73574 -0.07152 -0.86871 -0.74403 -0.35246  0.57098 24931   2244 0.8222  33
   1  -7   1   31.96   11.95   6 1.53153 0.07449 -0.73574  0.16306 -0.86871 -0.61591 -0.35246  0.56995 24931   2245 0.8256  33
   0  -6   1   87.17   10.35   6 1.77308 0.07533 -0.73574 -0.05940 -0.86871 -0.71825 -0.35246  0.60360 24931   2246 0.8075  33
   0  -8   0  100.77   16.58   6 1.45505 0.07671 -0.73574 -0.13491 -0.86871 -0.86824 -0.35246  0.35609 24931   2253 0.8262  33
   0  -7   0  131.37   13.10   6 1.66448 0.07652 -0.73574 -0.13346 -0.86871 -0.86772 -0.35246  0.35601 24931   2255 0.8121  33
   0  -6   0 1732.01   60.93   6 1.94512 0.07627 -0.73574 -0.13346 -0.86871 -0.86772 -0.35246  0.35601 24931   2257 0.7938  33
   1  -6   0    9.57    6.82   6 1.93825 0.07528 -0.73574  0.15691 -0.86871 -0.72024 -0.35246  0.35332 24931   2258 0.7967  33
   0  -5   0   37.97    4.92   6 2.33205 0.07592 -0.73574 -0.13346 -0.86871 -0.86772 -0.35246  0.35601 24931   2259 0.7695  33
  -1  -7  -1   28.44   16.20   6 1.65429 0.07755 -0.73574 -0.37571 -0.86871 -0.98358 -0.35246  0.12088 24931   2266 0.8106  34
  -1  -6  -1   20.17   10.53   6 1.91889 0.07725 -0.73574 -0.41076 -0.86871 -0.99166 -0.35246  0.08349 24931   2267 0.7932  34
  -1  -5  -1   11.22    9.24   6 2.27506 0.07680 -0.73574 -0.45303 -0.86871 -0.99808 -0.35246  0.03173 24931   2268 0.7708  34
  -1  -4  -1   31.40    7.49   6 2.78563 0.07606 -0.73574 -0.51196 -0.86871 -0.99910 -0.35246 -0.03998 24931   2269 0.7405  34
  -4  -2  -3   18.87    8.71   6 2.11089 0.07695 -0.73574 -0.84078 -0.86871 -0.39153 -0.35246 -0.54035 24931   2273 0.7812  36
  -5  -3  -4  371.78   27.61   6 1.61431 0.07781 -0.73574 -0.82914 -0.86871 -0.45468 -0.35246 -0.55712 24931   2275 0.8128  36
  -4  -2  -4  402.24   20.35   6 1.90763 0.07701 -0.73574 -0.68729 -0.86871 -0.26956 -0.35246 -0.72133 24931   2277 0.7946  36
  -3   0  -3   64.73    4.76   6 2.52471 0.07466 -0.73574 -0.39387 -0.86871  0.30342 -0.35246 -0.71488 24931   2285 0.7607  37
  -5   0  -4  129.69   11.93   6 1.70939 0.07528 -0.73574 -0.53985 -0.86871  0.23112 -0.35246 -0.61143 24931   2286 0.8119  37
  -7   0  -5   61.60   18.74   6 1.28230 0.07559 -0.73574 -0.60271 -0.86871  0.20009 -0.35246 -0.54907 24931   2288 0.8404  37
  -5  -1  -5  394.47   23.65   6 1.56190 0.07629 -0.73574 -0.54637 -0.86871  0.05299 -0.35246 -0.74808 24931   2289 0.8197  37
  -6   0  -5  701.17   37.80   6 1.39667 0.07532 -0.73574 -0.51582 -0.86871  0.24233 -0.35246 -0.63269 24931   2290 0.8330  37
  -5   0  -5  487.73   26.55   6 1.51308 0.07490 -0.73574 -0.39387 -0.86871  0.30342 -0.35246 -0.71488 24931   2291 0.8259  37
  -5  -1  -6  159.50   19.98   6 1.39034 0.07590 -0.73574 -0.40556 -0.86871  0.14230 -0.35246 -0.82265 24931   2296 0.8323  37
  -3   1  -3  396.61   14.20   6 2.08495 0.07200 -0.73574 -0.04221 -0.86871  0.71300 -0.35246 -0.52883 24931   2302 0.7953  38
  -4   1  -4 1006.05   37.36   6 1.67332 0.07244 -0.73574 -0.13993 -0.86871  0.61784 -0.35246 -0.59132 24931   2303 0.8206  38
  -5   2  -4 1092.43   46.31   6 1.31751 0.07074 -0.73574 -0.05229 -0.86871  0.76988 -0.35246 -0.39037 24931   2304 0.8475  38
  -3   1  -4  815.69   30.23   6 1.68196 0.07130 -0.73574  0.10513 -0.86871  0.74206 -0.35246 -0.59588 24931   2305 0.8226  38
  -4   2  -4  142.03   12.36   6 1.29330 0.07019 -0.73574  0.15297 -0.86871  0.86705 -0.35246 -0.37852 24931   2306 0.8502  38
  -6   2  -5   55.28   16.40   6 1.15660 0.07127 -0.73574 -0.12837 -0.86871  0.69594 -0.35246 -0.46166 24931   2307 0.8572  38
  -5   2  -5  514.98   31.07   6 1.16941 0.07050 -0.73574  0.03625 -0.86871  0.78083 -0.35246 -0.47229 24931   2308 0.8578  38
  -7   2  -6  245.68   30.43   6 1.01829 0.07169 -0.73574 -0.17777 -0.86871  0.63952 -0.35246 -0.51084 24931   2309 0.8658  38
  -6   2  -6  751.51   48.23   6 1.04131 0.07098 -0.73574 -0.04221 -0.86871  0.71300 -0.35246 -0.52883 24931   2311 0.8655  38
  -7   3  -6  119.24   30.03   6 0.87940 0.06998 -0.73574  0.01214 -0.86871  0.80207 -0.35246 -0.39375 24931   2312 0.8781  38
  -5   2  -6   30.97   16.75   6 1.03269 0.07023 -0.73574  0.11739 -0.86871  0.79086 -0.35246 -0.52102 24931   2313 0.8674  38
  -6   3  -6  338.70   36.74   6 0.86191 0.06956 -0.73574  0.15297 -0.86871  0.86705 -0.35246 -0.37852 24931   2314 0.8799  38
  -6   2  -7   89.26   27.95   6 0.93688 0.07064 -0.73574  0.03674 -0.86871  0.72802 -0.35246 -0.57200 24931   2318 0.8731  38
  -6   4  -3  791.76   46.97   6 0.72112 0.07448 -0.73574  0.30766 -0.86871  0.97668 -0.35246  0.05067 24931   2325 0.8821  39
  -6   4  -4  434.29   37.47   6 0.72133 0.07282 -0.73574  0.30551 -0.86871  0.97613 -0.35246 -0.05225 24931   2329 0.8846  39
  -4   3  -4  980.67   44.48   6 0.82099 0.07458 -0.73574  0.42843 -0.86871  0.99085 -0.35246 -0.11060 24931   2331 0.8748  39
  -5   4  -4  422.06   49.38   6 0.58585 0.07865 -0.73574  0.47434 -0.86871  0.99931 -0.35246  0.02295 24931   2332 0.8862  39
  -6   4  -5  200.58   33.39   6 0.69421 0.07213 -0.73574  0.31978 -0.86871  0.97216 -0.35246 -0.13432 24931   2334 0.8875  39
  -7   5  -5   91.64   47.13   6 0.54248 0.07472 -0.73574  0.37166 -0.86871  0.98942 -0.35246 -0.02942 24931   2335 0.8948  39
  -4   3  -5  962.91   49.95   6 0.76117 0.07336 -0.73574  0.44988 -0.86871  0.98167 -0.35246 -0.18462 24931   2337 0.8809  39
  -6   4  -6  144.77   32.86   6 0.65572 0.07165 -0.73574  0.34276 -0.86871  0.96620 -0.35246 -0.20047 24931   2341 0.8909  39
  -4   3  -6   32.80   21.99   6 0.69581 0.07280 -0.73574  0.47446 -0.86871  0.97170 -0.35246 -0.23587 24931   2344 0.8864  39
  -5   4  -6  406.85   61.39   6 0.55654 0.07563 -0.73574  0.48531 -0.86871  0.99277 -0.35246 -0.11937 24931   2345 0.8925  39
  -5   4  -7   54.88   49.38   6 0.52562 0.07470 -0.73574  0.49810 -0.86871  0.98585 -0.35246 -0.16754 24931   2349 0.8960  39
   0  -8  -1  281.87   26.18   6 1.50751 0.07725 -0.73574 -0.16348 -0.86871 -0.92731 -0.35246  0.14123 24931   2359 0.8214  43
   1  -8  -1   46.38   17.34   6 1.51768 0.07651 -0.73574  0.05620 -0.86871 -0.82812 -0.35246  0.13915 24931   2360 0.8222  43
   0  -7  -1   71.30   13.54   6 1.72719 0.07705 -0.73574 -0.16569 -0.86871 -0.93156 -0.35246  0.11014 24931   2361 0.8067  43
   1  -7  -1   25.63   11.56   6 1.73572 0.07628 -0.73574  0.08682 -0.86871 -0.81423 -0.35246  0.10833 24931   2362 0.8078  43
   0  -6  -1   57.34    9.88   6 2.01790 0.07675 -0.73574 -0.16834 -0.86871 -0.93574 -0.35246  0.06901 24931   2363 0.7878  43
  -2  -1  -3  379.69   14.22   6 2.98226 0.07526 -0.73574 -0.37609 -0.86871 -0.02123 -0.35246 -0.90634 24931   2369 0.7309  46
  -3  -1  -4  948.23   34.45   6 2.16849 0.07574 -0.73574 -0.39754 -0.86871  0.05938 -0.35246 -0.86782 24931   2371 0.7805  46
  -3  -2  -5  508.89   24.15   6 1.82132 0.07645 -0.73574 -0.35204 -0.86871 -0.08297 -0.35246 -0.92980 24931   2373 0.8017  46
  -4  -3  -6  187.55   22.89   6 1.46368 0.07736 -0.73574 -0.46661 -0.86871 -0.22348 -0.35246 -0.88439 24931   2374 0.8242  46
  -5  -2  -6  257.73   26.24   6 1.39592 0.07694 -0.73574 -0.51475 -0.86871 -0.06943 -0.35246 -0.82942 24931   2375 0.8298  46
  -4  -2  -6  849.28   44.11   6 1.48892 0.07656 -0.73574 -0.37609 -0.86871 -0.02123 -0.35246 -0.90634 24931   2376 0.8241  46
  -2   0  -3  655.42   23.35   6 2.75570 0.07380 -0.73574 -0.08721 -0.86871  0.45624 -0.35246 -0.81195 24931   2381 0.7490  47
  -4   0  -5  176.91   13.72   6 1.61177 0.07423 -0.73574 -0.22714 -0.86871  0.38728 -0.35246 -0.78354 24931   2383 0.8207  47
  -3   0  -5  102.94   10.65   6 1.65725 0.07321 -0.73574 -0.00717 -0.86871  0.49679 -0.35246 -0.81616 24931   2384 0.8200  47
  -4   0  -6  360.38   25.06   6 1.37671 0.07352 -0.73574 -0.08721 -0.86871  0.45624 -0.35246 -0.81195 24931   2385 0.8380  47
  -5   0  -7  107.35   22.18   6 1.17166 0.07373 -0.73574 -0.13971 -0.86871  0.43059 -0.35246 -0.80409 24931   2386 0.8516  47
  -2   1  -3   12.08    3.60   6 1.94711 0.07114 -0.73574  0.29809 -0.86871  0.86810 -0.35246 -0.47091 24931   2396 0.8061  48
  -2   1  -4  443.28   18.44   6 1.50234 0.07074 -0.73574  0.39709 -0.86871  0.86723 -0.35246 -0.49611 24931   2397 0.8355  48
  -2   1  -5   12.11    9.58   6 1.20077 0.07047 -0.73574  0.46433 -0.86871  0.86734 -0.35246 -0.49646 24931   2398 0.8557  48
  -3   2  -5 1996.93   78.98   6 0.97862 0.07143 -0.73574  0.44332 -0.86871  0.94091 -0.35246 -0.33720 24931   2399 0.8689  48
  -3   1  -6   40.59   11.24   6 1.14030 0.07022 -0.73574  0.30723 -0.86871  0.78384 -0.35246 -0.61322 24931   2400 0.8602  48
  -4   2  -6  166.93   21.00   6 0.97357 0.06986 -0.73574  0.29925 -0.86871  0.86771 -0.35246 -0.47215 24931   2401 0.8720  48
  -2   1  -6 2588.76  101.07   6 0.99427 0.07031 -0.73574  0.51140 -0.86871  0.86731 -0.35246 -0.48961 24931   2402 0.8698  48
  -3   2  -6   35.68   17.30   6 0.84768 0.07125 -0.73574  0.48165 -0.86871  0.93082 -0.35246 -0.36499 24931   2403 0.8782  48
  -3   1  -7  191.38   22.15   6 0.97036 0.06983 -0.73574  0.37202 -0.86871  0.79491 -0.35246 -0.60602 24931   2404 0.8722  48
  -4   2  -7  555.57   41.60   6 0.85084 0.06976 -0.73574  0.35270 -0.86871  0.86720 -0.35246 -0.48913 24931   2405 0.8804  48
  -5   3  -7   33.13   26.07   6 0.72779 0.07003 -0.73574  0.35362 -0.86871  0.92207 -0.35246 -0.36660 24931   2406 0.8883  48
  -3   2  -7   35.88   24.19   6 0.74026 0.07117 -0.73574  0.51353 -0.86871  0.92281 -0.35246 -0.38053 24931   2407 0.8857  48
  -3   1  -8  107.12   25.78   6 0.83695 0.06949 -0.73574  0.42221 -0.86871  0.80470 -0.35246 -0.59324 24931   2411 0.8817  48
  -4   2  -8  235.16   37.60   6 0.75156 0.06969 -0.73574  0.39709 -0.86871  0.86723 -0.35246 -0.49611 24931   2412 0.8872  48
   1   0  -4 1286.98   76.45   6 0.53193 0.08779 -0.73574  0.81338 -0.86871  0.90843 -0.35246  0.05244 24931   2421 0.8784  49
   1   0  -5 2074.39  118.65   6 0.54153 0.08439 -0.73574  0.81496 -0.86871  0.90871 -0.35246 -0.02944 24931   2422 0.8821  49
   0   1  -5 1745.95  127.05   6 0.46433 0.08696 -0.73574  0.76871 -0.86871  0.93784 -0.35246  0.02508 24931   2423 0.8852  49
   2  -1  -6 2202.09  143.47   6 0.53790 0.08055 -0.73574  0.85301 -0.86871  0.86938 -0.35246 -0.10416 24931   2424 0.8874  49
   1   0  -6  144.84   50.47   6 0.51629 0.08203 -0.73574  0.81128 -0.86871  0.90661 -0.35246 -0.08485 24931   2425 0.8872  49
   0   1  -6  108.41   54.53   6 0.46219 0.08420 -0.73574  0.76885 -0.86871  0.93716 -0.35246 -0.03890 24931   2426 0.8888  49
   0   1  -7  369.38   91.01   6 0.44300 0.08221 -0.73574  0.76793 -0.86871  0.93383 -0.35246 -0.08450 24931   2429 0.8928  49
   2  -1  -8  172.73   84.79   6 0.46354 0.07804 -0.73574  0.83786 -0.86871  0.86779 -0.35246 -0.17133 24931   2430 0.8964  49
   1   0  -8  444.93  100.08   6 0.44892 0.07903 -0.73574  0.80190 -0.86871  0.90088 -0.35246 -0.15398 24931   2431 0.8963  49
   1   0  -9  302.23  126.04   6 0.41701 0.07822 -0.73574  0.79577 -0.86871  0.89961 -0.35246 -0.17638 24931   2434 0.8997  49
  -3  -6  -2   61.73   15.92   7 1.38874 0.07630 -0.26130 -0.98203 -0.89878 -0.65417 -0.38082 -0.01092 24932   2441 0.8316  13
  -4  -5  -1   31.51   16.83   7 1.27686 0.07433 -0.26130 -0.97827 -0.89878 -0.43584 -0.38082  0.19801 24932   2442 0.8432  13
  -3  -5  -1   91.39   14.55   7 1.51649 0.07532 -0.26130 -0.98182 -0.89878 -0.56977 -0.38082  0.16656 24932   2446 0.8248  13
  -2  -3  -1  294.78   12.72   7 2.41556 0.07504 -0.26130 -0.99804 -0.89878 -0.54040 -0.38082  0.04051 24932   2447 0.7665  13
  -2  -6  -3   59.78   16.14   7 1.56211 0.07716 -0.26130 -0.90375 -0.89878 -0.73173 -0.38082 -0.28072 24932   2450 0.8178  14
  -1  -6  -3   33.09   13.98   7 1.77220 0.07741 -0.26130 -0.79472 -0.89878 -0.81507 -0.38082 -0.36849 24932   2453 0.8028  14
  -1  -4  -2  443.37   19.41   7 2.50045 0.07623 -0.26130 -0.85586 -0.89878 -0.77667 -0.38082 -0.32456 24932   2454 0.7579  14
   2  -6  -6  115.27   17.38   7 1.56457 0.07721 -0.26130  0.02606 -0.89878 -0.26659 -0.38082 -0.94608 24932   2460 0.8175  16
   2  -7  -6  112.60   19.61   7 1.49177 0.07778 -0.26130 -0.07395 -0.89878 -0.43501 -0.38082 -0.88504 24932   2461 0.8214  16
   2  -6  -5  218.34   17.45   7 1.77531 0.07738 -0.26130 -0.00561 -0.89878 -0.42366 -0.38082 -0.87396 24932   2463 0.8027  16
   1  -4  -4  801.94   31.22   7 2.34312 0.07635 -0.26130 -0.08942 -0.89878 -0.32160 -0.38082 -0.94328 24932   2464 0.7676  16
   1  -3  -3  331.94   13.73   7 3.13304 0.07536 -0.26130  0.02606 -0.89878 -0.26659 -0.38082 -0.94608 24932   2465 0.7216  16
   2  -4  -7  626.01   39.20   7 1.33907 0.07428 -0.26130  0.25872 -0.89878  0.30009 -0.38082 -0.94562 24932   2471 0.8391  17
   2  -5  -7   51.30   15.71   7 1.38331 0.07580 -0.26130  0.15482 -0.89878  0.07453 -0.38082 -0.98794 24932   2472 0.8330  17
   3  -5  -7   42.07   17.16   7 1.32659 0.07510 -0.26130  0.35787 -0.89878  0.20696 -0.38082 -0.93321 24932   2473 0.8383  17
   2  -4  -6  166.79   15.85   7 1.58220 0.07507 -0.26130  0.25729 -0.89878  0.19010 -0.38082 -0.96373 24932   2474 0.8209  17
   1  -3  -5 1559.14   62.79   7 1.92921 0.07488 -0.26130  0.11440 -0.89878  0.18006 -0.38082 -0.98325 24932   2475 0.7982  17
   2  -4  -5 1288.88   53.12   7 1.89878 0.07573 -0.26130  0.25837 -0.89878  0.04978 -0.38082 -0.96168 24932   2476 0.7982  17
   1  -2  -3   15.10    3.10   7 3.16778 0.07451 -0.26130  0.25729 -0.89878  0.19010 -0.38082 -0.96373 24932   2477 0.7222  17
   2  -2  -8   95.74   23.34   7 0.90634 0.06987 -0.26130  0.39337 -0.89878  0.76302 -0.38082 -0.64623 24932   2487 0.8765  18
   2  -3  -8   74.04   18.95   7 1.05187 0.07148 -0.26130  0.33763 -0.89878  0.58548 -0.38082 -0.80903 24932   2488 0.8639  18
   3  -3  -8  107.18   22.53   7 0.96657 0.07061 -0.26130  0.47512 -0.89878  0.68281 -0.38082 -0.71409 24932   2489 0.8712  18
   1  -2  -7   68.91   15.22   7 1.15605 0.07089 -0.26130  0.25809 -0.89878  0.64120 -0.38082 -0.76397 24932   2490 0.8579  18
   2  -3  -7  197.91   19.69   7 1.23300 0.07222 -0.26130  0.35002 -0.89878  0.53041 -0.38082 -0.84206 24932   2492 0.8503  18
   1  -2  -6 2204.44   86.48   7 1.40162 0.07168 -0.26130  0.25842 -0.89878  0.58603 -0.38082 -0.80930 24932   2494 0.8401  18
   2  -2  -6 1579.02   66.08   7 1.26707 0.07069 -0.26130  0.44789 -0.89878  0.71035 -0.38082 -0.69566 24932   2495 0.8509  18
   2  -2  -5 1252.16   49.12   7 1.55793 0.07145 -0.26130  0.49134 -0.89878  0.66620 -0.38082 -0.72304 24932   2496 0.8303  18
   1  -1  -4  686.34   25.55   7 1.81486 0.07105 -0.26130  0.39245 -0.89878  0.76333 -0.38082 -0.64589 24932   2497 0.8147  18
   1  -1  -3    6.12    2.27   7 2.53844 0.07201 -0.26130  0.44789 -0.89878  0.71035 -0.38082 -0.69566 24932   2498 0.7673  18
   1   0  -9  343.96   87.88   7 0.54033 0.07280 -0.26130  0.33973 -0.89878  0.94014 -0.38082 -0.30575 24932   2507 0.8975  19
   0   0  -8  409.24   51.59   7 0.66970 0.07167 -0.26130  0.25909 -0.89878  0.89958 -0.38082 -0.37719 24932   2510 0.8899  19
   1   0  -8  532.38   71.46   7 0.59899 0.07301 -0.26130  0.34938 -0.89878  0.94435 -0.38082 -0.29683 24932   2511 0.8930  19
  -1   0  -7  536.26   42.44   7 0.82519 0.07060 -0.26130  0.13727 -0.89878  0.83892 -0.38082 -0.43594 24932   2513 0.8808  19
   0   0  -7 1345.61   78.73   7 0.76491 0.07177 -0.26130  0.25909 -0.89878  0.89958 -0.38082 -0.37719 24932   2514 0.8831  19
   1   0  -7   34.34   25.80   7 0.67170 0.07340 -0.26130  0.35951 -0.89878  0.94915 -0.38082 -0.28540 24932   2515 0.8872  19
   1  -1  -7  459.52   33.74   7 0.93825 0.06994 -0.26130  0.32918 -0.89878  0.82951 -0.38082 -0.54969 24932   2516 0.8742  19
  -1   0  -6   98.45   16.64   7 0.97123 0.07059 -0.26130  0.11461 -0.89878  0.82710 -0.38082 -0.44356 24932   2517 0.8709  19
   0   0  -6 1099.09   57.96   7 0.89250 0.07190 -0.26130  0.25909 -0.89878  0.89958 -0.38082 -0.37719 24932   2518 0.8740  19
   0   0  -5 1964.61   84.38   7 1.07110 0.07208 -0.26130  0.25909 -0.89878  0.89958 -0.38082 -0.37719 24932   2519 0.8615  19
   0   0  -4 2061.18   83.28   7 1.33853 0.07234 -0.26130  0.25909 -0.89878  0.89958 -0.38082 -0.37719 24932   2520 0.8430  19
   0   0  -3 1019.24   38.75   7 1.78612 0.07274 -0.26130  0.25909 -0.89878  0.89958 -0.38082 -0.37719 24932   2521 0.8126  19
  -8   1  -3  104.30   66.06   7 0.46433 0.07719 -0.26130 -0.26043 -0.89878  0.69081 -0.38082  0.18277 24932   2524 0.8974  20
  -6   1  -2   98.02   41.17   7 0.53380 0.08075 -0.26130 -0.18035 -0.89878  0.73801 -0.38082  0.23012 24932   2527 0.8874  20
  -5   1  -2  172.51   26.72   7 0.61036 0.08151 -0.26130 -0.15009 -0.89878  0.76184 -0.38082  0.20887 24932   2528 0.8804  20
  -6   1  -1  106.63   50.18   7 0.42957 0.08585 -0.26130 -0.09101 -0.89878  0.77153 -0.38082  0.31883 24932   2529 0.8895  20
  -5   1  -1  132.24   40.14   7 0.46597 0.08730 -0.26130 -0.05250 -0.89878  0.79436 -0.38082  0.31524 24932   2530 0.8846  20
  -4   1  -1  527.06   46.00   7 0.48283 0.08956 -0.26130  0.00830 -0.89878  0.82643 -0.38082  0.31370 24932   2531 0.8804  20
  -7   0   0  154.23   49.27   7 0.49816 0.07858 -0.26130 -0.25958 -0.89878  0.63857 -0.38082  0.38137 24932   2533 0.8930  20
  -6   0   0 2447.24  129.20   7 0.58105 0.07850 -0.26130 -0.26093 -0.89878  0.63769 -0.38082  0.38101 24932   2534 0.8868  20
  -5   0   0   48.40   15.54   7 0.69820 0.07845 -0.26130 -0.26093 -0.89878  0.63769 -0.38082  0.38101 24932   2535 0.8780  20
  -4   0   0 1240.59   47.80   7 0.87179 0.07838 -0.26130 -0.26093 -0.89878  0.63769 -0.38082  0.38101 24932   2536 0.8651  20
  -3   0   0 1477.41   51.13   7 1.16249 0.07826 -0.26130 -0.26093 -0.89878  0.63769 -0.38082  0.38101 24932   2537 0.8439  20
  -6   0   1   84.19   49.94   7 0.43932 0.08421 -0.26130 -0.13153 -0.89878  0.70159 -0.38082  0.44452 24932   2540 0.8907  20
  -5   0   1   48.50   32.96   7 0.48797 0.08532 -0.26130 -0.10365 -0.89878  0.71639 -0.38082  0.44988 24932   2541 0.8853  20
  -4   0   1 3901.28  170.72   7 0.54184 0.08683 -0.26130 -0.06326 -0.89878  0.73673 -0.38082  0.45697 24932   2542 0.8788  20
  -6  -2   0   37.14   20.27   7 0.86807 0.06987 -0.26130 -0.64453 -0.89878  0.25149 -0.38082  0.38166 24932   2544 0.8790  21
  -5  -2   0   99.88   15.40   7 1.06619 0.06986 -0.26130 -0.69415 -0.89878  0.18226 -0.38082  0.38022 24932   2545 0.8658  21
  -3  -1   0   13.74    3.80   7 1.73474 0.07102 -0.26130 -0.64519 -0.89878  0.25150 -0.38082  0.37985 24932   2546 0.8199  21
  -7  -2   1   28.67   28.64   7 0.64434 0.07102 -0.26130 -0.50643 -0.89878  0.37065 -0.38082  0.47390 24932   2548 0.8926  21
  -6  -2   1  670.08   50.20   7 0.76179 0.07052 -0.26130 -0.53340 -0.89878  0.33139 -0.38082  0.48840 24932   2551 0.8852  21
  -6  -3   1   42.97   22.37   7 0.82105 0.06957 -0.26130 -0.65597 -0.89878  0.16488 -0.38082  0.49579 24932   2552 0.8827  21
  -5  -2   1   67.77   16.87   7 0.92239 0.07026 -0.26130 -0.56396 -0.89878  0.27906 -0.38082  0.51211 24932   2553 0.8747  21
  -5  -3   1  108.21   19.13   7 0.97886 0.06984 -0.26130 -0.68797 -0.89878  0.09494 -0.38082  0.51944 24932   2554 0.8716  21
  -4  -2   1 1824.07   70.67   7 1.15144 0.07032 -0.26130 -0.59788 -0.89878  0.21100 -0.38082  0.54389 24932   2555 0.8593  21
  -3  -2   1  343.83   15.72   7 1.49699 0.07045 -0.26130 -0.63295 -0.89878  0.11556 -0.38082  0.59204 24932   2557 0.8364  21
  -6  -3   2   84.45   28.93   7 0.71336 0.06997 -0.26130 -0.53760 -0.89878  0.25911 -0.38082  0.58258 24932   2561 0.8894  21
  -4  -3   2   76.38   15.84   7 0.99945 0.06998 -0.26130 -0.55853 -0.89878  0.15240 -0.38082  0.66303 24932   2564 0.8700  21
  -4  -4   0 1280.96   60.09   7 1.29649 0.07255 -0.26130 -0.89943 -0.89878 -0.26263 -0.38082  0.37995 24932   2570 0.8454  22
  -4  -5   0  122.56   20.84   7 1.21778 0.07339 -0.26130 -0.91953 -0.89878 -0.37304 -0.38082  0.38004 24932   2571 0.8491  22
  -3  -3   0  171.72   10.78   7 1.72954 0.07281 -0.26130 -0.89943 -0.89878 -0.26263 -0.38082  0.37995 24932   2574 0.8161  22
  -3  -4   0   10.56    9.16   7 1.58894 0.07373 -0.26130 -0.92200 -0.89878 -0.40258 -0.38082  0.38126 24932   2575 0.8233  22
  -3  -5   0  121.14   15.53   7 1.44459 0.07443 -0.26130 -0.92380 -0.89878 -0.50232 -0.38082  0.38003 24932   2576 0.8316  22
  -2  -2   0 3229.52  109.81   7 2.59606 0.07320 -0.26130 -0.89943 -0.89878 -0.26263 -0.38082  0.37995 24932   2577 0.7604  22
  -2  -3   0   54.40    4.97   7 2.27519 0.07414 -0.26130 -0.92513 -0.89878 -0.45673 -0.38082  0.37959 24932   2578 0.7778  22
  -2  -7  -2  125.56   20.28   7 1.43192 0.07721 -0.26130 -0.91266 -0.89878 -0.80973 -0.38082 -0.02321 24932   2585 0.8268  23
  -2  -5  -1   57.01    9.61   7 1.80928 0.07612 -0.26130 -0.95144 -0.89878 -0.71932 -0.38082  0.12507 24932   2588 0.8033  23
  -2  -6  -1  631.30   33.38   7 1.59197 0.07650 -0.26130 -0.92507 -0.89878 -0.76253 -0.38082  0.15572 24932   2589 0.8171  23
  -1  -4  -1   33.16    5.17   7 2.58664 0.07596 -0.26130 -0.89430 -0.89878 -0.83441 -0.38082  0.01626 24932   2593 0.7532  23
  -1  -5  -1   25.08    7.38   7 2.15319 0.07652 -0.26130 -0.86148 -0.89878 -0.86557 -0.38082  0.07582 24932   2594 0.7795  23
  -1  -6  -1   21.06    9.36   7 1.83868 0.07691 -0.26130 -0.83468 -0.89878 -0.88259 -0.38082  0.12125 24932   2595 0.7994  23
   3  -6  -6  283.43   23.36   7 1.53182 0.07681 -0.26130  0.25887 -0.89878 -0.12847 -0.38082 -0.91886 24932   2600 0.8206  26
   4  -7  -6  164.41   21.76   7 1.43434 0.07708 -0.26130  0.36627 -0.89878 -0.16988 -0.38082 -0.83647 24932   2602 0.8268  26
   3  -6  -5   38.00   12.06   7 1.73964 0.07708 -0.26130  0.25813 -0.89878 -0.26882 -0.38082 -0.84987 24932   2604 0.8058  26
   2  -4  -4  143.85    8.70   7 2.29973 0.07606 -0.26130  0.25747 -0.89878 -0.12933 -0.38082 -0.91919 24932   2605 0.7712  26
   3  -2  -8  100.25   27.11   7 0.80929 0.06960 -0.26130  0.50039 -0.89878  0.83944 -0.38082 -0.53541 24932   2616 0.8834  28
   4  -2  -8  231.31   39.29   7 0.70086 0.06994 -0.26130  0.57245 -0.89878  0.89971 -0.38082 -0.41289 24932   2617 0.8903  28
   4  -3  -8  292.88   34.40   7 0.86103 0.06988 -0.26130  0.58113 -0.89878  0.77115 -0.38082 -0.59527 24932   2618 0.8795  28
   3  -2  -7  179.93   23.53   7 0.92863 0.06968 -0.26130  0.53602 -0.89878  0.83038 -0.38082 -0.53945 24932   2622 0.8753  28
   4  -2  -7  508.77   43.37   7 0.78334 0.07004 -0.26130  0.60973 -0.89878  0.89945 -0.38082 -0.39605 24932   2623 0.8845  28
   5  -3  -7   66.04   22.12   7 0.83121 0.06955 -0.26130  0.69329 -0.89878  0.83771 -0.38082 -0.44476 24932   2625 0.8820  28
   2  -1  -6 2383.72   94.65   7 0.96108 0.07040 -0.26130  0.47367 -0.89878  0.89965 -0.38082 -0.43574 24932   2626 0.8719  28
   3  -2  -6   13.25   12.60   7 1.08326 0.06991 -0.26130  0.58293 -0.89878  0.81843 -0.38082 -0.53846 24932   2627 0.8646  28
   4  -2  -6  178.34   22.11   7 0.88261 0.07018 -0.26130  0.65265 -0.89878  0.89908 -0.38082 -0.36967 24932   2628 0.8775  28
   3  -2  -5 1525.81   58.36   7 1.28078 0.07029 -0.26130  0.64140 -0.89878  0.80423 -0.38082 -0.52619 24932   2630 0.8508  28
   2  -1  -4  448.36   18.96   7 1.40119 0.07089 -0.26130  0.57245 -0.89878  0.89971 -0.38082 -0.41289 24932   2631 0.8417  28
   2  -1  -3   20.98    3.91   7 1.76147 0.07130 -0.26130  0.65309 -0.89878  0.89955 -0.38082 -0.36836 24932   2632 0.8175  28
   0   1  -7  772.87  101.09   7 0.48017 0.08042 -0.26130  0.29445 -0.89878  0.97086 -0.38082 -0.09385 24932   2637 0.8921  29
   2   0  -7  138.55   44.68   7 0.55721 0.07668 -0.26130  0.42559 -0.89878  0.98231 -0.38082 -0.17126 24932   2638 0.8910  29
  -1   1  -6  116.72   29.21   7 0.60870 0.07840 -0.26130  0.21511 -0.89878  0.94511 -0.38082 -0.13568 24932   2639 0.8848  29
   0   1  -6  141.48   47.13   7 0.50489 0.08240 -0.26130  0.29678 -0.89878  0.97434 -0.38082 -0.04839 24932   2640 0.8876  29
   2   0  -6  759.40   67.19   7 0.60253 0.07783 -0.26130  0.43806 -0.89878  0.98918 -0.38082 -0.13139 24932   2641 0.8861  29
  -1   1  -5 1661.03   83.55   7 0.65983 0.08043 -0.26130  0.21111 -0.89878  0.94886 -0.38082 -0.08500 24932   2642 0.8780  29
   0   1  -5 1598.39  110.90   7 0.51146 0.08539 -0.26130  0.29776 -0.89878  0.97544 -0.38082  0.02012 24932   2643 0.8832  29
  -1   1  -4 1039.44   50.93   7 0.69452 0.08344 -0.26130  0.20738 -0.89878  0.95083 -0.38082 -0.01117 24932   2644 0.8710  29
   0   1  -4  710.30   65.73   7 0.46738 0.08947 -0.26130  0.29463 -0.89878  0.96862 -0.38082  0.11753 24932   2645 0.8818  29
  -1   1  -3  259.24   19.81   7 0.64579 0.08825 -0.26130  0.21145 -0.89878  0.94708 -0.38082  0.10698 24932   2646 0.8682  29
   1   0  -3  242.82   11.58   7 1.20418 0.07767 -0.26130  0.43806 -0.89878  0.98918 -0.38082 -0.13139 24932   2647 0.8420  29
   2   0  -3 3558.23  150.95   7 0.61739 0.08724 -0.26130  0.44236 -0.89878  0.99104 -0.38082  0.11861 24932   2648 0.8720  29
  -2  -6   0   82.48   14.69   7 1.52804 0.07578 -0.26130 -0.87589 -0.89878 -0.69546 -0.38082  0.38000 24932   2652 0.8231  33
  -2  -7   0   30.45   16.26   7 1.36271 0.07608 -0.26130 -0.85696 -0.89878 -0.72926 -0.38082  0.38078 24932   2653 0.8338  33
  -1  -3   0    7.10    3.01   7 3.05533 0.07489 -0.26130 -0.87589 -0.89878 -0.69546 -0.38082  0.38000 24932   2656 0.7276  33
  -1  -4   0  514.35   18.08   7 2.46883 0.07549 -0.26130 -0.84036 -0.89878 -0.75510 -0.38082  0.37979 24932   2657 0.7619  33
  -2  -5   1  117.42   12.50   7 1.56778 0.07409 -0.26130 -0.78935 -0.89878 -0.50324 -0.38082  0.60101 24932   2661 0.8240  33
  -2  -6   1  578.76   33.09   7 1.41122 0.07466 -0.26130 -0.78874 -0.89878 -0.57346 -0.38082  0.57890 24932   2662 0.8334  33
  -1  -6   1   36.90   10.95   7 1.61927 0.07532 -0.26130 -0.70345 -0.89878 -0.67086 -0.38082  0.60775 24932   2667 0.8179  33
  -1  -8   1  102.75   21.58   7 1.28928 0.07598 -0.26130 -0.69798 -0.89878 -0.73402 -0.38082  0.56139 24932   2669 0.8392  33
   0  -8  -2  102.48   19.53   7 1.57002 0.07795 -0.26130 -0.67548 -0.89878 -0.97392 -0.38082 -0.06397 24932   2670 0.8156  34
   0  -5  -1   28.19    7.00   7 2.51276 0.07641 -0.26130 -0.67636 -0.89878 -0.97575 -0.38082  0.02335 24932   2675 0.7566  34
   0  -6  -1   65.50    9.66   7 2.09309 0.07698 -0.26130 -0.67375 -0.89878 -0.97257 -0.38082  0.08510 24932   2676 0.7823  34
   0  -7  -1   74.87   14.03   7 1.79008 0.07738 -0.26130 -0.67239 -0.89878 -0.96776 -0.38082  0.12675 24932   2677 0.8017  34
   0  -8  -1  255.75   23.91   7 1.56230 0.07765 -0.26130 -0.66903 -0.89878 -0.96332 -0.38082  0.15875 24932   2678 0.8167  34
   3  -7  -5  112.36   17.66   7 1.64915 0.07765 -0.26130  0.13687 -0.89878 -0.45396 -0.38082 -0.78575 24932   2685 0.8107  36
   4  -7  -5  251.06   21.72   7 1.59140 0.07729 -0.26130  0.37646 -0.89878 -0.28797 -0.38082 -0.74560 24932   2686 0.8155  36
   4  -8  -5  305.55   27.94   7 1.51360 0.07784 -0.26130  0.25853 -0.89878 -0.45540 -0.38082 -0.69093 24932   2687 0.8197  36
   3  -6  -4  240.09   15.25   7 1.96475 0.07712 -0.26130  0.25923 -0.89878 -0.41820 -0.38082 -0.72984 24932   2691 0.7905  36
   3  -7  -4  111.68   16.25   7 1.81545 0.07762 -0.26130  0.12492 -0.89878 -0.58937 -0.38082 -0.64645 24932   2692 0.7994  36
   4  -7  -4   12.71   12.00   7 1.74542 0.07734 -0.26130  0.38944 -0.89878 -0.40374 -0.38082 -0.60894 24932   2693 0.8048  36
   4  -8  -4  233.18   22.99   7 1.63255 0.07783 -0.26130  0.25872 -0.89878 -0.56074 -0.38082 -0.54597 24932   2694 0.8115  36
   2  -5  -3  251.34   11.75   7 2.50771 0.07650 -0.26130  0.07429 -0.89878 -0.59310 -0.38082 -0.68181 24932   2695 0.7567  36
   3  -6  -3   49.09    9.22   7 2.17785 0.07696 -0.26130  0.26016 -0.89878 -0.55986 -0.38082 -0.54554 24932   2696 0.7767  36
   5  -6  -6  148.98   20.10   7 1.32394 0.07511 -0.26130  0.65408 -0.89878  0.20781 -0.38082 -0.74379 24932   2702 0.8385  37
   5  -7  -6  257.51   24.85   7 1.34553 0.07637 -0.26130  0.56011 -0.89878 -0.00316 -0.38082 -0.76114 24932   2703 0.8345  37
   4  -5  -5   98.38   12.51   7 1.62254 0.07527 -0.26130  0.62129 -0.89878  0.17281 -0.38082 -0.76724 24932   2706 0.8177  37
   5  -6  -5  435.39   26.13   7 1.47951 0.07550 -0.26130  0.69937 -0.89878  0.12614 -0.38082 -0.66652 24932   2707 0.8270  37
   3  -4  -4 1009.29   34.39   7 2.08829 0.07536 -0.26130  0.57020 -0.89878  0.12134 -0.38082 -0.79945 24932   2709 0.7866  37
   5  -4  -7  192.08   28.27   7 0.99244 0.07080 -0.26130  0.70254 -0.89878  0.67727 -0.38082 -0.60394 24932   2714 0.8691  38
   6  -4  -7  131.88   28.66   7 0.84841 0.06984 -0.26130  0.76578 -0.89878  0.77251 -0.38082 -0.45954 24932   2715 0.8804  38
   6  -4  -6  782.18   52.56   7 0.93152 0.06999 -0.26130  0.81611 -0.89878  0.75980 -0.38082 -0.41109 24932   2721 0.8746  38
   6  -5  -6  172.44   24.25   7 1.07860 0.07170 -0.26130  0.82214 -0.89878  0.57716 -0.38082 -0.53600 24932   2722 0.8617  38
   7  -5  -6  228.15   34.10   7 0.90859 0.07026 -0.26130  0.86903 -0.89878  0.69496 -0.38082 -0.39286 24932   2723 0.8757  38
   4  -3  -5  893.30   39.95   7 1.30662 0.07089 -0.26130  0.74692 -0.89878  0.70391 -0.38082 -0.54453 24932   2725 0.8480  38
   5  -3  -5  517.13   33.42   7 1.03180 0.06981 -0.26130  0.79910 -0.89878  0.82168 -0.38082 -0.35192 24932   2726 0.8682  38
   5  -4  -5   69.61   14.41   7 1.26441 0.07154 -0.26130  0.82397 -0.89878  0.61640 -0.38082 -0.51512 24932   2727 0.8495  38
   6  -4  -5   92.54   18.39   7 1.01950 0.07011 -0.26130  0.86710 -0.89878  0.74612 -0.38082 -0.34332 24932   2728 0.8685  38
   4  -3  -4 1104.13   42.56   7 1.51686 0.07130 -0.26130  0.82457 -0.89878  0.67368 -0.38082 -0.47852 24932   2729 0.8333  38
   3  -2  -3  446.48   16.35   7 1.86460 0.07117 -0.26130  0.81611 -0.89878  0.75980 -0.38082 -0.41109 24932   2730 0.8113  38
   4  -1  -7  146.98   43.74   7 0.55973 0.07491 -0.26130  0.55048 -0.89878  0.98277 -0.38082 -0.17178 24932   2738 0.8932  39
   4  -1  -6   57.26   32.32   7 0.59623 0.07588 -0.26130  0.57118 -0.89878  0.98790 -0.38082 -0.12688 24932   2745 0.8892  39
   5  -1  -6  413.44   90.51   7 0.44157 0.08049 -0.26130  0.55719 -0.89878  0.99770 -0.38082  0.00801 24932   2746 0.8951  39
   5  -2  -6   79.89   25.70   7 0.69415 0.07202 -0.26130  0.67347 -0.89878  0.95092 -0.38082 -0.20849 24932   2747 0.8877  39
   6  -2  -6  105.19   53.56   7 0.53266 0.07529 -0.26130  0.65780 -0.89878  0.97829 -0.38082 -0.07090 24932   2748 0.8947  39
   4  -1  -5 1049.08   65.97   7 0.62610 0.07741 -0.26130  0.58661 -0.89878  0.99269 -0.38082 -0.06077 24932   2753 0.8849  39
   5  -2  -5  179.19   26.05   7 0.74183 0.07258 -0.26130  0.70201 -0.89878  0.95467 -0.38082 -0.14594 24932   2755 0.8835  39
   6  -2  -5  213.82   54.67   7 0.54074 0.07682 -0.26130  0.66328 -0.89878  0.97975 -0.38082 -0.00197 24932   2756 0.8921  39
   7  -3  -5  171.46   41.78   7 0.60327 0.07280 -0.26130  0.75480 -0.89878  0.94393 -0.38082 -0.04826 24932   2757 0.8930  39
   8  -3  -5  145.45   76.30   7 0.45374 0.07685 -0.26130  0.70005 -0.89878  0.96628 -0.38082  0.05974 24932   2758 0.8986  39
   3  -1  -4  810.43   33.41   7 0.97603 0.07368 -0.26130  0.62163 -0.89878  0.97265 -0.38082 -0.17187 24932   2760 0.8653  39
   4  -1  -4  991.48   57.70   7 0.63458 0.07965 -0.26130  0.59165 -0.89878  0.99376 -0.38082  0.02171 24932   2761 0.8811  39
   5  -2  -4  957.23   47.90   7 0.77757 0.07355 -0.26130  0.72403 -0.89878  0.95695 -0.38082 -0.06201 24932   2762 0.8795  39
   6  -2  -4  518.35   67.92   7 0.53019 0.07875 -0.26130  0.65768 -0.89878  0.97747 -0.38082  0.08066 24932   2763 0.8904  39
   7  -3  -4   78.95   33.20   7 0.60348 0.07426 -0.26130  0.75676 -0.89878  0.94361 -0.38082  0.03661 24932   2764 0.8909  39
   5  -2  -3  248.07   22.74   7 0.77993 0.07564 -0.26130  0.72759 -0.89878  0.95647 -0.38082  0.04761 24932   2766 0.8761  39
   0  -6   0 1874.86   71.51   7 2.01480 0.07659 -0.26130 -0.63767 -0.89878 -0.89943 -0.38082  0.37938 24932   2770 0.7884  43
   0  -7   0  116.69   14.75   7 1.72436 0.07692 -0.26130 -0.63767 -0.89878 -0.89943 -0.38082  0.37938 24932   2771 0.8072  43
   0  -8   0   67.85   17.97   7 1.50812 0.07716 -0.26130 -0.63666 -0.89878 -0.89981 -0.38082  0.37927 24932   2772 0.8215  43
   0  -7   1   21.62   12.04   7 1.59417 0.07608 -0.26130 -0.56981 -0.89878 -0.76628 -0.38082  0.60528 24932   2777 0.8179  43
   0  -8   1  361.35   30.36   7 1.41429 0.07635 -0.26130 -0.58015 -0.89878 -0.78621 -0.38082  0.57899 24932   2778 0.8297  43
   1  -9   1  102.84   22.09   7 1.35815 0.07681 -0.26130 -0.44496 -0.89878 -0.82043 -0.38082  0.57033 24932   2781 0.8327  43
   5  -7  -4   34.60   12.74   7 1.61532 0.07674 -0.26130  0.62044 -0.89878 -0.18578 -0.38082 -0.53576 24932   2789 0.8150  46
   5  -8  -4  376.00   26.79   7 1.55187 0.07742 -0.26130  0.49172 -0.89878 -0.37260 -0.38082 -0.49821 24932   2790 0.8179  46
   6  -8  -4  209.25   23.04   7 1.42895 0.07672 -0.26130  0.68485 -0.89878 -0.16691 -0.38082 -0.43021 24932   2791 0.8279  46
   4  -5  -3  146.23    9.19   7 2.09394 0.07575 -0.26130  0.72671 -0.89878 -0.03678 -0.38082 -0.50834 24932   2792 0.7853  46
   4  -6  -3   29.66    8.39   7 2.01955 0.07665 -0.26130  0.56097 -0.89878 -0.30511 -0.38082 -0.47757 24932   2793 0.7880  46
   3  -4  -2   16.76    4.33   7 2.85960 0.07543 -0.26130  0.68485 -0.89878 -0.16691 -0.38082 -0.43021 24932   2794 0.7379  46
   6  -6  -5  608.05   37.99   7 1.29300 0.07403 -0.26130  0.83705 -0.89878  0.32009 -0.38082 -0.53519 24932   2799 0.8427  47
   7  -7  -5   41.54   19.10   7 1.17852 0.07412 -0.26130  0.87408 -0.89878  0.28425 -0.38082 -0.45262 24932   2801 0.8504  47
   5  -5  -4  144.82   13.19   7 1.58055 0.07411 -0.26130  0.84756 -0.89878  0.30969 -0.38082 -0.51408 24932   2805 0.8231  47
   6  -5  -4   29.76   13.67   7 1.28895 0.07207 -0.26130  0.93419 -0.89878  0.51458 -0.38082 -0.35255 24932   2806 0.8468  47
   6  -6  -4  278.46   21.84   7 1.40420 0.07418 -0.26130  0.88738 -0.89878  0.27096 -0.38082 -0.41565 24932   2807 0.8348  47
   7  -4  -5  225.68   30.34   7 0.80655 0.06981 -0.26130  0.86054 -0.89878  0.83901 -0.38082 -0.19162 24932   2813 0.8833  48
   6  -4  -4  367.70   24.82   7 1.09910 0.07017 -0.26130  0.91594 -0.89878  0.73443 -0.38082 -0.24319 24932   2819 0.8631  48
   8  -5  -4  365.28   37.84   7 0.81456 0.06961 -0.26130  0.92929 -0.89878  0.77647 -0.38082 -0.08231 24932   2822 0.8830  48
   5  -3  -3  269.53   16.96   7 1.22507 0.07029 -0.26130  0.89987 -0.89878  0.80721 -0.38082 -0.14154 24932   2826 0.8545  48
   7  -4  -3  153.92   23.69   7 0.84963 0.07025 -0.26130  0.89382 -0.89878  0.83496 -0.38082  0.01756 24932   2829 0.8797  48
   8  -5  -3   48.50   22.24   7 0.82140 0.06985 -0.26130  0.93296 -0.89878  0.77704 -0.38082  0.03135 24932   2830 0.8822  48
   9  -6  -3  172.36   33.00   7 0.78066 0.06950 -0.26130  0.95779 -0.89878  0.72451 -0.38082  0.04699 24932   2831 0.8855  48
   3  -2  -2  600.85   19.70   7 2.20123 0.07149 -0.26130  0.91594 -0.89878  0.73443 -0.38082 -0.24319 24932   2832 0.7894  48
   6  -4  -2 1407.35   56.58   7 1.17002 0.07008 -0.26130  0.95779 -0.89878  0.72451 -0.38082  0.04699 24932   2835 0.8585  48
   6  -2  -2  341.36   80.74   7 0.40588 0.08687 -0.26130  0.56342 -0.89878  0.95952 -0.38082  0.26455 24932   2839 0.8902  49
   5  -2  -1  344.32   38.36   7 0.57817 0.08459 -0.26130  0.60554 -0.89878  0.94171 -0.38082  0.29832 24932   2843 0.8788  49
   8  -4  -1   45.09   43.88   7 0.51557 0.07805 -0.26130  0.72109 -0.89878  0.89846 -0.38082  0.30695 24932   2846 0.8924  49
   2  -1   0  155.93    5.76   7 1.69472 0.08100 -0.26130  0.63944 -0.89878  0.89876 -0.38082  0.37956 24932   2847 0.8001  49
   6  -3   0  172.70   36.77   7 0.56515 0.08229 -0.26130  0.63944 -0.89878  0.89876 -0.38082  0.37956 24932   2849 0.8829  49
   8  -4   0 1111.08  159.44   7 0.42460 0.08247 -0.26130  0.63944 -0.89878  0.89876 -0.38082  0.37956 24932   2850 0.8940  49
   9  -5   0   70.86   56.65   7 0.47332 0.07760 -0.26130  0.71878 -0.89878  0.86377 -0.38082  0.37968 24932   2851 0.8962  49
   5  -3   1  313.54   25.69   7 0.70035 0.08083 -0.26130  0.62764 -0.89878  0.84621 -0.38082  0.47765 24932   2852 0.8743  49
   4  -8   3  129.66   19.07   8 1.37705 0.07477  0.44627 -0.45535 -0.54399 -0.69405 -0.12733  0.70898 24933   2862 0.8355  13
   4  -7   3  230.35   18.30   8 1.55350 0.07491  0.44627 -0.34090 -0.54399 -0.62133 -0.12733  0.78277 24933   2863 0.8232  13
   4  -7   2   71.91   10.61   8 1.76528 0.07593  0.44627 -0.32528 -0.54399 -0.77809 -0.12733  0.62383 24933   2864 0.8066  13
   3  -6   2  418.69   19.58   8 1.90817 0.07498  0.44627 -0.45624 -0.54399 -0.74165 -0.12733  0.66350 24933   2865 0.7994  13
   3  -5   2   11.37    5.11   8 2.26309 0.07509  0.44627 -0.28828 -0.54399 -0.64385 -0.12733  0.76417 24933   2866 0.7761  13
   6  -9   1   81.83   19.54   8 1.56192 0.07755  0.44627 -0.10764 -0.54399 -0.86076 -0.12733  0.34670 24933   2872 0.8170  14
   5  -8   1  104.95   15.12   8 1.73525 0.07710  0.44627 -0.19823 -0.54399 -0.88488 -0.12733  0.37077 24933   2873 0.8060  14
   4  -6   1 1211.07   50.21   8 2.28757 0.07644  0.44627 -0.11532 -0.54399 -0.82512 -0.12733  0.44875 24933   2876 0.7710  14
   4  -6  -2 1152.19   44.15   8 2.24478 0.07671  0.44627 -0.11908 -0.54399 -0.79824 -0.12733 -0.50820 24933   2878 0.7730  16
   3  -5  -2    5.51    5.42   8 2.54740 0.07603  0.44627 -0.26443 -0.54399 -0.79040 -0.12733 -0.59368 24933   2879 0.7555  16
   6  -9  -3  164.94   22.24   8 1.49494 0.07779  0.44627 -0.11908 -0.54399 -0.79824 -0.12733 -0.50820 24933   2880 0.8211  16
   5  -8  -3   22.13   15.32   8 1.62805 0.07729  0.44627 -0.21160 -0.54399 -0.79747 -0.12733 -0.56334 24933   2881 0.8130  16
   5  -7  -3   45.61   12.24   8 1.82268 0.07721  0.44627 -0.04556 -0.54399 -0.68311 -0.12733 -0.64541 24933   2882 0.7998  16
   4  -6  -3   29.09    8.71   8 2.00844 0.07660  0.44627 -0.15334 -0.54399 -0.65745 -0.12733 -0.72577 24933   2883 0.7888  16
   3  -5  -4 1044.09   44.77   8 1.82171 0.07498  0.44627 -0.31465 -0.54399 -0.40966 -0.12733 -0.90338 24933   2891 0.8051  17
   4  -7  -5  191.62   21.46   8 1.39417 0.07544  0.44627 -0.34746 -0.54399 -0.49896 -0.12733 -0.85921 24933   2892 0.8330  17
   4  -6  -5   77.98   15.35   8 1.49894 0.07526  0.44627 -0.22654 -0.54399 -0.35410 -0.12733 -0.93346 24933   2893 0.8261  17
   4  -7  -6  197.70   27.32   8 1.21917 0.07451  0.44627 -0.35924 -0.54399 -0.36869 -0.12733 -0.90735 24933   2896 0.8469  17
   5  -7  -6  260.58   28.24   8 1.26998 0.07545  0.44627 -0.16546 -0.54399 -0.31189 -0.12733 -0.95005 24933   2897 0.8416  17
   1  -3  -4  792.63   31.60   8 1.60035 0.07095  0.44627 -0.56858 -0.54399 -0.05282 -0.12733 -0.77799 24933   2902 0.8287  18
   2  -5  -5  201.64   15.78   8 1.35936 0.07221  0.44627 -0.55197 -0.54399 -0.26815 -0.12733 -0.83381 24933   2903 0.8418  18
   2  -4  -5 1382.82   56.42   8 1.42488 0.07175  0.44627 -0.44938 -0.54399 -0.09591 -0.12733 -0.88088 24933   2905 0.8384  18
   2  -6  -6  117.63   20.89   8 1.08110 0.07144  0.44627 -0.61125 -0.54399 -0.26244 -0.12733 -0.78987 24933   2906 0.8620  18
   2  -5  -6   74.93   16.76   8 1.13007 0.07109  0.44627 -0.53220 -0.54399 -0.12971 -0.12733 -0.83184 24933   2907 0.8593  18
   2  -6  -7  146.96   27.80   8 0.92679 0.07055  0.44627 -0.58701 -0.54399 -0.14810 -0.12733 -0.79198 24933   2909 0.8739  18
   3  -6  -7  140.67   24.13   8 1.02503 0.07177  0.44627 -0.44880 -0.54399 -0.14625 -0.12733 -0.88906 24933   2910 0.8652  18
   2  -5  -7   25.46   19.23   8 0.94487 0.07019  0.44627 -0.51822 -0.54399 -0.01964 -0.12733 -0.80931 24933   2911 0.8733  18
   0  -2  -3 2143.67   83.21   8 1.59491 0.07150  0.44627 -0.68652 -0.54399  0.06803 -0.12733 -0.55058 24933   2916 0.8278  19
  -1  -4  -4  382.26   33.34   8 0.82619 0.07225  0.44627 -0.81941 -0.54399 -0.01119 -0.12733 -0.34179 24933   2917 0.8781  19
  -1  -5  -5   49.87   30.21   8 0.71267 0.07134  0.44627 -0.82163 -0.54399 -0.04096 -0.12733 -0.37756 24933   2919 0.8874  19
   0  -4  -5  321.93   27.38   8 0.96049 0.07022  0.44627 -0.73510 -0.54399 -0.02850 -0.12733 -0.55350 24933   2921 0.8722  19
   0  -3  -5   77.46   15.83   8 0.94555 0.07136  0.44627 -0.65824 -0.54399  0.12248 -0.12733 -0.54295 24933   2922 0.8713  19
   0  -5  -6  141.39   29.68   8 0.79922 0.06992  0.44627 -0.74689 -0.54399 -0.05222 -0.12733 -0.55188 24933   2925 0.8836  19
  -1  -4  -6  497.24   65.04   8 0.60963 0.07368  0.44627 -0.72005 -0.54399  0.13661 -0.12733 -0.39071 24933   2926 0.8913  19
   0  -4  -6 1155.14   71.20   8 0.79697 0.07052  0.44627 -0.68652 -0.54399  0.06803 -0.12733 -0.55058 24933   2927 0.8828  19
  -1  -5   5  294.60   99.77   8 0.41134 0.08184  0.44627 -0.66429 -0.54399  0.20437 -0.12733  0.41824 24933   2943 0.8958  20
   0  -4   5  247.69   46.48   8 0.54088 0.07939  0.44627 -0.61093 -0.54399  0.21914 -0.12733  0.50973 24933   2944 0.8887  20
   0  -3   5   52.01   49.78   8 0.43097 0.08585  0.44627 -0.54583 -0.54399  0.34872 -0.12733  0.43224 24933   2945 0.8894  20
  -1  -4   4  471.28   69.79   8 0.46299 0.08352  0.44627 -0.65661 -0.54399  0.23132 -0.12733  0.38896 24933   2947 0.8896  20
  -2  -6   3  419.08  100.09   8 0.43729 0.07916  0.44627 -0.77674 -0.54399  0.08531 -0.12733  0.31229 24933   2949 0.8970  20
  -2  -5   3  124.85   73.05   8 0.40575 0.08332  0.44627 -0.72366 -0.54399  0.17734 -0.12733  0.29784 24933   2950 0.8945  20
  -1  -4   3  152.72   28.19   8 0.61857 0.07946  0.44627 -0.72663 -0.54399  0.12709 -0.12733  0.38904 24933   2951 0.8826  20
  -1  -3   3  380.56   46.95   8 0.50994 0.08623  0.44627 -0.63892 -0.54399  0.27697 -0.12733  0.34275 24933   2952 0.8823  20
   0  -2   3 1078.84   41.96   8 0.79557 0.08301  0.44627 -0.56816 -0.54399  0.30476 -0.12733  0.46356 24933   2953 0.8636  20
  -1  -3   2   34.32   12.08   8 0.74632 0.08131  0.44627 -0.72849 -0.54399  0.15297 -0.12733  0.33560 24933   2956 0.8701  20
   2  -6   7   58.04   43.31   8 0.61462 0.07121  0.44627 -0.54291 -0.54399  0.08118 -0.12733  0.73447 24933   2965 0.8944  21
   3  -6   7   72.32   33.05   8 0.70709 0.06985  0.44627 -0.45094 -0.54399  0.06565 -0.12733  0.82683 24933   2966 0.8900  21
   2  -7   6  211.77   37.41   8 0.74366 0.06966  0.44627 -0.61824 -0.54399 -0.12450 -0.12733  0.75653 24933   2968 0.8878  21
   3  -7   6  174.42   28.77   8 0.85291 0.06978  0.44627 -0.51680 -0.54399 -0.16073 -0.12733  0.84864 24933   2969 0.8802  21
   2  -6   6  747.97   57.68   8 0.75930 0.06998  0.44627 -0.56507 -0.54399 -0.02573 -0.12733  0.76991 24933   2970 0.8862  21
   3  -6   6  266.29   31.51   8 0.87490 0.06957  0.44627 -0.45240 -0.54399 -0.04818 -0.12733  0.86780 24933   2971 0.8791  21
   3  -5   6   60.42   20.15   8 0.86922 0.06989  0.44627 -0.38755 -0.54399  0.08561 -0.12733  0.86356 24933   2973 0.8789  21
   2  -6   5   77.35   18.90   8 0.94043 0.06966  0.44627 -0.59327 -0.54399 -0.16160 -0.12733  0.78976 24933   2974 0.8745  21
   2  -5   5  524.60   33.43   8 0.97054 0.07002  0.44627 -0.52474 -0.54399 -0.03949 -0.12733  0.81143 24933   2975 0.8719  21
   1  -4   4 1283.11   53.37   8 1.04229 0.07112  0.44627 -0.60669 -0.54399 -0.00194 -0.12733  0.71470 24933   2977 0.8652  21
   2  -4   4  124.45   12.12   8 1.31260 0.07020  0.44627 -0.45240 -0.54399 -0.04818 -0.12733  0.86780 24933   2978 0.8489  21
   1  -3   3  463.84   18.66   8 1.51905 0.07099  0.44627 -0.56507 -0.54399 -0.02573 -0.12733  0.76991 24933   2980 0.8338  21
   5  -8   5  214.39   28.64   8 1.12042 0.07328  0.44627 -0.28777 -0.54399 -0.38226 -0.12733  0.91729 24933   2987 0.8560  22
   4  -7   5   99.70   22.12   8 1.12362 0.07187  0.44627 -0.37058 -0.54399 -0.29956 -0.12733  0.91938 24933   2988 0.8583  22
   5  -7   5   82.39   20.30   8 1.18526 0.07300  0.44627 -0.18898 -0.54399 -0.25926 -0.12733  0.96337 24933   2989 0.8520  22
   4  -7   4   89.96   17.05   8 1.33086 0.07348  0.44627 -0.35690 -0.54399 -0.45588 -0.12733  0.87749 24933   2992 0.8412  22
   4  -6   4  607.48   31.59   8 1.44482 0.07329  0.44627 -0.23975 -0.54399 -0.32452 -0.12733  0.94164 24933   2993 0.8339  22
   3  -5   3  261.50   13.55   8 1.82957 0.07359  0.44627 -0.31939 -0.54399 -0.41665 -0.12733  0.89998 24933   2995 0.8078  22
   6  -8   3   42.75   15.72   8 1.48717 0.07652  0.44627 -0.01313 -0.54399 -0.57351 -0.12733  0.75581 24933   3005 0.8243  23
   5  -8   2   14.63   11.50   8 1.61463 0.07663  0.44627 -0.21634 -0.54399 -0.78694 -0.12733  0.58214 24933   3006 0.8153  23
   6  -8   2  472.02   27.99   8 1.63723 0.07717  0.44627  0.03095 -0.54399 -0.68427 -0.12733  0.58837 24933   3007 0.8126  23
   5  -7   2  131.69   12.62   8 1.82548 0.07664  0.44627 -0.04894 -0.54399 -0.68754 -0.12733  0.64140 24933   3008 0.8010  23
   4  -6   2  175.61   10.79   8 2.04101 0.07598  0.44627 -0.15164 -0.54399 -0.67855 -0.12733  0.70188 24933   3009 0.7882  23
   4  -5  -3  138.11    9.19   8 2.24646 0.07637  0.44627  0.04936 -0.54399 -0.46503 -0.12733 -0.82329 24933   3012 0.7738  26
   6  -7  -4  427.78   26.77   8 1.63067 0.07731  0.44627  0.15485 -0.54399 -0.43327 -0.12733 -0.79264 24933   3013 0.8127  26
   5  -6  -4   58.23   11.42   8 1.76574 0.07670  0.44627  0.07539 -0.54399 -0.38257 -0.12733 -0.87111 24933   3014 0.8049  26
   5  -6  -5  390.62   25.54   8 1.53040 0.07601  0.44627  0.00517 -0.54399 -0.25916 -0.12733 -0.95322 24933   3020 0.8224  26
   1  -1  -3   12.47    2.57   8 1.99897 0.07147  0.44627 -0.29740 -0.54399  0.39390 -0.12733 -0.72042 24933   3024 0.8020  28
   1  -2  -4  421.25   17.41   8 1.55329 0.07066  0.44627 -0.44743 -0.54399  0.19614 -0.12733 -0.75150 24933   3025 0.8323  28
   1  -3  -5 1744.01   66.70   8 1.21560 0.07012  0.44627 -0.53824 -0.54399  0.09109 -0.12733 -0.73301 24933   3026 0.8554  28
   2  -2  -6 1634.40   68.50   8 0.99830 0.07023  0.44627 -0.29740 -0.54399  0.39390 -0.12733 -0.72042 24933   3031 0.8697  28
   1  -4  -7  149.71   26.60   8 0.81127 0.06988  0.44627 -0.56935 -0.54399  0.12019 -0.12733 -0.67622 24933   3032 0.8828  28
   2  -4  -7  543.33   38.63   8 0.93502 0.06983  0.44627 -0.44744 -0.54399  0.12592 -0.12733 -0.79800 24933   3033 0.8746  28
   1  -3  -7   71.43   22.82   8 0.76546 0.07070  0.44627 -0.50405 -0.54399  0.25858 -0.12733 -0.63112 24933   3034 0.8847  28
   2  -3  -7  229.99   26.56   8 0.88414 0.06984  0.44627 -0.38191 -0.54399  0.27855 -0.12733 -0.74848 24933   3035 0.8780  28
   2  -4  -8  229.15   34.90   8 0.77531 0.06956  0.44627 -0.44782 -0.54399  0.19486 -0.12733 -0.75209 24933   3037 0.8858  28
   1  -3  -8  230.74   46.93   8 0.63141 0.07165  0.44627 -0.49468 -0.54399  0.30755 -0.12733 -0.58715 24933   3038 0.8926  28
   2  -3  -8  117.38   28.90   8 0.72625 0.06999  0.44627 -0.39367 -0.54399  0.32666 -0.12733 -0.69255 24933   3039 0.8885  28
  -1  -1  -2   15.00    8.07   8 0.66682 0.08946  0.44627 -0.59788 -0.54399  0.39312 -0.12733 -0.06279 24933   3050 0.8647  29
  -1  -1  -3   24.73   18.89   8 0.54324 0.08935  0.44627 -0.56818 -0.54399  0.42293 -0.12733 -0.10326 24933   3053 0.8754  29
  -2  -3  -4  923.39  101.04   8 0.47904 0.08345  0.44627 -0.69815 -0.54399  0.25835 -0.12733 -0.14361 24933   3054 0.8884  29
  -1  -2  -4  836.15   47.62   8 0.69419 0.08033  0.44627 -0.65479 -0.54399  0.28576 -0.12733 -0.26452 24933   3055 0.8755  29
  -1  -1  -4  518.39   63.79   8 0.43855 0.08958  0.44627 -0.54496 -0.54399  0.44623 -0.12733 -0.11956 24933   3056 0.8842  29
  -2  -4  -5  203.84   68.72   8 0.49212 0.07856  0.44627 -0.74130 -0.54399  0.17813 -0.12733 -0.22121 24933   3057 0.8935  29
  -2  -3  -5  182.02   78.14   8 0.42456 0.08380  0.44627 -0.66873 -0.54399  0.29191 -0.12733 -0.17276 24933   3058 0.8924  29
  -1  -2  -5 1957.03  123.79   8 0.55858 0.08162  0.44627 -0.61372 -0.54399  0.33651 -0.12733 -0.26729 24933   3059 0.8843  29
  -2  -4  -6  160.31   66.05   8 0.43898 0.07908  0.44627 -0.71038 -0.54399  0.21603 -0.12733 -0.24554 24933   3060 0.8970  29
  -1  -3  -7  109.65   66.99   8 0.47261 0.07822  0.44627 -0.62479 -0.54399  0.29675 -0.12733 -0.33896 24933   3063 0.8955  29
   6  -8   4  139.19   21.21   8 1.32264 0.07549  0.44627 -0.06151 -0.54399 -0.45003 -0.12733  0.87283 24933   3071 0.8378  33
   7  -8   4   19.51   19.08   8 1.31297 0.07601  0.44627  0.13120 -0.54399 -0.34688 -0.12733  0.86944 24933   3073 0.8375  33
   6  -7   4   98.25   17.81   8 1.40454 0.07524  0.44627  0.06795 -0.54399 -0.30165 -0.12733  0.91934 24933   3074 0.8327  33
   5  -6   4  394.44   24.67   8 1.48333 0.07423  0.44627 -0.01212 -0.54399 -0.23810 -0.12733  0.96336 24933   3075 0.8294  33
   7  -7   4  251.09   24.87   8 1.36776 0.07564  0.44627  0.25733 -0.54399 -0.17842 -0.12733  0.89891 24933   3076 0.8344  33
   6  -7   3   38.13   12.66   8 1.60778 0.07637  0.44627  0.14284 -0.54399 -0.42420 -0.12733  0.80751 24933   3077 0.8164  33
   5  -6   3  293.69   16.83   8 1.76378 0.07566  0.44627  0.06996 -0.54399 -0.38423 -0.12733  0.87223 24933   3078 0.8074  33
   4  -5   3   14.07    7.07   8 1.91036 0.07468  0.44627 -0.02850 -0.54399 -0.31908 -0.12733  0.93557 24933   3079 0.7999  33
   5  -5   3  394.58   17.82   8 1.86618 0.07521  0.44627  0.23913 -0.54399 -0.15977 -0.12733  0.91585 24933   3080 0.8016  33
   7  -8   2  173.36   20.13   8 1.60136 0.07747  0.44627  0.25967 -0.54399 -0.53906 -0.12733  0.57966 24933   3086 0.8144  34
   7  -8   1   25.01   15.99   8 1.70411 0.07778  0.44627  0.30570 -0.54399 -0.60757 -0.12733  0.36819 24933   3091 0.8066  34
   5  -6   1   23.97    9.06   8 2.25895 0.07677  0.44627  0.21766 -0.54399 -0.64309 -0.12733  0.44583 24933   3093 0.7720  34
   5  -5  -2  196.88   11.38   8 2.44060 0.07661  0.44627  0.45473 -0.54399 -0.37299 -0.12733 -0.55915 24933   3096 0.7607  36
   7  -7  -4  304.47   25.14   8 1.57103 0.07756  0.44627  0.36774 -0.54399 -0.28172 -0.12733 -0.75877 24933   3106 0.8163  36
   3  -3  -3   72.77    4.91   8 2.62114 0.07500  0.44627  0.13738 -0.54399 -0.04582 -0.12733 -0.98165 24933   3110 0.7538  37
   6  -6  -5  628.21   33.28   8 1.50372 0.07645  0.44627  0.22201 -0.54399 -0.13423 -0.12733 -0.93302 24933   3113 0.8233  37
   5  -5  -5  497.65   26.19   8 1.57132 0.07548  0.44627  0.13738 -0.54399 -0.04582 -0.12733 -0.98165 24933   3114 0.8207  37
   6  -5  -5  364.50   23.84   8 1.50917 0.07581  0.44627  0.33837 -0.54399  0.08959 -0.12733 -0.93651 24933   3115 0.8243  37
   6  -5  -6  136.45   20.95   8 1.29774 0.07480  0.44627  0.22974 -0.54399  0.15284 -0.12733 -0.97226 24933   3119 0.8409  37
   2  -2  -4  858.75   30.42   8 1.80059 0.07135  0.44627 -0.17812 -0.54399  0.27489 -0.12733 -0.88975 24933   3123 0.8149  38
   3  -3  -5   91.61   10.21   8 1.52520 0.07206  0.44627 -0.10622 -0.54399  0.20132 -0.12733 -0.94995 24933   3124 0.8312  38
   3  -2  -5 1505.11   58.00   8 1.38341 0.07076  0.44627 -0.03259 -0.54399  0.43934 -0.12733 -0.84978 24933   3125 0.8432  38
   3  -3  -6 1610.60   68.38   8 1.19987 0.07067  0.44627 -0.17812 -0.54399  0.27489 -0.12733 -0.88975 24933   3126 0.8554  38
   4  -3  -6   98.06   16.40   8 1.22650 0.07141  0.44627  0.01023 -0.54399  0.35880 -0.12733 -0.91274 24933   3127 0.8523  38
   3  -2  -6   41.52   14.18   8 1.07828 0.06989  0.44627 -0.12538 -0.54399  0.46024 -0.12733 -0.78719 24933   3128 0.8649  38
   4  -4  -7  229.65   27.42   8 1.07463 0.07135  0.44627 -0.12652 -0.54399  0.22094 -0.12733 -0.93611 24933   3129 0.8626  38
   5  -4  -7  193.52   26.19   8 1.08605 0.07199  0.44627  0.03737 -0.54399  0.29744 -0.12733 -0.94604 24933   3130 0.8606  38
   5  -3  -7   22.01   20.13   8 1.00313 0.07078  0.44627  0.07838 -0.54399  0.46684 -0.12733 -0.86603 24933   3132 0.8684  38
   4  -4  -8  341.77   41.47   8 0.89967 0.07029  0.44627 -0.17859 -0.54399  0.27348 -0.12733 -0.89030 24933   3133 0.8762  38
   4  -3  -8  294.49   42.14   8 0.83502 0.06970  0.44627 -0.13375 -0.54399  0.41795 -0.12733 -0.81774 24933   3135 0.8815  38
   1   0  -2  263.81    8.14   8 2.02455 0.07481  0.44627 -0.14211 -0.54399  0.69397 -0.12733 -0.44662 24933   3143 0.7922  39
   1   0  -3  243.03   11.05   8 1.20227 0.07765  0.44627 -0.26492 -0.54399  0.63351 -0.12733 -0.38411 24933   3144 0.8422  39
   1  -1  -4  683.66   24.71   8 1.28765 0.07241  0.44627 -0.35155 -0.54399  0.44755 -0.12733 -0.59865 24933   3145 0.8462  39
   1   0  -4 1061.52   41.31   8 0.81568 0.08028  0.44627 -0.32302 -0.54399  0.60556 -0.12733 -0.33335 24933   3146 0.8663  39
   1  -1  -5 1490.91   56.05   8 0.91215 0.07409  0.44627 -0.37833 -0.54399  0.47661 -0.12733 -0.51560 24933   3148 0.8691  39
   1   0  -5 1866.04   88.71   8 0.60406 0.08228  0.44627 -0.35439 -0.54399  0.59023 -0.12733 -0.29859 24933   3149 0.8798  39
   2   0  -5  232.31   22.36   8 0.76398 0.07630  0.44627 -0.21677 -0.54399  0.65747 -0.12733 -0.41346 24933   3150 0.8763  39
   1  -1  -6   61.37   22.32   8 0.69053 0.07608  0.44627 -0.39553 -0.54399  0.49180 -0.12733 -0.45778 24933   3151 0.8820  39
   2  -1  -6 2435.74   92.84   8 0.82296 0.07235  0.44627 -0.26320 -0.54399  0.54229 -0.12733 -0.57029 24933   3152 0.8782  39
   1   0  -6   76.68   48.45   8 0.47349 0.08373  0.44627 -0.37345 -0.54399  0.58096 -0.12733 -0.27342 24933   3153 0.8885  39
   2   0  -6 1110.89   74.08   8 0.60122 0.07784  0.44627 -0.26423 -0.54399  0.63447 -0.12733 -0.38295 24933   3154 0.8862  39
   3   0  -6 1127.14   64.38   8 0.67539 0.07421  0.44627 -0.14211 -0.54399  0.69397 -0.12733 -0.44662 24933   3155 0.8858  39
   1  -1  -7  513.47   65.27   8 0.54732 0.07770  0.44627 -0.40570 -0.54399  0.50342 -0.12733 -0.41270 24933   3157 0.8904  39
   2  -1  -7   43.93   29.26   8 0.65344 0.07360  0.44627 -0.30113 -0.54399  0.54270 -0.12733 -0.51817 24933   3158 0.8883  39
   2   0  -7  256.70   54.96   8 0.48892 0.07928  0.44627 -0.29933 -0.54399  0.61711 -0.12733 -0.35562 24933   3159 0.8929  39
   3   0  -7  173.20   52.97   8 0.55783 0.07564  0.44627 -0.19515 -0.54399  0.66810 -0.12733 -0.42454 24933   3160 0.8924  39
   1  -2  -8  112.06   49.78   8 0.55480 0.07448  0.44627 -0.44667 -0.54399  0.42100 -0.12733 -0.49691 24933   3161 0.8942  39
   2  -2  -8  131.69   35.00   8 0.64417 0.07176  0.44627 -0.35024 -0.54399  0.44820 -0.12733 -0.59942 24933   3162 0.8915  39
   2  -1  -8  178.51   55.86   8 0.53420 0.07518  0.44627 -0.32630 -0.54399  0.54383 -0.12733 -0.47655 24933   3164 0.8948  39
   3  -1  -8  216.46   54.14   8 0.59512 0.07243  0.44627 -0.22375 -0.54399  0.58725 -0.12733 -0.54610 24933   3165 0.8941  39
   2   0  -8  306.50  108.29   8 0.40907 0.08058  0.44627 -0.32177 -0.54399  0.60630 -0.12733 -0.33420 24933   3166 0.8975  39
   3   0  -8  216.75   82.91   8 0.46806 0.07685  0.44627 -0.23574 -0.54399  0.64771 -0.12733 -0.40367 24933   3167 0.8975  39
   4   0  -8  180.08   69.98   8 0.50564 0.07419  0.44627 -0.14274 -0.54399  0.69437 -0.12733 -0.44476 24933   3168 0.8982  39
   8  -8   3  291.91   29.77   8 1.40906 0.07712  0.44627  0.38206 -0.54399 -0.30641 -0.12733  0.72395 24933   3185 0.8285  43
   6  -6   2  438.52   21.57   8 1.93590 0.07678  0.44627  0.40855 -0.54399 -0.33001 -0.12733  0.67266 24933   3190 0.7932  43
   5  -5   2  229.25   12.34   8 2.21523 0.07617  0.44627  0.36910 -0.54399 -0.28926 -0.12733  0.75128 24933   3191 0.7764  43
   6  -5  -3  285.07   15.59   8 1.98219 0.07689  0.44627  0.58226 -0.54399 -0.05188 -0.12733 -0.70999 24933   3194 0.7899  46
   5  -4  -3  149.99    9.51   8 2.20693 0.07622  0.44627  0.53553 -0.54399  0.04455 -0.12733 -0.80423 24933   3195 0.7767  46
   7  -6  -4  434.51   26.88   8 1.60973 0.07719  0.44627  0.50821 -0.54399 -0.06230 -0.12733 -0.77990 24933   3196 0.8144  46
   6  -5  -4   49.21   11.99   8 1.74138 0.07654  0.44627  0.45924 -0.54399  0.01821 -0.12733 -0.85411 24933   3197 0.8069  46
   8  -6  -4  231.04   23.38   8 1.48194 0.07720  0.44627  0.65321 -0.54399  0.09479 -0.12733 -0.70829 24933   3198 0.8233  46
   7  -5  -4   42.21   14.67   8 1.59451 0.07658  0.44627  0.62001 -0.54399  0.18136 -0.12733 -0.77040 24933   3199 0.8168  46
   2  -1  -2   41.19    2.13   8 3.43496 0.07329  0.44627  0.32007 -0.54399  0.53841 -0.12733 -0.84063 24933   3206 0.7106  47
   3  -2  -3  397.71   14.68   8 2.49160 0.07388  0.44627  0.29422 -0.54399  0.35376 -0.12733 -0.92547 24933   3207 0.7649  47
   4  -2  -4  138.88    9.85   8 1.71615 0.07255  0.44627  0.32007 -0.54399  0.53841 -0.12733 -0.84063 24933   3208 0.8176  47
   5  -3  -5  508.57   28.03   8 1.45115 0.07320  0.44627  0.31081 -0.54399  0.43201 -0.12733 -0.89520 24933   3209 0.8337  47
   6  -3  -5   21.61   14.86   8 1.33715 0.07326  0.44627  0.45151 -0.54399  0.53938 -0.12733 -0.81547 24933   3210 0.8412  47
   5  -4  -6  369.29   26.92   8 1.29457 0.07329  0.44627  0.13064 -0.54399  0.25167 -0.12733 -0.96780 24933   3211 0.8440  47
   6  -4  -6  811.72   47.52   8 1.24470 0.07364  0.44627  0.29422 -0.54399  0.35376 -0.12733 -0.92547 24933   3212 0.8468  47
   7  -4  -6  173.24   25.20   8 1.16938 0.07375  0.44627  0.42517 -0.54399  0.45263 -0.12733 -0.86163 24933   3213 0.8517  47
   6  -3  -6  256.89   27.78   8 1.14359 0.07213  0.44627  0.32007 -0.54399  0.53841 -0.12733 -0.84063 24933   3214 0.8565  47
   6  -4  -7  100.87   25.56   8 1.06484 0.07246  0.44627  0.18865 -0.54399  0.38233 -0.12733 -0.92402 24933   3216 0.8613  47
   2  -1  -4  444.50   18.27   8 1.48904 0.07076  0.44627 -0.11336 -0.54399  0.54189 -0.12733 -0.71374 24933   3223 0.8363  48
   3  -1  -4  754.75   29.40   8 1.49264 0.07054  0.44627  0.11119 -0.54399  0.65271 -0.12733 -0.71571 24933   3224 0.8365  48
   3  -1  -5 1825.40   70.77   8 1.13884 0.07031  0.44627 -0.02081 -0.54399  0.62698 -0.12733 -0.67668 24933   3225 0.8602  48
   4  -1  -5  970.52   43.73   8 1.11688 0.06994  0.44627  0.13816 -0.54399  0.70851 -0.12733 -0.66012 24933   3226 0.8623  48
   3  -1  -6   47.66   15.53   8 0.89316 0.07050  0.44627 -0.11270 -0.54399  0.60867 -0.12733 -0.63058 24933   3227 0.8763  48
   4  -1  -6   60.26   18.17   8 0.90752 0.07004  0.44627  0.02794 -0.54399  0.67758 -0.12733 -0.64191 24933   3228 0.8761  48
   5  -1  -6  495.02   38.64   8 0.88765 0.06974  0.44627  0.14991 -0.54399  0.73986 -0.12733 -0.62295 24933   3229 0.8779  48
   4  -1  -7   76.48   27.46   8 0.75123 0.07014  0.44627 -0.05340 -0.54399  0.65415 -0.12733 -0.61569 24933   3231 0.8865  48
   4  -2  -8  255.44   38.59   8 0.74406 0.06973  0.44627 -0.11336 -0.54399  0.54189 -0.12733 -0.71374 24933   3235 0.8876  48
   2   1  -2  289.10   17.92   8 0.76773 0.08475  0.44627 -0.15920 -0.54399  0.77190 -0.12733 -0.08898 24933   3246 0.8632  49
   4   2  -2  156.30   65.82   8 0.41311 0.08661  0.44627 -0.13742 -0.54399  0.78904 -0.12733  0.01145 24933   3248 0.8899  49
   4   2  -3  669.03  125.63   8 0.40633 0.08584  0.44627 -0.14281 -0.54399  0.78489 -0.12733 -0.04404 24933   3251 0.8914  49
   5   2  -3  258.77   82.08   8 0.43905 0.08184  0.44627 -0.05163 -0.54399  0.83760 -0.12733 -0.05788 24933   3252 0.8936  49
   2   1  -4  901.12   68.13   8 0.53278 0.08542  0.44627 -0.24670 -0.54399  0.70236 -0.12733 -0.17344 24933   3254 0.8814  49
   3   1  -4 1104.72   65.20   8 0.63801 0.07946  0.44627 -0.11094 -0.54399  0.78118 -0.12733 -0.23323 24933   3255 0.8811  49
   2   1  -5 1933.47  157.81   8 0.44192 0.08606  0.44627 -0.28211 -0.54399  0.67427 -0.12733 -0.18462 24933   3258 0.8882  49
   3   1  -5 1000.92   87.92   8 0.53862 0.08048  0.44627 -0.16433 -0.54399  0.74369 -0.12733 -0.25220 24933   3259 0.8874  49
   4   1  -6  361.83   76.60   8 0.50224 0.07769  0.44627 -0.10803 -0.54399  0.76743 -0.12733 -0.29770 24933   3263 0.8939  49
  -2   4   1   99.42    5.39   9 2.87403 0.07445 -0.27987  0.27341  0.37205  0.90999  0.75642 -0.35771 24934   3266 0.7399  13
  -4   8   2  359.15   25.73   9 1.43579 0.07475 -0.27987  0.27376  0.37205  0.91050  0.75642 -0.35647 24934   3268 0.8315  13
  -4   7   2  224.23   15.63   9 1.70196 0.07545 -0.27987  0.14750  0.37205  0.89481  0.75642 -0.28178 24934   3269 0.8120  13
  -3   6   2  437.24   19.81   9 1.97551 0.07542 -0.27987  0.27296  0.37205  0.95048  0.75642 -0.20501 24934   3270 0.7939  13
  -5   7   3   16.87   12.39   9 1.75124 0.07683 -0.27987 -0.11902  0.37205  0.80014  0.75642 -0.02237 24934   3279 0.8055  14
  -4   6   3   37.74    8.86   9 2.04324 0.07674 -0.27987 -0.03244  0.37205  0.84491  0.75642  0.10109 24934   3280 0.7862  14
  -6   8   4  199.64   23.79   9 1.51788 0.07748 -0.27987 -0.18104  0.37205  0.75745  0.75642  0.09217 24934   3283 0.8202  14
  -5   8   4  353.03   28.99   9 1.53146 0.07729 -0.27987  0.04407  0.37205  0.88267  0.75642  0.10237 24934   3284 0.8196  14
  -5   7   4   33.27   14.43   9 1.72453 0.07745 -0.27987 -0.11466  0.37205  0.78370  0.75642  0.20917 24934   3285 0.8060  14
  -5   3   3  237.67   11.85   9 2.30609 0.07621 -0.27987 -0.92956  0.37205 -0.20206  0.75642  0.20951 24934   3289 0.7704  16
  -7   5   4   36.13   13.35   9 1.67565 0.07716 -0.27987 -0.85161  0.37205  0.00060  0.75642  0.17983 24934   3290 0.8100  16
  -6   4   4  379.47   19.61   9 1.90696 0.07702 -0.27987 -0.86417  0.37205 -0.08911  0.75642  0.31044 24934   3291 0.7946  16
  -7   5   5  107.66   17.90   9 1.61250 0.07764 -0.27987 -0.80991  0.37205 -0.01248  0.75642  0.37237 24934   3294 0.8133  16
  -7   3   3  206.05   17.88   9 1.54518 0.07485 -0.27987 -0.99381  0.37205 -0.48916  0.75642 -0.11077 24934   3297 0.8239  17
  -6   2   3  791.61   36.78   9 1.69206 0.07451 -0.27987 -0.98700  0.37205 -0.62604  0.75642 -0.04911 24934   3298 0.8148  17
  -5   2   3  234.20   11.92   9 2.12077 0.07548 -0.27987 -0.99037  0.37205 -0.53106  0.75642  0.13213 24934   3299 0.7842  17
  -8   3   4   29.45   17.29   9 1.31176 0.07496 -0.27987 -0.99632  0.37205 -0.56943  0.75642 -0.02395 24934   3301 0.8396  17
  -7   3   4   76.14   14.48   9 1.54515 0.07586 -0.27987 -0.99415  0.37205 -0.48802  0.75642  0.10747 24934   3302 0.8217  17
  -8   3   5  227.13   25.38   9 1.29728 0.07584 -0.27987 -0.98469  0.37205 -0.56630  0.75642  0.15194 24934   3306 0.8389  17
  -4   1   1  118.40    6.00   9 2.11333 0.07182 -0.27987 -0.82525  0.37205 -0.68856  0.75642 -0.46630 24934   3307 0.7940  18
  -9   3   2   60.68   18.92   9 1.01317 0.07119 -0.27987 -0.85506  0.37205 -0.60015  0.75642 -0.47869 24934   3308 0.8670  18
  -9   2   2  127.75   26.83   9 0.88349 0.07004 -0.27987 -0.77664  0.37205 -0.70358  0.75642 -0.51411 24934   3309 0.8777  18
  -8   2   2  494.50   34.62   9 1.05537 0.07071 -0.27987 -0.82525  0.37205 -0.68856  0.75642 -0.46630 24934   3310 0.8650  18
  -7   2   2  114.31   14.31   9 1.29181 0.07171 -0.27987 -0.87976  0.37205 -0.66256  0.75642 -0.39989 24934   3311 0.8473  18
  -8   2   3   51.90   16.89   9 1.13904 0.07216 -0.27987 -0.91230  0.37205 -0.71384  0.75642 -0.28138 24934   3320 0.8567  18
  -8   1   3   26.86   20.05   9 0.97375 0.07058 -0.27987 -0.81253  0.37205 -0.80914  0.75642 -0.35126 24934   3321 0.8707  18
  -7   1   3   43.34   14.22   9 1.16823 0.07148 -0.27987 -0.85691  0.37205 -0.80970  0.75642 -0.26814 24934   3322 0.8560  18
  -8   2   0   63.56   26.74   9 0.75621 0.07071 -0.27987 -0.51168  0.37205 -0.59835  0.75642 -0.76274 24934   3337 0.8853  19
  -7   2   0  120.89   20.74   9 0.91331 0.07033 -0.27987 -0.53972  0.37205 -0.57734  0.75642 -0.76331 24934   3339 0.8752  19
  -7   1   0  177.08   32.40   9 0.71383 0.07279 -0.27987 -0.41357  0.37205 -0.64018  0.75642 -0.76060 24934   3340 0.8851  19
  -6   2   0  402.95   24.14   9 1.14218 0.07040 -0.27987 -0.57404  0.37205 -0.54325  0.75642 -0.76351 24934   3341 0.8598  19
  -5   1   0  692.08   34.00   9 1.11078 0.07208 -0.27987 -0.46687  0.37205 -0.62189  0.75642 -0.76213 24934   3343 0.8588  19
  -4   1   0    6.00    5.47   9 1.51482 0.07159 -0.27987 -0.51318  0.37205 -0.59932  0.75642 -0.76159 24934   3344 0.8328  19
  -8   1   1   28.76   23.54   9 0.76097 0.07006 -0.27987 -0.57270  0.37205 -0.71456  0.75642 -0.65386 24934   3352 0.8860  19
  -4   8  -3   60.66   54.65   9 0.45907 0.07898 -0.27987  0.27974  0.37205  0.03713  0.75642 -0.95272 24934   3354 0.8955  20
  -4   7  -3  176.76   61.64   9 0.45965 0.08130 -0.27987  0.24636  0.37205 -0.02859  0.75642 -0.95320 24934   3355 0.8926  20
  -4   6  -3  555.01   93.60   9 0.43424 0.08457 -0.27987  0.21501  0.37205 -0.11301  0.75642 -0.94283 24934   3356 0.8906  20
  -3   5  -2   21.00   13.36   9 0.73693 0.07833 -0.27987  0.22311  0.37205  0.01317  0.75642 -0.96815 24934   3357 0.8752  20
  -2   6  -2 1512.31   92.91   9 0.56961 0.08038 -0.27987  0.36468  0.37205  0.05375  0.75642 -0.91922 24934   3361 0.8851  20
  -2   4  -2 2487.12  122.27   9 0.51316 0.08817 -0.27987  0.28130  0.37205 -0.14261  0.75642 -0.90216 24934   3363 0.8795  20
  -1   8  -2  137.94   88.58   9 0.40061 0.08115 -0.27987  0.45775  0.37205  0.07613  0.75642 -0.87141 24934   3364 0.8975  20
  -1   6  -2  102.86   64.65   9 0.41345 0.08584 -0.27987  0.40245  0.37205 -0.03297  0.75642 -0.87459 24934   3366 0.8908  20
  -1   2  -1   40.17    4.15   9 1.02575 0.08692 -0.27987  0.27994  0.37205 -0.14339  0.75642 -0.90254 24934   3369 0.8391  20
   0   4  -1 5260.97  201.56   9 0.61116 0.08490 -0.27987  0.46108  0.37205 -0.00675  0.75642 -0.84400 24934   3370 0.8757  20
  -2   8   0   82.46   21.36   9 0.91013 0.06970 -0.27987  0.54918  0.37205  0.57743  0.75642 -0.75902 24934   3379 0.8765  21
  -2   7   0  125.96   15.83   9 1.08520 0.06990 -0.27987  0.51921  0.37205  0.59817  0.75642 -0.75999 24934   3380 0.8645  21
  -1   7   0  196.90   24.02   9 0.89938 0.07018 -0.27987  0.61351  0.37205  0.50060  0.75642 -0.75730 24934   3384 0.8764  21
  -1   5   0  687.77   28.09   9 1.36539 0.07056 -0.27987  0.58315  0.37205  0.54467  0.75642 -0.75797 24934   3386 0.8448  21
  -1   4   0   11.92    4.21   9 1.82167 0.07094 -0.27987  0.54918  0.37205  0.57743  0.75642 -0.75902 24934   3387 0.8145  21
  -1   8   1   27.79   18.18   9 0.92011 0.06981 -0.27987  0.68763  0.37205  0.65759  0.75642 -0.62920 24934   3392 0.8756  21
   0   8   1  256.11   35.68   9 0.76489 0.06979 -0.27987  0.73384  0.37205  0.54128  0.75642 -0.64880 24934   3395 0.8861  21
  -2   5   1  327.18   13.11   9 2.11474 0.07354 -0.27987  0.43264  0.37205  0.88630  0.75642 -0.46296 24934   3396 0.7895  22
  -3   9   2   64.41   20.92   9 1.13357 0.07284 -0.27987  0.52873  0.37205  0.89227  0.75642 -0.44131 24934   3400 0.8559  22
  -3   8   2   41.92   14.56   9 1.33795 0.07374 -0.27987  0.47482  0.37205  0.92393  0.75642 -0.38227 24934   3401 0.8402  22
  -2   9   2  167.69   27.47   9 1.01571 0.07158 -0.27987  0.65365  0.37205  0.83962  0.75642 -0.47130 24934   3402 0.8662  22
  -2   8   2  505.75   35.13   9 1.20004 0.07240 -0.27987  0.63299  0.37205  0.87974  0.75642 -0.41991 24934   3403 0.8522  22
  -2   7   2  125.33   14.79   9 1.44762 0.07337 -0.27987  0.59813  0.37205  0.92280  0.75642 -0.35144 24934   3404 0.8336  22
  -2   6   2  187.36   12.05   9 1.79663 0.07439 -0.27987  0.54057  0.37205  0.96498  0.75642 -0.25362 24934   3405 0.8081  22
  -2   8   3   40.01   16.09   9 1.27254 0.07398 -0.27987  0.65201  0.37205  0.95431  0.75642 -0.22028 24934   3412 0.8442  22
  -2   4   2 1170.50   42.02   9 3.00100 0.07537 -0.27987  0.27287  0.37205  0.96637  0.75642  0.08464 24934   3413 0.7294  23
  -3   6   3   63.62    8.93   9 1.99861 0.07638 -0.27987  0.27288  0.37205  0.96648  0.75642  0.08321 24934   3415 0.7900  23
  -4   8   4  205.42   21.42   9 1.49843 0.07688 -0.27987  0.27150  0.37205  0.96601  0.75642  0.08467 24934   3418 0.8228  23
  -3   7   4  106.12   14.70   9 1.64950 0.07672 -0.27987  0.39409  0.37205  0.97917  0.75642  0.17047 24934   3420 0.8127  23
  -4   2   3  710.85   26.03   9 2.67789 0.07580 -0.27987 -0.92453  0.37205 -0.37364  0.75642  0.36710 24934   3424 0.7480  26
  -6   3   4  235.36   14.80   9 1.83181 0.07650 -0.27987 -0.95579  0.37205 -0.37266  0.75642  0.26777 24934   3425 0.8009  26
  -5   2   4  890.36   35.14   9 2.01199 0.07618 -0.27987 -0.92623  0.37205 -0.52301  0.75642  0.37056 24934   3426 0.7896  26
  -7   3   5  150.54   18.92   9 1.49864 0.07654 -0.27987 -0.95612  0.37205 -0.48576  0.75642  0.29283 24934   3427 0.8235  26
  -6   3   5   50.83   12.80   9 1.72769 0.07701 -0.27987 -0.88698  0.37205 -0.37433  0.75642  0.45486 24934   3428 0.8067  26
  -5   2   5  176.33   12.49   9 1.85329 0.07662 -0.27987 -0.83267  0.37205 -0.51158  0.75642  0.54274 24934   3429 0.7991  26
  -7   4   6  146.70   19.54   9 1.49725 0.07761 -0.27987 -0.84462  0.37205 -0.26147  0.75642  0.50212 24934   3432 0.8213  26
  -4   0   1 2626.36   91.13   9 1.43939 0.07088 -0.27987 -0.58097  0.37205 -0.80272  0.75642 -0.55913 24934   3437 0.8393  28
  -3   0   1  166.76    6.53   9 2.08973 0.07125 -0.27987 -0.65671  0.37205 -0.84063  0.75642 -0.46779 24934   3438 0.7969  28
  -8   0   2   90.15   31.30   9 0.72114 0.06990 -0.27987 -0.58208  0.37205 -0.80250  0.75642 -0.55892 24934   3441 0.8889  28
  -7   0   2   31.31   18.70   9 0.85824 0.06989 -0.27987 -0.61636  0.37205 -0.82051  0.75642 -0.51974 24934   3443 0.8797  28
  -7  -1   2  115.00   35.18   9 0.66038 0.07148 -0.27987 -0.46121  0.37205 -0.81615  0.75642 -0.57458 24934   3444 0.8908  28
  -6   0   2  462.82   29.03   9 1.04368 0.06989 -0.27987 -0.65701  0.37205 -0.84135  0.75642 -0.46654 24934   3445 0.8672  28
  -5   0   2  234.72   14.86   9 1.31838 0.07040 -0.27987 -0.70588  0.37205 -0.86497  0.75642 -0.39008 24934   3447 0.8482  28
  -4  -1   2  559.62   26.17   9 1.17979 0.07059 -0.27987 -0.51518  0.37205 -0.90121  0.75642 -0.42691 24934   3449 0.8569  28
  -8   0   3  200.58   34.01   9 0.80981 0.06956 -0.27987 -0.68938  0.37205 -0.85651  0.75642 -0.41890 24934   3453 0.8834  28
  -7  -1   3   51.25   23.68   9 0.76451 0.06978 -0.27987 -0.57720  0.37205 -0.88572  0.75642 -0.43753 24934   3456 0.8862  28
  -6  -1   3   43.86   18.56   9 0.90268 0.06978 -0.27987 -0.59716  0.37205 -0.91094  0.75642 -0.37872 24934   3457 0.8768  28
  -6  -2   4  108.58   26.46   9 0.76318 0.06974 -0.27987 -0.52010  0.37205 -0.94222  0.75642 -0.33018 24934   3462 0.8863  28
  -9   3  -2  169.42   81.18   9 0.43059 0.07843 -0.27987 -0.20208  0.37205 -0.46725  0.75642 -0.88338 24934   3463 0.8984  29
  -6   2  -2 1760.33  192.82   9 0.40194 0.08698 -0.27987 -0.02000  0.37205 -0.43297  0.75642 -0.87239 24934   3464 0.8904  29
  -6   1  -1   39.72   34.43   9 0.54529 0.08127 -0.27987 -0.16775  0.37205 -0.53576  0.75642 -0.83642 24934   3468 0.8859  29
  -5   1  -1  171.43   28.61   9 0.62480 0.08218 -0.27987 -0.14005  0.37205 -0.51204  0.75642 -0.84846 24934   3469 0.8783  29
  -4   1  -1  504.36   29.47   9 0.72040 0.08361 -0.27987 -0.09621  0.37205 -0.47983  0.75642 -0.86153 24934   3470 0.8687  29
  -8   0   0  182.42   82.50   9 0.45910 0.07763 -0.27987 -0.26897  0.37205 -0.64696  0.75642 -0.75992 24934   3473 0.8972  29
  -7   0   0  216.36   60.73   9 0.52444 0.07766 -0.27987 -0.26764  0.37205 -0.64667  0.75642 -0.76005 24934   3474 0.8922  29
  -5   0   0   41.42   15.45   9 0.73464 0.07753 -0.27987 -0.27004  0.37205 -0.64620  0.75642 -0.76070 24934   3476 0.8766  29
  -4   0   0 1104.40   47.39   9 0.91693 0.07757 -0.27987 -0.26740  0.37205 -0.64563  0.75642 -0.76096 24934   3478 0.8630  29
  -4  -1   0  497.84   67.28   9 0.46155 0.08775 -0.27987 -0.02983  0.37205 -0.57863  0.75642 -0.75856 24934   3479 0.8844  29
  -3   0   0 1576.36   59.24   9 1.22269 0.07751 -0.27987 -0.26740  0.37205 -0.64563  0.75642 -0.76096 24934   3480 0.8410  29
  -2   0   0  737.93   25.43   9 1.83578 0.07737 -0.27987 -0.26740  0.37205 -0.64563  0.75642 -0.76096 24934   3481 0.7986  29
  -2   6   3  788.02   31.21   9 1.84152 0.07566 -0.27987  0.54599  0.37205  0.99835  0.75642  0.01932 24934   3484 0.8022  33
  -1   6   3  286.08   18.00   9 1.60556 0.07429 -0.27987  0.75130  0.37205  0.94309  0.75642 -0.07892 24934   3485 0.8210  33
  -1   5   3   13.18    6.89   9 1.98388 0.07514 -0.27987  0.71651  0.37205  0.95822  0.75642  0.08164 24934   3486 0.7940  33
  -2   8   4   77.82   19.81   9 1.29714 0.07515 -0.27987  0.65923  0.37205  0.98042  0.75642 -0.02612 24934   3488 0.8402  33
  -1   6   4  396.04   22.59   9 1.59758 0.07535 -0.27987  0.74738  0.37205  0.93550  0.75642  0.14348 24934   3490 0.8193  33
  -1   7   5  123.01   20.73   9 1.33178 0.07546 -0.27987  0.76685  0.37205  0.91657  0.75642  0.18153 24934   3495 0.8372  33
  -4   7   5  227.73   20.65   9 1.65080 0.07764 -0.27987  0.14769  0.37205  0.85660  0.75642  0.40156 24934   3499 0.8106  34
  -3   7   5  122.51   17.61   9 1.58913 0.07727 -0.27987  0.38854  0.37205  0.92845  0.75642  0.36102 24934   3500 0.8157  34
  -3   6   5   51.04   13.77   9 1.80855 0.07741 -0.27987  0.26868  0.37205  0.83942  0.75642  0.51475 24934   3501 0.8003  34
  -4   7   6  147.62   25.47   9 1.55507 0.07800 -0.27987  0.15316  0.37205  0.78514  0.75642  0.55419 24934   3503 0.8165  34
  -5   3   5  513.62   23.50   9 1.97447 0.07715 -0.27987 -0.75871  0.37205 -0.22669  0.75642  0.62712 24934   3511 0.7898  36
  -6   4   7  121.48   24.51   9 1.52450 0.07804 -0.27987 -0.63861  0.37205 -0.14550  0.75642  0.74290 24934   3517 0.8185  36
  -6   3   7   99.39   20.57   9 1.47554 0.07761 -0.27987 -0.71912  0.37205 -0.37242  0.75642  0.69473 24934   3518 0.8229  36
  -5   3   7   61.57   17.10   9 1.60457 0.07773 -0.27987 -0.56830  0.37205 -0.25331  0.75642  0.82205 24934   3519 0.8136  36
  -4   1   4  817.05   28.36   9 2.13608 0.07560 -0.27987 -0.84151  0.37205 -0.69079  0.75642  0.44117 24934   3523 0.7829  37
  -4  -1   3   29.18   10.10   9 1.32822 0.07048 -0.27987 -0.61677  0.37205 -0.96805  0.75642 -0.19846 24934   3534 0.8473  38
  -6  -1   4  100.52   22.69   9 0.97132 0.07012 -0.27987 -0.66464  0.37205 -0.95262  0.75642 -0.21265 24934   3536 0.8717  38
  -5  -1   4  359.88   27.01   9 1.14743 0.07062 -0.27987 -0.66521  0.37205 -0.97179  0.75642 -0.11293 24934   3537 0.8590  38
  -4  -1   4  376.61   21.67   9 1.36848 0.07139 -0.27987 -0.64278  0.37205 -0.98473  0.75642  0.01156 24934   3538 0.8429  38
  -6  -1   5  123.37   24.89   9 0.99786 0.07092 -0.27987 -0.69225  0.37205 -0.96926  0.75642 -0.05528 24934   3540 0.8685  38
  -5  -1   5   85.07   18.05   9 1.15481 0.07158 -0.27987 -0.67208  0.37205 -0.97557  0.75642  0.05449 24934   3542 0.8567  38
  -5  -2   5   82.83   24.12   9 0.92263 0.06997 -0.27987 -0.55011  0.37205 -0.99205  0.75642 -0.10922 24934   3543 0.8752  38
  -4  -2   5  291.46   26.88   9 1.05104 0.07031 -0.27987 -0.51010  0.37205 -0.99978  0.75642 -0.01722 24934   3544 0.8660  38
  -5  -2   6   65.09   23.45   9 0.92990 0.07051 -0.27987 -0.55689  0.37205 -0.99737  0.75642  0.02700 24934   3550 0.8738  38
  -4  -1   1   45.44   11.42   9 0.88645 0.07540 -0.27987 -0.31323  0.37205 -0.76738  0.75642 -0.63601 24934   3553 0.8688  39
  -3  -1   1  135.32    9.73   9 1.12995 0.07517 -0.27987 -0.30884  0.37205 -0.79192  0.75642 -0.60228 24934   3554 0.8519  39
  -1  -1   1   30.58    2.07   9 2.14315 0.07529 -0.27987 -0.20234  0.37205 -0.85175  0.75642 -0.45596 24934   3556 0.7833  39
  -7  -2   2  117.27   64.78   9 0.49679 0.07511 -0.27987 -0.31236  0.37205 -0.77957  0.75642 -0.61991 24934   3558 0.8976  39
  -6  -2   2  452.29   67.22   9 0.56510 0.07496 -0.27987 -0.30917  0.37205 -0.79282  0.75642 -0.60107 24934   3559 0.8928  39
  -5  -2   2   79.95   28.21   9 0.65050 0.07479 -0.27987 -0.30272  0.37205 -0.80842  0.75642 -0.57682 24934   3560 0.8868  39
  -4  -2   2  128.60   21.71   9 0.76142 0.07466 -0.27987 -0.28875  0.37205 -0.82584  0.75642 -0.54538 24934   3562 0.8789  39
  -4  -3   2   82.01   54.78   9 0.46933 0.08199 -0.27987 -0.10609  0.37205 -0.72202  0.75642 -0.62614 24934   3563 0.8910  39
  -3  -2   2   42.29   12.03   9 0.90336 0.07462 -0.27987 -0.26119  0.37205 -0.84332  0.75642 -0.50445 24934   3564 0.8688  39
  -3  -3   2  452.20   59.72   9 0.50205 0.08338 -0.27987 -0.05630  0.37205 -0.70976  0.75642 -0.61431 24934   3565 0.8866  39
  -2  -2   2 2301.97   75.86   9 1.07065 0.07497 -0.27987 -0.20234  0.37205 -0.85175  0.75642 -0.45596 24934   3566 0.8564  39
  -5  -3   3  140.89   49.82   9 0.56836 0.07453 -0.27987 -0.27128  0.37205 -0.83750  0.75642 -0.51923 24934   3571 0.8931  39
  -4  -3   3  250.89   38.16   9 0.63665 0.07461 -0.27987 -0.24362  0.37205 -0.84706  0.75642 -0.48921 24934   3572 0.8880  39
  -4  -4   3   96.88   67.66   9 0.42341 0.08078 -0.27987 -0.09971  0.37205 -0.75153  0.75642 -0.57757 24934   3573 0.8961  39
  -3  -3   3   61.64   21.45   9 0.71419 0.07484 -0.27987 -0.20234  0.37205 -0.85175  0.75642 -0.45596 24934   3574 0.8821  39
  -2  -3   3  296.63   23.75   9 0.78889 0.07543 -0.27987 -0.13495  0.37205 -0.84386  0.75642 -0.42201 24934   3576 0.8758  39
  -4  -4   4  203.02   65.55   9 0.53663 0.07480 -0.27987 -0.20086  0.37205 -0.85134  0.75642 -0.45588 24934   3581 0.8951  39
  -2  -4   4  347.81   44.76   9 0.61481 0.07588 -0.27987 -0.09097  0.37205 -0.83220  0.75642 -0.40804 24934   3583 0.8878  39
  -1   3   3  326.76   13.32   9 3.17180 0.07534 -0.27987  0.50468  0.37205  0.80663  0.75642  0.57935 24934   3590 0.7193  43
  -1   5   4  419.86   20.46   9 1.90909 0.07593 -0.27987  0.69695  0.37205  0.90570  0.75642  0.31665 24934   3591 0.7970  43
  -1   4   4  907.22   34.97   9 2.28499 0.07617 -0.27987  0.60914  0.37205  0.81696  0.75642  0.52810 24934   3592 0.7718  43
  -2   6   5  279.77   20.56   9 1.70178 0.07695 -0.27987  0.52265  0.37205  0.89422  0.75642  0.43904 24934   3593 0.8086  43
  -1   6   5  113.78   17.14   9 1.53655 0.07604 -0.27987  0.72817  0.37205  0.88675  0.75642  0.32485 24934   3594 0.8219  43
  -1   5   5   14.65   11.88   9 1.77243 0.07647 -0.27987  0.66576  0.37205  0.81781  0.75642  0.49317 24934   3595 0.8049  43
  -2   7   6  127.64   23.17   9 1.40877 0.07704 -0.27987  0.58393  0.37205  0.88659  0.75642  0.43311 24934   3596 0.8287  43
  -2   6   6  124.83   19.06   9 1.58096 0.07732 -0.27987  0.50468  0.37205  0.80663  0.75642  0.57935 24934   3597 0.8161  43
  -1   6   6   18.10   16.13   9 1.44719 0.07653 -0.27987  0.70198  0.37205  0.81507  0.75642  0.46910 24934   3598 0.8271  43
  -3   1   4  708.58   25.28   9 2.56616 0.07582 -0.27987 -0.68273  0.37205 -0.56405  0.75642  0.68393 24934   3601 0.7549  46
  -3   1   5 1475.37   52.26   9 2.19146 0.07622 -0.27987 -0.54465  0.37205 -0.53563  0.75642  0.78161 24934   3602 0.7778  46
  -4   1   6   21.82   11.78   9 1.71418 0.07635 -0.27987 -0.62481  0.37205 -0.62785  0.75642  0.69061 24934   3603 0.8091  46
  -5   2   7   15.58   15.30   9 1.52602 0.07719 -0.27987 -0.63868  0.37205 -0.48677  0.75642  0.74479 24934   3604 0.8202  46
  -4   1   7  117.23   17.66   9 1.53412 0.07655 -0.27987 -0.53003  0.37205 -0.60064  0.75642  0.75423 24934   3605 0.8210  46
  -3  -1   5  985.65   43.22   9 1.53558 0.07292 -0.27987 -0.52714  0.37205 -0.94384  0.75642  0.32418 24934   3612 0.8286  47
  -4  -1   6  457.10   31.89   9 1.27114 0.07301 -0.27987 -0.57928  0.37205 -0.94014  0.75642  0.31660 24934   3613 0.8462  47
  -2  -2   3 1032.56   39.80   9 1.31296 0.07074 -0.27987 -0.31156  0.37205 -0.95986  0.75642 -0.20218 24934   3622 0.8478  48
  -1  -2   3  498.04   19.77   9 1.50642 0.07101 -0.27987 -0.17290  0.37205 -0.93316  0.75642 -0.11926 24934   3623 0.8346  48
  -2  -2   4  140.94   11.55   9 1.36690 0.07044 -0.27987 -0.33650  0.37205 -0.98368  0.75642  0.01399 24934   3624 0.8449  48
  -2  -3   4 1244.43   56.80   9 0.93149 0.07116 -0.27987 -0.20852  0.37205 -0.92726  0.75642 -0.23111 24934   3625 0.8726  48
  -4  -3   5  100.62   26.55   9 0.80864 0.06980 -0.27987 -0.38731  0.37205 -0.97540  0.75642 -0.18751 24934   3627 0.8832  48
  -3  -3   5   28.26   19.00   9 0.89628 0.06987 -0.27987 -0.32532  0.37205 -0.97456  0.75642 -0.12357 24934   3628 0.8771  48
  -2  -3   5  532.78   33.04   9 0.98373 0.06999 -0.27987 -0.23686  0.37205 -0.95801  0.75642 -0.06356 24934   3629 0.8711  48
  -2  -4   5  105.90   27.21   9 0.70829 0.07186 -0.27987 -0.14558  0.37205 -0.90014  0.75642 -0.25716 24934   3630 0.8869  48
  -3  -3   6  306.72   31.17   9 0.91021 0.06981 -0.27987 -0.33650  0.37205 -0.98368  0.75642  0.01399 24934   3634 0.8763  48
  -3  -4   6  117.59   33.02   9 0.70720 0.06991 -0.27987 -0.25048  0.37205 -0.95251  0.75642 -0.15737 24934   3635 0.8899  48
  -2  -4   6  802.68   59.22   9 0.75350 0.07001 -0.27987 -0.17290  0.37205 -0.93316  0.75642 -0.11926 24934   3636 0.8866  48
  -2  -4   7   93.11   28.90   9 0.76377 0.06953 -0.27987 -0.18064  0.37205 -0.94210  0.75642 -0.00026 24934   3642 0.8866  48
   0  -2   2 3956.37  137.93   9 1.23287 0.07877 -0.27987  0.09431  0.37205 -0.73969  0.75642 -0.40694 24934   3648 0.8379  49
  -1  -4   3  127.17   56.24   9 0.43716 0.08638 -0.27987  0.08400  0.37205 -0.66429  0.75642 -0.57256 24934   3650 0.8882  49
   0  -3   3   45.49   12.50   9 0.82211 0.07899 -0.27987  0.09431  0.37205 -0.73969  0.75642 -0.40694 24934   3651 0.8678  49
   1  -3   3  509.68   30.16   9 0.68791 0.08382 -0.27987  0.22633  0.37205 -0.62817  0.75642 -0.46477 24934   3652 0.8710  49
   0  -4   4 1757.02   95.87   9 0.61702 0.07910 -0.27987  0.09431  0.37205 -0.73969  0.75642 -0.40694 24934   3653 0.8832  49
   1  -4   4 1220.08   86.71   9 0.55011 0.08266 -0.27987  0.19556  0.37205 -0.65894  0.75642 -0.44525 24934   3654 0.8836  49
   2  -4   4  188.93   55.61   9 0.43212 0.08730 -0.27987  0.27885  0.37205 -0.56347  0.75642 -0.51332 24934   3655 0.8875  49
  -1  -5   5  319.20   69.47   9 0.50661 0.07749 -0.27987  0.01294  0.37205 -0.78769  0.75642 -0.39863 24934   3656 0.8938  49
   0  -5   5  332.32   73.96   9 0.49429 0.07916 -0.27987  0.09293  0.37205 -0.74038  0.75642 -0.40727 24934   3657 0.8926  49
   1  -5   5   70.16   61.02   9 0.45437 0.08211 -0.27987  0.17620  0.37205 -0.67553  0.75642 -0.43755 24934   3658 0.8920  49
   2  -4   5 1627.52   94.72   9 0.61217 0.07811 -0.27987  0.27839  0.37205 -0.64379  0.75642 -0.32417 24934   3659 0.8850  49
   0  -6   6  143.07   85.27   9 0.41053 0.07927 -0.27987  0.09323  0.37205 -0.73971  0.75642 -0.40853 24934   3661 0.8990  49
   2  -5   6   95.32   57.63   9 0.50258 0.07811 -0.27987  0.23888  0.37205 -0.67108  0.75642 -0.33122 24934   3662 0.8933  49
   3  -5   6  165.91   75.79   9 0.42849 0.08146 -0.27987  0.31055  0.37205 -0.59507  0.75642 -0.39097 24934   3663 0.8949  49
  -2  -3   1  218.51   10.06  10 2.43023 0.07510 -0.78557 -0.48373 -0.80072 -0.64692 -0.40124  0.73976 24935   3665 0.7654  13
  -2  -4   1 1402.50   54.69  10 2.04540 0.07548 -0.78557 -0.43526 -0.80072 -0.72244 -0.40124  0.68613 24935   3666 0.7892  13
  -3  -5   2   19.59   14.10  10 1.43107 0.07486 -0.78557 -0.39163 -0.80072 -0.58695 -0.40124  0.80165 24935   3667 0.8316  13
  -3  -6   2   28.03   17.78  10 1.29146 0.07512 -0.78557 -0.37259 -0.80072 -0.64360 -0.40124  0.76311 24935   3669 0.8407  13
  -3  -3   0  178.07   10.67  10 2.37025 0.07635 -0.78557 -0.80379 -0.80072 -0.78700 -0.40124  0.39520 24935   3676 0.7659  14
  -4  -4   0 1218.38   57.06  10 1.77627 0.07709 -0.78557 -0.80379 -0.80072 -0.78700 -0.40124  0.39520 24935   3678 0.8032  14
  -4  -5   0  105.19   18.57  10 1.57406 0.07734 -0.78557 -0.74014 -0.80072 -0.84127 -0.40124  0.39517 24935   3679 0.8166  14
  -6  -1  -3   15.00   12.48  10 1.74749 0.07731 -0.78557 -0.90568 -0.80072 -0.24167 -0.40124 -0.34682 24935   3685 0.8047  16
  -7  -1  -3  173.21   20.41  10 1.53300 0.07748 -0.78557 -0.92755 -0.80072 -0.22819 -0.40124 -0.25622 24935   3686 0.8191  16
  -5  -1  -2  173.72   11.91  10 2.13089 0.07681 -0.78557 -0.95863 -0.80072 -0.31052 -0.40124 -0.20747 24935   3690 0.7802  16
  -6  -1  -2   51.38   11.51  10 1.80753 0.07709 -0.78557 -0.96411 -0.80072 -0.27600 -0.40124 -0.11781 24935   3691 0.8011  16
  -8   1  -4   19.21   15.42  10 1.31142 0.07606 -0.78557 -0.68498 -0.80072  0.21104 -0.40124 -0.34967 24935   3694 0.8375  17
  -7   2  -3   31.98   12.88  10 1.43568 0.07402 -0.78557 -0.49770 -0.80072  0.47906 -0.40124 -0.21406 24935   3696 0.8330  17
  -8   2  -3  538.61   37.01  10 1.30002 0.07437 -0.78557 -0.57006 -0.80072  0.41350 -0.40124 -0.15631 24935   3697 0.8416  17
  -6   1  -3  255.63   16.98  10 1.73429 0.07545 -0.78557 -0.63508 -0.80072  0.28316 -0.40124 -0.33993 24935   3699 0.8098  17
  -7   1  -3   14.33   13.48  10 1.53365 0.07571 -0.78557 -0.69828 -0.80072  0.23003 -0.40124 -0.25525 24935   3700 0.8228  17
  -8   1  -3  177.19   21.33  10 1.36577 0.07587 -0.78557 -0.73934 -0.80072  0.19093 -0.40124 -0.18535 24935   3701 0.8341  17
  -6   1  -2  168.04   12.01  10 1.81331 0.07517 -0.78557 -0.69945 -0.80072  0.26057 -0.40124 -0.11899 24935   3703 0.8052  17
  -8   4  -4  212.02   25.83  10 0.98941 0.07057 -0.78557 -0.10065 -0.80072  0.79956 -0.40124 -0.16371 24935   3707 0.8697  18
  -8   4  -3  102.30   20.25  10 1.01078 0.07032 -0.78557 -0.11684 -0.80072  0.80122 -0.40124 -0.03222 24935   3712 0.8687  18
  -6   3  -3   64.65   10.54  10 1.32007 0.07096 -0.78557 -0.10045 -0.80072  0.79986 -0.40124 -0.16243 24935   3715 0.8469  18
  -7   3  -3  131.25   16.53  10 1.25931 0.07172 -0.78557 -0.24740 -0.80072  0.70677 -0.40124 -0.13865 24935   3716 0.8495  18
  -8   3  -3   14.66   14.30  10 1.17883 0.07235 -0.78557 -0.35729 -0.80072  0.62521 -0.40124 -0.10380 24935   3717 0.8537  18
  -6   3  -2  450.33   23.56  10 1.34578 0.07067 -0.78557 -0.11678 -0.80072  0.80161 -0.40124  0.01528 24935   3718 0.8458  18
  -7   3  -2  219.05   18.49  10 1.27321 0.07128 -0.78557 -0.25895 -0.80072  0.70644 -0.40124  0.03565 24935   3719 0.8494  18
  -5   2  -2   23.21    5.56  10 1.83372 0.07250 -0.78557 -0.30659 -0.80072  0.66407 -0.40124 -0.12335 24935   3721 0.8101  18
  -7   5  -2  111.00   25.09  10 0.71063 0.07292 -0.78557  0.30904 -0.80072  0.96006 -0.40124  0.19824 24935   3725 0.8852  19
  -8   5  -2   41.80   22.13  10 0.77431 0.07026 -0.78557  0.14742 -0.80072  0.91575 -0.40124  0.18136 24935   3726 0.8848  19
  -8   5  -1   83.26   28.76  10 0.71588 0.07177 -0.78557  0.19757 -0.80072  0.90765 -0.40124  0.29769 24935   3731 0.8865  19
  -9   5  -1   35.58   27.26  10 0.74593 0.06997 -0.78557  0.06052 -0.80072  0.85673 -0.40124  0.29255 24935   3732 0.8871  19
  -6   4  -1 1757.09   83.54  10 0.87678 0.07284 -0.78557  0.26224 -0.80072  0.93226 -0.40124  0.27472 24935   3733 0.8736  19
  -5   3  -1  357.48   19.33  10 1.28348 0.07081 -0.78557  0.11573 -0.80072  0.89753 -0.40124  0.21576 24935   3735 0.8496  19
  -8   5   0  162.07   39.29  10 0.62588 0.07403 -0.78557  0.27150 -0.80072  0.89412 -0.40124  0.39931 24935   3738 0.8896  19
  -9   5   0  109.25   36.91  10 0.67541 0.07111 -0.78557  0.12959 -0.80072  0.85134 -0.40124  0.39791 24935   3739 0.8903  19
  -8   4   0 1397.50   77.50  10 0.86097 0.07007 -0.78557  0.01420 -0.80072  0.80161 -0.40124  0.39768 24935   3742 0.8792  19
  -5   3   0   81.35   11.64  10 1.07879 0.07303 -0.78557  0.22178 -0.80072  0.88152 -0.40124  0.39873 24935   3743 0.8593  19
  -6   3   0  194.19   15.55  10 1.14803 0.07046 -0.78557  0.01290 -0.80072  0.80105 -0.40124  0.39748 24935   3744 0.8593  19
  -2   1   0  118.41    4.95  10 3.44693 0.07283 -0.78557  0.01420 -0.80072  0.80161 -0.40124  0.39768 24935   3746 0.7114  19
  -1  -1   3   28.68   16.66  10 0.54993 0.08915 -0.78557  0.65987 -0.80072  0.67744 -0.40124  0.63526 24935   3747 0.8751  20
   0  -2   3 1128.73   63.62  10 0.51987 0.08935 -0.78557  0.70566 -0.80072  0.64456 -0.40124  0.62335 24935   3748 0.8774  20
  -3   0   4  858.36   72.19  10 0.48714 0.08619 -0.78557  0.56557 -0.80072  0.69196 -0.40124  0.67594 24935   3749 0.8842  20
  -2  -1   4  894.35   63.43  10 0.54129 0.08511 -0.78557  0.58256 -0.80072  0.63842 -0.40124  0.70707 24935   3750 0.8811  20
  -1  -2   4  922.09   63.72  10 0.55014 0.08479 -0.78557  0.61891 -0.80072  0.59499 -0.40124  0.71291 24935   3751 0.8808  20
   1  -4   4 1092.47  105.23  10 0.44398 0.08649 -0.78557  0.71629 -0.80072  0.56884 -0.40124  0.65402 24935   3753 0.8875  20
  -3  -1   5  877.80   91.75  10 0.48079 0.08278 -0.78557  0.53231 -0.80072  0.62072 -0.40124  0.74096 24935   3754 0.8891  20
  -2  -2   5 1580.06  117.47  10 0.50017 0.08225 -0.78557  0.55907 -0.80072  0.57626 -0.40124  0.75501 24935   3755 0.8882  20
  -1  -3   5  960.01   90.45  10 0.49145 0.08234 -0.78557  0.60005 -0.80072  0.54334 -0.40124  0.74900 24935   3756 0.8888  20
   0  -4   5  263.38   61.67  10 0.45895 0.08298 -0.78557  0.64673 -0.80072  0.52708 -0.40124  0.72554 24935   3757 0.8906  20
   1  -5   5  139.54   74.53  10 0.41219 0.08400 -0.78557  0.69135 -0.80072  0.52544 -0.40124  0.69206 24935   3758 0.8932  20
  -4  -1   6  603.05  117.80  10 0.42187 0.08129 -0.78557  0.49917 -0.80072  0.60999 -0.40124  0.76003 24935   3759 0.8956  20
  -1  -4   6  371.69   92.01  10 0.43371 0.08073 -0.78557  0.58793 -0.80072  0.50866 -0.40124  0.76999 24935   3762 0.8954  20
   0  -4   3 1442.83   56.32  10 1.15396 0.07071 -0.78557  0.43912 -0.80072  0.11289 -0.40124  0.88995 24935   3766 0.8584  21
   1  -6   3  334.02   25.07  10 0.99199 0.07009 -0.78557  0.48640 -0.80072 -0.01358 -0.40124  0.82189 24935   3768 0.8703  21
   0  -5   4  160.57   22.57  10 0.85025 0.07119 -0.78557  0.46572 -0.80072  0.16712 -0.40124  0.88167 24935   3769 0.8781  21
  -1  -5   4   55.03   17.00  10 0.97145 0.06981 -0.78557  0.27455 -0.80072  0.00541 -0.40124  0.94944 24935   3770 0.8722  21
   0  -6   4  344.40   31.47  10 0.87789 0.06990 -0.78557  0.38945 -0.80072  0.01403 -0.40124  0.89710 24935   3771 0.8783  21
   1  -7   4  412.98   40.46  10 0.77421 0.07003 -0.78557  0.49461 -0.80072  0.05026 -0.40124  0.83881 24935   3772 0.8851  21
   0  -7   4  276.61   33.13  10 0.86725 0.06967 -0.78557  0.32865 -0.80072 -0.10646 -0.40124  0.89119 24935   3773 0.8794  21
   0  -6   5  799.96   65.51  10 0.67015 0.07156 -0.78557  0.48292 -0.80072  0.20080 -0.40124  0.87441 24935   3776 0.8900  21
   0  -7   5   26.67   25.94  10 0.69757 0.06988 -0.78557  0.41711 -0.80072  0.07086 -0.40124  0.89484 24935   3778 0.8906  21
   0  -4   1 2402.57   83.22  10 2.24864 0.07335 -0.78557  0.11253 -0.80072 -0.53814 -0.40124  0.71851 24935   3789 0.7816  22
   0  -5   1   89.93    7.12  10 1.88124 0.07368 -0.78557  0.08090 -0.80072 -0.60063 -0.40124  0.66744 24935   3790 0.8042  22
  -1  -5   2  197.98   14.87  10 1.56586 0.07305 -0.78557 -0.03522 -0.80072 -0.48312 -0.40124  0.84251 24935   3791 0.8264  22
  -1  -6   2   52.75   14.15  10 1.39402 0.07345 -0.78557 -0.04972 -0.80072 -0.54937 -0.40124  0.79417 24935   3792 0.8370  22
  -1  -7   2  144.40   21.16  10 1.24920 0.07375 -0.78557 -0.05605 -0.80072 -0.59617 -0.40124  0.75264 24935   3793 0.8463  22
   0  -8   2  438.08   37.17  10 1.12260 0.07284 -0.78557  0.11253 -0.80072 -0.53814 -0.40124  0.71851 24935   3794 0.8566  22
  -1  -7   3  226.28   27.68  10 1.08459 0.07198 -0.78557  0.05382 -0.80072 -0.41220 -0.40124  0.86024 24935   3799 0.8608  22
  -2  -4   0  360.07   15.63  10 2.29322 0.07632 -0.78557 -0.58061 -0.80072 -0.90593 -0.40124  0.39695 24935   3805 0.7709  23
  -2  -6   0   66.75   14.53  10 1.64547 0.07679 -0.78557 -0.44228 -0.80072 -0.91760 -0.40124  0.39705 24935   3807 0.8129  23
  -3  -6   0   16.99   15.63  10 1.52529 0.07721 -0.78557 -0.58040 -0.80072 -0.90535 -0.40124  0.39824 24935   3808 0.8202  23
  -7   0  -5   68.54   17.76  10 1.38787 0.07688 -0.78557 -0.66014 -0.80072  0.07714 -0.40124 -0.58577 24935   3817 0.8305  26
  -7   0  -4  237.54   23.13  10 1.48550 0.07690 -0.78557 -0.76266 -0.80072  0.02538 -0.40124 -0.44473 24935   3822 0.8236  26
  -4   0  -3  946.77   34.84  10 2.38945 0.07591 -0.78557 -0.63296 -0.80072  0.08988 -0.40124 -0.61578 24935   3824 0.7658  26
  -7   5  -6   86.95   29.05  10 0.70972 0.06983 -0.78557  0.31167 -0.80072  0.95951 -0.40124 -0.20414 24935   3830 0.8898  28
  -7   5  -5  119.11   27.47  10 0.74006 0.07002 -0.78557  0.28995 -0.80072  0.96673 -0.40124 -0.12468 24935   3834 0.8875  28
  -8   5  -5  190.48   34.04  10 0.78387 0.06945 -0.78557  0.14363 -0.80072  0.91787 -0.40124 -0.15800 24935   3835 0.8854  28
  -6   4  -4  578.02   35.37  10 0.95823 0.07001 -0.78557  0.21474 -0.80072  0.94398 -0.40124 -0.14379 24935   3841 0.8727  28
  -7   4  -4   77.83   17.89  10 0.99508 0.07002 -0.78557  0.04402 -0.80072  0.87497 -0.40124 -0.16737 24935   3842 0.8703  28
  -7   5  -3  207.77   29.08  10 0.75062 0.07156 -0.78557  0.28307 -0.80072  0.96923 -0.40124  0.08013 24935   3843 0.8844  28
  -8   5  -3   54.23   24.54  10 0.80375 0.06991 -0.78557  0.12754 -0.80072  0.92136 -0.40124  0.05588 24935   3844 0.8833  28
  -6   4  -3  866.39   42.94  10 0.98404 0.07028 -0.78557  0.19954 -0.80072  0.94820 -0.40124 -0.02011 24935   3845 0.8705  28
  -7   4  -3  217.94   20.53  10 1.02119 0.06987 -0.78557  0.02452 -0.80072  0.87742 -0.40124 -0.03749 24935   3846 0.8688  28
  -5   3  -3  244.16   15.45  10 1.31894 0.07029 -0.78557  0.09802 -0.80072  0.89932 -0.40124 -0.16234 24935   3847 0.8483  28
  -5   3  -2   20.21    8.03  10 1.35556 0.07042 -0.78557  0.07843 -0.80072  0.90248 -0.40124  0.01412 24935   3848 0.8457  28
  -3   2  -2  241.99    9.19  10 1.91861 0.07125 -0.78557  0.21474 -0.80072  0.94398 -0.40124 -0.14379 24935   3849 0.8077  28
  -4   4  -2 2567.30  157.10  10 0.47825 0.08774 -0.78557  0.64368 -0.80072  0.94308 -0.40124  0.26664 24935   3853 0.8830  29
  -8   6  -1  608.74  105.99  10 0.47190 0.07892 -0.78557  0.43290 -0.80072  0.94158 -0.40124  0.33395 24935   3854 0.8946  29
  -5   4  -1   43.11   18.73  10 0.67876 0.08048 -0.78557  0.48109 -0.80072  0.95263 -0.40124  0.30407 24935   3856 0.8765  29
  -7   5   0   91.69   46.31  10 0.51589 0.08037 -0.78557  0.43919 -0.80072  0.91604 -0.40124  0.40050 24935   3858 0.8894  29
  -5   4   0  714.60   76.37  10 0.46546 0.08765 -0.78557  0.57770 -0.80072  0.90464 -0.40124  0.40084 24935   3859 0.8842  29
  -6   4   1 2031.58  135.59  10 0.52647 0.08296 -0.78557  0.47101 -0.80072  0.87966 -0.40124  0.47424 24935   3862 0.8851  29
   0  -4   0  751.54   25.35  10 2.69432 0.07489 -0.78557 -0.01813 -0.80072 -0.80266 -0.40124  0.39993 24935   3864 0.7496  33
   0  -6   0 1875.02   68.12  10 1.79481 0.07529 -0.78557 -0.01813 -0.80072 -0.80266 -0.40124  0.39993 24935   3866 0.8061  33
   0  -7   0  129.30   15.96  10 1.53704 0.07538 -0.78557 -0.01813 -0.80072 -0.80266 -0.40124  0.39993 24935   3868 0.8233  33
   0  -8   0  100.51   19.53  10 1.34286 0.07545 -0.78557 -0.01813 -0.80072 -0.80266 -0.40124  0.39993 24935   3870 0.8365  33
   0  -8   1  317.83   30.13  10 1.24794 0.07431 -0.78557  0.03866 -0.80072 -0.68770 -0.40124  0.57617 24935   3876 0.8453  33
  -2  -6  -2  498.92   27.29  10 1.72363 0.07764 -0.78557 -0.49682 -0.80072 -0.99610 -0.40124 -0.08825 24935   3881 0.8056  34
  -3  -6  -2   43.73   19.78  10 1.59687 0.07800 -0.78557 -0.64128 -0.80072 -0.98349 -0.40124 -0.05423 24935   3882 0.8136  34
  -2  -7  -2   97.32   23.23  10 1.50807 0.07782 -0.78557 -0.45085 -0.80072 -0.99807 -0.40124 -0.02761 24935   3883 0.8202  34
  -2  -5  -1   78.55   11.30  10 2.00472 0.07708 -0.78557 -0.55873 -0.80072 -0.99068 -0.40124  0.11488 24935   3890 0.7879  34
  -3  -6  -1   51.90   17.06  10 1.58383 0.07770 -0.78557 -0.63145 -0.80072 -0.97030 -0.40124  0.17317 24935   3892 0.8151  34
  -2  -7  -1   30.29   17.30  10 1.49476 0.07745 -0.78557 -0.43840 -0.80072 -0.98048 -0.40124  0.18731 24935   3893 0.8219  34
  -5  -2  -5  105.44   18.52  10 1.62244 0.07769 -0.78557 -0.66052 -0.80072 -0.28822 -0.40124 -0.74924 24935   3899 0.8125  36
  -4  -1  -3  155.56   10.36  10 2.34786 0.07658 -0.78557 -0.78367 -0.80072 -0.24757 -0.40124 -0.59843 24935   3907 0.7667  36
  -6   1  -6  145.13   21.71  10 1.31165 0.07496 -0.78557 -0.28589 -0.80072  0.40867 -0.40124 -0.71593 24935   3912 0.8396  37
  -5   0  -6   35.62   13.41  10 1.45332 0.07579 -0.78557 -0.29144 -0.80072  0.25924 -0.40124 -0.83451 24935   3915 0.8282  37
  -5   1  -5   87.42   13.24  10 1.55170 0.07461 -0.78557 -0.25058 -0.80072  0.45422 -0.40124 -0.69959 24935   3917 0.8239  37
  -6   1  -5  370.07   25.10  10 1.45860 0.07528 -0.78557 -0.40701 -0.80072  0.36507 -0.40124 -0.63506 24935   3918 0.8289  37
  -4   0  -5  174.97   12.53  10 1.76084 0.07551 -0.78557 -0.25797 -0.80072  0.27647 -0.40124 -0.84514 24935   3919 0.8079  37
  -5   0  -5  446.36   23.44  10 1.64806 0.07615 -0.78557 -0.43835 -0.80072  0.18592 -0.40124 -0.76749 24935   3920 0.8141  37
  -3   0  -3   63.51    4.61  10 2.74889 0.07532 -0.78557 -0.43835 -0.80072  0.18592 -0.40124 -0.76749 24935   3923 0.7450  37
  -6   3  -7   69.27   24.72  10 0.93740 0.07059 -0.78557  0.16021 -0.80072  0.80176 -0.40124 -0.52911 24935   3931 0.8732  38
  -5   3  -6   62.07   19.39  10 0.99355 0.07000 -0.78557  0.26824 -0.80072  0.87447 -0.40124 -0.44409 24935   3935 0.8704  38
  -6   3  -6  315.15   31.04  10 1.03757 0.07084 -0.78557  0.09312 -0.80072  0.80063 -0.40124 -0.48288 24935   3936 0.8660  38
  -5   3  -5  131.25   20.55  10 1.10790 0.07016 -0.78557  0.20951 -0.80072  0.88314 -0.40124 -0.38505 24935   3938 0.8625  38
  -6   3  -5   49.99   16.45  10 1.14280 0.07101 -0.78557  0.02214 -0.80072  0.80144 -0.40124 -0.40816 24935   3939 0.8586  38
  -4   2  -5 1443.46   58.03  10 1.33843 0.07102 -0.78557  0.18961 -0.80072  0.80049 -0.40124 -0.54777 24935   3940 0.8456  38
  -5   2  -5  468.34   26.05  10 1.36698 0.07230 -0.78557 -0.02728 -0.80072  0.69805 -0.40124 -0.56914 24935   3941 0.8411  38
  -4   2  -4  134.66   11.07  10 1.55677 0.07141 -0.78557  0.09312 -0.80072  0.80063 -0.40124 -0.48288 24935   3942 0.8305  38
  -4   2  -3  829.90   29.72  10 1.79116 0.07168 -0.78557 -0.01282 -0.80072  0.80101 -0.40124 -0.36140 24935   3943 0.8147  38
  -5   5  -6   77.60   54.36  10 0.51358 0.07648 -0.78557  0.59479 -0.80072  0.99285 -0.40124 -0.03681 24935   3958 0.8946  39
  -4   4  -6 1046.08   78.95  10 0.61478 0.07455 -0.78557  0.60259 -0.80072  0.98433 -0.40124 -0.12183 24935   3960 0.8897  39
  -5   5  -5  384.14   69.34  10 0.51514 0.07833 -0.78557  0.59545 -0.80072  0.99275 -0.40124  0.03694 24935   3964 0.8921  39
  -6   5  -5   77.67   32.28  10 0.65423 0.07249 -0.78557  0.44588 -0.80072  0.99619 -0.40124 -0.06297 24935   3965 0.8898  39
  -4   4  -5  277.57   36.33  10 0.64082 0.07614 -0.78557  0.59599 -0.80072  0.99194 -0.40124 -0.05211 24935   3966 0.8856  39
  -3   3  -5   71.32   17.39  10 0.78922 0.07387 -0.78557  0.60992 -0.80072  0.97733 -0.40124 -0.15884 24935   3968 0.8782  39
  -7   6  -4  226.20   56.88  10 0.51905 0.07643 -0.78557  0.47915 -0.80072  0.99402 -0.40124  0.10724 24935   3969 0.8942  39
  -5   5  -4   71.24   43.83  10 0.49286 0.08134 -0.78557  0.60387 -0.80072  0.98408 -0.40124  0.12208 24935   3970 0.8899  39
  -6   5  -4  356.22   39.65  10 0.65900 0.07383 -0.78557  0.44455 -0.80072  0.99767 -0.40124  0.02704 24935   3971 0.8875  39
  -4   4  -4  446.97   39.91  10 0.64330 0.07828 -0.78557  0.59545 -0.80072  0.99275 -0.40124  0.03694 24935   3972 0.8824  39
  -3   3  -3   83.83   12.47  10 0.85804 0.07820 -0.78557  0.59545 -0.80072  0.99275 -0.40124  0.03694 24935   3975 0.8664  39
  -2   2  -3 2687.17   85.55  10 1.22894 0.07480 -0.78557  0.60259 -0.80072  0.98433 -0.40124 -0.12183 24935   3976 0.8456  39
  -2   2  -2 1081.43   35.07  10 1.28652 0.07805 -0.78557  0.59545 -0.80072  0.99275 -0.40124  0.03694 24935   3977 0.8354  39
  -1   1  -1  116.08    3.48  10 2.57561 0.07764 -0.78557  0.59545 -0.80072  0.99275 -0.40124  0.03694 24935   3978 0.7492  39
   0  -7  -2   15.77   12.90  10 1.62399 0.07669 -0.78557 -0.05955 -0.80072 -0.89278 -0.40124 -0.05845 24935   3979 0.8145  43
  -1  -7  -2  186.99   20.71  10 1.58407 0.07736 -0.78557 -0.27598 -0.80072 -0.96934 -0.40124 -0.04799 24935   3980 0.8158  43
   0  -8  -2  119.68   22.01  10 1.42168 0.07679 -0.78557 -0.06222 -0.80072 -0.89546 -0.40124 -0.00178 24935   3981 0.8283  43
   0  -5  -1    8.49    6.64  10 2.27217 0.07589 -0.78557 -0.05962 -0.80072 -0.89155 -0.40124  0.07956 24935   3987 0.7734  43
   0  -6  -1   82.92   10.91  10 1.88683 0.07610 -0.78557 -0.05768 -0.80072 -0.88566 -0.40124  0.13350 24935   3988 0.7981  43
  -1  -6  -1   38.58   10.71  10 1.82474 0.07684 -0.78557 -0.30332 -0.80072 -0.96760 -0.40124  0.14255 24935   3989 0.8005  43
   0  -7  -1  105.14   15.44  10 1.61030 0.07620 -0.78557 -0.05468 -0.80072 -0.87882 -0.40124  0.17413 24935   3990 0.8165  43
  -1  -7  -1   57.33   15.89  10 1.56915 0.07695 -0.78557 -0.26755 -0.80072 -0.95396 -0.40124  0.17744 24935   3991 0.8178  43
   0  -8  -1  310.38   28.07  10 1.40485 0.07625 -0.78557 -0.05208 -0.80072 -0.87281 -0.40124  0.20313 24935   3992 0.8306  43
  -4  -2  -7  122.40   20.83  10 1.37931 0.07684 -0.78557 -0.23678 -0.80072 -0.02269 -0.40124 -0.96526 24935   4000 0.8312  46
  -4  -1  -6  398.41   25.63  10 1.56626 0.07631 -0.78557 -0.25915 -0.80072  0.09938 -0.40124 -0.92895 24935   4003 0.8193  46
  -5  -1  -6  164.00   21.40  10 1.48510 0.07688 -0.78557 -0.42678 -0.80072  0.02553 -0.40124 -0.86125 24935   4004 0.8237  46
  -4  -2  -6  833.15   41.93  10 1.56354 0.07718 -0.78557 -0.37266 -0.80072 -0.13019 -0.40124 -0.92570 24935   4005 0.8176  46
  -4  -1  -5   98.48   12.72  10 1.80410 0.07665 -0.78557 -0.42029 -0.80072 -0.00703 -0.40124 -0.87656 24935   4006 0.8024  46
  -3  -1  -4  928.40   33.83  10 2.29645 0.07622 -0.78557 -0.40568 -0.80072 -0.05399 -0.40124 -0.89771 24935   4007 0.7710  46
  -2  -1  -3  363.13   13.67  10 3.13077 0.07535 -0.78557 -0.37266 -0.80072 -0.13019 -0.40124 -0.92570 24935   4008 0.7217  46
  -5   1  -7  224.77   26.27  10 1.19422 0.07357 -0.78557 -0.01197 -0.80072  0.53252 -0.40124 -0.78308 24935   4017 0.8504  47
  -4   1  -6   89.37   15.07  10 1.36661 0.07293 -0.78557  0.07683 -0.80072  0.59652 -0.40124 -0.76078 24935   4018 0.8399  47
  -4   1  -5  845.34   37.09  10 1.60515 0.07358 -0.78557 -0.04668 -0.80072  0.56115 -0.40124 -0.73642 24935   4019 0.8226  47
  -3   1  -4  765.41   28.96  10 1.93275 0.07282 -0.78557  0.07085 -0.80072  0.65698 -0.40124 -0.69273 24935   4020 0.8030  47
  -3   2  -8  255.78   34.84  10 0.78900 0.06969 -0.78557  0.55306 -0.80072  0.85881 -0.40124 -0.49199 24935   4031 0.8846  48
  -4   3  -7  115.40   25.80  10 0.79867 0.06994 -0.78557  0.48995 -0.80072  0.91974 -0.40124 -0.39099 24935   4032 0.8836  48
  -3   2  -7   86.62   19.06  10 0.89717 0.06980 -0.78557  0.52135 -0.80072  0.86749 -0.40124 -0.48706 24935   4033 0.8772  48
  -3   2  -6   35.22   14.28  10 1.03504 0.06995 -0.78557  0.47964 -0.80072  0.87756 -0.40124 -0.47714 24935   4035 0.8677  48
  -4   3  -5  978.34   46.05  10 0.99792 0.07029 -0.78557  0.41499 -0.80072  0.94992 -0.40124 -0.30471 24935   4036 0.8696  48
  -3   2  -5 1715.05   66.14  10 1.20849 0.07014 -0.78557  0.42822 -0.80072  0.89035 -0.40124 -0.45485 24935   4037 0.8559  48
  -2   3  -8  278.35   88.35  10 0.45962 0.07764 -0.78557  0.75297 -0.80072  0.93728 -0.40124 -0.11710 24935   4039 0.8972  49
  -1   2  -8  161.07   60.95  10 0.49056 0.07695 -0.78557  0.78744 -0.80072  0.91081 -0.40124 -0.15306 24935   4040 0.8957  49
  -2   3  -7   72.93   55.35  10 0.47952 0.07901 -0.78557  0.75116 -0.80072  0.94369 -0.40124 -0.07367 24935   4041 0.8939  49
  -1   2  -7  119.45   52.77  10 0.52463 0.07807 -0.78557  0.78675 -0.80072  0.91828 -0.40124 -0.11689 24935   4042 0.8917  49
   0   1  -7  435.52   64.83  10 0.55244 0.07753 -0.78557  0.82918 -0.80072  0.88236 -0.40124 -0.14396 24935   4043 0.8903  49
   1   0  -7   47.38   38.34  10 0.55364 0.07743 -0.78557  0.87008 -0.80072  0.84266 -0.40124 -0.14635 24935   4044 0.8903  49
   2  -1  -7   88.40   47.27  10 0.53633 0.07768 -0.78557  0.90789 -0.80072  0.79990 -0.40124 -0.12709 24935   4045 0.8913  49
  -1   2  -6 2614.31  153.31  10 0.55381 0.07985 -0.78557  0.78639 -0.80072  0.92482 -0.40124 -0.06899 24935   4047 0.8871  49
   0   1  -6  188.78   37.70  10 0.59385 0.07901 -0.78557  0.83172 -0.80072  0.88873 -0.40124 -0.10054 24935   4048 0.8851  49
   1   0  -6  180.01   37.93  10 0.59850 0.07882 -0.78557  0.87708 -0.80072  0.84459 -0.40124 -0.10435 24935   4049 0.8850  49
  -2   3  -5 2029.24  142.97  10 0.48484 0.08440 -0.78557  0.74983 -0.80072  0.94562 -0.40124  0.05905 24935   4050 0.8867  49
   0   1  -5 1751.10   87.93  10 0.62561 0.08155 -0.78557  0.83395 -0.80072  0.89357 -0.40124 -0.04090 24935   4052 0.8792  49
   1   0  -5 1913.33   92.52  10 0.63341 0.08127 -0.78557  0.88180 -0.80072  0.84736 -0.40124 -0.04634 24935   4053 0.8789  49
  -1   2  -4  617.21   50.33  10 0.54032 0.08678 -0.78557  0.78572 -0.80072  0.92195 -0.40124  0.09695 24935   4054 0.8790  49
   0   1  -4  752.05   43.93  10 0.62347 0.08536 -0.78557  0.83287 -0.80072  0.89387 -0.40124  0.04898 24935   4055 0.8740  49
   1   0  -4 1057.97   53.77  10 0.63517 0.08506 -0.78557  0.88187 -0.80072  0.84755 -0.40124  0.04317 24935   4056 0.8735  49
   1  -5  -1   32.70    5.25  11 2.24415 0.07481 -0.43150 -0.07224 -0.68093 -0.82322 -0.72476  0.41080 24936   4057 0.7780  13
   0  -6  -1   66.13    8.51  11 1.73430 0.07502 -0.43150 -0.34779 -0.68093 -0.87186 -0.72476  0.47907 24936   4058 0.8108  13
   1  -6  -1   13.92    7.60  11 1.82762 0.07469 -0.43150 -0.11396 -0.68093 -0.81576 -0.72476  0.46835 24936   4059 0.8053  13
   1  -7  -1   28.65   11.57  11 1.53534 0.07452 -0.43150 -0.14371 -0.68093 -0.80697 -0.72476  0.50874 24936   4060 0.8252  13
   1  -8  -1   41.24   15.79  11 1.32118 0.07432 -0.43150 -0.16277 -0.68093 -0.79732 -0.72476  0.53860 24936   4061 0.8402  13
   1  -8  -2  138.74   19.45  11 1.41503 0.07583 -0.43150 -0.20362 -0.68093 -0.90127 -0.72476  0.32614 24936   4062 0.8307  13
   2  -9  -2  162.59   22.79  11 1.26146 0.07521 -0.43150 -0.04164 -0.68093 -0.82439 -0.72476  0.37054 24936   4064 0.8426  13
   0  -5  -2  214.65   12.35  11 2.24466 0.07627 -0.43150 -0.40510 -0.68093 -0.99041 -0.72476  0.09084 24936   4068 0.7742  14
  -1  -6  -3   33.46   13.03  11 1.72878 0.07719 -0.43150 -0.59956 -0.68093 -0.99285 -0.72476 -0.00778 24936   4069 0.8063  14
   0  -6  -3  158.54   14.67  11 1.87210 0.07707 -0.43150 -0.40515 -0.68093 -0.99215 -0.72476 -0.06790 24936   4070 0.7968  14
  -1  -7  -3   27.81   17.53  11 1.49256 0.07719 -0.43150 -0.57303 -0.68093 -0.99194 -0.72476  0.09025 24936   4071 0.8226  14
   0  -8  -3  206.67   26.03  11 1.39736 0.07702 -0.43150 -0.40248 -0.68093 -0.98567 -0.72476  0.13253 24936   4073 0.8295  14
  -3  -2  -3  239.59   12.06  11 2.33944 0.07631 -0.43150 -0.96089 -0.68093 -0.53757 -0.72476 -0.26897 24936   4079 0.7680  16
  -4  -2  -4  379.51   20.24  11 1.84927 0.07675 -0.43150 -0.94436 -0.68093 -0.41903 -0.72476 -0.32315 24936   4080 0.7991  16
  -3  -2  -4  903.82   35.53  11 2.17615 0.07677 -0.43150 -0.86164 -0.68093 -0.45086 -0.72476 -0.50699 24936   4081 0.7774  16
  -3  -3  -4  193.86   13.39  11 1.97526 0.07715 -0.43150 -0.89078 -0.68093 -0.64189 -0.72476 -0.39373 24936   4082 0.7897  16
  -5  -2  -5   78.46   16.61  11 1.52075 0.07695 -0.43150 -0.92458 -0.68093 -0.33544 -0.72476 -0.35170 24936   4083 0.8211  16
  -4  -3  -5  216.61   19.86  11 1.62574 0.07752 -0.43150 -0.89939 -0.68093 -0.53077 -0.72476 -0.42700 24936   4085 0.8126  16
  -6   0  -4  310.19   24.18  11 1.42071 0.07440 -0.43150 -0.83938 -0.68093  0.04553 -0.72476 -0.08288 24936   4091 0.8332  17
  -5   0  -4  136.83   12.83  11 1.67214 0.07497 -0.43150 -0.81288 -0.68093  0.05908 -0.72476 -0.22424 24936   4092 0.8150  17
  -6  -1  -4  435.49   30.34  11 1.40784 0.07529 -0.43150 -0.93112 -0.68093 -0.15648 -0.72476 -0.07509 24936   4093 0.8323  17
  -5  -1  -4   53.54   11.38  11 1.65316 0.07587 -0.43150 -0.92134 -0.68093 -0.17936 -0.72476 -0.21358 24936   4094 0.8144  17
  -7   0  -5   59.31   20.25  11 1.20862 0.07466 -0.43150 -0.83207 -0.68093  0.04994 -0.72476 -0.13468 24936   4095 0.8473  17
  -6   0  -5  652.93   39.62  11 1.38255 0.07516 -0.43150 -0.80361 -0.68093  0.06334 -0.72476 -0.25636 24936   4096 0.8343  17
  -5   1  -2  200.82   12.57  11 1.55468 0.07109 -0.43150 -0.61154 -0.68093  0.33450 -0.72476  0.28184 24936   4104 0.8313  18
  -4   1  -2   12.00    4.48  11 1.95698 0.07178 -0.43150 -0.58944 -0.68093  0.38963 -0.72476  0.16768 24936   4105 0.8039  18
  -8   2  -3  559.79   41.83  11 0.92665 0.06994 -0.43150 -0.53543 -0.68093  0.40611 -0.72476  0.32852 24936   4106 0.8750  18
  -8   1  -3  218.12   26.05  11 0.99541 0.07085 -0.43150 -0.68155 -0.68093  0.23742 -0.72476  0.29958 24936   4107 0.8688  18
  -7   1  -3   30.83   13.67  11 1.15810 0.07134 -0.43150 -0.68741 -0.68093  0.25231 -0.72476  0.23202 24936   4108 0.8570  18
  -6   1  -3  308.42   19.93  11 1.36155 0.07187 -0.43150 -0.68445 -0.68093  0.27661 -0.72476  0.14466 24936   4109 0.8424  18
  -8   2  -4  222.64   27.86  11 0.97764 0.07074 -0.43150 -0.58839 -0.68093  0.39055 -0.72476  0.16920 24936   4112 0.8702  18
  -7   2  -4   18.26   15.09  11 1.10648 0.07107 -0.43150 -0.55969 -0.68093  0.43302 -0.72476  0.09581 24936   4113 0.8609  18
  -8   1  -4   28.36   18.06  11 1.03526 0.07198 -0.43150 -0.72783 -0.68093  0.21858 -0.72476  0.13368 24936   4116 0.8641  18
  -7   1  -4  395.84   28.41  11 1.18989 0.07252 -0.43150 -0.72121 -0.68093  0.23782 -0.72476  0.04871 24936   4117 0.8526  18
  -7   1   0  210.51   33.24  11 0.73005 0.07252 -0.43150 -0.27685 -0.68093  0.40999 -0.72476  0.72274 24936   4124 0.8844  19
  -5   1   0  735.23   37.53  11 0.94357 0.07448 -0.43150 -0.20207 -0.68093  0.47110 -0.72476  0.72299 24936   4126 0.8662  19
  -8   2  -1  500.85   54.27  11 0.70362 0.07160 -0.43150 -0.30316 -0.68093  0.47208 -0.72476  0.62409 24936   4132 0.8876  19
  -7   2  -1   67.05   21.95  11 0.78823 0.07207 -0.43150 -0.27352 -0.68093  0.50598 -0.72476  0.61186 24936   4133 0.8810  19
  -6   2  -1 1914.26   89.11  11 0.88719 0.07270 -0.43150 -0.23008 -0.68093  0.55060 -0.72476  0.59691 24936   4134 0.8731  19
  -8   1  -1   53.90   22.19  11 0.80338 0.06988 -0.43150 -0.46676 -0.68093  0.32299 -0.72476  0.60779 24936   4137 0.8834  19
  -7   1  -1   26.39   14.16  11 0.92247 0.07004 -0.43150 -0.46488 -0.68093  0.33781 -0.72476  0.59187 24936   4138 0.8751  19
  -9   3  -2   52.35   34.22  11 0.64820 0.07107 -0.43150 -0.29273 -0.68093  0.53724 -0.72476  0.53965 24936   4145 0.8923  19
  -9   2  -2   83.40   29.63  11 0.73979 0.06970 -0.43150 -0.45174 -0.68093  0.40589 -0.72476  0.51359 24936   4147 0.8880  19
  -8   2  -2   42.67   22.09  11 0.83698 0.06983 -0.43150 -0.44269 -0.68093  0.43165 -0.72476  0.48527 24936   4148 0.8812  19
  -1  -6   4  317.16  109.42  11 0.41342 0.08102 -0.43150  0.18185 -0.68093  0.27919 -0.72476  0.95900 24936   4149 0.8966  20
   0  -7   4  135.65   75.67  11 0.42605 0.07912 -0.43150  0.20587 -0.68093  0.23306 -0.72476  0.96698 24936   4150 0.8979  20
  -1  -4   3  165.28   41.87  11 0.50452 0.08371 -0.43150  0.20365 -0.68093  0.34187 -0.72476  0.93899 24936   4153 0.8860  20
  -1  -5   3  360.10   40.19  11 0.60772 0.07690 -0.43150  0.11149 -0.68093  0.17996 -0.72476  0.98336 24936   4154 0.8870  20
   0  -5   3  431.69   55.25  11 0.54343 0.08093 -0.43150  0.22625 -0.68093  0.27452 -0.72476  0.95608 24936   4155 0.8865  20
   1  -5   3  117.82   59.24  11 0.41842 0.08691 -0.43150  0.33491 -0.68093  0.39847 -0.72476  0.90370 24936   4156 0.8891  20
   1  -6   3  271.75   50.17  11 0.54536 0.07898 -0.43150  0.26574 -0.68093  0.23122 -0.72476  0.95733 24936   4157 0.8889  20
   2  -7   3   86.15   44.34  11 0.52331 0.07800 -0.43150  0.31242 -0.68093  0.21057 -0.72476  0.94787 24936   4159 0.8919  20
   3  -7   3   65.89   59.50  11 0.41923 0.08324 -0.43150  0.39819 -0.68093  0.33655 -0.72476  0.90347 24936   4160 0.8935  20
   3  -8   3  108.90   51.51  11 0.49137 0.07745 -0.43150  0.35495 -0.68093  0.20356 -0.72476  0.93440 24936   4161 0.8950  20
   0  -3   2   39.14   11.53  11 0.71071 0.08469 -0.43150  0.27159 -0.68093  0.36293 -0.72476  0.92599 24936   4162 0.8679  20
   1  -4   2   22.41   11.73  11 0.74106 0.08146 -0.43150  0.31940 -0.68093  0.29339 -0.72476  0.93496 24936   4163 0.8702  20
   2  -5   2   43.72   15.73  11 0.69258 0.07982 -0.43150  0.37744 -0.68093  0.26818 -0.72476  0.92148 24936   4164 0.8764  20
   3  -5   2   43.47   35.92  11 0.43530 0.08812 -0.43150  0.46281 -0.68093  0.45386 -0.72476  0.84843 24936   4165 0.8862  20
   3  -9   2   30.68   29.44  11 0.69553 0.07006 -0.43150  0.27438 -0.68093 -0.09717 -0.72476  0.92276 24936   4166 0.8905  21
   2  -5   1  276.72   15.50  11 1.24927 0.07105 -0.43150  0.33543 -0.68093 -0.06502 -0.72476  0.90292 24936   4173 0.8514  21
   2  -6   1 1885.56   72.39  11 1.17528 0.07026 -0.43150  0.25332 -0.68093 -0.19674 -0.72476  0.89240 24936   4174 0.8578  21
   3  -6   1   12.24   10.68  11 1.01022 0.07137 -0.43150  0.42820 -0.68093  0.00157 -0.72476  0.86972 24936   4175 0.8669  21
   3  -7   1   45.89   15.41  11 0.98366 0.07018 -0.43150  0.35579 -0.68093 -0.12757 -0.72476  0.86545 24936   4176 0.8707  21
   4  -8   1   23.93   19.67  11 0.83280 0.07015 -0.43150  0.42964 -0.68093 -0.06280 -0.72476  0.84419 24936   4178 0.8810  21
   3  -9   1   58.05   21.10  11 0.87069 0.06970 -0.43150  0.23473 -0.68093 -0.29281 -0.72476  0.84887 24936   4179 0.8791  21
   5  -9   1   40.55   26.82  11 0.71048 0.07029 -0.43150  0.48129 -0.68093 -0.01010 -0.72476  0.82736 24936   4181 0.8891  21
   2  -5  -1  327.85   13.25  11 2.17923 0.07390 -0.43150  0.26664 -0.68093 -0.61761 -0.72476  0.42076 24936   4187 0.7845  22
   2  -6  -1 1555.12   58.24  11 1.81523 0.07392 -0.43150  0.15770 -0.68093 -0.67341 -0.72476  0.46970 24936   4188 0.8080  22
   2  -7  -1   72.10   11.77  11 1.54336 0.07386 -0.43150  0.08368 -0.68093 -0.70042 -0.72476  0.50833 24936   4189 0.8261  22
   2  -8  -1  623.13   35.83  11 1.33661 0.07376 -0.43150  0.02971 -0.68093 -0.71454 -0.72476  0.53830 24936   4191 0.8403  22
   3  -8  -1   74.72   16.32  11 1.30077 0.07287 -0.43150  0.23501 -0.68093 -0.58079 -0.72476  0.54279 24936   4192 0.8444  22
   3  -9  -1   85.41   20.31  11 1.15946 0.07292 -0.43150  0.16911 -0.68093 -0.61602 -0.72476  0.56301 24936   4193 0.8540  22
   3  -9  -2   86.24   19.14  11 1.24915 0.07457 -0.43150  0.14885 -0.68093 -0.71812 -0.72476  0.37463 24936   4198 0.8447  22
   1  -5  -2  479.32   18.92  11 2.37488 0.07596 -0.43150 -0.09986 -0.68093 -0.91028 -0.72476  0.05560 24936   4204 0.7666  23
   1  -6  -3  270.98   15.32  11 1.96397 0.07683 -0.43150 -0.15468 -0.68093 -0.92810 -0.72476 -0.10498 24936   4206 0.7912  23
   1  -7  -3   40.64   12.72  11 1.67993 0.07690 -0.43150 -0.19548 -0.68093 -0.94697 -0.72476  0.01429 24936   4207 0.8102  23
   1  -8  -3   43.12   16.63  11 1.46034 0.07684 -0.43150 -0.22184 -0.68093 -0.95030 -0.72476  0.10667 24936   4208 0.8255  23
   2  -8  -3   48.94   15.92  11 1.48429 0.07647 -0.43150 -0.01151 -0.68093 -0.86758 -0.72476  0.09772 24936   4209 0.8246  23
   1  -8  -4   27.68   16.73  11 1.45875 0.07752 -0.43150 -0.22127 -0.68093 -0.95082 -0.72476 -0.09912 24936   4211 0.8242  23
  -4  -1  -4  360.01   17.12  11 1.95614 0.07625 -0.43150 -0.87813 -0.68093 -0.19245 -0.72476 -0.38445 24936   4216 0.7931  26
  -3  -1  -4  916.76   34.37  11 2.32000 0.07630 -0.43150 -0.77394 -0.68093 -0.18194 -0.72476 -0.58734 24936   4217 0.7692  26
  -5  -1  -5  357.12   23.90  11 1.57505 0.07643 -0.43150 -0.85750 -0.68093 -0.13967 -0.72476 -0.39150 24936   4218 0.8185  26
  -4  -1  -5   92.28   11.33  11 1.80586 0.07665 -0.43150 -0.77614 -0.68093 -0.12506 -0.72476 -0.55261 24936   4219 0.8023  26
  -5  -1  -6  153.68   19.72  11 1.47577 0.07679 -0.43150 -0.77440 -0.68093 -0.08656 -0.72476 -0.52896 24936   4220 0.8245  26
  -5  -2  -6  240.12   23.86  11 1.43710 0.07735 -0.43150 -0.85174 -0.68093 -0.28233 -0.72476 -0.49706 24936   4222 0.8261  26
  -2   1  -1   28.66    1.72  11 2.99585 0.07250 -0.43150 -0.23733 -0.68093  0.68177 -0.72476  0.29900 24936   4229 0.7385  28
  -6   2  -2 1562.44   62.45  11 1.10351 0.07024 -0.43150 -0.39119 -0.68093  0.51782 -0.72476  0.41031 24936   4230 0.8626  28
  -5   2  -2   18.37    8.54  11 1.28922 0.07054 -0.43150 -0.33794 -0.68093  0.58490 -0.72476  0.35783 24936   4231 0.8498  28
  -4   2  -2 1931.55   67.26  11 1.49602 0.07095 -0.43150 -0.23733 -0.68093  0.68177 -0.72476  0.29900 24936   4232 0.8354  28
  -8   4  -3  185.65   33.70  11 0.66728 0.07188 -0.43150 -0.16581 -0.68093  0.68148 -0.72476  0.43984 24936   4233 0.8897  28
  -9   3  -3  130.94   35.89  11 0.73479 0.06971 -0.43150 -0.39119 -0.68093  0.51782 -0.72476  0.41031 24936   4234 0.8883  28
  -8   3  -3   69.06   22.96  11 0.81586 0.06985 -0.43150 -0.35971 -0.68093  0.55992 -0.72476  0.37540 24936   4235 0.8826  28
  -7   3  -3  183.64   23.20  11 0.90388 0.07005 -0.43150 -0.31002 -0.68093  0.61446 -0.72476  0.33828 24936   4236 0.8763  28
  -6   3  -3   72.84   15.26  11 0.99792 0.07030 -0.43150 -0.23719 -0.68093  0.68225 -0.72476  0.29765 24936   4237 0.8696  28
  -5   2  -3  266.73   14.32  11 1.41468 0.07071 -0.43150 -0.41092 -0.68093  0.57701 -0.72476  0.12161 24936   4238 0.8412  28
  -8   4  -4  219.15   35.75  11 0.74774 0.06995 -0.43150 -0.23733 -0.68093  0.68177 -0.72476  0.29900 24936   4243 0.8870  28
  -7   4  -4   76.22   22.93  11 0.79691 0.07018 -0.43150 -0.16110 -0.68093  0.74073 -0.72476  0.27332 24936   4244 0.8834  28
  -8   3  -4  305.19   33.22  11 0.88015 0.06976 -0.43150 -0.42094 -0.68093  0.55064 -0.72476  0.22455 24936   4245 0.8784  28
  -8   4  -5  341.39   39.91  11 0.79253 0.06945 -0.43150 -0.27595 -0.68093  0.68264 -0.72476  0.16116 24936   4251 0.8848  28
  -7   2   0   83.94   37.77  11 0.57202 0.07816 -0.43150 -0.07999 -0.68093  0.55343 -0.72476  0.72392 24936   4257 0.8879  29
  -6   2   0  417.21   48.52  11 0.58778 0.08104 -0.43150 -0.00677 -0.68093  0.59426 -0.72476  0.72368 24936   4258 0.8828  29
  -5   2   0   52.40   26.93  11 0.56288 0.08535 -0.43150  0.09428 -0.68093  0.63875 -0.72476  0.72418 24936   4259 0.8790  29
  -3   1   0    8.58    4.89  11 1.17819 0.08049 -0.43150 -0.00708 -0.68093  0.59323 -0.72476  0.72464 24936   4260 0.8387  29
  -7   3  -1   53.87   31.91  11 0.58945 0.07783 -0.43150 -0.05250 -0.68093  0.63707 -0.72476  0.64077 24936   4262 0.8871  29
  -5   3  -1  354.12   43.86  11 0.54187 0.08571 -0.43150  0.14960 -0.68093  0.72204 -0.72476  0.64734 24936   4264 0.8803  29
   2  -5  -2   11.21    5.35  11 2.32364 0.07537 -0.43150  0.25662 -0.68093 -0.70647 -0.72476  0.07074 24936   4265 0.7715  33
   2  -6  -2  189.46   11.21  11 1.95343 0.07550 -0.43150  0.13926 -0.68093 -0.77444 -0.72476  0.17512 24936   4266 0.7951  33
   3  -7  -2   81.35   11.91  11 1.60215 0.07456 -0.43150  0.31060 -0.68093 -0.63278 -0.72476  0.27466 24936   4267 0.8207  33
   3  -7  -3  231.06   16.74  11 1.64772 0.07576 -0.43150  0.30684 -0.68093 -0.67043 -0.72476  0.02967 24936   4268 0.8149  33
   3  -8  -3  129.18   17.24  11 1.45903 0.07584 -0.43150  0.21191 -0.68093 -0.73521 -0.72476  0.10811 24936   4269 0.8277  33
   4  -8  -3  123.84   17.69  11 1.38265 0.07481 -0.43150  0.42891 -0.68093 -0.55809 -0.72476  0.14242 24936   4270 0.8350  33
   1  -4  -3  572.86   20.03  11 2.77617 0.07599 -0.43150  0.01894 -0.68093 -0.76484 -0.72476 -0.44746 24936   4281 0.7413  34
   1  -5  -4  367.57   16.99  11 2.17376 0.07698 -0.43150 -0.05275 -0.68093 -0.77563 -0.72476 -0.49870 24936   4283 0.7770  34
   1  -6  -4  372.01   19.73  11 1.89559 0.07730 -0.43150 -0.13174 -0.68093 -0.87086 -0.72476 -0.34442 24936   4284 0.7947  34
   1  -7  -5  101.70   20.76  11 1.59121 0.07788 -0.43150 -0.16164 -0.68093 -0.86253 -0.72476 -0.39888 24936   4285 0.8142  34
   2  -7  -5   52.67   17.40  11 1.60222 0.07757 -0.43150  0.07367 -0.68093 -0.75224 -0.72476 -0.40544 24936   4286 0.8141  34
  -3  -2  -5  483.70   22.46  11 1.97432 0.07715 -0.43150 -0.74072 -0.68093 -0.34772 -0.72476 -0.67130 24936   4294 0.7898  36
  -3  -2  -6   22.57   12.78  11 1.76942 0.07745 -0.43150 -0.62042 -0.68093 -0.24266 -0.72476 -0.78038 24936   4296 0.8029  36
  -2  -2  -6  151.12   13.75  11 1.92426 0.07729 -0.43150 -0.42382 -0.68093 -0.17755 -0.72476 -0.90488 24936   4297 0.7928  36
  -4  -2  -7  111.43   21.37  11 1.47252 0.07768 -0.43150 -0.66170 -0.68093 -0.19681 -0.72476 -0.73362 24936   4298 0.8229  36
  -3  -2  -7   42.98   16.61  11 1.58962 0.07766 -0.43150 -0.51207 -0.68093 -0.14850 -0.72476 -0.84992 24936   4299 0.8148  36
  -3  -3  -7  120.96   23.88  11 1.53981 0.07805 -0.43150 -0.59721 -0.68093 -0.35141 -0.72476 -0.79976 24936   4301 0.8174  36
  -2   0  -3  618.45   21.08  11 3.25382 0.07489 -0.43150 -0.53385 -0.68093  0.19639 -0.72476 -0.65482 24936   4307 0.7159  37
  -4   1  -5  881.85   34.67  11 1.69674 0.07442 -0.43150 -0.45097 -0.68093  0.42780 -0.72476 -0.47707 24936   4309 0.8147  37
  -4   0  -5  158.21   11.84  11 1.80282 0.07582 -0.43150 -0.63927 -0.68093  0.14491 -0.72476 -0.55099 24936   4310 0.8044  37
  -3   0  -5   97.14    7.78  11 2.02041 0.07584 -0.43150 -0.46823 -0.68093  0.23054 -0.72476 -0.70206 24936   4311 0.7899  37
  -4   0  -6  373.89   21.68  11 1.62501 0.07609 -0.43150 -0.53385 -0.68093  0.19639 -0.72476 -0.65482 24936   4314 0.8158  37
  -5   1  -7  222.53   23.56  11 1.29843 0.07500 -0.43150 -0.43537 -0.68093  0.39091 -0.72476 -0.56268 24936   4316 0.8404  37
  -5   0  -7   90.98   18.85  11 1.35488 0.07622 -0.43150 -0.57471 -0.68093  0.17629 -0.72476 -0.61894 24936   4318 0.8341  37
  -2   1  -2   36.67    2.43  11 3.17303 0.07277 -0.43150 -0.27400 -0.68093  0.68227 -0.72476 -0.17319 24936   4325 0.7274  38
  -4   2  -3  912.41   33.70  11 1.62108 0.07090 -0.43150 -0.29166 -0.68093  0.68200 -0.72476  0.03457 24936   4326 0.8274  38
  -5   2  -4 1091.34   44.26  11 1.42552 0.07157 -0.43150 -0.41573 -0.68093  0.57642 -0.72476 -0.08390 24936   4327 0.8387  38
  -4   2  -4  152.78   11.05  11 1.58493 0.07161 -0.43150 -0.27400 -0.68093  0.68227 -0.72476 -0.17319 24936   4328 0.8282  38
  -7   3  -5  203.37   27.75  11 0.99630 0.07038 -0.43150 -0.38374 -0.68093  0.60770 -0.72476  0.01817 24936   4329 0.8696  38
  -6   3  -5   27.26   16.89  11 1.07965 0.07043 -0.43150 -0.29188 -0.68093  0.68157 -0.72476 -0.04227 24936   4330 0.8639  38
  -5   3  -5  202.38   20.23  11 1.14972 0.07039 -0.43150 -0.16582 -0.68093  0.76746 -0.72476 -0.09131 24936   4331 0.8593  38
  -5   2  -5  492.15   26.46  11 1.36930 0.07233 -0.43150 -0.38364 -0.68093  0.57890 -0.72476 -0.24661 24936   4332 0.8409  38
  -7   4  -6   64.46   25.39  11 0.85556 0.06980 -0.43150 -0.20528 -0.68093  0.74493 -0.72476 -0.00377 24936   4334 0.8800  38
  -7   3  -6  144.72   27.72  11 0.98727 0.07110 -0.43150 -0.37504 -0.68093  0.60912 -0.72476 -0.11473 24936   4335 0.8689  38
  -6   3  -6  314.91   30.08  11 1.05752 0.07107 -0.43150 -0.27370 -0.68093  0.68226 -0.72476 -0.17468 24936   4336 0.8642  38
  -5   3  -6   59.14   17.39  11 1.10882 0.07085 -0.43150 -0.14426 -0.68093  0.76416 -0.72476 -0.21608 24936   4337 0.8612  38
  -6   3  -7   89.83   23.56  11 1.01268 0.07157 -0.43150 -0.24463 -0.68093  0.68184 -0.72476 -0.27917 24936   4344 0.8664  38
  -5   3  -2   17.63   11.37  11 0.88666 0.07505 -0.43150 -0.02958 -0.68093  0.74731 -0.72476  0.47405 24936   4348 0.8693  39
  -4   3  -2  110.15   12.86  11 0.85721 0.07849 -0.43150  0.11459 -0.68093  0.80948 -0.72476  0.48217 24936   4349 0.8660  39
  -2   2  -2 1137.09   35.77  11 1.54883 0.07494 -0.43150  0.20079 -0.68093  0.91220 -0.72476  0.28456 24936   4350 0.8234  39
  -8   5  -3  188.01   59.43  11 0.49649 0.07729 -0.43150  0.02549 -0.68093  0.75530 -0.72476  0.51398 24936   4351 0.8948  39
  -7   5  -3  149.21   55.97  11 0.47908 0.07996 -0.43150  0.11127 -0.68093  0.78894 -0.72476  0.52023 24936   4352 0.8928  39
  -6   4  -3  761.58   46.26  11 0.71752 0.07450 -0.43150  0.00584 -0.68093  0.78901 -0.72476  0.41958 24936   4353 0.8823  39
  -3   3  -3   99.27   10.74  11 1.03305 0.07475 -0.43150  0.20079 -0.68093  0.91220 -0.72476  0.28456 24936   4357 0.8594  39
  -6   5  -4  269.25   52.03  11 0.57297 0.07668 -0.43150  0.13336 -0.68093  0.85235 -0.72476  0.39898 24936   4363 0.8899  39
  -5   5  -4   54.95   40.59  11 0.51460 0.08041 -0.43150  0.24318 -0.68093  0.87326 -0.72476  0.43305 24936   4364 0.8894  39
  -5   4  -4  442.65   30.15  11 0.82865 0.07225 -0.43150  0.06200 -0.68093  0.86672 -0.72476  0.25479 24936   4365 0.8779  39
  -4   4  -4  500.54   32.08  11 0.77467 0.07464 -0.43150  0.20079 -0.68093  0.91220 -0.72476  0.28456 24936   4366 0.8780  39
  -6   6  -5  310.42   85.98  11 0.44600 0.07913 -0.43150  0.23386 -0.68093  0.88125 -0.72476  0.40792 24936   4370 0.8964  39
  -7   5  -5   62.57   27.91  11 0.66747 0.07128 -0.43150 -0.01554 -0.68093  0.82976 -0.72476  0.25394 24936   4371 0.8906  39
  -6   5  -5   68.21   29.57  11 0.65818 0.07239 -0.43150  0.08747 -0.68093  0.87686 -0.72476  0.25861 24936   4372 0.8896  39
  -5   5  -5  264.47   43.16  11 0.61979 0.07457 -0.43150  0.20079 -0.68093  0.91220 -0.72476  0.28456 24936   4373 0.8893  39
   2  -4  -3  784.35   29.01  11 2.62529 0.07570 -0.43150  0.43146 -0.68093 -0.49205 -0.72476 -0.38199 24936   4381 0.7515  43
   2  -5  -3  273.64   13.42  11 2.28381 0.07612 -0.43150  0.26158 -0.68093 -0.67930 -0.72476 -0.23787 24936   4382 0.7720  43
   3  -6  -4  251.55   17.19  11 1.79830 0.07628 -0.43150  0.43208 -0.68093 -0.52440 -0.72476 -0.28688 24936   4383 0.8036  43
   3  -7  -4   53.17   14.79  11 1.62422 0.07654 -0.43150  0.30974 -0.68093 -0.65193 -0.72476 -0.19016 24936   4384 0.8148  43
   3  -7  -5  152.21   19.85  11 1.55934 0.07704 -0.43150  0.31623 -0.68093 -0.59725 -0.72476 -0.37312 24936   4385 0.8182  43
   3  -8  -5  209.00   26.03  11 1.42576 0.07722 -0.43150  0.21849 -0.68093 -0.70087 -0.72476 -0.27789 24936   4386 0.8272  43
   4  -8  -5  360.77   33.18  11 1.36353 0.07646 -0.43150  0.43146 -0.68093 -0.53892 -0.72476 -0.23349 24936   4387 0.8330  43
  -2   0  -4  762.76   26.84  11 2.64470 0.07537 -0.43150 -0.35158 -0.68093  0.28662 -0.72476 -0.76895 24936   4392 0.7512  46
  -3   0  -6 1526.07   59.26  11 1.76200 0.07602 -0.43150 -0.35158 -0.68093  0.28662 -0.72476 -0.76895 24936   4394 0.8067  46
  -2  -1  -6   27.02    9.09  11 1.93475 0.07675 -0.43150 -0.28532 -0.68093  0.10430 -0.72476 -0.91503 24936   4395 0.7934  46
  -4   0  -8  445.34   34.61  11 1.31949 0.07631 -0.43150 -0.35049 -0.68093  0.28795 -0.72476 -0.76882 24936   4397 0.8364  46
  -3  -1  -8  334.25   28.30  11 1.42397 0.07710 -0.43150 -0.30578 -0.68093  0.15023 -0.72476 -0.88543 24936   4399 0.8275  46
  -2   1  -3   21.51    3.09  11 2.71935 0.07329 -0.43150 -0.17285 -0.68093  0.68150 -0.72476 -0.42876 24936   4406 0.7527  47
  -3   1  -5 1347.98   50.77  11 1.84803 0.07429 -0.43150 -0.25173 -0.68093  0.54363 -0.72476 -0.58224 24936   4408 0.8050  47
  -4   2  -6  187.66   18.57  11 1.35949 0.07268 -0.43150 -0.17241 -0.68093  0.68127 -0.72476 -0.43001 24936   4409 0.8409  47
  -5   2  -7   41.58   19.00  11 1.19240 0.07332 -0.43150 -0.27637 -0.68093  0.59274 -0.72476 -0.45966 24936   4410 0.8510  47
  -4   2  -7  610.95   38.64  11 1.24078 0.07300 -0.43150 -0.11886 -0.68093  0.68113 -0.72476 -0.50462 24936   4411 0.8483  47
  -4   2  -8  193.28   27.20  11 1.13285 0.07321 -0.43150 -0.07148 -0.68093  0.68069 -0.72476 -0.55724 24936   4414 0.8552  47
  -2   2  -3 2269.38   75.49  11 1.73757 0.07117 -0.43150  0.17519 -0.68093  0.94015 -0.72476 -0.01324 24936   4420 0.8194  48
  -4   3  -4  995.18   41.31  11 1.19329 0.07034 -0.43150 -0.01201 -0.68093  0.85894 -0.72476  0.04841 24936   4421 0.8565  48
  -3   3  -5   65.73   12.10  11 1.14683 0.07014 -0.43150  0.17713 -0.68093  0.93746 -0.72476 -0.08829 24936   4426 0.8599  48
  -5   4  -6  522.09   38.44  11 0.89605 0.06970 -0.43150  0.03235 -0.68093  0.88118 -0.72476 -0.03627 24936   4427 0.8774  48
  -4   4  -6 1138.59   60.11  11 0.86867 0.07004 -0.43150  0.17519 -0.68093  0.94015 -0.72476 -0.01324 24936   4428 0.8787  48
  -5   5  -7   44.04   28.50  11 0.69298 0.06999 -0.43150  0.17467 -0.68093  0.93943 -0.72476  0.03760 24936   4430 0.8907  48
  -5   4  -7   33.12   20.95  11 0.87614 0.06979 -0.43150  0.04097 -0.68093  0.87670 -0.72476 -0.14440 24936   4431 0.8786  48
  -4   4  -7   75.53   21.80  11 0.85335 0.06958 -0.43150  0.17997 -0.68093  0.93542 -0.72476 -0.12076 24936   4432 0.8805  48
  -1   2  -2   32.28    6.60  11 0.90687 0.08557 -0.43150  0.43187 -0.68093  0.88305 -0.72476  0.46914 24936   4443 0.8508  49
   0   2  -3 1153.43   47.35  11 0.77907 0.08345 -0.43150  0.54769 -0.68093  0.91256 -0.72476  0.39509 24936   4445 0.8643  49
  -4   5  -4  350.00   90.41  11 0.40790 0.08592 -0.43150  0.34026 -0.68093  0.86306 -0.72476  0.49398 24936   4446 0.8912  49
  -1   3  -4  930.88   47.36  11 0.71652 0.07966 -0.43150  0.48641 -0.68093  0.94738 -0.72476  0.31978 24936   4448 0.8748  49
   0   3  -4 1092.88  130.47  11 0.40682 0.08882 -0.43150  0.52251 -0.68093  0.86229 -0.72476  0.49531 24936   4449 0.8878  49
   1   2  -4  903.92   58.00  11 0.60115 0.08329 -0.43150  0.61080 -0.68093  0.90399 -0.72476  0.38624 24936   4450 0.8787  49
  -2   4  -5 1565.48   92.22  11 0.61540 0.07793 -0.43150  0.43241 -0.68093  0.95587 -0.72476  0.28903 24936   4452 0.8850  49
  -1   4  -5  925.97  117.38  11 0.43520 0.08483 -0.43150  0.49611 -0.68093  0.90675 -0.72476  0.41877 24936   4453 0.8902  49
   0   3  -5   72.39   30.83  11 0.59505 0.07954 -0.43150  0.56622 -0.68093  0.94661 -0.72476  0.30399 24936   4454 0.8843  49
  -3   5  -6  171.40   52.63  11 0.52710 0.07713 -0.43150  0.39237 -0.68093  0.95565 -0.72476  0.27750 24936   4455 0.8927  49
  -1   4  -6   73.25   40.68  11 0.54283 0.07776 -0.43150  0.51435 -0.68093  0.96368 -0.72476  0.26441 24936   4457 0.8907  49
   1   3  -6   81.31   56.63  11 0.48849 0.08000 -0.43150  0.61352 -0.68093  0.93510 -0.72476  0.31175 24936   4458 0.8920  49
  -4   6  -7  154.73   74.84  11 0.45831 0.07660 -0.43150  0.36579 -0.68093  0.95390 -0.72476  0.27131 24936   4459 0.8986  49
   0   4  -7  102.98   78.81  11 0.46642 0.07798 -0.43150  0.57318 -0.68093  0.95866 -0.72476  0.26312 24936   4460 0.8962  49
   3  -6  -7  125.05   21.46  12 1.17447 0.07401  0.10361 -0.10484  0.11211 -0.90136 -0.99218 -0.16754 24937   4466 0.8509  13
   3  -5  -7   51.56   16.69  12 1.34684 0.07535  0.10361 -0.00322  0.11211 -0.81635 -0.99218 -0.33902 24937   4467 0.8364  13
   2  -4  -7  552.72   32.06  12 1.51908 0.07624  0.10361 -0.10218  0.11211 -0.79199 -0.99218 -0.50759 24937   4469 0.8227  13
   2  -4  -6  171.29   15.47  12 1.63420 0.07552  0.10361 -0.10277  0.11211 -0.84351 -0.99218 -0.39092 24937   4470 0.8164  13
   2  -4  -5 1343.56   56.37  12 1.73654 0.07453  0.10361 -0.10401  0.11211 -0.88962 -0.99218 -0.23178 24937   4471 0.8118  13
   2  -3  -4  710.55   27.84  12 2.28276 0.07484  0.10361  0.06494  0.11211 -0.79332 -0.99218 -0.29418 24937   4472 0.7755  13
   1  -3  -8  299.34   26.96  12 1.51673 0.07730  0.10361 -0.21405  0.11211 -0.67727 -0.99218 -0.72153 24937   4480 0.8206  14
   1  -3  -7   47.90   12.96  12 1.67048 0.07682  0.10361 -0.22687  0.11211 -0.73493 -0.99218 -0.65842 24937   4481 0.8111  14
   1  -2  -7   75.49   13.35  12 1.84490 0.07730  0.10361 -0.10073  0.11211 -0.52504 -0.99218 -0.83032 24937   4482 0.7981  14
  -3   1  -8   79.98   17.35  12 1.52445 0.07735  0.10361 -0.66857  0.11211 -0.22377 -0.99218 -0.73262 24937   4489 0.8200  16
  -3   2  -8  315.41   25.28  12 1.54840 0.07751  0.10361 -0.56147  0.11211  0.00476 -0.99218 -0.75899 24937   4490 0.8180  16
  -2   1  -7   67.89   12.80  12 1.85278 0.07733  0.10361 -0.51466  0.11211 -0.11065 -0.99218 -0.84050 24937   4491 0.7975  16
  -3   1  -7  218.92   17.87  12 1.68121 0.07690  0.10361 -0.72675  0.11211 -0.23691 -0.99218 -0.67120 24937   4492 0.8102  16
  -3   2  -7   47.58   12.12  12 1.71069 0.07710  0.10361 -0.60909  0.11211  0.01793 -0.99218 -0.70025 24937   4493 0.8077  16
  -2   1  -5    6.78    6.18  12 2.43103 0.07625  0.10361 -0.64432  0.11211 -0.11028 -0.99218 -0.72457 24937   4495 0.7623  16
  -5   4  -7   34.27   15.95  12 1.34687 0.07561  0.10361 -0.70201  0.11211  0.19063 -0.99218 -0.34061 24937   4502 0.8359  17
  -6   4  -7  164.83   25.78  12 1.19524 0.07447  0.10361 -0.81388  0.11211  0.06794 -0.99218 -0.19213 24937   4503 0.8486  17
  -4   3  -6   23.58    9.63  12 1.64881 0.07583  0.10361 -0.71398  0.11211  0.13609 -0.99218 -0.40751 24937   4504 0.8147  17
  -5   3  -6   65.86   14.54  12 1.42937 0.07464  0.10361 -0.84651  0.11211 -0.00407 -0.99218 -0.22163 24937   4505 0.8322  17
  -4   3  -5  885.56   39.67  12 1.75250 0.07487  0.10361 -0.75360  0.11211  0.15049 -0.99218 -0.24776 24937   4506 0.8099  17
  -6   3  -5   42.42   13.85  12 1.19813 0.07162  0.10361 -0.90714  0.11211 -0.11084 -0.99218  0.14307 24937   4516 0.8538  18
  -6   4  -5  226.83   20.64  12 1.20534 0.07180  0.10361 -0.82125  0.11211  0.06886 -0.99218  0.13783 24937   4517 0.8529  18
  -7   4  -5  141.85   22.81  12 0.99914 0.07042  0.10361 -0.84797  0.11211 -0.03593 -0.99218  0.28311 24937   4518 0.8693  18
  -7   5  -5   51.28   19.90  12 0.99208 0.07050  0.10361 -0.76838  0.11211  0.11031 -0.99218  0.28908 24937   4519 0.8696  18
  -5   3  -4  908.51   38.89  12 1.44046 0.07170  0.10361 -0.85411  0.11211 -0.00320 -0.99218  0.17593 24937   4520 0.8375  18
  -4   2  -3  903.13   34.10  12 1.76023 0.07150  0.10361 -0.88949  0.11211 -0.11049 -0.99218  0.24462 24937   4521 0.8171  18
  -7   2  -4   59.54   21.86  12 0.81974 0.06999  0.10361 -0.83767  0.11211 -0.29567 -0.99218  0.52734 24937   4529 0.8821  19
  -8   2  -4  253.02   51.39  12 0.63972 0.07125  0.10361 -0.77194  0.11211 -0.30242 -0.99218  0.62833 24937   4530 0.8926  19
  -8   3  -4  282.69   46.62  12 0.69303 0.07047  0.10361 -0.77550  0.11211 -0.21502 -0.99218  0.59902 24937   4531 0.8900  19
  -8   4  -4  199.48   38.28  12 0.72967 0.07004  0.10361 -0.75516  0.11211 -0.11008 -0.99218  0.57820 24937   4532 0.8881  19
  -5   1  -3  116.05   13.73  12 1.11426 0.07039  0.10361 -0.85197  0.11211 -0.36129 -0.99218  0.51824 24937   4538 0.8616  19
  -6   1  -3  279.10   32.17  12 0.79423 0.07210  0.10361 -0.75541  0.11211 -0.34797 -0.99218  0.65435 24937   4539 0.8805  19
  -6   2  -3   19.82   15.65  12 0.90502 0.07099  0.10361 -0.77691  0.11211 -0.24507 -0.99218  0.60745 24937   4540 0.8747  19
  -6   3  -3   46.79   15.09  12 0.96984 0.07038  0.10361 -0.75557  0.11211 -0.11137 -0.99218  0.57834 24937   4541 0.8713  19
  -7   2  -3   30.34   29.26  12 0.66594 0.07317  0.10361 -0.69788  0.11211 -0.26129 -0.99218  0.70903 24937   4542 0.8880  19
  -7   3  -3   80.76   29.21  12 0.72584 0.07229  0.10361 -0.69907  0.11211 -0.16638 -0.99218  0.68306 24937   4543 0.8850  19
  -4   1  -2   11.05    7.30  12 1.27983 0.07194  0.10361 -0.77194  0.11211 -0.30242 -0.99218  0.62833 24937   4544 0.8477  19
  -4   2  -2 1921.56   76.63  12 1.45619 0.07101  0.10361 -0.75480  0.11211 -0.11109 -0.99218  0.57941 24937   4545 0.8379  19
  -5   2  -2   15.78   10.50  12 0.94856 0.07365  0.10361 -0.66832  0.11211 -0.18306 -0.99218  0.72312 24937   4546 0.8673  19
   4  -7  -2  213.43   50.92  12 0.49457 0.08085  0.10361 -0.07029  0.11211 -0.48336 -0.99218  0.85276 24937   4552 0.8904  20
   3  -6  -2  414.80   35.10  12 0.66159 0.07765  0.10361 -0.10654  0.11211 -0.55862 -0.99218  0.80507 24937   4554 0.8819  20
   2  -7  -2  104.29   65.24  12 0.40636 0.08432  0.10361 -0.19586  0.11211 -0.47729 -0.99218  0.87736 24937   4555 0.8932  20
   2  -6  -2  185.36   33.00  12 0.59678 0.07935  0.10361 -0.19439  0.11211 -0.55914 -0.99218  0.82321 24937   4556 0.8844  20
   0  -6  -2  395.11   96.29  12 0.40679 0.08497  0.10361 -0.28559  0.11211 -0.47701 -0.99218  0.87721 24937   4558 0.8924  20
   0  -5  -2  226.26   31.31  12 0.61697 0.07967  0.10361 -0.33516  0.11211 -0.57443 -0.99218  0.81668 24937   4559 0.8824  20
   3  -5  -1  223.35   42.74  12 0.46016 0.08809  0.10361 -0.07048  0.11211 -0.35380 -0.99218  0.92721 24937   4560 0.8841  20
   2  -4  -1   65.57   11.89  12 0.71984 0.08424  0.10361 -0.10599  0.11211 -0.43615 -0.99218  0.89052 24937   4561 0.8678  20
   1  -4  -1  165.27   23.42  12 0.57050 0.08739  0.10361 -0.19004  0.11211 -0.41080 -0.99218  0.91155 24937   4562 0.8757  20
   0  -3  -1  196.14   12.73  12 0.81476 0.08423  0.10361 -0.28688  0.11211 -0.47717 -0.99218  0.87704 24937   4564 0.8603  20
   4  -8  -5  333.28   38.41  12 0.80110 0.06944  0.10361 -0.10633  0.11211 -0.83091 -0.99218  0.42681 24937   4574 0.8842  21
   6  -8  -4  157.08   35.66  12 0.70256 0.07004  0.10361  0.10403  0.11211 -0.63707 -0.99218  0.59671 24937   4575 0.8900  21
   6  -7  -4  495.72   40.16  12 0.83884 0.06975  0.10361  0.20728  0.11211 -0.61462 -0.99218  0.51882 24937   4576 0.8812  21
   5  -8  -4  336.58   43.42  12 0.71357 0.07008  0.10361  0.00133  0.11211 -0.69836 -0.99218  0.59032 24937   4577 0.8892  21
   5  -7  -4   27.65   18.40  12 0.87505 0.06977  0.10361  0.09074  0.11211 -0.70186 -0.99218  0.49728 24937   4578 0.8787  21
   4  -6  -4  355.79   24.63  12 1.10636 0.07021  0.10361  0.06006  0.11211 -0.77404 -0.99218  0.36653 24937   4580 0.8625  21
   4  -6  -3   22.52   14.56  12 0.94866 0.07039  0.10361  0.03639  0.11211 -0.67984 -0.99218  0.59076 24937   4581 0.8727  21
   4  -5  -3  159.70   13.59  12 1.22957 0.07012  0.10361  0.16977  0.11211 -0.66445 -0.99218  0.47170 24937   4582 0.8545  21
   3  -5  -3  256.07   16.05  12 1.26960 0.07019  0.10361 -0.01045  0.11211 -0.77648 -0.99218  0.45473 24937   4583 0.8518  21
   2  -3  -2  592.80   19.48  12 2.21425 0.07152  0.10361  0.05879  0.11211 -0.77455 -0.99218  0.36711 24937   4585 0.7885  21
   5  -6  -6  133.93   22.59  12 1.16131 0.07286  0.10361  0.24145  0.11211 -0.71963 -0.99218  0.01022 24937   4593 0.8539  22
   4  -6  -6  804.67   47.91  12 1.19528 0.07297  0.10361  0.07366  0.11211 -0.82667 -0.99218 -0.01974 24937   4594 0.8514  22
   4  -5  -5   87.88   13.93  12 1.40559 0.07303  0.10361  0.20886  0.11211 -0.74249 -0.99218  0.00226 24937   4596 0.8371  22
   3  -5  -5  482.20   26.50  12 1.43929 0.07306  0.10361  0.00299  0.11211 -0.86432 -0.99218 -0.02192 24937   4597 0.8348  22
   3  -4  -5  793.70   33.18  12 1.72700 0.07466  0.10361  0.15191  0.11211 -0.75751 -0.99218 -0.22520 24937   4598 0.8121  22
   3  -4  -4 1039.83   40.49  12 1.77479 0.07324  0.10361  0.15933  0.11211 -0.77526 -0.99218 -0.00870 24937   4599 0.8122  22
   2  -3  -3  384.00   14.42  12 2.39425 0.07345  0.10361  0.07366  0.11211 -0.82667 -0.99218 -0.01974 24937   4600 0.7722  22
   4  -4  -8  367.80   31.36  12 1.36670 0.07686  0.10361  0.30513  0.11211 -0.52032 -0.99218 -0.55064 24937   4607 0.8320  23
   3  -4  -8  278.37   27.31  12 1.40586 0.07693  0.10361  0.10724  0.11211 -0.63666 -0.99218 -0.59429 24937   4608 0.8291  23
   3  -3  -6 1513.88   59.15  12 1.82358 0.07644  0.10361  0.30406  0.11211 -0.52069 -0.99218 -0.55149 24937   4611 0.8015  23
   2  -2  -4  764.01   27.63  12 2.73779 0.07558  0.10361  0.30406  0.11211 -0.52069 -0.99218 -0.55149 24937   4614 0.7449  23
  -3   3  -8  257.25   22.86  12 1.52537 0.07754  0.10361 -0.44126  0.11211  0.22853 -0.99218 -0.73233 24937   4620 0.8195  26
  -4   4  -8   82.15   18.95  12 1.38071 0.07701  0.10361 -0.51100  0.11211  0.30099 -0.99218 -0.57095 24937   4621 0.8307  26
  -3   3  -7  247.20   19.34  12 1.67557 0.07712  0.10361 -0.47295  0.11211  0.26373 -0.99218 -0.66536 24937   4622 0.8101  26
  -4   4  -7   86.78   16.65  12 1.48174 0.07643  0.10361 -0.54139  0.11211  0.33067 -0.99218 -0.47404 24937   4623 0.8249  26
  -3   3  -6 1012.45   41.60  12 1.84318 0.07655  0.10361 -0.51100  0.11211  0.30099 -0.99218 -0.57095 24937   4624 0.8000  26
  -2   2  -5  211.50   10.53  12 2.39970 0.07632  0.10361 -0.45666  0.11211  0.24573 -0.99218 -0.70129 24937   4625 0.7641  26
  -3   3  -5   55.17    7.58  12 2.02120 0.07584  0.10361 -0.55209  0.11211  0.33956 -0.99218 -0.43579 24937   4626 0.7898  26
  -2   2  -4 1127.05   40.55  12 2.76724 0.07561  0.10361 -0.51215  0.11211  0.30027 -0.99218 -0.57009 24937   4627 0.7430  26
  -6   5  -4  366.83   24.72  12 1.09572 0.07031  0.10361 -0.67433  0.11211  0.21626 -0.99218  0.37002 24937   4635 0.8630  28
  -7   4  -4   75.21   17.96  12 0.91148 0.06972  0.10361 -0.78327  0.11211 -0.04387 -0.99218  0.47459 24937   4636 0.8764  28
  -7   6  -4  126.42   23.14  12 0.87007 0.06962  0.10361 -0.62195  0.11211  0.21243 -0.99218  0.49790 24937   4638 0.8793  28
  -7   7  -4  239.66   31.47  12 0.81128 0.06964  0.10361 -0.52587  0.11211  0.31141 -0.99218  0.53257 24937   4639 0.8832  28
  -8   5  -4   29.03   24.21  12 0.74104 0.06995  0.10361 -0.71048  0.11211  0.00072 -0.99218  0.57120 24937   4640 0.8875  28
  -8   6  -4  150.87   33.28  12 0.73035 0.06989  0.10361 -0.64783  0.11211  0.10737 -0.99218  0.57645 24937   4641 0.8883  28
  -6   4  -3  870.78   42.71  12 0.98643 0.07028  0.10361 -0.69107  0.11211  0.03622 -0.99218  0.57280 24937   4647 0.8704  28
  -6   5  -3  309.43   25.57  12 0.94955 0.07022  0.10361 -0.59828  0.11211  0.17220 -0.99218  0.58809 24937   4648 0.8730  28
  -6   6  -3  201.33   23.12  12 0.87754 0.07020  0.10361 -0.49600  0.11211  0.28069 -0.99218  0.61749 24937   4649 0.8779  28
  -7   5  -3  157.17   28.72  12 0.75866 0.07142  0.10361 -0.61180  0.11211  0.05916 -0.99218  0.66933 24937   4650 0.8841  28
  -4   4  -2 2199.19   78.54  12 1.31523 0.07079  0.10361 -0.49498  0.11211  0.28110 -0.99218  0.61842 24937   4652 0.8476  28
  -8   1  -3  213.99   90.70  12 0.43654 0.07846  0.10361 -0.59141  0.11211 -0.30729 -0.99218  0.80626 24937   4654 0.8979  29
  -9   3  -3  170.93   97.13  12 0.42287 0.07825  0.10361 -0.57572  0.11211 -0.20592 -0.99218  0.81215 24937   4655 0.8993  29
  -6   0  -2  474.92  104.46  12 0.42811 0.08403  0.10361 -0.48706  0.11211 -0.30351 -0.99218  0.87062 24937   4657 0.8918  29
  -6   1  -2  195.62   47.61  12 0.53327 0.08091  0.10361 -0.54118  0.11211 -0.27028 -0.99218  0.84091 24937   4658 0.8873  29
  -7   2  -2   73.95   56.62  12 0.43929 0.08291  0.10361 -0.49555  0.11211 -0.20993 -0.99218  0.86748 24937   4660 0.8923  29
  -7   3  -2  152.30   59.89  12 0.49579 0.08080  0.10361 -0.51042  0.11211 -0.14895 -0.99218  0.85113 24937   4661 0.8904  29
  -7   4  -2   70.99   37.04  12 0.53176 0.07918  0.10361 -0.50116  0.11211 -0.07273 -0.99218  0.84063 24937   4662 0.8897  29
  -3   0  -1   11.51    7.57  12 0.85686 0.08329  0.10361 -0.48856  0.11211 -0.30506 -0.99218  0.86970 24937   4664 0.8584  29
  -4   1  -1  446.66   33.80  12 0.62030 0.08621  0.10361 -0.42724  0.11211 -0.20496 -0.99218  0.90408 24937   4666 0.8731  29
  -4   2  -1   75.90   12.56  12 0.78548 0.08269  0.10361 -0.45526  0.11211 -0.11304 -0.99218  0.88047 24937   4667 0.8649  29
  -5   2  -1  225.35   53.94  12 0.44066 0.08874  0.10361 -0.36586  0.11211 -0.14553 -0.99218  0.92967 24937   4668 0.8850  29
  -5   3  -1  376.50   48.44  12 0.51741 0.08647  0.10361 -0.37359  0.11211 -0.07435 -0.99218  0.91846 24937   4669 0.8813  29
   5  -5  -7  121.13   20.03  12 1.26994 0.07512  0.10361  0.36887  0.11211 -0.58829 -0.99218 -0.26039 24937   4677 0.8422  33
   5  -4  -7  221.85   22.83  12 1.37247 0.07592  0.10361  0.51008  0.11211 -0.42035 -0.99218 -0.36281 24937   4678 0.8335  33
   4  -4  -6  378.30   23.54  12 1.55587 0.07546  0.10361  0.35996  0.11211 -0.57738 -0.99218 -0.32503 24937   4680 0.8218  33
   4  -3  -5  830.75   32.99  12 1.80896 0.07528  0.10361  0.57005  0.11211 -0.38327 -0.99218 -0.28206 24937   4681 0.8052  33
   3  -3  -5  105.80    8.65  12 1.99444 0.07570  0.10361  0.34192  0.11211 -0.55965 -0.99218 -0.41397 24937   4682 0.7919  33
   2  -2  -3  625.04   21.56  12 3.11627 0.07471  0.10361  0.35996  0.11211 -0.57738 -0.99218 -0.32503 24937   4684 0.7246  33
   3  -2  -8  111.65   18.56  12 1.58272 0.07774  0.10361  0.37011  0.11211 -0.23094 -0.99218 -0.79517 24937   4692 0.8151  34
   2  -1  -8  233.54   23.17  12 1.68978 0.07792  0.10361  0.27731  0.11211 -0.11269 -0.99218 -0.91590 24937   4693 0.8073  34
   3  -2  -7  236.32   18.60  12 1.75575 0.07732  0.10361  0.42159  0.11211 -0.24395 -0.99218 -0.73929 24937   4694 0.8041  34
   2  -2  -7  227.02   16.76  12 1.83721 0.07736  0.10361  0.17235  0.11211 -0.38591 -0.99218 -0.82045 24937   4695 0.7985  34
   2  -1  -7   98.13   14.67  12 1.90665 0.07750  0.10361  0.32521  0.11211 -0.11362 -0.99218 -0.89023 24937   4696 0.7935  34
  -2   3  -8  322.17   26.01  12 1.59449 0.07779  0.10361 -0.21730  0.11211  0.36431 -0.99218 -0.80903 24937   4705 0.8142  36
  -2   4  -8  259.56   24.99  12 1.50050 0.07766  0.10361 -0.09903  0.11211  0.55930 -0.99218 -0.70426 24937   4706 0.8210  36
  -1   2  -7   86.54   13.59  12 1.91566 0.07752  0.10361 -0.09790  0.11211  0.31773 -0.99218 -0.90064 24937   4707 0.7928  36
  -2   3  -7   44.77   13.61  12 1.76615 0.07740  0.10361 -0.23164  0.11211  0.41528 -0.99218 -0.75515 24937   4708 0.8032  36
  -2   3  -6   26.09    9.36  12 1.97163 0.07689  0.10361 -0.24592  0.11211  0.47594 -0.99218 -0.67918 24937   4710 0.7906  36
  -1   2  -4  392.03   14.69  12 3.00748 0.07561  0.10361 -0.09903  0.11211  0.55930 -0.99218 -0.70426 24937   4712 0.7283  36
  -4   5  -7   31.47   14.49  12 1.39168 0.07612  0.10361 -0.40938  0.11211  0.51190 -0.99218 -0.38438 24937   4718 0.8318  37
  -4   6  -7  154.89   22.47  12 1.27541 0.07560  0.10361 -0.28916  0.11211  0.65032 -0.99218 -0.27184 24937   4719 0.8409  37
  -3   4  -6   14.78    9.34  12 1.71364 0.07633  0.10361 -0.35390  0.11211  0.52769 -0.99218 -0.46123 24937   4721 0.8092  37
  -3   5  -6   58.90   13.34  12 1.54180 0.07581  0.10361 -0.21536  0.11211  0.69271 -0.99218 -0.31535 24937   4722 0.8221  37
  -3   4  -5  864.76   32.49  12 1.83531 0.07550  0.10361 -0.37304  0.11211  0.57215 -0.99218 -0.30561 24937   4724 0.8030  37
  -2   3  -4  654.66   21.96  12 2.44961 0.07551  0.10361 -0.28169  0.11211  0.61772 -0.99218 -0.39169 24937   4725 0.7631  37
  -3   4  -4  889.47   31.48  12 1.91478 0.07429  0.10361 -0.38520  0.11211  0.60261 -0.99218 -0.09197 24937   4726 0.8006  37
  -5   6  -5   53.11   14.58  12 1.22190 0.07240  0.10361 -0.46433  0.11211  0.52696 -0.99218  0.12666 24937   4732 0.8507  38
  -5   7  -5   35.07   18.22  12 1.08641 0.07162  0.10361 -0.34542  0.11211  0.61687 -0.99218  0.22232 24937   4733 0.8613  38
  -6   7  -5  140.35   25.10  12 0.99930 0.07093  0.10361 -0.47253  0.11211  0.48628 -0.99218  0.28395 24937   4734 0.8684  38
  -4   5  -4  411.00   21.41  12 1.48471 0.07243  0.10361 -0.43266  0.11211  0.55352 -0.99218  0.15028 24937   4740 0.8330  38
  -5   5  -4   52.09   11.93  12 1.29830 0.07134  0.10361 -0.58575  0.11211  0.37302 -0.99218  0.25628 24937   4741 0.8476  38
  -5   6  -4  366.80   26.89  12 1.16003 0.07075  0.10361 -0.44784  0.11211  0.49413 -0.99218  0.33465 24937   4742 0.8579  38
  -6   7  -4  123.33   25.92  12 0.91969 0.06979  0.10361 -0.44441  0.11211  0.43839 -0.99218  0.46975 24937   4744 0.8757  38
  -4   5  -3   18.84    9.90  12 1.36960 0.07067  0.10361 -0.40840  0.11211  0.50252 -0.99218  0.40899 24937   4747 0.8442  38
  -8   7  -3   55.03   34.80  12 0.57451 0.07280  0.10361 -0.48899  0.11211  0.14607 -0.99218  0.74666 24937   4753 0.8950  39
  -8   8  -3  198.15   58.24  12 0.54028 0.07293  0.10361 -0.42569  0.11211  0.21019 -0.99218  0.76169 24937   4754 0.8973  39
  -5   5  -2  219.47   18.84  12 0.90650 0.07255  0.10361 -0.44104  0.11211  0.22509 -0.99218  0.73535 24937   4762 0.8720  39
  -5   7  -2   52.08   25.66  12 0.68098 0.07376  0.10361 -0.25575  0.11211  0.34472 -0.99218  0.79799 24937   4764 0.8860  39
  -6   6  -2  345.79   39.43  12 0.65779 0.07530  0.10361 -0.39663  0.11211  0.18318 -0.99218  0.80538 24937   4767 0.8855  39
  -6   8  -2  433.93   75.89  12 0.52393 0.07642  0.10361 -0.25868  0.11211  0.27999 -0.99218  0.84243 24937   4769 0.8939  39
  -7   8  -2  107.77   70.39  12 0.45761 0.07824  0.10361 -0.30812  0.11211  0.19499 -0.99218  0.86175 24937   4773 0.8966  39
  -7   9  -2  105.90   91.43  12 0.41336 0.07865  0.10361 -0.25836  0.11211  0.22802 -0.99218  0.87357 24937   4774 0.8995  39
  -4   4  -1 3229.72  109.78  12 0.77974 0.08034  0.10361 -0.33368  0.11211  0.12107 -0.99218  0.88212 24937   4777 0.8689  39
  -4   5  -1   35.45   17.82  12 0.67188 0.08079  0.10361 -0.25292  0.11211  0.18833 -0.99218  0.89661 24937   4778 0.8766  39
   5  -3  -7   43.23   18.86  12 1.43925 0.07638  0.10361  0.64826  0.11211 -0.22130 -0.99218 -0.42789 24937   4785 0.8279  43
   4  -2  -7  586.52   33.84  12 1.62303 0.07711  0.10361  0.62270  0.11211 -0.11406 -0.99218 -0.60906 24937   4787 0.8137  43
   4  -2  -6  202.24   16.35  12 1.76516 0.07652  0.10361  0.68691  0.11211 -0.11383 -0.99218 -0.49935 24937   4788 0.8053  43
  -2   5  -7   32.14   16.31  12 1.47823 0.07678  0.10361  0.01103  0.11211  0.76960 -0.99218 -0.47058 24937   4797 0.8244  46
  -2   4  -6  172.94   14.69  12 1.78445 0.07664  0.10361 -0.09892  0.11211  0.68525 -0.99218 -0.52008 24937   4798 0.8037  46
  -1   3  -5 1211.41   43.32  12 2.25480 0.07643  0.10361  0.06904  0.11211  0.72680 -0.99218 -0.59685 24937   4799 0.7731  46
  -2   4  -5 1292.72   47.92  12 1.92989 0.07590  0.10361 -0.09922  0.11211  0.75025 -0.99218 -0.37030 24937   4800 0.7957  46
  -5   7  -6   94.73   21.80  12 1.11373 0.07313  0.10361 -0.34931  0.11211  0.63578 -0.99218  0.04741 24937   4808 0.8567  47
  -3   6  -5   46.61   13.74  12 1.37449 0.07371  0.10361 -0.09942  0.11211  0.81188 -0.99218  0.01819 24937   4811 0.8378  47
  -4   6  -5  243.38   22.05  12 1.32219 0.07321  0.10361 -0.29637  0.11211  0.67744 -0.99218  0.05728 24937   4812 0.8423  47
  -4   7  -5   82.64   21.03  12 1.14730 0.07220  0.10361 -0.18546  0.11211  0.74397 -0.99218  0.17939 24937   4813 0.8561  47
  -2   5  -4 1083.59   44.17  12 1.65767 0.07362  0.10361  0.02390  0.11211  0.87642 -0.99218  0.05487 24937   4814 0.8190  47
  -3   5  -4  996.80   41.87  12 1.61671 0.07326  0.10361 -0.21984  0.11211  0.73229 -0.99218  0.07686 24937   4815 0.8225  47
  -2   4  -3  896.31   32.91  12 2.05150 0.07322  0.10361 -0.10042  0.11211  0.80496 -0.99218  0.12170 24937   4816 0.7944  47
  -3   7  -3  161.34   20.64  12 0.98267 0.06979  0.10361 -0.02823  0.11211  0.69416 -0.99218  0.57474 24937   4829 0.8715  48
  -4   7  -3  246.75   23.68  12 0.95173 0.06989  0.10361 -0.17240  0.11211  0.59872 -0.99218  0.58719 24937   4830 0.8734  48
  -4   8  -3   85.82   24.25  12 0.79291 0.07000  0.10361 -0.10057  0.11211  0.59821 -0.99218  0.65510 24937   4831 0.8839  48
  -5   7  -3  178.81   24.09  12 0.88338 0.07004  0.10361 -0.30020  0.11211  0.48036 -0.99218  0.61636 24937   4833 0.8777  48
  -5   8  -3  137.39   28.26  12 0.75524 0.07013  0.10361 -0.21481  0.11211  0.50668 -0.99218  0.67161 24937   4834 0.8863  48
  -2   5  -2   24.34    8.14  12 1.32943 0.07047  0.10361 -0.00283  0.11211  0.68153 -0.99218  0.61491 24937   4837 0.8473  48
  -3   5  -2   27.77    8.52  12 1.27156 0.07059  0.10361 -0.19681  0.11211  0.55107 -0.99218  0.63154 24937   4838 0.8508  48
  -3   6  -2  461.43   27.45  12 0.98758 0.07103  0.10361 -0.10158  0.11211  0.55057 -0.99218  0.71239 24937   4839 0.8690  48
   1   7  -1   90.49   85.02  12 0.42391 0.08053  0.10361  0.18150  0.11211  0.35950 -0.99218  0.93314 24937   4841 0.8964  49
   0   6  -1   94.12   32.44  12 0.58722 0.07818  0.10361  0.15965  0.11211  0.41308 -0.99218  0.90909 24937   4842 0.8868  49
  -1   6  -1   76.94   24.30  12 0.63803 0.07801  0.10361  0.08730  0.11211  0.41022 -0.99218  0.90178 24937   4844 0.8831  49
  -2   5  -1  277.27   18.32  12 0.87388 0.07653  0.10361 -0.03907  0.11211  0.40826 -0.99218  0.86860 24937   4847 0.8679  49
  -2   6  -1 1820.09   90.88  12 0.65614 0.07833  0.10361 -0.00469  0.11211  0.37760 -0.99218  0.89861 24937   4848 0.8813  49
  -2   7  -1   58.69   43.73  12 0.51256 0.08029  0.10361  0.01271  0.11211  0.34664 -0.99218  0.91948 24937   4849 0.8897  49
  -2   8  -1  475.42  124.15  12 0.41627 0.08189  0.10361  0.02033  0.11211  0.32054 -0.99218  0.93335 24937   4850 0.8954  49
  -4   0  -8  352.12   33.68  13 1.21936 0.07497 -0.38925 -0.33131  0.34846 -0.70839 -0.67471 -0.70533 24938   4859 0.8460  13
  -3   0  -6 1550.97   67.16  13 1.62612 0.07491 -0.38925 -0.33131  0.34846 -0.70839 -0.67471 -0.70533 24938   4862 0.8183  13
  -3   0  -5  101.42    9.44  13 1.86425 0.07486 -0.38925 -0.43822  0.34846 -0.76175 -0.67471 -0.64448 24938   4864 0.8025  13
  -2   0  -4  774.03   29.66  13 2.44214 0.07470 -0.38925 -0.33131  0.34846 -0.70839 -0.67471 -0.70533 24938   4865 0.7658  13
  -2   0  -3  618.61   23.93  13 3.00057 0.07449 -0.38925 -0.50043  0.34846 -0.79238 -0.67471 -0.59803 24938   4866 0.7322  13
  -6   3  -7   74.46   21.55  13 1.48523 0.07769 -0.38925 -0.60020  0.34846 -0.34412 -0.67471 -0.79823 24938   4870 0.8220  14
  -6   3  -6  273.21   24.14  13 1.63416 0.07755 -0.38925 -0.70009  0.34846 -0.34486 -0.67471 -0.71403 24938   4872 0.8120  14
  -5   2  -6   34.65   13.45  13 1.69550 0.07705 -0.38925 -0.61460  0.34846 -0.47020 -0.67471 -0.76609 24938   4873 0.8089  14
  -4   2  -5 1215.42   51.27  13 2.12751 0.07677 -0.38925 -0.55372  0.34846 -0.34422 -0.67471 -0.82906 24938   4874 0.7806  14
  -5   2  -5  471.20   24.83  13 1.89330 0.07685 -0.38925 -0.73233  0.34846 -0.48483 -0.67471 -0.66702 24938   4875 0.7959  14
  -8   6  -3   40.79   14.80  13 1.59291 0.07737 -0.38925 -0.79417  0.34846  0.12917 -0.67471 -0.00542 24938   4881 0.8152  16
  -7   5  -3  190.02   15.40  13 1.82215 0.07721 -0.38925 -0.82890  0.34846  0.06168 -0.67471 -0.10322 24938   4883 0.7999  16
  -8   5  -3  115.77   15.68  13 1.59317 0.07705 -0.38925 -0.91513  0.34846 -0.10848 -0.67471 -0.00729 24938   4884 0.8159  16
  -7   5  -2   97.83   10.89  13 1.81325 0.07657 -0.38925 -0.82416  0.34846  0.05913 -0.67471  0.15722 24938   4885 0.8019  16
  -6   4  -2  169.35   10.39  13 2.13175 0.07638 -0.38925 -0.87830  0.34846 -0.02913 -0.67471  0.06650 24938   4886 0.7812  16
  -9   7  -1   34.49   16.91  13 1.30148 0.07544 -0.38925 -0.67821  0.34846  0.13867 -0.67471  0.48547 24938   4891 0.8394  17
  -8   6  -1  610.47   35.64  13 1.48374 0.07549 -0.38925 -0.71756  0.34846  0.09544 -0.67471  0.45828 24938   4894 0.8267  17
  -9   6  -1   44.16   17.12  13 1.31103 0.07504 -0.38925 -0.78320  0.34846 -0.05325 -0.67471  0.48369 24938   4895 0.8395  17
  -7   5  -1   38.71   10.13  13 1.71962 0.07548 -0.38925 -0.76360  0.34846  0.03797 -0.67471  0.42659 24938   4896 0.8107  17
  -8   5  -1   87.69   14.74  13 1.48080 0.07497 -0.38925 -0.82471  0.34846 -0.12661 -0.67471  0.45932 24938   4897 0.8280  17
  -6   4  -1 1299.60   52.25  13 2.03345 0.07541 -0.38925 -0.82186  0.34846 -0.04495 -0.67471  0.38204 24938   4898 0.7901  17
  -9   6   1   31.21   17.28  13 1.04290 0.07134 -0.38925 -0.54539  0.34846 -0.11468 -0.67471  0.81808 24938   4901 0.8647  18
  -7   5   1  103.14   13.62  13 1.29167 0.07135 -0.38925 -0.47937  0.34846 -0.06026 -0.67471  0.85281 24938   4904 0.8480  18
  -6   4   1 1645.82   64.56  13 1.43887 0.07099 -0.38925 -0.47185  0.34846 -0.13524 -0.67471  0.87398 24938   4907 0.8391  18
  -7   4   1   72.86   12.90  13 1.23592 0.07064 -0.38925 -0.53453  0.34846 -0.25587 -0.67471  0.84505 24938   4908 0.8531  18
  -5   3   1  259.45   12.78  13 1.59142 0.07078 -0.38925 -0.44386  0.34846 -0.23072 -0.67471  0.89604 24938   4909 0.8296  18
  -4   2   1   81.09    5.77  13 1.68640 0.07109 -0.38925 -0.36829  0.34846 -0.34924 -0.67471  0.90996 24938   4913 0.8228  19
  -5   2   1  337.83   17.61  13 1.35643 0.07068 -0.38925 -0.42276  0.34846 -0.44996 -0.67471  0.86335 24938   4914 0.8451  19
  -6   2   1 1749.07   77.21  13 1.11517 0.07040 -0.38925 -0.44486  0.34846 -0.51650 -0.67471  0.82873 24938   4915 0.8616  19
  -7   2   1   65.84   16.42  13 0.93982 0.07020 -0.38925 -0.45471  0.34846 -0.55994 -0.67471  0.80359 24938   4916 0.8737  19
  -4   1   1  124.95   10.20  13 1.23160 0.07343 -0.38925 -0.25510  0.34846 -0.53341 -0.67471  0.84575 24938   4917 0.8481  19
  -8   4   2  352.48   35.67  13 0.84325 0.06997 -0.38925 -0.36829  0.34846 -0.34924 -0.67471  0.90996 24938   4918 0.8805  19
  -6   3   2  452.98   31.37  13 0.92722 0.07179 -0.38925 -0.23556  0.34846 -0.34898 -0.67471  0.93447 24938   4922 0.8718  19
  -7   3   2   70.58   21.02  13 0.82847 0.07128 -0.38925 -0.29354  0.34846 -0.41183 -0.67471  0.90563 24938   4923 0.8795  19
  -9   3   2   37.12   32.74  13 0.66249 0.07072 -0.38925 -0.35408  0.34846 -0.49694 -0.67471  0.85917 24938   4925 0.8918  19
  -7   2   2  170.51   30.76  13 0.68113 0.07374 -0.38925 -0.22237  0.34846 -0.50292 -0.67471  0.86368 24938   4928 0.8861  19
  -8   2   2  465.15   64.93  13 0.61560 0.07297 -0.38925 -0.25510  0.34846 -0.53341 -0.67471  0.84575 24938   4929 0.8919  19
  -9   2   2  146.14   61.75  13 0.56088 0.07262 -0.38925 -0.27978  0.34846 -0.55780 -0.67471  0.82997 24938   4930 0.8962  19
  -8   4   3  131.49   42.57  13 0.62353 0.07275 -0.38925 -0.17075  0.34846 -0.34912 -0.67471  0.93707 24938   4933 0.8916  19
   0  -5  -6  167.38   55.48  13 0.48974 0.07747 -0.38925  0.20814  0.34846 -0.71289 -0.67471  0.25843 24938   4941 0.8951  20
   0  -5  -5  305.17   94.55  13 0.40997 0.08314 -0.38925  0.23587  0.34846 -0.65507 -0.67471  0.38424 24938   4943 0.8944  20
  -1  -5  -5  133.24   54.99  13 0.46244 0.07928 -0.38925  0.14748  0.34846 -0.72835 -0.67471  0.34708 24938   4944 0.8949  20
   0  -4  -4  504.98   59.36  13 0.51206 0.08298 -0.38925  0.23691  0.34846 -0.65466 -0.67471  0.38331 24938   4945 0.8863  20
  -1  -4  -4  479.38   48.05  13 0.58806 0.07847 -0.38925  0.12720  0.34846 -0.74338 -0.67471  0.33989 24938   4946 0.8863  20
   0  -3  -3   92.53   15.96  13 0.68289 0.08280 -0.38925  0.23781  0.34846 -0.65367 -0.67471  0.38422 24938   4950 0.8729  20
  -2  -4  -3  713.61   80.71  13 0.48558 0.08243 -0.38925  0.10018  0.34846 -0.71074 -0.67471  0.46707 24938   4953 0.8891  20
  -3  -4  -3  227.13   58.56  13 0.50436 0.07910 -0.38925  0.01180  0.34846 -0.76440 -0.67471  0.45685 24938   4954 0.8919  20
   0  -2  -2 1156.08   40.71  13 1.02511 0.08231 -0.38925  0.23587  0.34846 -0.65507 -0.67471  0.38424 24938   4955 0.8470  20
  -1  -3  -2   78.04   28.34  13 0.50659 0.08796 -0.38925  0.20117  0.34846 -0.61228 -0.67471  0.53099 24938   4956 0.8803  20
  -2  -3  -2   26.11   20.30  13 0.60306 0.08254 -0.38925  0.07320  0.34846 -0.70965 -0.67471  0.50212 24938   4957 0.8796  20
   0  -1  -1  118.66    3.88  13 2.05230 0.08110 -0.38925  0.23587  0.34846 -0.65507 -0.67471  0.38424 24938   4958 0.7749  20
   1  -3  -8  245.62   33.44  13 0.76385 0.06981 -0.38925  0.33527  0.34846 -0.63180 -0.67471 -0.18836 24938   4968 0.8862  21
   0  -3  -8  191.19   30.36  13 0.82022 0.06947 -0.38925  0.20924  0.34846 -0.71333 -0.67471 -0.25328 24938   4969 0.8829  21
   0  -4  -8   78.56   34.50  13 0.67839 0.06993 -0.38925  0.18962  0.34846 -0.75165 -0.67471 -0.09337 24938   4971 0.8918  21
   0  -3  -7  261.27   29.16  13 0.86712 0.06982 -0.38925  0.19858  0.34846 -0.73431 -0.67471 -0.18451 24938   4975 0.8792  21
  -1  -3  -7   98.48   22.25  13 0.89785 0.06963 -0.38925  0.05607  0.34846 -0.81632 -0.67471 -0.21514 24938   4976 0.8774  21
   0  -4  -7   52.25   27.38  13 0.68827 0.07101 -0.38925  0.18742  0.34846 -0.75695 -0.67471 -0.00677 24938   4977 0.8896  21
   0  -3  -6 1065.66   54.04  13 0.90433 0.07025 -0.38925  0.18962  0.34846 -0.75165 -0.67471 -0.09337 24938   4979 0.8760  21
   0  -2  -5  196.61   14.17  13 1.26591 0.07025 -0.38925  0.20424  0.34846 -0.72383 -0.67471 -0.22067 24938   4981 0.8519  21
   0  -3  -5   92.66   15.06  13 0.91543 0.07179 -0.38925  0.18693  0.34846 -0.75696 -0.67471  0.02726 24938   4982 0.8726  21
  -1  -2  -4  782.82   30.69  13 1.41181 0.07044 -0.38925 -0.02964  0.34846 -0.87371 -0.67471 -0.12458 24938   4984 0.8420  21
  -2  -1  -8  101.63   21.67  13 1.15353 0.07290 -0.38925 -0.03472  0.34846 -0.68902 -0.67471 -0.63030 24938   4993 0.8544  22
  -3  -1  -8  336.66   32.01  13 1.13057 0.07328 -0.38925 -0.19427  0.34846 -0.76686 -0.67471 -0.60350 24938   4994 0.8553  22
  -2  -1  -7  231.55   22.24  13 1.29063 0.07291 -0.38925 -0.08721  0.34846 -0.73020 -0.67471 -0.60320 24938   4996 0.8451  22
  -2   0  -6 1440.13   56.34  13 1.70598 0.07466 -0.38925 -0.11419  0.34846 -0.59925 -0.67471 -0.77140 24938   4997 0.8135  22
  -1  -1  -6 2264.50   90.17  13 1.47189 0.07229 -0.38925  0.06302  0.34846 -0.67556 -0.67471 -0.57396 24938   4998 0.8342  22
  -4   2  -8  247.45   24.96  13 1.42380 0.07699 -0.38925 -0.23894  0.34846 -0.34266 -0.67471 -0.93621 24938   5004 0.8278  23
  -3   2  -7   33.59   11.22  13 1.66967 0.07681 -0.38925 -0.10345  0.34846 -0.21916 -0.67471 -0.97566 24938   5006 0.8112  23
  -4   2  -7  581.56   32.26  13 1.61347 0.07704 -0.38925 -0.32489  0.34846 -0.34473 -0.67471 -0.92203 24938   5007 0.8145  23
  -3   1  -7  237.92   19.21  13 1.57612 0.07607 -0.38925 -0.19129  0.34846 -0.46111 -0.67471 -0.88618 24938   5008 0.8192  23
  -3   1  -6   22.10    9.59  13 1.82637 0.07614 -0.38925 -0.28509  0.34846 -0.48007 -0.67471 -0.87569 24938   5009 0.8021  23
  -2   1  -4  381.55   14.82  13 2.85243 0.07554 -0.38925 -0.24066  0.34846 -0.34420 -0.67471 -0.93555 24938   5011 0.7380  23
  -8   7  -2  148.43   18.68  13 1.51430 0.07683 -0.38925 -0.62473  0.34846  0.33078 -0.67471  0.24123 24938   5019 0.8218  26
  -8   6  -2  479.82   27.88  13 1.56690 0.07666 -0.38925 -0.77672  0.34846  0.12080 -0.67471  0.22594 24938   5022 0.8185  26
  -7   6   2   64.41   16.37  13 1.02251 0.06995 -0.38925 -0.22305  0.34846  0.03272 -0.67471  0.96047 24938   5027 0.8685  28
  -8   6   2   44.99   17.99  13 0.95063 0.06992 -0.38925 -0.32237  0.34846 -0.06568 -0.67471  0.94017 24938   5028 0.8734  28
  -5   5   2  213.33   16.07  13 1.13476 0.07038 -0.38925 -0.03662  0.34846  0.07410 -0.67471  0.99362 24938   5029 0.8603  28
  -6   5   2  198.34   17.66  13 1.08938 0.07007 -0.38925 -0.18303  0.34846 -0.02477 -0.67471  0.98008 24938   5030 0.8639  28
  -7   5   2   90.97   17.33  13 1.00907 0.06983 -0.38925 -0.29003  0.34846 -0.12271 -0.67471  0.95667 24938   5031 0.8696  28
  -8   5   2   45.13   15.77  13 0.91615 0.06964 -0.38925 -0.36531  0.34846 -0.21328 -0.67471  0.93021 24938   5032 0.8762  28
  -5   4   2  200.80   15.27  13 1.13004 0.07081 -0.38925 -0.11893  0.34846 -0.09707 -0.67471  0.99195 24938   5033 0.8598  28
  -6   4   2 1626.53   65.79  13 1.04545 0.07040 -0.38925 -0.23706  0.34846 -0.19443 -0.67471  0.96753 24938   5034 0.8662  28
  -8   7   3  178.74   34.33  13 0.75309 0.06984 -0.38925 -0.11803  0.34846 -0.01325 -0.67471  0.99160 24938   5040 0.8869  28
  -8   6   3  481.04   47.01  13 0.73728 0.07009 -0.38925 -0.16300  0.34846 -0.13034 -0.67471  0.98501 24938   5045 0.8876  28
  -9   6   3  197.05   40.76  13 0.69700 0.06990 -0.38925 -0.23839  0.34846 -0.19472 -0.67471  0.96725 24938   5046 0.8906  28
  -2   1   1   28.17    2.67  13 1.69882 0.07883 -0.38925  0.00787  0.34846 -0.35073 -0.67471  0.91226 24938   5051 0.8047  29
  -3   0   1  172.50   15.15  13 0.72953 0.08608 -0.38925  0.06247  0.34846 -0.51256 -0.67471  0.77576 24938   5052 0.8643  29
  -3   2   2  779.67   36.08  13 0.75392 0.08509 -0.38925  0.16294  0.34846 -0.29425 -0.67471  0.88613 24938   5053 0.8638  29
  -4   2   2 2193.37   87.71  13 0.84820 0.07931 -0.38925  0.00787  0.34846 -0.35073 -0.67471  0.91226 24938   5054 0.8653  29
  -4   1   2   99.22   31.05  13 0.51791 0.08764 -0.38925  0.11765  0.34846 -0.42716 -0.67471  0.81930 24938   5055 0.8798  29
  -5   1   2  468.13   52.77  13 0.56164 0.08324 -0.38925  0.01158  0.34846 -0.47484 -0.67471  0.83178 24938   5056 0.8819  29
  -4   3   3  238.35   53.68  13 0.44517 0.08825 -0.38925  0.22194  0.34846 -0.28378 -0.67471  0.86196 24938   5059 0.8852  29
  -5   3   3  318.46   49.35  13 0.53834 0.08316 -0.38925  0.10724  0.34846 -0.30891 -0.67471  0.90181 24938   5060 0.8839  29
  -7   3   3  162.62   47.42  13 0.55797 0.07731 -0.38925 -0.06916  0.34846 -0.39165 -0.67471  0.90842 24938   5062 0.8901  29
  -6   2   3  573.38  115.21  13 0.42105 0.08519 -0.38925  0.07415  0.34846 -0.41241 -0.67471  0.85154 24938   5063 0.8910  29
  -7   2   3  130.88   76.74  13 0.43502 0.08203 -0.38925 -0.00245  0.34846 -0.44801 -0.67471  0.85664 24938   5064 0.8937  29
  -8   4   4  136.13  101.62  13 0.42565 0.07957 -0.38925  0.00849  0.34846 -0.34941 -0.67471  0.91278 24938   5068 0.8974  29
  -2   1  -8  239.82   22.85  13 1.38460 0.07545 -0.38925  0.08633  0.34846 -0.34363 -0.67471 -0.89054 24938   5078 0.8336  33
  -2   1  -7  120.10   14.30  13 1.60013 0.07567 -0.38925  0.03931  0.34846 -0.34266 -0.67471 -0.90743 24938   5079 0.8184  33
  -1   1  -6  182.27   11.64  13 1.84262 0.07509 -0.38925  0.25807  0.34846 -0.20709 -0.67471 -0.88474 24938   5080 0.8034  33
  -2   1  -6 2020.97   70.86  13 1.88755 0.07580 -0.38925 -0.02556  0.34846 -0.34319 -0.67471 -0.92401 24938   5081 0.7988  33
  -1   1  -5 1272.89   43.31  13 2.25475 0.07525 -0.38925  0.22799  0.34846 -0.17623 -0.67471 -0.91417 24938   5082 0.7762  33
  -4   4  -8   99.12   22.12  13 1.47319 0.07782 -0.38925 -0.04247  0.34846  0.09576 -0.67471 -0.98992 24938   5087 0.8226  34
  -4   4  -7   60.15   17.40  13 1.66106 0.07775 -0.38925 -0.09785  0.34846  0.15246 -0.67471 -0.96765 24938   5090 0.8097  34
  -4   3  -7  131.68   16.87  13 1.66629 0.07750 -0.38925 -0.22374  0.34846 -0.09453 -0.67471 -0.97444 24938   5091 0.8099  34
  -4   3  -6   23.39   11.77  13 1.90509 0.07734 -0.38925 -0.31245  0.34846 -0.05988 -0.67471 -0.94340 24938   5093 0.7939  34
  -3   3  -5   34.92    8.85  13 2.30961 0.07678 -0.38925 -0.11967  0.34846  0.17153 -0.67471 -0.95619 24938   5094 0.7686  34
  -7   7  -4  249.33   24.25  13 1.63624 0.07793 -0.38925 -0.45954  0.34846  0.50745 -0.67471 -0.25332 24938   5104 0.8110  36
  -8   8  -3  271.22   26.67  13 1.45592 0.07757 -0.38925 -0.47576  0.34846  0.52249 -0.67471  0.05273 24938   5105 0.8243  36
  -6   6  -3  146.68   13.40  13 1.93307 0.07730 -0.38925 -0.46945  0.34846  0.51923 -0.67471 -0.14724 24938   5107 0.7922  36
  -5   5  -3  347.77   16.32  13 2.27824 0.07690 -0.38925 -0.45269  0.34846  0.50303 -0.67471 -0.29285 24938   5108 0.7704  36
  -5   5  -2  207.40   11.23  13 2.33505 0.07650 -0.38925 -0.47676  0.34846  0.52282 -0.67471  0.01180 24938   5109 0.7677  36
  -7   8  -1   22.55   14.16  13 1.42634 0.07559 -0.38925 -0.24853  0.34846  0.60951 -0.67471  0.46940 24938   5116 0.8304  37
  -8   8  -1  263.16   24.35  13 1.35379 0.07571 -0.38925 -0.41729  0.34846  0.46020 -0.67471  0.47895 24938   5117 0.8352  37
  -6   7  -1   23.76    9.86  13 1.65412 0.07566 -0.38925 -0.22593  0.34846  0.64051 -0.67471  0.43818 24938   5118 0.8147  37
  -7   7  -1   72.01   13.16  13 1.56176 0.07580 -0.38925 -0.42485  0.34846  0.46785 -0.67471  0.44995 24938   5119 0.8207  37
  -5   6  -1   21.20    6.40  13 1.96599 0.07565 -0.38925 -0.19874  0.34846  0.67691 -0.67471  0.39625 24938   5120 0.7939  37
  -6   6  -1   70.28    9.11  13 1.84422 0.07584 -0.38925 -0.43419  0.34846  0.47773 -0.67471  0.40959 24938   5121 0.8016  37
  -7   8   1   64.40   18.15  13 1.13160 0.07180 -0.38925 -0.11902  0.34846  0.41039 -0.67471  0.83152 24938   5124 0.8579  38
  -5   7   1  107.60   14.26  13 1.26052 0.07106 -0.38925  0.10487  0.34846  0.49648 -0.67471  0.85212 24938   5125 0.8507  38
  -6   7   1   25.91   13.24  13 1.26483 0.07163 -0.38925 -0.08447  0.34846  0.40710 -0.67471  0.85068 24938   5126 0.8493  38
  -5   6   1   52.62   10.54  13 1.43222 0.07140 -0.38925 -0.03822  0.34846  0.39846 -0.67471  0.87525 24938   5127 0.8387  38
  -6   6   1   92.57   12.60  13 1.38026 0.07173 -0.38925 -0.22937  0.34846  0.26954 -0.67471  0.86634 24938   5128 0.8414  38
  -5   5   1   71.75    8.87  13 1.58443 0.07152 -0.38925 -0.20387  0.34846  0.24049 -0.67471  0.89560 24938   5130 0.8284  38
  -4   4   1 3046.08   99.92  13 1.84150 0.07131 -0.38925 -0.16164  0.34846  0.19927 -0.67471  0.93235 24938   5131 0.8124  38
  -7   9   2   47.76   27.13  13 0.87200 0.06997 -0.38925  0.06188  0.34846  0.36677 -0.67471  0.91967 24938   5135 0.8786  38
  -7   8   2  138.74   27.45  13 0.94005 0.07005 -0.38925 -0.03344  0.34846  0.28220 -0.67471  0.93794 24938   5139 0.8739  38
  -8   8   2  424.90   41.85  13 0.91980 0.07020 -0.38925 -0.16117  0.34846  0.20071 -0.67471  0.93195 24938   5140 0.8750  38
  -6   7   2   63.25   18.73  13 1.00969 0.06987 -0.38925  0.01035  0.34846  0.25318 -0.67471  0.95806 24938   5141 0.8695  38
  -7   7   2   19.74   15.55  13 0.99508 0.07006 -0.38925 -0.13190  0.34846  0.16931 -0.67471  0.95331 24938   5142 0.8702  38
  -3   5   2   36.51    9.42  13 0.97060 0.07319 -0.38925  0.31435  0.34846  0.15651 -0.67471  0.94931 24938   5144 0.8665  39
  -3   4   2   10.68    8.40  13 1.04196 0.07491 -0.38925  0.23127  0.34846  0.03839 -0.67471  0.96879 24938   5145 0.8585  39
  -3   3   2   50.43    8.42  13 1.00517 0.07804 -0.38925  0.16225  0.34846 -0.12535 -0.67471  0.95751 24938   5146 0.8558  39
  -4   8   3   50.03   36.31  13 0.58253 0.07409 -0.38925  0.38637  0.34846  0.17217 -0.67471  0.92203 24938   5148 0.8927  39
  -4   7   3  153.70   33.73  13 0.62185 0.07509 -0.38925  0.33981  0.34846  0.11389 -0.67471  0.93827 24938   5149 0.8884  39
  -5   6   3  350.18   31.85  13 0.73141 0.07317 -0.38925  0.16776  0.34846  0.03056 -0.67471  0.98390 24938   5153 0.8833  39
  -4   5   3  131.21   26.31  13 0.64232 0.07869 -0.38925  0.24427  0.34846 -0.06204 -0.67471  0.94610 24938   5154 0.8819  39
  -5   8   4  212.62   84.49  13 0.46353 0.07753 -0.38925  0.31787  0.34846  0.03180 -0.67471  0.93670 24938   5161 0.8970  39
  -6   8   4  214.38   64.41  13 0.52283 0.07467 -0.38925  0.23175  0.34846  0.03989 -0.67471  0.96881 24938   5162 0.8963  39
  -5   7   4   83.05   55.42  13 0.46114 0.07935 -0.38925  0.28385  0.34846 -0.03938 -0.67471  0.93574 24938   5164 0.8949  39
  -6   7   4  396.07   73.97  13 0.52257 0.07622 -0.38925  0.19260  0.34846 -0.03847 -0.67471  0.96886 24938   5165 0.8943  39
  -7   7   4  215.84   58.80  13 0.55595 0.07381 -0.38925  0.09767  0.34846 -0.05965 -0.67471  0.98730 24938   5166 0.8950  39
  -6   6   4  214.56   60.52  13 0.50296 0.07825 -0.38925  0.16367  0.34846 -0.12505 -0.67471  0.95715 24938   5168 0.8931  39
  -7   6   4  388.42   72.59  13 0.53279 0.07586 -0.38925  0.07152  0.34846 -0.15087 -0.67471  0.97388 24938   5169 0.8940  39
  -8   6   4  170.52   56.04  13 0.54032 0.07401 -0.38925 -0.01268  0.34846 -0.18851 -0.67471  0.97754 24938   5170 0.8959  39
  -2   3  -8  315.78   27.72  13 1.44502 0.07661 -0.38925  0.29004  0.34846  0.08644 -0.67471 -0.95462 24938   5186 0.8271  43
  -3   3  -8  229.32   25.04  13 1.48038 0.07717 -0.38925  0.06631  0.34846 -0.01310 -0.67471 -0.99637 24938   5187 0.8234  43
  -2   3  -7   63.86   14.55  13 1.65556 0.07671 -0.38925  0.27516  0.34846  0.14976 -0.67471 -0.96130 24938   5188 0.8123  43
  -2   2  -6  882.75   36.30  13 1.96476 0.07641 -0.38925  0.10390  0.34846 -0.05168 -0.67471 -0.98736 24938   5189 0.7922  43
  -7   9  -2  131.55   21.80  13 1.35662 0.07643 -0.38925 -0.11456  0.34846  0.76597 -0.67471  0.28846 24938   5198 0.8336  46
  -6   8  -2  502.90   30.02  13 1.54642 0.07646 -0.38925 -0.06901  0.34846  0.80494 -0.67471  0.23597 24938   5199 0.8204  46
  -5   7  -2  130.87   12.95  13 1.78569 0.07641 -0.38925 -0.00658  0.34846  0.85038 -0.67471  0.16819 24938   5200 0.8042  46
  -4   5  -2  412.36   15.84  13 2.50322 0.07622 -0.38925 -0.16379  0.34846  0.77195 -0.67471 -0.03319 24938   5203 0.7577  46
  -7   9   0   22.95   17.65  13 1.17011 0.07353 -0.38925 -0.05023  0.34846  0.61283 -0.67471  0.67442 24938   5213 0.8521  47
  -5   8   0  130.74   17.14  13 1.29697 0.07270 -0.38925  0.19652  0.34846  0.71615 -0.67471  0.67256 24938   5214 0.8450  47
  -6   8   0   54.59   15.66  13 1.32128 0.07347 -0.38925 -0.00563  0.34846  0.63800 -0.67471  0.67264 24938   5215 0.8419  47
  -5   7   0  115.01   13.55  13 1.51033 0.07336 -0.38925  0.05244  0.34846  0.66509 -0.67471  0.67309 24938   5216 0.8294  47
  -4   6   0  420.00   19.45  13 1.74950 0.07320 -0.38925  0.12832  0.34846  0.69499 -0.67471  0.67300 24938   5217 0.8139  47
  -4   5   0  597.61   22.65  13 2.11321 0.07386 -0.38925 -0.08339  0.34846  0.59554 -0.67471  0.67203 24938   5219 0.7888  47
  -3   4   0    5.60    3.12  13 2.64630 0.07378 -0.38925 -0.00563  0.34846  0.63800 -0.67471  0.67264 24938   5220 0.7557  47
  -3   6   1   17.72    9.18  13 1.25939 0.07014 -0.38925  0.38797  0.34846  0.49689 -0.67471  0.85273 24938   5223 0.8525  48
  -3   5   1  248.78   12.80  13 1.53296 0.07056 -0.38925  0.27322  0.34846  0.45232 -0.67471  0.89020 24938   5224 0.8339  48
  -2   4   1   87.31    6.66  13 1.59768 0.07119 -0.38925  0.38685  0.34846  0.36501 -0.67471  0.90061 24938   5225 0.8283  48
  -6   9   2   42.25   22.58  13 0.84568 0.06963 -0.38925  0.19929  0.34846  0.40896 -0.67471  0.91253 24938   5233 0.8809  48
  -4   8   2  405.96   36.86  13 0.79921 0.07016 -0.38925  0.38809  0.34846  0.36515 -0.67471  0.90020 24938   5234 0.8832  48
  -5   8   2   57.55   19.09  13 0.88138 0.06978 -0.38925  0.25554  0.34846  0.37489 -0.67471  0.92373 24938   5235 0.8783  48
  -4   7   2  253.44   25.00  13 0.90026 0.07030 -0.38925  0.32089  0.34846  0.32227 -0.67471  0.92850 24938   5236 0.8761  48
  -5   7   2  129.19   19.47  13 0.98030 0.06992 -0.38925  0.16749  0.34846  0.30907 -0.67471  0.95092 24938   5237 0.8714  48
  -4   6   2 1614.67   66.68  13 1.00903 0.07049 -0.38925  0.23710  0.34846  0.25310 -0.67471  0.95898 24938   5238 0.8685  48
  -6   9   3  170.84   41.25  13 0.67319 0.07003 -0.38925  0.23710  0.34846  0.25310 -0.67471  0.95898 24938   5246 0.8920  48
   0   8   1  393.61  110.10  13 0.44132 0.07829 -0.38925  0.65221  0.34846  0.17773 -0.67471  0.73842 24938   5249 0.8978  49
   0   6   1   54.34   42.85  13 0.52424 0.08055 -0.38925  0.62383  0.34846  0.12196 -0.67471  0.75015 24938   5251 0.8885  49
   0   4   1 3727.42  160.13  13 0.59684 0.08535 -0.38925  0.56581  0.34846  0.00728 -0.67471  0.76063 24938   5253 0.8762  49
   0   3   1  207.84   23.79  13 0.54694 0.08985 -0.38925  0.51169  0.34846 -0.10335 -0.67471  0.75242 24938   5254 0.8745  49
  -1   8   2  150.58  107.08  13 0.41909 0.08016 -0.38925  0.57641  0.34846  0.12039 -0.67471  0.79385 24938   5256 0.8972  49
  -2   6   2  212.81   26.72  13 0.67802 0.07699 -0.38925  0.48856  0.34846  0.15485 -0.67471  0.86640 24938   5259 0.8816  49
  -1   5   2  513.02   70.86  13 0.46608 0.08658 -0.38925  0.49262  0.34846 -0.03666 -0.67471  0.80657 24938   5260 0.8855  49
  -2   5   2   34.08   14.93  13 0.73954 0.07840 -0.38925  0.44227  0.34846  0.09073 -0.67471  0.88415 24938   5261 0.8749  49
  -3   8   3  124.55   65.97  13 0.48055 0.07788 -0.38925  0.45962  0.34846  0.11684 -0.67471  0.87848 24938   5263 0.8953  49
  -1   9  -1  101.57   21.94  14 1.23694 0.07527  0.82991 -0.18948  0.87006  0.69545  0.18734 -0.36271 24939   5266 0.8442  13
  -1   8  -1   29.84   14.76  14 1.37804 0.07499  0.82991 -0.21931  0.87006  0.66807  0.18734 -0.38134 24939   5268 0.8350  13
  -1   7  -1   22.76   12.22  14 1.54876 0.07468  0.82991 -0.25612  0.87006  0.63133  0.18734 -0.40681 24939   5269 0.8240  13
  -1   7   0  233.95   17.32  14 1.63523 0.07531  0.82991 -0.22690  0.87006  0.71407  0.18734 -0.18832 24939   5274 0.8168  13
   1   8   1   18.78   18.10  14 1.44420 0.07763  0.82991  0.23838  0.87006  0.96011  0.18734  0.01792 24939   5277 0.8250  14
   1   7   1   30.78   16.20  14 1.64345 0.07745  0.82991  0.26364  0.87006  0.96615  0.18734  0.04838 24939   5278 0.8115  14
   1   6   1   16.43   11.29  14 1.90067 0.07718  0.82991  0.29403  0.87006  0.97163  0.18734  0.08297 24939   5279 0.7946  14
   2   3   3  250.19   12.23  14 2.37706 0.07637  0.82991  0.39722  0.87006  0.54914  0.18734  0.82364 24939   5280 0.7654  16
   3   4   4  119.02   14.98  14 1.74176 0.07730  0.82991  0.45740  0.87006  0.56134  0.18734  0.80203 24939   5282 0.8051  16
   2   4   4  589.30   27.43  14 1.84822 0.07674  0.82991  0.25895  0.87006  0.50931  0.18734  0.86057 24939   5283 0.7992  16
   3   4   5  139.54   17.70  14 1.54473 0.07692  0.82991  0.30844  0.87006  0.39787  0.18734  0.90869 24939   5287 0.8195  16
   2   2   4  141.77    9.11  14 2.08577 0.07512  0.82991  0.09177  0.87006  0.06695  0.18734  0.99548 24939   5290 0.7874  17
   3   2   5  507.01   27.00  14 1.65232 0.07518  0.82991  0.14497  0.87006 -0.00383  0.18734  0.98551 24939   5291 0.8159  17
   2   3   5  201.44   15.57  14 1.66327 0.07528  0.82991  0.02637  0.87006  0.12448  0.18734  0.99136 24939   5292 0.8150  17
   3   3   6  316.20   26.54  14 1.38930 0.07537  0.82991  0.09177  0.87006  0.06695  0.18734  0.99548 24939   5293 0.8334  17
   3   3   7  163.03   24.85  14 1.19413 0.07432  0.82991 -0.03952  0.87006 -0.06654  0.18734  0.99776 24939   5297 0.8490  17
   1   1   4  429.79   17.03  14 1.84890 0.07140  0.82991 -0.42602  0.87006 -0.45564  0.18734  0.86024 24939   5302 0.8117  18
   2   1   5 1442.93   56.58  14 1.54912 0.07191  0.82991 -0.26102  0.87006 -0.40534  0.18734  0.91168 24939   5303 0.8299  18
   1   2   5 1659.44   63.89  14 1.56402 0.07202  0.82991 -0.37407  0.87006 -0.28531  0.18734  0.92043 24939   5304 0.8287  18
   2   2   6  187.99   16.56  14 1.34414 0.07251  0.82991 -0.23971  0.87006 -0.26741  0.18734  0.95578 24939   5305 0.8422  18
   1   2   6   48.96   11.70  14 1.23063 0.07071  0.82991 -0.47288  0.87006 -0.41056  0.18734  0.85788 24939   5307 0.8533  18
   2   2   7  599.02   37.70  14 1.10510 0.07130  0.82991 -0.34522  0.87006 -0.37415  0.18734  0.90921 24939   5309 0.8606  18
   1   3   7   96.53   18.81  14 1.09366 0.07127  0.82991 -0.43254  0.87006 -0.29892  0.18734  0.89655 24939   5310 0.8614  18
   2   2   8  262.54   32.56  14 0.92387 0.07030  0.82991 -0.42602  0.87006 -0.45564  0.18734  0.86024 24939   5313 0.8745  18
   0   1   4 1046.02   43.94  14 1.35847 0.07175  0.82991 -0.73601  0.87006 -0.66748  0.18734  0.58198 24939   5320 0.8428  19
  -1   2   4  445.19   22.52  14 1.22754 0.07214  0.82991 -0.83824  0.87006 -0.59627  0.18734  0.50548 24939   5321 0.8508  19
   0   1   5 1779.82   78.72  14 0.98879 0.07276  0.82991 -0.76321  0.87006 -0.72326  0.18734  0.51174 24939   5322 0.8660  19
   0   2   6  970.09   50.11  14 1.02167 0.07016  0.82991 -0.68650  0.87006 -0.56521  0.18734  0.68046 24939   5324 0.8682  19
  -1   3   6   51.68   15.29  14 0.95632 0.07018  0.82991 -0.76697  0.87006 -0.51260  0.18734  0.62412 24939   5325 0.8726  19
  -1   2   6 2573.70  126.44  14 0.73439 0.07414  0.82991 -0.83604  0.87006 -0.70629  0.18734  0.43616 24939   5326 0.8817  19
   0   2   7  147.84   26.99  14 0.82252 0.07021  0.82991 -0.71488  0.87006 -0.62402  0.18734  0.62785 24939   5327 0.8816  19
  -1   3   7   51.90   25.19  14 0.78335 0.07039  0.82991 -0.77983  0.87006 -0.57877  0.18734  0.58678 24939   5328 0.8839  19
   0   2   8  439.56   53.01  14 0.67906 0.07100  0.82991 -0.73647  0.87006 -0.66836  0.18734  0.58096 24939   5329 0.8902  19
  -1   3   8  285.11   53.02  14 0.65468 0.07115  0.82991 -0.78940  0.87006 -0.62589  0.18734  0.55279 24939   5330 0.8917  19
  -2   4   8  235.06   53.73  14 0.61365 0.07150  0.82991 -0.83824  0.87006 -0.59627  0.18734  0.50548 24939   5331 0.8940  19
  -4   6  -3  854.49   83.13  14 0.50274 0.08169  0.82991 -0.90573  0.87006 -0.57006  0.18734 -0.40166 24939   5348 0.8887  20
  -4   6  -2  212.82   28.79  14 0.64671 0.07775  0.82991 -0.92792  0.87006 -0.48417  0.18734 -0.37204 24939   5350 0.8828  20
  -5   7  -2  123.91   46.90  14 0.49022 0.08051  0.82991 -0.94138  0.87006 -0.54200  0.18734 -0.32713 24939   5351 0.8912  20
  -2   3  -2  273.01   15.77  14 0.74711 0.08515  0.82991 -0.88686  0.87006 -0.64650  0.18734 -0.39811 24939   5352 0.8643  20
  -3   4  -2   80.19   28.24  14 0.50486 0.08799  0.82991 -0.90580  0.87006 -0.68247  0.18734 -0.33053 24939   5353 0.8805  20
  -5   7  -1   46.20   28.71  14 0.58271 0.07760  0.82991 -0.96199  0.87006 -0.48082  0.18734 -0.27308 24939   5354 0.8879  20
  -6   8  -1  353.07   88.96  14 0.44712 0.08011  0.82991 -0.96542  0.87006 -0.53639  0.18734 -0.25324 24939   5355 0.8951  20
  -6   8   0  108.17   52.81  14 0.49906 0.07797  0.82991 -0.98163  0.87006 -0.49833  0.18734 -0.19060 24939   5359 0.8938  20
  -4   5   0  651.76   41.01  14 0.63922 0.08209  0.82991 -0.97559  0.87006 -0.58415  0.18734 -0.18934 24939   5361 0.8773  20
  -5   6   1   50.26   35.00  14 0.50427 0.08271  0.82991 -0.98425  0.87006 -0.60583  0.18734 -0.11835 24939   5364 0.8873  20
  -3   8  -4  361.31   39.74  14 0.79422 0.06971  0.82991 -0.71136  0.87006 -0.10092  0.18734 -0.63830 24939   5370 0.8843  21
  -3   8  -3   35.46   20.28  14 0.92161 0.06979  0.82991 -0.69393  0.87006  0.02326  0.18734 -0.57940 24939   5374 0.8756  21
  -3   7  -3  164.61   22.97  14 0.90894 0.07004  0.82991 -0.76229  0.87006 -0.12432  0.18734 -0.57530 24939   5378 0.8760  21
  -4   8  -3  102.75   28.75  14 0.73867 0.07051  0.82991 -0.83172  0.87006 -0.21075  0.18734 -0.50215 24939   5379 0.8868  21
  -3   7  -2  193.54   19.27  14 1.06677 0.06989  0.82991 -0.75279  0.87006  0.00387  0.18734 -0.49042 24939   5380 0.8657  21
  -3   6  -2  480.77   27.41  14 1.03517 0.07049  0.82991 -0.83082  0.87006 -0.17629  0.18734 -0.48321 24939   5382 0.8667  21
  -1   8  -3  216.51   26.84  14 1.15249 0.07299  0.82991 -0.31491  0.87006  0.41978  0.18734 -0.67570 24939   5389 0.8543  22
  -1   7  -3   21.16   13.20  14 1.24128 0.07232  0.82991 -0.36662  0.87006  0.33426  0.18734 -0.71304 24939   5391 0.8495  22
  -1   8  -2  137.43   20.92  14 1.27525 0.07412  0.82991 -0.26168  0.87006  0.55747  0.18734 -0.54756 24939   5393 0.8438  22
  -2   9  -2  104.45   23.09  14 1.10108 0.07288  0.82991 -0.42228  0.87006  0.44384  0.18734 -0.49969 24939   5394 0.8580  22
  -1   7  -2   57.05   13.69  14 1.41105 0.07363  0.82991 -0.30714  0.87006  0.49638  0.18734 -0.58516 24939   5395 0.8355  22
  -1   6  -2  194.04   14.88  14 1.56252 0.07302  0.82991 -0.36534  0.87006  0.41137  0.18734 -0.62930 24939   5396 0.8266  22
  -1   5  -1  131.83    7.58  14 2.04468 0.07370  0.82991 -0.37741  0.87006  0.49879  0.18734 -0.47682 24939   5398 0.7936  22
   1   8  -1  104.38   19.96  14 1.38216 0.07705  0.82991  0.19622  0.87006  0.88112  0.18734 -0.37951 24939   5401 0.8306  23
   1   7  -1   42.73   14.75  14 1.56130 0.07688  0.82991  0.21222  0.87006  0.87630  0.18734 -0.40503 24939   5402 0.8184  23
   1   6  -1   39.56   11.31  14 1.79385 0.07665  0.82991  0.23489  0.87006  0.86907  0.18734 -0.43770 24939   5403 0.8031  23
   1   5  -1   54.87    7.77  14 2.10633 0.07633  0.82991  0.26555  0.87006  0.85685  0.18734 -0.48003 24939   5404 0.7830  23
   2   2   3  744.96   26.99  14 2.62460 0.07571  0.82991  0.33162  0.87006  0.30716  0.18734  0.92919 24939   5406 0.7515  26
   4   2   4  418.03   21.53  14 1.82800 0.07661  0.82991  0.52124  0.87006  0.22289  0.18734  0.85230 24939   5408 0.8009  26
   3   2   4 1006.26   39.12  14 1.98479 0.07602  0.82991  0.34159  0.87006  0.16936  0.18734  0.93985 24939   5409 0.7918  26
   4   3   5  235.69   21.99  14 1.53546 0.07687  0.82991  0.42001  0.87006  0.27995  0.18734  0.90392 24939   5411 0.8202  26
   4   2   5   75.73   13.44  14 1.57911 0.07602  0.82991  0.33716  0.87006  0.07699  0.18734  0.93549 24939   5412 0.8191  26
   3  -1   5 1608.78   62.96  14 1.13799 0.07031  0.82991 -0.41096  0.87006 -0.78286  0.18734  0.62179 24939   5421 0.8602  28
   2   0   5 1428.33   54.38  14 1.28354 0.07021  0.82991 -0.45481  0.87006 -0.67730  0.18734  0.72338 24939   5422 0.8508  28
   3  -1   6   26.83   16.06  14 0.91381 0.07033  0.82991 -0.49562  0.87006 -0.80016  0.18734  0.58955 24939   5424 0.8752  28
   2   0   6 1727.91   71.80  14 0.99812 0.07023  0.82991 -0.54029  0.87006 -0.72018  0.18734  0.66185 24939   5425 0.8697  28
   3  -1   7  256.57   33.42  14 0.74741 0.07103  0.82991 -0.55634  0.87006 -0.81300  0.18734  0.55596 24939   5428 0.8854  28
   2   0   7  209.07   28.27  14 0.80382 0.07046  0.82991 -0.59641  0.87006 -0.74897  0.18734  0.61104 24939   5429 0.8824  28
   4  -1   8  314.70   41.04  14 0.73279 0.06975  0.82991 -0.45452  0.87006 -0.75929  0.18734  0.64498 24939   5432 0.8884  28
   3   0   8   99.15   28.96  14 0.78555 0.06963  0.82991 -0.48497  0.87006 -0.69205  0.18734  0.70379 24939   5433 0.8850  28
   2   1   8  107.80   27.81  14 0.81373 0.06957  0.82991 -0.53396  0.87006 -0.62613  0.18734  0.73682 24939   5434 0.8832  28
  -1   1   2  564.85   22.16  14 1.10307 0.08494  0.82991 -0.91642  0.87006 -0.78825  0.18734  0.12222 24939   5447 0.8364  29
   1  -1   3  268.13   17.09  14 0.71494 0.08693  0.82991 -0.77953  0.87006 -0.92276  0.18734  0.11641 24939   5448 0.8643  29
   0   0   3 1421.54   55.87  14 0.85828 0.08499  0.82991 -0.83429  0.87006 -0.86982  0.18734  0.17534 24939   5449 0.8556  29
   1  -1   4 1197.32   70.20  14 0.57312 0.08670  0.82991 -0.79037  0.87006 -0.91219  0.18734  0.13756 24939   5451 0.8764  29
   0   0   4 2609.45  113.06  14 0.64375 0.08540  0.82991 -0.83429  0.87006 -0.86982  0.18734  0.17534 24939   5452 0.8723  29
  -1   1   4  765.72   45.92  14 0.63094 0.08513  0.82991 -0.88115  0.87006 -0.82304  0.18734  0.16890 24939   5453 0.8738  29
  -2   2   4 1126.75   75.62  14 0.55174 0.08603  0.82991 -0.91642  0.87006 -0.78825  0.18734  0.12222 24939   5454 0.8791  29
   2  -2   5  309.52   79.41  14 0.40332 0.08813  0.82991 -0.77275  0.87006 -0.92927  0.18734  0.09939 24939   5455 0.8890  29
   1  -1   5 1931.74  137.82  14 0.47440 0.08667  0.82991 -0.79812  0.87006 -0.90500  0.18734  0.14732 24939   5456 0.8847  29
   0   0   5 2065.52  130.73  14 0.51516 0.08565  0.82991 -0.83429  0.87006 -0.86982  0.18734  0.17534 24939   5457 0.8826  29
  -1   1   5 1618.31  111.31  14 0.51200 0.08537  0.82991 -0.87228  0.87006 -0.83223  0.18734  0.17304 24939   5458 0.8832  29
  -2   2   5 1621.19  130.79  14 0.47023 0.08581  0.82991 -0.90451  0.87006 -0.79999  0.18734  0.14364 24939   5459 0.8861  29
   1  -1   6   82.30   75.63  14 0.40366 0.08656  0.82991 -0.80231  0.87006 -0.90025  0.18734  0.15547 24939   5461 0.8908  29
  -1   1   6  186.59   62.53  14 0.43084 0.08545  0.82991 -0.86590  0.87006 -0.83805  0.18734  0.17725 24939   5463 0.8898  29
  -2   2   6 1394.06  181.61  14 0.40667 0.08577  0.82991 -0.89507  0.87006 -0.80954  0.18734  0.15532 24939   5464 0.8915  29
  -3   4   8  177.58   94.82  14 0.44609 0.07725  0.82991 -0.90216  0.87006 -0.70468  0.18734  0.31680 24939   5466 0.8987  29
   0   1   9  169.07   95.40  14 0.44160 0.07713  0.82991 -0.80249  0.87006 -0.80505  0.18734  0.37228 24939   5468 0.8992  29
   1   7  -3  175.62   22.77  14 1.31840 0.07527  0.82991  0.05546  0.87006  0.60567  0.18734 -0.74268 24939   5477 0.8385  33
   1   7  -2  134.21   17.69  14 1.45381 0.07624  0.82991  0.14458  0.87006  0.75689  0.18734 -0.59515 24939   5479 0.8272  33
   1   6  -2   45.06   12.15  14 1.64248 0.07596  0.82991  0.14849  0.87006  0.72183  0.18734 -0.64714 24939   5480 0.8149  33
   1   5  -2  177.93   11.70  14 1.87529 0.07560  0.82991  0.14658  0.87006  0.66703  0.18734 -0.71307 24939   5481 0.8001  33
   3   6  -1   44.97   17.96  14 1.58237 0.07769  0.82991  0.58172  0.87006  0.90211  0.18734 -0.40426 24939   5486 0.8152  34
   2   6  -1  577.83   28.76  14 1.70195 0.07724  0.82991  0.43461  0.87006  0.90547  0.18734 -0.42390 24939   5488 0.8080  34
   2   5  -1  108.15   11.45  14 1.96505 0.07693  0.82991  0.48368  0.87006  0.88753  0.18734 -0.45844 24939   5489 0.7909  34
   3   6   0   41.32   19.42  14 1.64246 0.07792  0.82991  0.63413  0.87006  0.96778  0.18734 -0.18248 24939   5493 0.8106  34
   3   5   0  104.78   15.59  14 1.87399 0.07759  0.82991  0.69971  0.87006  0.94847  0.18734 -0.18060 24939   5494 0.7955  34
   2   4   0  360.56   15.07  14 2.46702 0.07657  0.82991  0.63293  0.87006  0.96832  0.18734 -0.18126 24939   5497 0.7591  34
   3   2   2   22.50    6.62  14 2.72169 0.07614  0.82991  0.78544  0.87006  0.55547  0.18734  0.58972 24939   5498 0.7443  36
   5   3   3   56.52   17.33  14 1.71091 0.07776  0.82991  0.82299  0.87006  0.54108  0.18734  0.54800 24939   5499 0.8062  36
   5   2   3   33.75   11.60  14 1.83148 0.07726  0.82991  0.80053  0.87006  0.36478  0.18734  0.59788 24939   5500 0.7991  36
   4   3   3  140.55   13.93  14 1.92393 0.07738  0.82991  0.73716  0.87006  0.56804  0.18734  0.63526 24939   5501 0.7926  36
   4   2   3   51.68    9.15  14 2.08141 0.07685  0.82991  0.71045  0.87006  0.37547  0.18734  0.70336 24939   5502 0.7834  36
   5   3   4  371.17   27.24  14 1.58190 0.07764  0.82991  0.69315  0.87006  0.43193  0.18734  0.71402 24939   5507 0.8154  36
   6   0   4  286.68   20.26  14 1.51918 0.07542  0.82991  0.52228  0.87006 -0.18403  0.18734  0.68044 24939   5512 0.8244  37
   5   1   4   53.57   10.73  14 1.69566 0.07620  0.82991  0.55289  0.87006  0.02064  0.18734  0.77914 24939   5513 0.8107  37
   5   0   4  138.89   12.22  14 1.65796 0.07485  0.82991  0.39889  0.87006 -0.24647  0.18734  0.75879 24939   5514 0.8163  37
   7   0   5   60.63   18.38  14 1.25802 0.07530  0.82991  0.47900  0.87006 -0.20613  0.18734  0.71117 24939   5516 0.8427  37
   6   0   5  687.00   37.90  14 1.34855 0.07475  0.82991  0.37013  0.87006 -0.26121  0.18734  0.77295 24939   5518 0.8375  37
   5   1   5  375.99   24.63  14 1.48254 0.07554  0.82991  0.37791  0.87006 -0.09094  0.18734  0.86760 24939   5519 0.8267  37
   3  -1   3  428.77   15.69  14 1.91738 0.07133  0.82991 -0.12040  0.87006 -0.72299  0.18734  0.63228 24939   5528 0.8075  38
   4  -1   4 1077.88   41.51  14 1.55066 0.07154  0.82991 -0.02731  0.87006 -0.63516  0.18734  0.69587 24939   5529 0.8306  38
   6  -2   5   86.48   18.89  14 1.09850 0.07068  0.82991 -0.01362  0.87006 -0.70084  0.18734  0.59798 24939   5530 0.8622  38
   5  -1   5  105.39   15.10  14 1.28767 0.07177  0.82991  0.02804  0.87006 -0.57735  0.18734  0.73001 24939   5531 0.8475  38
   4  -1   5  916.27   41.72  14 1.26235 0.07061  0.82991 -0.17741  0.87006 -0.67848  0.18734  0.71045 24939   5532 0.8514  38
   7  -2   6  242.77   34.57  14 0.96801 0.07101  0.82991  0.03141  0.87006 -0.64956  0.18734  0.63946 24939   5533 0.8704  38
   6  -1   6  156.75   23.98  14 1.09634 0.07195  0.82991  0.06327  0.87006 -0.53891  0.18734  0.74965 24939   5534 0.8600  38
   6  -2   6  768.09   52.49  14 0.95794 0.07016  0.82991 -0.12040  0.87006 -0.72299  0.18734  0.63228 24939   5535 0.8725  38
   5  -1   6  385.66   30.10  14 1.09319 0.07089  0.82991 -0.10274  0.87006 -0.62230  0.18734  0.74487 24939   5536 0.8621  38
   6  -2   7   74.68   29.21  14 0.83507 0.06974  0.82991 -0.21224  0.87006 -0.74190  0.18734  0.64497 24939   5541 0.8815  38
   5  -1   7  160.54   29.39  14 0.93211 0.07017  0.82991 -0.21185  0.87006 -0.65918  0.18734  0.73959 24939   5542 0.8742  38
   4  -3   4 1098.60   54.03  14 0.69925 0.07768  0.82991 -0.57056  0.87006 -0.97265  0.18734  0.21093 24939   5548 0.8790  39
   3  -2   4  856.60   36.03  14 0.91604 0.07496  0.82991 -0.56105  0.87006 -0.93691  0.18734  0.33282 24939   5549 0.8674  39
   6  -4   5  303.67   43.35  14 0.63840 0.07325  0.82991 -0.45040  0.87006 -0.96248  0.18734  0.26901 24939   5551 0.8898  39
   4  -3   5 1100.14   72.67  14 0.60526 0.07798  0.82991 -0.60652  0.87006 -0.95885  0.18734  0.24305 24939   5553 0.8857  39
   3  -2   5 1983.52   79.90  14 0.74332 0.07591  0.82991 -0.61316  0.87006 -0.92459  0.18734  0.33880 24939   5554 0.8784  39
   6  -4   6   59.37   43.83  14 0.57257 0.07368  0.82991 -0.49050  0.87006 -0.95316  0.18734  0.30205 24939   5557 0.8940  39
   5  -3   6   82.30   28.26  14 0.68021 0.07225  0.82991 -0.47785  0.87006 -0.91895  0.18734  0.39381 24939   5558 0.8883  39
   5  -4   6  426.69   96.72  14 0.43690 0.08065  0.82991 -0.63599  0.87006 -0.96676  0.18734  0.18525 24939   5559 0.8952  39
   2  -1   6 2619.55  106.85  14 0.69847 0.07539  0.82991 -0.68028  0.87006 -0.87056  0.18734  0.40261 24939   5562 0.8824  39
   6  -4   7   99.26   61.72  14 0.51153 0.07418  0.82991 -0.52728  0.87006 -0.94415  0.18734  0.32330 24939   5564 0.8977  39
   5  -3   7   64.77   38.96  14 0.59196 0.07269  0.82991 -0.52607  0.87006 -0.91231  0.18734  0.40146 24939   5565 0.8939  39
   4  -3   7  134.91   66.57  14 0.45777 0.07893  0.82991 -0.66358  0.87006 -0.93743  0.18734  0.26570 24939   5566 0.8957  39
   3   6  -3  213.27   27.59  14 1.35893 0.07648  0.82991  0.38451  0.87006  0.65030  0.18734 -0.75658 24939   5581 0.8333  43
   3   6  -2   31.85   17.90  14 1.48294 0.07725  0.82991  0.49661  0.87006  0.79118  0.18734 -0.60035 24939   5583 0.8231  43
   3   5  -2   31.27   14.76  14 1.65519 0.07694  0.82991  0.52784  0.87006  0.73816  0.18734 -0.64924 24939   5584 0.8119  43
   3   4  -2  257.81   16.38  14 1.86312 0.07654  0.82991  0.55638  0.87006  0.65800  0.18734 -0.70577 24939   5585 0.7987  43
   2   5  -2  124.65   13.32  14 1.78689 0.07641  0.82991  0.36579  0.87006  0.72788  0.18734 -0.68571 24939   5586 0.8041  43
   2   4  -2 1366.42   52.36  14 2.04126 0.07596  0.82991  0.38451  0.87006  0.65030  0.18734 -0.75658 24939   5587 0.7882  43
   2   3  -1  207.68    9.59  14 2.77059 0.07586  0.82991  0.61044  0.87006  0.78125  0.18734 -0.57028 24939   5588 0.7421  43
   4   1   2  176.96    8.98  14 2.48749 0.07620  0.82991  0.82914  0.87006  0.24593  0.18734  0.52402 24939   5589 0.7588  46
   7   1   3  215.76   22.53  14 1.48949 0.07712  0.82991  0.82954  0.87006  0.13564  0.18734  0.45605 24939   5590 0.8229  46
   6   1   3   15.48   12.51  14 1.67722 0.07690  0.82991  0.79152  0.87006  0.13796  0.18734  0.53375 24939   5591 0.8104  46
   5   1   3  301.02   16.55  14 1.90947 0.07658  0.82991  0.72819  0.87006  0.13189  0.18734  0.63075 24939   5592 0.7955  46
   6   1   4  468.34   28.40  14 1.53624 0.07662  0.82991  0.65155  0.87006  0.05223  0.18734  0.68972 24939   5597 0.8207  46
   4  -1   2   20.19    3.67  14 2.27694 0.07341  0.82991  0.35561  0.87006 -0.52396  0.18734  0.46574 24939   5600 0.7796  47
   5  -1   3  153.72   11.05  14 1.76479 0.07358  0.82991  0.34973  0.87006 -0.46887  0.18734  0.57023 24939   5601 0.8121  47
   8  -2   4  242.90   29.02  14 1.13798 0.07293  0.82991  0.35561  0.87006 -0.52396  0.18734  0.46574 24939   5603 0.8554  47
   7  -1   4  458.87   31.39  14 1.32537 0.07429  0.82991  0.45008  0.87006 -0.36906  0.18734  0.57168 24939   5604 0.8400  47
   6  -1   4   51.34   12.99  14 1.42816 0.07363  0.82991  0.33607  0.87006 -0.43863  0.18734  0.62955 24939   5605 0.8343  47
   7  -2   5  108.34   22.12  14 1.08586 0.07161  0.82991  0.13765  0.87006 -0.62142  0.18734  0.58805 24939   5611 0.8613  47
   6  -1   5  398.38   29.64  14 1.25643 0.07282  0.82991  0.19299  0.87006 -0.49201  0.18734  0.70779 24939   5612 0.8475  47
   2  -1   2   48.03    2.69  14 2.33720 0.07185  0.82991 -0.31222  0.87006 -0.86708  0.18734  0.47807 24939   5621 0.7800  48
   6  -3   3  104.77   14.71  14 1.11797 0.06997  0.82991 -0.08077  0.87006 -0.86519  0.18734  0.29393 24939   5622 0.8622  48
   5  -3   3  239.57   18.52  14 1.03548 0.07128  0.82991 -0.29165  0.87006 -0.94377  0.18734  0.25688 24939   5623 0.8653  48
   4  -2   3  923.12   35.25  14 1.41699 0.07057  0.82991 -0.19817  0.87006 -0.86601  0.18734  0.42011 24939   5624 0.8414  48
   8  -4   4  253.74   33.09  14 0.83808 0.06955  0.82991 -0.08077  0.87006 -0.86519  0.18734  0.29393 24939   5625 0.8816  48
   7  -4   4   85.67   24.13  14 0.79967 0.07016  0.82991 -0.23532  0.87006 -0.92583  0.18734  0.27161 24939   5626 0.8832  48
   6  -3   4  224.71   21.61  14 1.00372 0.06992  0.82991 -0.15779  0.87006 -0.86598  0.18734  0.38614 24939   5627 0.8698  48
   4  -2   4  128.65   12.50  14 1.16774 0.07048  0.82991 -0.31222  0.87006 -0.86708  0.18734  0.47807 24939   5628 0.8579  48
   8  -4   5  308.00   40.80  14 0.77522 0.06954  0.82991 -0.13764  0.87006 -0.86541  0.18734  0.36739 24939   5631 0.8858  48
   7  -3   5  195.13   27.08  14 0.92580 0.06991  0.82991 -0.07332  0.87006 -0.79627  0.18734  0.47463 24939   5632 0.8751  48
   8  -5   5  132.91   52.07  14 0.60127 0.07161  0.82991 -0.33826  0.87006 -0.95653  0.18734  0.24273 24939   5633 0.8948  48
   7  -4   5  135.00   32.05  14 0.73063 0.07024  0.82991 -0.28776  0.87006 -0.92153  0.18734  0.33298 24939   5634 0.8878  48
   6  -3   5   64.61   20.05  14 0.88606 0.06991  0.82991 -0.23888  0.87006 -0.86634  0.18734  0.44624 24939   5635 0.8777  48
   6  -3   6  314.95   35.78  14 0.77855 0.06994  0.82991 -0.31222  0.87006 -0.86708  0.18734  0.47807 24939   5640 0.8850  48
   7  -5   0  246.62   49.56  14 0.51720 0.08039  0.82991 -0.48243  0.87006 -0.98328  0.18734 -0.18179 24939   5646 0.8892  49
   5  -4   0  683.07   77.21  14 0.44837 0.08818  0.82991 -0.62886  0.87006 -0.96880  0.18734 -0.18329 24939   5647 0.8850  49
   8  -6   1  633.10  134.55  14 0.41702 0.08177  0.82991 -0.51782  0.87006 -0.99188  0.18734 -0.12465 24939   5650 0.8954  49
   7  -5   1   57.75   35.07  14 0.56342 0.07828  0.82991 -0.45191  0.87006 -0.99327  0.18734 -0.10370 24939   5651 0.8884  49
   8  -6   2  312.38   99.48  14 0.43789 0.08017  0.82991 -0.50303  0.87006 -0.99820  0.18734 -0.05988 24939   5654 0.8957  49
   7  -5   2  111.54   37.85  14 0.57970 0.07710  0.82991 -0.44083  0.87006 -0.99756  0.18734 -0.01997 24939   5655 0.8888  49
   5  -4   2  583.64   52.20  14 0.57184 0.08293  0.82991 -0.57469  0.87006 -0.99581  0.18734 -0.02223 24939   5656 0.8815  49
   4  -3   2   98.63   12.74  14 0.87344 0.07813  0.82991 -0.50492  0.87006 -0.99794  0.18734  0.06374 24939   5657 0.8653  49
   8  -6   3  150.60   83.19  14 0.44438 0.07891  0.82991 -0.49877  0.87006 -0.99998  0.18734  0.00645 24939   5658 0.8968  49
   6  -5   3  146.36   83.54  14 0.40778 0.08514  0.82991 -0.61811  0.87006 -0.98975  0.18734 -0.01216 24939   5659 0.8921  49
   8  -6   4  268.39   92.24  14 0.43713 0.07824  0.82991 -0.50372  0.87006 -0.99794  0.18734  0.06399 24939   5661 0.8982  49
   6  -5   4  252.37  105.45  14 0.40292 0.08402  0.82991 -0.62102  0.87006 -0.98827  0.18734  0.04301 24939   5662 0.8939  49
   0  -3   1   14.16    2.12  15 3.46273 0.07455 -0.64414 -0.13388 -0.93891 -0.60859 -0.27885  0.76870 24940   5663 0.7048  13
   0  -4   2  575.47   22.70  15 2.21396 0.07400 -0.64414 -0.02018 -0.93891 -0.38014 -0.27885  0.90388 24940   5664 0.7820  13
   0  -5   2  211.00   11.81  15 1.95757 0.07485 -0.64414 -0.09005 -0.93891 -0.51832 -0.27885  0.83260 24940   5665 0.7964  13
   0  -6   2  563.73   27.52  15 1.73143 0.07550 -0.64414 -0.13382 -0.93891 -0.60768 -0.27885  0.76954 24940   5666 0.8099  13
   0  -6   3  338.78   22.53  15 1.47399 0.07391 -0.64414 -0.02018 -0.93891 -0.38014 -0.27885  0.90388 24940   5667 0.8307  13
  -1  -6   3   26.45   12.64  15 1.43800 0.07473 -0.64414 -0.21939 -0.93891 -0.45680 -0.27885  0.88951 24940   5668 0.8314  13
  -1  -7   3  198.06   23.66  15 1.32502 0.07535 -0.64414 -0.24892 -0.93891 -0.54232 -0.27885  0.83978 24940   5670 0.8379  13
  -2  -5   1  111.43   11.87  15 1.92396 0.07679 -0.64414 -0.64966 -0.93891 -0.78110 -0.27885  0.54806 24940   5680 0.7940  14
  -1  -6   1   12.12   10.65  15 1.83947 0.07691 -0.64414 -0.45522 -0.93891 -0.84200 -0.27885  0.53804 24940   5681 0.7994  14
  -2  -6   1  531.48   31.35  15 1.68932 0.07719 -0.64414 -0.61797 -0.93891 -0.82318 -0.27885  0.51535 24940   5682 0.8090  14
  -4  -3  -2  223.91   14.42  15 1.95810 0.07700 -0.64414 -0.95922 -0.93891 -0.51987 -0.27885 -0.27881 24940   5691 0.7912  16
  -5  -3  -2   31.86   13.18  15 1.67430 0.07708 -0.64414 -0.97786 -0.93891 -0.43378 -0.27885 -0.19934 24940   5692 0.8102  16
  -3  -2  -1  202.54    9.71  15 2.74941 0.07586 -0.64414 -0.99357 -0.93891 -0.49407 -0.27885 -0.11317 24940   5697 0.7434  16
  -7  -1  -3  178.38   23.75  15 1.28539 0.07486 -0.64414 -0.79223 -0.93891  0.07700 -0.27885 -0.27187 24940   5703 0.8416  17
  -4  -1  -2  174.01    9.41  15 2.20744 0.07533 -0.64414 -0.83426 -0.93891 -0.04718 -0.27885 -0.34860 24940   5708 0.7790  17
  -5  -1  -2  167.07   12.45  15 1.81699 0.07520 -0.64414 -0.84533 -0.93891 -0.00905 -0.27885 -0.23940 24940   5709 0.8049  17
  -6  -1  -2   64.85   13.76  15 1.53494 0.07498 -0.64414 -0.84223 -0.93891  0.02482 -0.27885 -0.15968 24940   5710 0.8243  17
  -7  -1  -2  135.73   19.82  15 1.32116 0.07474 -0.64414 -0.83444 -0.93891  0.05201 -0.27885 -0.10074 24940   5711 0.8394  17
  -6   1  -3  253.09   17.62  15 1.27412 0.07110 -0.64414 -0.40279 -0.93891  0.55775 -0.27885 -0.26335 24940   5715 0.8497  18
  -7   1  -3   36.79   14.37  15 1.14489 0.07123 -0.64414 -0.46534 -0.93891  0.51209 -0.27885 -0.20952 24940   5716 0.8581  18
  -8   1  -3  175.43   25.74  15 1.03030 0.07129 -0.64414 -0.50824 -0.93891  0.47817 -0.27885 -0.16337 24940   5717 0.8657  18
  -6   1  -2  201.22   15.71  15 1.33712 0.07103 -0.64414 -0.45174 -0.93891  0.54152 -0.27885 -0.10361 24940   5721 0.8457  18
  -7   1  -2   63.71   15.23  15 1.17976 0.07109 -0.64414 -0.49834 -0.93891  0.49994 -0.27885 -0.05867 24940   5722 0.8560  18
  -8   1  -2  136.36   22.06  15 1.04839 0.07110 -0.64414 -0.52826 -0.93891  0.47092 -0.27885 -0.02296 24940   5723 0.8648  18
  -9   3  -1   49.52   34.39  15 0.68068 0.07067 -0.64414 -0.11755 -0.93891  0.78697 -0.27885  0.18017 24940   5731 0.8906  19
  -5   2  -1  266.79   17.67  15 1.07934 0.07275 -0.64414  0.00052 -0.93891  0.85973 -0.27885  0.12284 24940   5734 0.8597  19
  -6   2  -1 1707.89   77.12  15 1.04137 0.07068 -0.64414 -0.13368 -0.93891  0.78432 -0.27885  0.12711 24940   5735 0.8660  19
  -7   2  -1  122.55   18.01  15 0.97086 0.07010 -0.64414 -0.22538 -0.93891  0.72268 -0.27885  0.13689 24940   5736 0.8717  19
  -8   3   0  100.62   36.30  15 0.63787 0.07360 -0.64414  0.02516 -0.93891  0.84459 -0.27885  0.27636 24940   5738 0.8894  19
  -6   2   0  421.17   28.31  15 0.94946 0.07210 -0.64414 -0.06412 -0.93891  0.79844 -0.27885  0.27615 24940   5742 0.8698  19
  -7   2   0  105.19   20.62  15 0.90159 0.07042 -0.64414 -0.16415 -0.93891  0.73808 -0.27885  0.27600 24940   5743 0.8759  19
  -8   2   0   50.09   21.44  15 0.84162 0.06996 -0.64414 -0.23717 -0.93891  0.68814 -0.27885  0.27569 24940   5744 0.8807  19
  -3   1   0   13.96    2.90  15 1.90016 0.07293 -0.64414 -0.06546 -0.93891  0.79769 -0.27885  0.27615 24940   5745 0.8048  19
  -4   1   0   23.08    3.76  15 1.68848 0.07108 -0.64414 -0.23717 -0.93891  0.68814 -0.27885  0.27569 24940   5746 0.8227  19
  -9   3   1   54.18   48.63  15 0.56866 0.07315 -0.64414  0.00774 -0.93891  0.81271 -0.27885  0.35726 24940   5747 0.8950  19
   0  -1   2  588.86   20.85  15 1.19984 0.08357 -0.64414  0.55292 -0.93891  0.76012 -0.27885  0.61837 24940   5750 0.8314  20
   0  -2   4 1244.58   63.43  15 0.59918 0.08457 -0.64414  0.55292 -0.93891  0.76012 -0.27885  0.61837 24940   5753 0.8771  20
   1  -3   4  983.12   46.98  15 0.70087 0.08008 -0.64414  0.58924 -0.93891  0.67743 -0.27885  0.67631 24940   5754 0.8754  20
  -2  -1   5 1929.84  167.42  15 0.41194 0.08714 -0.64414  0.48948 -0.93891  0.81680 -0.27885  0.56927 24940   5755 0.8894  20
  -1  -2   5 1817.91  108.45  15 0.54627 0.08198 -0.64414  0.47793 -0.93891  0.73486 -0.27885  0.66611 24940   5756 0.8848  20
   0  -3   5  101.67   23.94  15 0.63817 0.07804 -0.64414  0.49799 -0.93891  0.65262 -0.27885  0.73129 24940   5757 0.8831  20
   2  -4   5 1456.56  130.49  15 0.44690 0.08448 -0.64414  0.64130 -0.93891  0.73881 -0.27885  0.59632 24940   5758 0.8897  20
  -1  -3   6  132.12   37.86  15 0.55409 0.07730 -0.64414  0.43318 -0.93891  0.64976 -0.27885  0.74978 24940   5761 0.8905  20
   1  -4   6  140.99   62.78  15 0.45163 0.08162 -0.64414  0.57399 -0.93891  0.70290 -0.27885  0.66325 24940   5762 0.8929  20
   0  -4   7   97.52   76.46  15 0.42622 0.07989 -0.64414  0.51582 -0.93891  0.68466 -0.27885  0.70079 24940   5766 0.8970  20
   1  -5   7  246.15   76.31  15 0.45424 0.07768 -0.64414  0.53914 -0.93891  0.63362 -0.27885  0.72981 24940   5767 0.8975  20
   1  -3   2  667.16   22.04  15 2.08519 0.07120 -0.64414  0.48439 -0.93891  0.16157 -0.27885  0.86988 24940   5770 0.7973  21
   2  -6   4  395.00   27.55  15 1.04160 0.06984 -0.64414  0.48439 -0.93891  0.16157 -0.27885  0.86988 24940   5775 0.8675  21
   2  -6   5   92.62   23.94  15 0.80522 0.07018 -0.64414  0.52058 -0.93891  0.33922 -0.27885  0.84893 24940   5777 0.8828  21
   1  -6   5  374.07   31.91  15 0.92123 0.06963 -0.64414  0.36463 -0.93891  0.18281 -0.27885  0.93115 24940   5778 0.8758  21
   3  -7   5  225.21   33.38  15 0.74963 0.07006 -0.64414  0.58491 -0.93891  0.32361 -0.27885  0.81030 24940   5779 0.8868  21
   2  -7   5   44.33   23.01  15 0.86699 0.06959 -0.64414  0.44479 -0.93891  0.16349 -0.27885  0.89305 24940   5780 0.8796  21
   4  -8   5  369.98   50.46  15 0.68916 0.06996 -0.64414  0.64098 -0.93891  0.32158 -0.27885  0.76756 24940   5781 0.8910  21
   2  -7   6  298.89   44.36  15 0.69587 0.06990 -0.64414  0.48380 -0.93891  0.31492 -0.27885  0.87111 24940   5783 0.8907  21
   1  -4   2   15.08    3.79  15 2.09147 0.07243 -0.64414  0.32729 -0.93891 -0.15253 -0.27885  0.87155 24940   5793 0.7938  22
   1  -6   2  165.78   12.21  15 1.73168 0.07453 -0.64414  0.12291 -0.93891 -0.48058 -0.27885  0.77016 24940   5795 0.8121  22
   1  -6   3  314.43   20.59  15 1.44135 0.07268 -0.64414  0.20845 -0.93891 -0.24393 -0.27885  0.89159 24940   5796 0.8354  22
   2  -7   3   39.72   14.83  15 1.28010 0.07220 -0.64414  0.35254 -0.93891 -0.20728 -0.27885  0.82436 24940   5797 0.8471  22
   1  -7   3   38.60   13.77  15 1.34700 0.07364 -0.64414  0.13597 -0.93891 -0.36873 -0.27885  0.85277 24940   5798 0.8398  22
   2  -8   3  496.12   35.46  15 1.21344 0.07320 -0.64414  0.27776 -0.93891 -0.32807 -0.27885  0.79506 24940   5799 0.8497  22
   1  -8   3  197.34   23.65  15 1.25269 0.07441 -0.64414  0.07779 -0.93891 -0.46209 -0.27885  0.81197 24940   5800 0.8447  22
   2  -8   4  256.05   31.37  15 1.04399 0.07157 -0.64414  0.32729 -0.93891 -0.15253 -0.27885  0.87155 24940   5803 0.8642  22
   0  -5   1   84.48    7.23  15 2.29839 0.07598 -0.64414 -0.21465 -0.93891 -0.77219 -0.27885  0.60377 24940   5810 0.7715  23
   0  -6   1   98.01    9.72  15 1.95419 0.07646 -0.64414 -0.23151 -0.93891 -0.80726 -0.27885  0.55572 24940   5811 0.7928  23
   0  -7   1   33.62   11.95  15 1.69889 0.07686 -0.64414 -0.24453 -0.93891 -0.83139 -0.27885  0.51934 24940   5812 0.8090  23
   0  -8   1  303.54   25.70  15 1.49923 0.07719 -0.64414 -0.25331 -0.93891 -0.84852 -0.27885  0.49097 24940   5813 0.8221  23
  -6  -2  -4  225.62   23.96  15 1.37437 0.07611 -0.64414 -0.78854 -0.93891 -0.08500 -0.27885 -0.50068 24940   5824 0.8330  26
  -5  -3  -4  305.91   25.01  15 1.50247 0.07703 -0.64414 -0.80912 -0.93891 -0.29244 -0.27885 -0.57320 24940   5825 0.8222  26
  -4  -2  -3   35.22    8.26  15 1.95215 0.07634 -0.64414 -0.80838 -0.93891 -0.22599 -0.27885 -0.55152 24940   5829 0.7932  26
  -5  -2  -3   44.84   11.59  15 1.67790 0.07635 -0.64414 -0.85541 -0.93891 -0.18768 -0.27885 -0.43756 24940   5830 0.8116  26
  -5  -3  -3   40.99   13.83  15 1.60688 0.07714 -0.64414 -0.90968 -0.93891 -0.37768 -0.27885 -0.40565 24940   5831 0.8147  26
  -6  -3  -3  186.34   22.81  15 1.40918 0.07705 -0.64414 -0.93171 -0.93891 -0.32311 -0.27885 -0.32365 24940   5832 0.8287  26
  -3  -1  -2   17.59    3.57  15 2.75010 0.07521 -0.64414 -0.78854 -0.93891 -0.08500 -0.27885 -0.50068 24940   5833 0.7452  26
  -3  -2  -2    9.44    5.07  15 2.57839 0.07606 -0.64414 -0.89014 -0.93891 -0.40535 -0.27885 -0.45336 24940   5834 0.7534  26
  -4  -2  -2 1144.48   42.95  15 2.11692 0.07633 -0.64414 -0.93171 -0.93891 -0.32311 -0.27885 -0.32365 24940   5835 0.7824  26
  -8   3  -4  321.73   40.61  15 0.71692 0.07006 -0.64414 -0.05013 -0.93891  0.83256 -0.27885 -0.12958 24940   5843 0.8890  28
  -6   2  -4  405.02   29.31  15 0.96215 0.06999 -0.64414 -0.07330 -0.93891  0.79521 -0.27885 -0.26829 24940   5846 0.8725  28
  -7   2  -4   31.79   17.81  15 0.92527 0.06967 -0.64414 -0.18422 -0.93891  0.73136 -0.27885 -0.24887 24940   5847 0.8755  28
  -8   2  -4  175.80   29.23  15 0.87319 0.06982 -0.64414 -0.26699 -0.93891  0.67921 -0.27885 -0.21925 24940   5848 0.8788  28
  -7   3  -3  156.55   26.66  15 0.73740 0.07204 -0.64414  0.03667 -0.93891  0.88320 -0.27885 -0.03650 24940   5849 0.8846  28
  -8   3  -3   50.34   25.34  15 0.73316 0.07042 -0.64414 -0.06788 -0.93891  0.82953 -0.27885 -0.03600 24940   5850 0.8873  28
  -9   3  -3  207.08   37.61  15 0.71129 0.06983 -0.64414 -0.15091 -0.93891  0.78035 -0.27885 -0.02631 24940   5851 0.8897  28
  -5   2  -3  270.78   18.28  15 1.05599 0.07100 -0.64414  0.01558 -0.93891  0.86086 -0.27885 -0.17165 24940   5853 0.8644  28
  -6   2  -3   13.21   12.94  15 1.03138 0.07014 -0.64414 -0.12378 -0.93891  0.78580 -0.27885 -0.16301 24940   5854 0.8676  28
  -7   2  -3   24.27   16.26  15 0.97418 0.06970 -0.64414 -0.22667 -0.93891  0.72154 -0.27885 -0.13877 24940   5855 0.8722  28
  -6   2  -2 1441.51   59.22  15 1.06588 0.07034 -0.64414 -0.15091 -0.93891  0.78035 -0.27885 -0.02631 24940   5857 0.8650  28
  -7   2  -2  105.15   16.86  15 0.99334 0.06988 -0.64414 -0.24479 -0.93891  0.71727 -0.27885 -0.00505 24940   5858 0.8706  28
  -3   1  -2  623.39   20.87  15 1.92565 0.07125 -0.64414 -0.07188 -0.93891  0.79598 -0.27885 -0.26842 24940   5859 0.8072  28
  -4   1  -2    9.19    4.36  15 1.75260 0.07098 -0.64414 -0.26709 -0.93891  0.67886 -0.27885 -0.22061 24940   5860 0.8188  28
  -7   4  -2  101.40   64.91  15 0.42313 0.08401 -0.64414  0.32830 -0.93891  0.97063 -0.27885  0.15811 24940   5863 0.8922  29
  -8   4  -2  235.26   68.78  15 0.49974 0.07809 -0.64414  0.19746 -0.93891  0.93942 -0.27885  0.13664 24940   5864 0.8936  29
  -8   4  -1  105.86   57.76  15 0.45469 0.08068 -0.64414  0.23698 -0.93891  0.93934 -0.27885  0.21319 24940   5866 0.8938  29
  -5   3  -1  377.02   61.05  15 0.44819 0.08850 -0.64414  0.41105 -0.93891  0.97277 -0.27885  0.21483 24940   5867 0.8847  29
  -4   2  -1   85.67    9.44  15 0.99839 0.07792 -0.64414  0.19746 -0.93891  0.93942 -0.27885  0.13664 24940   5869 0.8565  29
  -6   3   0  120.49   41.67  15 0.51874 0.08386 -0.64414  0.29533 -0.93891  0.93913 -0.27885  0.27851 24940   5871 0.8846  29
  -2   1   0  143.65    5.94  15 1.55582 0.08240 -0.64414  0.29669 -0.93891  0.93941 -0.27885  0.27856 24940   5874 0.8072  29
  -5   2   1  335.47   26.60  15 0.72387 0.08011 -0.64414  0.21131 -0.93891  0.88588 -0.27885  0.37904 24940   5877 0.8736  29
   2  -6   1 1431.24   50.61  15 1.89806 0.07453 -0.64414  0.35650 -0.93891 -0.47620 -0.27885  0.54938 24940   5879 0.8011  33
   2  -7   1  108.59   12.04  15 1.69002 0.07520 -0.64414  0.26218 -0.93891 -0.57233 -0.27885  0.52108 24940   5881 0.8133  33
   2  -8   1  538.60   30.42  15 1.51272 0.07576 -0.64414  0.19034 -0.93891 -0.63911 -0.27885  0.49486 24940   5882 0.8241  33
   3  -9   1   35.53   17.60  15 1.31528 0.07505 -0.64414  0.34757 -0.93891 -0.53015 -0.27885  0.46744 24940   5883 0.8392  33
   2  -9   2   95.79   21.15  15 1.26206 0.07521 -0.64414  0.16977 -0.93891 -0.56558 -0.27885  0.63799 24940   5889 0.8426  33
   0  -7  -1   71.40   15.14  15 1.83885 0.07757 -0.64414 -0.31589 -0.93891 -0.97940 -0.27885  0.02212 24940   5893 0.7979  34
   0  -8  -1  274.90   25.28  15 1.60849 0.07792 -0.64414 -0.31548 -0.93891 -0.97828 -0.27885  0.05262 24940   5894 0.8129  34
   0  -6   0 1727.85   57.35  15 2.10342 0.07690 -0.64414 -0.29717 -0.93891 -0.93916 -0.27885  0.27990 24940   5901 0.7818  34
   0  -7   0  119.40   14.74  15 1.80096 0.07733 -0.64414 -0.29717 -0.93891 -0.93916 -0.27885  0.27990 24940   5902 0.8010  34
   0  -8   0   99.14   18.86  15 1.57518 0.07765 -0.64414 -0.29570 -0.93891 -0.93884 -0.27885  0.27991 24940   5903 0.8158  34
  -3  -4  -4   96.85   14.91  15 1.76119 0.07742 -0.64414 -0.66702 -0.93891 -0.50677 -0.27885 -0.71768 24940   5911 0.8035  36
  -4  -4  -4  275.47   23.95  15 1.59036 0.07759 -0.64414 -0.77515 -0.93891 -0.48379 -0.27885 -0.62194 24940   5912 0.8149  36
  -3  -5  -4   38.89   17.58  15 1.62475 0.07790 -0.64414 -0.68678 -0.93891 -0.63836 -0.27885 -0.64212 24940   5913 0.8119  36
  -2  -3  -3  230.76   11.09  15 2.43119 0.07646 -0.64414 -0.61935 -0.93891 -0.50863 -0.27885 -0.75075 24940   5917 0.7617  36
  -3  -3  -3   77.61    9.74  15 2.12097 0.07684 -0.64414 -0.77570 -0.93891 -0.48289 -0.27885 -0.62149 24940   5918 0.7808  36
  -3  -4  -3  209.38   16.01  15 1.93034 0.07740 -0.64414 -0.79114 -0.93891 -0.64328 -0.27885 -0.54063 24940   5919 0.7921  36
  -5  -2  -6  229.36   25.56  15 1.25684 0.07526 -0.64414 -0.47756 -0.93891  0.09360 -0.27885 -0.79034 24940   5925 0.8428  37
  -5  -1  -5  417.52   27.07  15 1.37485 0.07433 -0.64414 -0.48096 -0.93891  0.22049 -0.27885 -0.69667 24940   5929 0.8365  37
  -4  -2  -5   62.47   13.55  15 1.53604 0.07563 -0.64414 -0.49815 -0.93891  0.02110 -0.27885 -0.80902 24940   5930 0.8228  37
  -5  -2  -5   88.79   16.55  15 1.40202 0.07581 -0.64414 -0.60647 -0.93891 -0.00185 -0.27885 -0.71490 24940   5931 0.8317  37
  -4  -2  -4  406.96   20.18  15 1.74610 0.07609 -0.64414 -0.65401 -0.93891 -0.10232 -0.27885 -0.71060 24940   5934 0.8076  37
  -4  -1  -3  149.47    9.08  15 1.98741 0.07517 -0.64414 -0.68677 -0.93891  0.04907 -0.27885 -0.56832 24940   5936 0.7937  37
  -2  -1  -2  467.02   17.47  15 3.49145 0.07472 -0.64414 -0.65401 -0.93891 -0.10232 -0.27885 -0.71060 24940   5937 0.7026  37
  -6   1  -6  161.38   28.13  15 0.95641 0.07027 -0.64414 -0.13626 -0.93891  0.65351 -0.27885 -0.53581 24940   5944 0.8724  38
  -6   0  -6   18.08   17.78  15 1.06853 0.07215 -0.64414 -0.31273 -0.93891  0.45811 -0.27885 -0.63147 24940   5947 0.8615  38
  -5   1  -5   76.06   17.07  15 1.11314 0.07030 -0.64414 -0.10061 -0.93891  0.68935 -0.27885 -0.51032 24940   5948 0.8619  38
  -6   1  -5  350.86   30.11  15 1.06666 0.07061 -0.64414 -0.22760 -0.93891  0.62054 -0.27885 -0.47873 24940   5949 0.8644  38
  -5   0  -5  438.49   27.57  15 1.28392 0.07231 -0.64414 -0.31129 -0.93891  0.45911 -0.27885 -0.63183 24940   5951 0.8467  38
  -4   1  -4 1184.25   47.73  15 1.31914 0.07032 -0.64414 -0.04321 -0.93891  0.74113 -0.27885 -0.47164 24940   5952 0.8483  38
  -6   1  -4   43.98   14.92  15 1.17636 0.07092 -0.64414 -0.31863 -0.93891  0.58853 -0.27885 -0.39089 24940   5954 0.8565  38
  -4   0  -4 1370.76   50.72  15 1.60528 0.07254 -0.64414 -0.31129 -0.93891  0.45911 -0.27885 -0.63183 24940   5955 0.8249  38
  -3   0  -3   56.75    4.51  15 2.14324 0.07285 -0.64414 -0.31129 -0.93891  0.45911 -0.27885 -0.63183 24940   5956 0.7895  38
  -2   0  -2 1593.86   52.70  15 3.21421 0.07327 -0.64414 -0.31129 -0.93891  0.45911 -0.27885 -0.63183 24940   5957 0.7234  38
  -6   3  -7  132.93   52.94  15 0.54773 0.07287 -0.64414  0.27712 -0.93891  0.93886 -0.27885 -0.26314 24940   5968 0.8969  39
  -5   3  -6   66.29   41.83  15 0.51979 0.07735 -0.64414  0.37352 -0.93891  0.97743 -0.27885 -0.16412 24940   5972 0.8930  39
  -6   3  -6  288.67   51.46  15 0.59516 0.07301 -0.64414  0.24653 -0.93891  0.93924 -0.27885 -0.22686 24940   5973 0.8933  39
  -7   3  -6   70.98   38.45  15 0.63458 0.07111 -0.64414  0.12625 -0.93891  0.89255 -0.27885 -0.25845 24940   5974 0.8931  39
  -4   2  -6  162.34   26.83  15 0.69138 0.07298 -0.64414  0.33530 -0.93891  0.93812 -0.27885 -0.30994 24940   5975 0.8864  39
  -7   4  -5  114.84   64.56  15 0.46755 0.07802 -0.64414  0.29690 -0.93891  0.97414 -0.27885 -0.05326 24940   5977 0.8961  39
  -8   4  -5  282.53   72.98  15 0.51719 0.07424 -0.64414  0.18401 -0.93891  0.93978 -0.27885 -0.08854 24940   5978 0.8972  39
  -5   3  -5  225.06   45.95  15 0.55741 0.07807 -0.64414  0.35505 -0.93891  0.98077 -0.27885 -0.11688 24940   5979 0.8892  39
  -4   2  -5 1542.58   66.62  15 0.78673 0.07302 -0.64414  0.29294 -0.93891  0.93834 -0.27885 -0.27948 24940   5981 0.8796  39
  -8   4  -4  177.29   60.94  15 0.52757 0.07513 -0.64414  0.17369 -0.93891  0.93950 -0.27885 -0.02156 24940   5983 0.8953  39
  -5   3  -4  841.80   64.89  15 0.58711 0.07924 -0.64414  0.34039 -0.93891  0.98315 -0.27885 -0.05413 24940   5984 0.8853  39
  -6   3  -4  200.69   30.70  15 0.68243 0.07409 -0.64414  0.18892 -0.93891  0.93968 -0.27885 -0.10849 24940   5985 0.8855  39
  -3   2  -4  865.84   42.54  15 0.69784 0.08011 -0.64414  0.43689 -0.93891  0.99060 -0.27885 -0.11899 24940   5986 0.8756  39
  -4   2  -4  133.39   15.76  15 0.89244 0.07323 -0.64414  0.24653 -0.93891  0.93924 -0.27885 -0.22686 24940   5987 0.8719  39
  -6   3  -3   72.63   20.85  15 0.70338 0.07521 -0.64414  0.17375 -0.93891  0.93955 -0.27885 -0.02005 24940   5988 0.8823  39
  -4   2  -3  979.99   37.81  15 0.99581 0.07390 -0.64414  0.20032 -0.93891  0.93943 -0.27885 -0.14388 24940   5990 0.8635  39
  -4   2  -2 2050.37   68.06  15 1.05449 0.07538 -0.64414  0.17672 -0.93891  0.94058 -0.27885 -0.02012 24940   5992 0.8568  39
  -2   1  -2   35.70    3.32  15 1.78689 0.07380 -0.64414  0.24504 -0.93891  0.93884 -0.27885 -0.22681 24940   5993 0.8101  39
   2  -7  -1   68.02   10.57  15 1.86606 0.07647 -0.64414  0.22607 -0.93891 -0.73041 -0.27885  0.01874 24940   5995 0.7986  43
   2  -8  -1  641.05   34.04  15 1.64749 0.07689 -0.64414  0.15259 -0.93891 -0.77848 -0.27885  0.05041 24940   5996 0.8125  43
   1  -5   0  522.15   20.17  15 2.59425 0.07581 -0.64414  0.06223 -0.93891 -0.79791 -0.27885  0.28241 24940   6003 0.7532  43
   2  -7   0  126.34   12.31  15 1.82075 0.07603 -0.64414  0.23464 -0.93891 -0.68823 -0.27885  0.28236 24940   6005 0.8027  43
   2  -8   0   84.12   15.07  15 1.60599 0.07648 -0.64414  0.16323 -0.93891 -0.73703 -0.27885  0.28244 24940   6006 0.8162  43
  -4  -3  -6  144.09   22.06  15 1.35068 0.07620 -0.64414 -0.45930 -0.93891 -0.06943 -0.27885 -0.86880 24940   6016 0.8345  46
  -3  -4  -6   22.95   17.94  15 1.40759 0.07684 -0.64414 -0.40209 -0.93891 -0.21594 -0.27885 -0.91544 24940   6017 0.8292  46
  -3  -3  -5   56.62   13.26  15 1.64697 0.07646 -0.64414 -0.45615 -0.93891 -0.16688 -0.27885 -0.88710 24940   6021 0.8135  46
  -3  -4  -5  128.45   18.44  15 1.58345 0.07723 -0.64414 -0.53121 -0.93891 -0.35867 -0.27885 -0.84040 24940   6022 0.8162  46
  -2  -3  -4  883.63   33.29  15 2.08001 0.07645 -0.64414 -0.43564 -0.93891 -0.30039 -0.27885 -0.89506 24940   6023 0.7845  46
  -3  -3  -4  224.92   14.44  15 1.88491 0.07680 -0.64414 -0.61655 -0.93891 -0.32641 -0.27885 -0.78704 24940   6024 0.7966  46
  -2  -2  -3  768.16   27.22  15 2.65062 0.07574 -0.64414 -0.53534 -0.93891 -0.24535 -0.27885 -0.84424 24940   6025 0.7498  46
  -4  -1  -7  217.44   28.18  15 1.10793 0.07231 -0.64414 -0.09526 -0.93891  0.44177 -0.27885 -0.81950 24940   6030 0.8586  47
  -4  -2  -7  137.16   23.57  15 1.17624 0.07416 -0.64414 -0.22759 -0.93891  0.23674 -0.27885 -0.88565 24940   6033 0.8505  47
  -5  -1  -6  145.67   22.71  15 1.21826 0.07368 -0.64414 -0.35158 -0.93891  0.30215 -0.27885 -0.75619 24940   6036 0.8485  47
  -3  -1  -5  870.86   38.06  15 1.58885 0.07343 -0.64414 -0.18005 -0.93891  0.34579 -0.27885 -0.84518 24940   6037 0.8240  47
  -4  -1  -5   79.54   12.57  15 1.49531 0.07400 -0.64414 -0.35493 -0.93891  0.27029 -0.27885 -0.77892 24940   6038 0.8290  47
  -2  -1  -4  765.56   28.51  15 2.06583 0.07368 -0.64414 -0.12089 -0.93891  0.32268 -0.27885 -0.88864 24940   6039 0.7923  47
  -3  -1  -4  976.78   36.80  15 1.92819 0.07437 -0.64414 -0.35720 -0.93891  0.22007 -0.27885 -0.81271 24940   6040 0.7995  47
  -4   1  -8  377.88   46.78  15 0.71520 0.06984 -0.64414  0.27415 -0.93891  0.83129 -0.27885 -0.53129 24940   6051 0.8894  48
  -3   0  -8   71.93   27.11  15 0.81822 0.06949 -0.64414  0.28184 -0.93891  0.75529 -0.27885 -0.64598 24940   6053 0.8830  48
  -6   2  -7  139.37   33.74  15 0.71610 0.06979 -0.64414  0.11265 -0.93891  0.83162 -0.27885 -0.43112 24940   6054 0.8895  48
  -3   1  -7  249.59   34.02  15 0.74904 0.07102 -0.64414  0.36735 -0.93891  0.88207 -0.27885 -0.46338 24940   6055 0.8853  48
  -5   1  -7  182.70   28.96  15 0.85236 0.06962 -0.64414  0.07452 -0.93891  0.74736 -0.27885 -0.56755 24940   6057 0.8805  48
  -4   1  -6  141.28   19.98  15 0.95368 0.06988 -0.64414  0.14865 -0.93891  0.79672 -0.27885 -0.53112 24940   6059 0.8733  48
  -2   0  -6 1529.03   63.90  15 1.06293 0.07005 -0.64414  0.33028 -0.93891  0.77936 -0.27885 -0.62282 24940   6060 0.8657  48
  -3   1  -5 1683.59   66.99  15 1.05498 0.07052 -0.64414  0.25361 -0.93891  0.85987 -0.27885 -0.46815 24940   6061 0.8654  48
  -2   0  -5 1293.56   49.57  15 1.32532 0.07026 -0.64414  0.25171 -0.93891  0.74061 -0.27885 -0.65783 24940   6062 0.8480  48
  -3   1  -4  865.45   34.60  15 1.28774 0.07067 -0.64414  0.16583 -0.93891  0.84241 -0.27885 -0.45099 24940   6063 0.8496  48
  -1   0  -3    7.20    2.53  15 2.12636 0.07139 -0.64414  0.33028 -0.93891  0.77936 -0.27885 -0.62282 24940   6064 0.7943  48
   0   0  -9  147.25   75.98  15 0.44057 0.07733 -0.64414  0.64724 -0.93891  0.93807 -0.27885 -0.27871 24940   6066 0.8990  49
  -3   2  -8  299.46   90.16  15 0.45078 0.07793 -0.64414  0.51123 -0.93891  0.97228 -0.27885 -0.23202 24940   6067 0.8975  49
  -1   1  -8  355.02  110.73  15 0.41855 0.08067 -0.64414  0.61521 -0.93891  0.96952 -0.27885 -0.19324 24940   6068 0.8967  49
   0   0  -8  302.90   73.41  15 0.49473 0.07732 -0.64414  0.64618 -0.93891  0.93836 -0.27885 -0.27875 24940   6069 0.8949  49
  -1   1  -7   84.46   54.62  15 0.46459 0.08109 -0.64414  0.61084 -0.93891  0.97271 -0.27885 -0.18213 24940   6070 0.8925  49
   0   0  -7 1256.27   97.95  15 0.56553 0.07726 -0.64414  0.64595 -0.93891  0.93797 -0.27885 -0.28009 24940   6071 0.8896  49
  -1   1  -6  222.96   50.43  15 0.52041 0.08183 -0.64414  0.60601 -0.93891  0.97735 -0.27885 -0.16255 24940   6073 0.8871  49
   0   0  -6 1188.15   67.37  15 0.65903 0.07729 -0.64414  0.64618 -0.93891  0.93836 -0.27885 -0.27875 24940   6074 0.8826  49
   2  -1  -6 2441.19  177.91  15 0.47117 0.08330 -0.64414  0.75017 -0.93891  0.93830 -0.27885 -0.11956 24940   6075 0.8892  49
  -1   1  -5 1917.47  100.38  15 0.58886 0.08278 -0.64414  0.60134 -0.93891  0.98233 -0.27885 -0.13724 24940   6076 0.8804  49
   0   0  -5 2132.30   85.76  15 0.79122 0.07723 -0.64414  0.64595 -0.93891  0.93797 -0.27885 -0.28009 24940   6077 0.8728  49
  -1   1  -4 1146.52   54.14  15 0.66698 0.08421 -0.64414  0.59474 -0.93891  0.98842 -0.27885 -0.09774 24940   6078 0.8721  49
   0   0  -4 2471.37   90.30  15 0.98851 0.07724 -0.64414  0.64618 -0.93891  0.93836 -0.27885 -0.27875 24940   6079 0.8583  49
  -1   1  -3  258.01   16.21  15 0.73577 0.08652 -0.64414  0.58996 -0.93891  0.99366 -0.27885 -0.03287 24940   6080 0.8632  49
   0   0  -3 1252.95   44.69  15 1.31801 0.07719 -0.64414  0.64618 -0.93891  0.93836 -0.27885 -0.27875 24940   6081 0.8348  49
   0   0   0    0.00    0.00   0 0.00000 0.00000  0.00000  0.00000  0.00000  0.00000  0.00000  0.00000     0      0 0.0000   0
;
_shelx_hkl_checksum              40906
loop_
_space_group_symop_operation_xyz
'x, y, z'
'-y, x-y, z'
'-x+y, -x, z'
'y, x, -z'
'x-y, -y, -z'
'-x, -x+y, -z'
'-x, -y, -z'
'y, -x+y, -z'
'x-y, x, -z'
'-y, -x, z'
'-x+y, y, z'
'x, x-y, z'
loop_
_atom_site_label
_atom_site_type_symbol
_atom_site_fract_x
_atom_site_fract_y
_atom_site_fract_z
_atom_site_U_iso_or_equiv
_atom_site_adp_type
_atom_site_occupancy
_atom_site_site_symmetry_order
_atom_site_calc_flag
_atom_site_refinement_flags_posn
_atom_site_refinement_flags_adp
_atom_site_refinement_flags_occupancy
_atom_site_disorder_assembly
_atom_site_disorder_group
In1 In 0.0000 0.0000 0.0000 0.0235(11) Uani 1 12 d S TU P . .
Ag1 Ag 0.0000 0.0000 0.5000 0.0677(18) Uani 1 12 d S TU P . .
Br1 Br 0.3216(2) 0.16081(12) 0.2210(2) 0.0443(7) Uani 1 2 d S TU P . .
N1 N 0.364(11) 0.701(7) 0.1611(9) 0.053(8) Uani 0.1667 1 d D U P A -1
H11 H 0.361(8) 0.828(6) 0.135(9) 0.083(13) Uani 0.1667 1 d . U P A -1
H12 H 0.266(11) 0.588(7) 0.073(4) 0.080(17) Uani 0.1667 1 d . U P A -1
H13 H 0.498(7) 0.719(6) 0.127(8) 0.068(13) Uani 0.1667 1 d . U P A -1
C1 C 0.310(13) 0.640(10) 0.3568(10) 0.049(7) Uani 0.1667 1 d D U P A -1
H14 H 0.301(11) 0.500(5) 0.383(10) 0.086(13) Uani 0.1667 1 d . U P A -1
H15 H 0.164(7) 0.613(5) 0.391(10) 0.068(12) Uani 0.1667 1 d . U P A -1
H16 H 0.421(10) 0.754(7) 0.442(5) 0.082(18) Uani 0.1667 1 d . U P A -1
loop_
_atom_site_aniso_label
_atom_site_aniso_U_11
_atom_site_aniso_U_22
_atom_site_aniso_U_33
_atom_site_aniso_U_23
_atom_site_aniso_U_13
_atom_site_aniso_U_12
In1 0.0258(16) 0.0258(16) 0.019(2) 0.000 0.000 0.0129(8)
Ag1 0.090(3) 0.090(3) 0.022(2) 0.000 0.000 0.0452(14)
Br1 0.0308(10) 0.0557(10) 0.0380(11) -0.0069(3) -0.0137(6) 0.0154(5)
N1 0.061(19) 0.07(2) 0.033(2) 0.010(4) 0.006(6) 0.035(12)
H11 0.09(3) 0.07(2) 0.10(2) 0.023(15) -0.01(2) 0.042(14)
H12 0.09(3) 0.09(3) 0.057(12) -0.007(10) -0.007(14) 0.039(18)
H13 0.066(18) 0.06(3) 0.076(17) 0.016(18) 0.024(11) 0.030(13)
C1 0.059(19) 0.06(2) 0.035(3) 0.004(7) 0.010(8) 0.032(14)
H14 0.09(4) 0.07(2) 0.10(2) 0.011(15) -0.01(2) 0.043(15)
H15 0.062(18) 0.05(3) 0.09(2) 0.010(17) 0.031(13) 0.023(11)
H16 0.09(3) 0.09(3) 0.064(14) -0.020(12) -0.019(13) 0.041(17)
loop_
_atom_type_symbol
_atom_type_description
_atom_type_scat_dispersion_real
_atom_type_scat_dispersion_imag
_atom_type_scat_source
C C 0.0000 0.0000
'Neutron Data Booklet, ILL Grenoble, France (2003) ISBN 0-9704143-7-4'
H H 0.0000 0.0000
'Neutron Data Booklet, ILL Grenoble, France (2003) ISBN 0-9704143-7-4'
N N 0.0000 0.0000
'Neutron Data Booklet, ILL Grenoble, France (2003) ISBN 0-9704143-7-4'
Br Br 0.0000 0.0000
'Neutron Data Booklet, ILL Grenoble, France (2003) ISBN 0-9704143-7-4'
In In 0.0000 0.0000
'Neutron Data Booklet, ILL Grenoble, France (2003) ISBN 0-9704143-7-4'
Ag Ag 0.0000 0.0000
'Neutron Data Booklet, ILL Grenoble, France (2003) ISBN 0-9704143-7-4'
loop_
_geom_angle_atom_site_label_1
_geom_angle_atom_site_label_2
_geom_angle_atom_site_label_3
_geom_angle
_geom_angle_site_symmetry_1
_geom_angle_site_symmetry_3
Br1 In1 Br1 91.02(6) 7 3
Br1 In1 Br1 180.0 7 .
Br1 In1 Br1 88.98(6) 3 .
Br1 In1 Br1 88.98(6) 7 9
Br1 In1 Br1 180.0 3 9
Br1 In1 Br1 91.02(6) . 9
Br1 In1 Br1 91.02(6) 7 2
Br1 In1 Br1 88.98(6) 3 2
Br1 In1 Br1 88.98(6) . 2
Br1 In1 Br1 91.02(6) 9 2
Br1 In1 Br1 88.98(6) 7 8
Br1 In1 Br1 91.02(6) 3 8
Br1 In1 Br1 91.02(6) . 8
Br1 In1 Br1 88.98(6) 9 8
Br1 In1 Br1 180.0 2 8
Br1 Ag1 Br1 100.65(4) 3 7_556
Br1 Ag1 Br1 180.0 3 9_556
Br1 Ag1 Br1 79.35(4) 7_556 9_556
Br1 Ag1 Br1 79.35(4) 3 .
Br1 Ag1 Br1 180.0 7_556 .
Br1 Ag1 Br1 100.65(4) 9_556 .
Br1 Ag1 Br1 79.35(4) 3 2
Br1 Ag1 Br1 100.65(4) 7_556 2
Br1 Ag1 Br1 100.65(4) 9_556 2
Br1 Ag1 Br1 79.35(4) . 2
Br1 Ag1 Br1 100.65(4) 3 8_556
Br1 Ag1 Br1 79.35(4) 7_556 8_556
Br1 Ag1 Br1 79.35(4) 9_556 8_556
Br1 Ag1 Br1 100.65(4) . 8_556
Br1 Ag1 Br1 180.00(5) 2 8_556
In1 Br1 Ag1 78.49(4) . .
H13 N1 H11 110(5) . .
H13 N1 H12 104(7) . .
H11 N1 H12 111(6) . .
H13 N1 C1 112(7) . .
H11 N1 C1 110(7) . .
H12 N1 C1 109(3) . .
H16 C1 H15 112(7) . .
H16 C1 H14 111(7) . .
H15 C1 H14 104(5) . .
H16 C1 N1 107(4) . .
H15 C1 N1 112(7) . .
H14 C1 N1 111(7) . .
loop_
_geom_bond_atom_site_label_1
_geom_bond_atom_site_label_2
_geom_bond_distance
_geom_bond_site_symmetry_2
In1 Br1 2.6646(14) 7
In1 Br1 2.6646(14) 3
In1 Br1 2.6646(14) .
In1 Br1 2.6646(14) 9
In1 Br1 2.6647(14) 2
In1 Br1 2.6647(14) 8
Ag1 Br1 2.9250(19) 3
Ag1 Br1 2.9250(19) 7_556
Ag1 Br1 2.9250(19) 9_556
Ag1 Br1 2.9250(19) .
Ag1 Br1 2.9250(19) 2
Ag1 Br1 2.9250(19) 8_556
N1 H13 1.01(8) .
N1 H11 1.01(7) .
N1 H12 1.03(6) .
N1 C1 1.456(15) .
C1 H16 1.06(6) .
C1 H15 1.07(10) .
C1 H14 1.07(8) .
loop_
_geom_hbond_atom_site_label_D
_geom_hbond_atom_site_label_H
_geom_hbond_atom_site_label_A
_geom_hbond_distance_DH
_geom_hbond_distance_HA
_geom_hbond_distance_DA
_geom_hbond_angle_DHA
_geom_hbond_site_symmetry_A
N1 H11 Br1 1.01(7) 2.81(7) 3.76(8) 156(5) 1_565
N1 H12 Br1 1.03(6) 2.75(5) 3.72(3) 156(7) 9
N1 H13 Br1 1.01(8) 2.76(5) 3.43(5) 125(4) 7_665
N1 H13 Br1 1.01(8) 2.89(7) 3.79(10) 150(4) 3_665
C1 H14 Br1 1.07(8) 2.94(7) 3.88(10) 147(5) .
C1 H14 Br1 1.07(8) 3.08(7) 3.68(4) 116(5) 9_556
C1 H15 Br1 1.07(10) 3.05(8) 3.92(11) 139(5) 3_565
C1 H16 Br1 1.06(6) 2.97(5) 3.88(5) 145(5) 7_666
