#------------------------------------------------------------------------------
#$Date: 2019-11-17 08:56:24 +0200 (Sun, 17 Nov 2019) $
#$Revision: 228974 $
#$URL: file:///home/coder/svn-repositories/cod/cif/7/23/08/7230875.cif $
#------------------------------------------------------------------------------
#
# This file is available in the Crystallography Open Database (COD),
# http://www.crystallography.net/
#
# All data on this site have been placed in the public domain by the
# contributors.
#
data_7230875
loop_
_publ_author_name
'Tran, Thao T.'
'Quintero, Michael A.'
'Arpino, Kathryn E.'
'Kelly, Zachary A.'
'Panella, Jessica R.'
'Wang, Xiaoping'
'McQueen, Tyrel M.'
_publ_section_title
;
 Chemically controlled crystal growth of (CH3NH3)2AgInBr6
;
_journal_issue                   39
_journal_name_full               CrystEngComm
_journal_page_first              5929
_journal_paper_doi               10.1039/C8CE00702K
_journal_volume                  20
_journal_year                    2018
_chemical_formula_sum            'C2 H12 Ag Br6 In N2'
_chemical_formula_weight         766.29
_space_group_crystal_system      trigonal
_space_group_IT_number           164
_space_group_name_Hall           '-P 3 2"'
_space_group_name_H-M_alt        'P -3 m 1'
_symmetry_space_group_name_Hall  '-P 3 2"'
_symmetry_space_group_name_H-M   'P -3 m 1'
_atom_sites_solution_hydrogens   geom
_audit_creation_method           SHELXL-2014/7
_audit_update_record
;
2018-02-16 deposited with the CCDC.
2018-02-18 downloaded from the CCDC.
;
_cell_angle_alpha                90
_cell_angle_beta                 90
_cell_angle_gamma                120
_cell_formula_units_Z            1
_cell_length_a                   7.7020(10)
_cell_length_b                   7.7020(10)
_cell_length_c                   7.0720(10)
_cell_measurement_reflns_used    3687
_cell_measurement_temperature    213(2)
_cell_measurement_theta_max      30.3380
_cell_measurement_theta_min      2.8890
_cell_volume                     363.31(8)
_computing_cell_refinement       'CrysAlisPro 1.171.38.43 (Rigaku OD, 2015)'
_computing_data_collection       'CrysAlisPro 1.171.38.43 (Rigaku OD, 2015)'
_computing_data_reduction        'CrysAlisPro 1.171.38.43 (Rigaku OD, 2015)'
_computing_structure_refinement  'SHELXL-2014/7 (Sheldrick, 2014)'
_computing_structure_solution    'SHELXS-2014/7 (Sheldrick, 2014)'
_diffrn_ambient_temperature      213(2)
_diffrn_detector                 'CCD plate'
_diffrn_detector_area_resol_mean 5.1937
_diffrn_detector_type            Atlas
_diffrn_measured_fraction_theta_full 1.000
_diffrn_measured_fraction_theta_max 1.000
_diffrn_measurement_device_type  'SuperNova, Dual, Cu at zero, Atlas'
_diffrn_orient_matrix_type
'CrysAlisPro convention (1999,Acta A55,543-557)'
_diffrn_radiation_type           MoK\a
_diffrn_radiation_wavelength     0.71075
_diffrn_reflns_av_R_equivalents  0.0733
_diffrn_reflns_av_unetI/netI     0.0222
_diffrn_reflns_limit_h_max       10
_diffrn_reflns_limit_h_min       -10
_diffrn_reflns_limit_k_max       10
_diffrn_reflns_limit_k_min       -10
_diffrn_reflns_limit_l_max       10
_diffrn_reflns_limit_l_min       -10
_diffrn_reflns_number            6600
_diffrn_reflns_theta_full        30.404
_diffrn_reflns_theta_max         30.404
_diffrn_reflns_theta_min         2.880
_diffrn_source                   'micro-focus sealed X-ray tube'
_exptl_absorpt_coefficient_mu    19.394
_exptl_absorpt_correction_T_max  0.703
_exptl_absorpt_correction_T_min  0.683
_exptl_absorpt_correction_type   multi-scan
_exptl_crystal_colour            colorless
_exptl_crystal_density_diffrn    3.502
_exptl_crystal_density_method    'not measured'
_exptl_crystal_description       block
_exptl_crystal_F_000             344
_exptl_crystal_size_max          0.020
_exptl_crystal_size_mid          0.018
_exptl_crystal_size_min          0.018
_exptl_transmission_factor_max   0.7354
_exptl_transmission_factor_min   0.6236
_refine_diff_density_max         1.631
_refine_diff_density_min         -0.649
_refine_diff_density_rms         0.169
_refine_ls_extinction_coef       0.189(7)
_refine_ls_extinction_expression Fc^*^=kFc[1+0.001xFc^2^\l^3^/sin(2\q)]^-1/4^
_refine_ls_extinction_method     'SHELXL-2014/7 (Sheldrick 2014'
_refine_ls_goodness_of_fit_ref   1.136
_refine_ls_hydrogen_treatment    constr
_refine_ls_matrix_type           full
_refine_ls_number_parameters     26
_refine_ls_number_reflns         445
_refine_ls_number_restraints     1
_refine_ls_restrained_S_all      1.135
_refine_ls_R_factor_all          0.0246
_refine_ls_R_factor_gt           0.0237
_refine_ls_shift/su_max          0.000
_refine_ls_shift/su_mean         0.000
_refine_ls_structure_factor_coef Fsqd
_refine_ls_weighting_details
'w=1/[\s^2^(Fo^2^)+(0.0270P)^2^+0.5033P] where P=(Fo^2^+2Fc^2^)/3'
_refine_ls_weighting_scheme      calc
_refine_ls_wR_factor_gt          0.0569
_refine_ls_wR_factor_ref         0.0576
_reflns_number_gt                424
_reflns_number_total             445
_reflns_threshold_expression     'I > 2\s(I)'
_cod_data_source_file            c8ce00702k2.cif
_cod_data_source_block           final
_cod_depositor_comments
'Adding full bibliography for 7230872--7230875.cif.'
_cod_original_cell_volume        363.31(11)
_cod_database_code               7230875
_shelx_shelxl_version_number     2014/7
_shelx_space_group_comment
;
The symmetry employed for this shelxl refinement is uniquely defined
by the following loop, which should always be used as a source of
symmetry information in preference to the above space-group names.
They are only intended as comments.
;
_shelx_estimated_absorpt_t_min   0.698
_shelx_estimated_absorpt_t_max   0.722
_shelx_res_file
;

    final.res created by SHELXL-2014/7


TITL X-ray room temperature
CELL 0.71075 7.702000 7.702000 7.072000 90.000000 90.000000 120.000000
ZERR 1 0.001000 0.001000 0.001000 0.000000 0.000000 0.000000
LATT 1
SYMM   -y, x-y, z
SYMM   -x+y, -x, z
SYMM   y, x, -z
SYMM   x-y, -y, -z
SYMM   -x, -x+y, -z

SFAC C H N BR IN AG
UNIT 2 12 2 6 1 1
L.S. 9
ACTA

SPEC .01
FMAP 2
LIST 4
PLAN 10
TEMP 22.0
SIZE 0.020 0.018 0.018
DFIX 1.463 0.005 N1 C1
EADP C1 N1

WGHT    0.027000    0.503300
EXTI    0.189189
FVAR       6.90285
IN1   5    0.000000    0.000000    0.000000    10.08333    0.01654    0.01654 =
         0.01256    0.00000    0.00000    0.00827
AG1   6    0.000000    0.000000    0.500000    10.08333    0.06326    0.06326 =
         0.01402    0.00000    0.00000    0.03163
BR1   4    0.322837    0.161418    0.221713    10.50000    0.02184    0.04353 =
         0.02842   -0.00558   -0.01117    0.01092
part -1
N1    3    0.372824    0.704923    0.157449    10.16667    0.02519    0.04348 =
         0.02274   -0.00531   -0.00476    0.02527
AFIX 137
H1A   2    0.376846    0.814644    0.112029    10.16667   -1.50000
H1B   2    0.282814    0.598282    0.093226    10.16667   -1.50000
H1C   2    0.493030    0.716085    0.145493    10.16667   -1.50000
AFIX   0
C1    1    0.316577    0.681512    0.357337    10.16667    0.02519    0.04348 =
         0.02274   -0.00531   -0.00476    0.02527
AFIX 137
H1D   2    0.299450    0.556555    0.403134    10.16667   -1.50000
H1E   2    0.193178    0.682628    0.371521    10.16667   -1.50000
H1F   2    0.420194    0.789991    0.428520    10.16667   -1.50000

AFIX   0
HKLF 4

REM  X-ray room temperature
REM R1 =  0.0237 for     424 Fo > 4sig(Fo)  and  0.0246 for all     445 data
REM     26 parameters refined using      1 restraints

END

WGHT      0.0270      0.5034

REM Highest difference peak  1.631,  deepest hole -0.649,  1-sigma level  0.169
Q1    1   0.3514  0.1757  0.1358  10.50000  0.05    1.63
Q2    1   0.2795  0.2023  0.2437  11.00000  0.05    0.85
Q3    1   0.5000  1.0000  0.0000  10.25000  0.05    0.73
Q4    1   0.3333  0.6667  0.2460  10.16667  0.05    0.71
Q5    1   0.3333  0.6667  0.5898  10.16667  0.05    0.57
Q6    1   0.3333  0.6667  0.0491  10.16667  0.05    0.56
Q7    1   0.1694  0.8306  0.3335  10.50000  0.05    0.48
Q8    1  -0.0387  0.0387  0.0617  10.50000  0.05    0.46
Q9    1   0.3333  0.6667  0.6992  10.16667  0.05    0.42
Q10   1  -0.0459  0.0459  0.3965  10.50000  0.05    0.41
;
_shelx_res_checksum              89273
_shelx_hkl_file
;
   0   0  -1 46405.7 1211.55   6
   0   0  -1 50333.5 1268.31   3
   0   0  -1 48885.9 1481.67   5
   0   0  -1 47718.9 1394.47   2
   0   0   2 183291. 4907.68   4
   0   0  -2 179154. 3857.86   6
   0   0  -2 180043. 4408.04   5
   0   0  -2 177183. 3785.21   3
   0   0  -3 165118. 4006.05   3
   0   0   3 165432. 5443.44   4
   0   0  -3 176811. 4269.50   6
   0   0  -3 167132. 4862.79   5
   0   0  -4 417304. 9997.67   5
   0   0  -4 415587. 8505.96   3
   0   0   4 431457. 11102.4   4
   0   0  -5 213605. 7063.28   5
   0   0  -5 217651. 5608.53   3
   0   0   5 205390. 7825.15   4
   0   0  -6 6049.16 847.923   3
   0   0  -6 5406.40 1093.03   5
   0   0   6 4985.07 1138.71   4
   0   0  -7 135798. 6538.45   5
   0   0   7 135694. 7358.12   4
   0   0  -7 140821. 4865.46   3
   0   0  -8 77946.0 5316.58   5
   0   0  -8 80515.3 3741.90   3
   0   0   8 73174.3 5826.86   4
   0   0  -9 68329.4 5262.82   5
   0   0   9 65017.8 5853.71   4
   0   0  10 32431.2 4487.89   4
   0   0 -10 29733.6 3803.68   5
  -1   1 -10 9380.71 2187.04   5
   0  -1 -10 11595.7 2294.60   5
  -1   0  10 11152.9 2474.25   4
   1   0 -10 10532.1 2289.30   5
   0   1  10 14369.0 3080.12   4
   1  -1  10 13674.5 2959.92   4
  -1   0   9 7244.23 1879.57   4
   1   0  -9 6973.90 1743.11   5
  -1   1  -9 7987.89 1820.36   5
   0  -1  -9 6317.16 1540.17   5
   1  -1   9 9131.63 2242.57   4
   0   1   9 10710.0 2482.66   4
   0  -1  -8 99465.9 4659.42   3
   0   1   8 101251. 7148.50   4
   0  -1  -8 102169. 5969.13   5
   1  -1   8 92383.9 6681.41   4
  -1   0   8 85856.2 6043.38   4
   1   0  -8 97003.7 6048.41   5
  -1   1  -8 91867.2 5878.12   5
  -1   1  -7 1721.48 526.529   3
   1  -1   7 442.851 561.711   4
   0   1   7 1443.60 751.070   4
  -1   0   7 759.731 678.887   4
   1   0  -7 1287.23 590.353   5
   0  -1  -7 1363.72 538.970   3
   1   0  -7 1168.55 373.645   3
   0  -1  -7 628.396 520.704   5
  -1   1  -7 212.325 271.631   5
   0  -1  -6 8987.78 1486.16   5
   1   0  -6 8348.54 982.516   6
   1   0  -6 9881.72 1504.08   5
  -1   0   6 7556.61 1435.97   4
  -1   1  -6 9035.78 1032.04   3
  -1   1  -6 9761.38 1509.58   5
   1  -1   6 9398.62 1722.89   4
   1   0  -6 9003.78 916.660   3
   0  -1  -6 9980.76 1248.27   3
   0   1   6 7983.81 1614.65   4
   1  -1   5 1744.97 726.961   4
   1   0  -5 1824.88 441.779   6
  -1   1  -5 1858.78 429.567   3
   1   0  -5 2078.38 436.533   3
   0  -1  -5 2129.09 603.498   3
   1   0  -5 2476.48 709.803   5
  -1   1  -5 2562.67 547.865   6
  -1   0   5 1343.74 512.391   4
   0   1   5 3127.38 942.354   4
   0  -1  -5 3798.35 848.579   2
  -1   1  -5 1906.89 609.512   5
   0  -1  -5 2066.43 617.663   5
   1  -1   4 281355. 8711.15   4
   0  -1  -4 265955. 7542.75   5
   0  -1  -4 323224. 7605.83   6
  -1   1  -4 292017. 6257.65   3
  -1   1  -4 276176. 7536.82   5
  -1   0   4 253656. 7538.90   4
   0  -1  -4 318018. 7687.55   2
   1  -1   4 326108. 6771.45   3
   1   0  -4 267362. 7687.65   5
   1   0  -4 278172. 5935.19   3
   1   0  -4 299055. 6275.59   6
   0   1   4 231990. 8247.02   4
   0  -1  -4 270823. 7077.66   3
   0   1   3 28157.9 2213.25   4
   0  -1  -3 39647.0 2166.25   5
   1  -1   3 31843.1 2288.38   4
   1   0  -3 41647.1 2256.11   5
   1   0  -3 37121.7 2213.59   4
  -1   1  -3 36962.8 1550.22   3
   0  -1  -3 41370.7 2360.91   4
   0  -1  -3 36725.1 1967.78   2
   1   0  -3 38699.7 2007.58   2
   1  -1   3 37232.5 1624.38   3
   1   0  -3 33897.7 1443.64   6
   0  -1  -3 36287.2 2028.08   3
  -1   0   3 35730.2 1354.27   6
  -1   1  -3 35840.5 2038.24   5
  -1   0   3 37807.8 1961.55   2
   0  -1  -3 38374.9 2033.66   6
  -1   0   3 32146.0 2067.02   1
  -1   0   3 31680.6 2001.00   4
   1   0  -2 41015.4 1803.36   1
   0   1   2 36367.5 2095.81   4
   0  -1  -2 44193.0 1841.18   2
   1   0  -2 46828.6 1843.49   2
  -1   0   2 40138.5 1865.20   4
   0  -1  -2 42432.5 2037.20   4
   1  -1   2 36043.5 2071.03   4
   0   1   2 41653.5 1864.79   6
   1   0  -2 43529.2 1335.32   6
   0  -1  -2 44670.0 2054.88   3
  -1   1  -2 42124.3 1501.77   3
   1   0  -2 48691.4 2065.07   5
  -1   0   2 39664.8 1292.22   6
   1  -1   2 41820.6 1491.96   3
   0  -1  -2 45901.9 1968.69   6
  -1   0   2 44355.1 1776.32   2
  -1   1  -2 44531.4 1936.08   5
   1   0  -1 20572.2 843.085   3
   0   1   1 20172.6 1095.41   4
   0  -1  -1 26633.5 1343.81   3
   0  -1  -1 19926.3 1084.35   4
   1   0  -1 21153.1 882.776   2
  -1   0   1 17917.2 941.108   4
  -1   1  -1 21515.2 954.625   3
   0  -1  -1 20598.4 963.878   2
   1   0  -1 18482.5 957.206   1
  -1   1  -1 21636.7 1068.01   5
   0   1   1 20281.7 1125.13   6
  -1   0   1 20822.0 771.988   6
   1  -1   1 16404.7 1035.95   4
   1  -1   1 20780.0 938.402   3
  -1   0   1 21785.0 901.929   2
  -1   1   0 235329. 4145.62   6
   0   1   0 199232. 4107.51   2
   1  -1   0 163148. 4135.03   2
   1  -1   0 220860. 3732.15   1
   1   0   0 201120. 4083.67   1
   0   1   0 198175. 3450.15   1
   0  -1   0 190527. 3857.42   2
   0   1   0 180906. 3898.30   6
  -1   0   0 203715. 3729.85   3
  -1   1   1 53854.7 1509.69   4
   1   0   1 52795.7 2147.31   4
  -1   0  -1 52954.5 1724.82   3
  -1   1   1 55153.5 1791.37   6
   0   1  -1 57155.0 1755.51   5
   1   0   1 60468.3 1617.45   5
   1  -1  -1 58511.0 1505.33   4
   0  -1   1 55051.2 1802.45   4
  -1   1   1 51383.2 1470.26   1
   1  -1  -1 52697.7 1743.59   2
  -1   0  -1 54585.8 1542.68   5
   1  -1  -1 50639.2 1381.15   1
  -1   1   2 128697. 3538.06   1
  -1   1   2 114921. 3490.46   4
   1   0   2 106770. 4110.55   4
   1  -1  -2 135316. 3539.13   6
   1   0   2 122170. 3291.10   2
   1  -1  -2 138030. 3581.60   4
   1   0   2 133693. 3540.33   5
   0  -1   2 127200. 3793.61   4
   0   1  -2 121620. 3470.01   5
  -1   0  -2 115783. 3280.29   5
   1  -1  -2 127821. 3547.22   2
  -1   0  -2 117590. 3243.39   3
   1   0   2 126628. 3407.43   3
  -1   1   2 118561. 3399.20   6
   0   1  -3 79811.2 2129.70   6
   1  -1  -3 86544.8 3234.12   2
   0  -1   3 74125.9 3265.50   4
   1   0   3 88338.6 3098.80   3
   1   0   3 69305.8 3730.88   4
  -1   1   3 72263.8 3294.89   4
  -1   1   3 80507.4 3335.32   1
  -1   0  -3 79934.5 3074.07   5
  -1   0  -3 81366.3 2853.49   3
  -1   1   3 82915.5 2942.58   6
   0   1  -3 86253.7 3281.35   5
   1   0   3 79416.2 3002.59   2
   0   1  -3 85090.6 1933.74   3
   1   0   3 95787.5 3421.42   5
   1  -1  -3 81444.6 3252.12   4
   1  -1  -3 82126.9 2969.62   6
  -1   0  -4 158889. 4737.03   6
   0   1  -4 143029. 3738.54   6
  -1   1   4 132361. 5340.08   4
   1  -1  -4 178526. 5656.59   4
   0   1  -4 154625. 3391.41   3
  -1   1   4 139302. 4319.71   6
   1   0   4 168895. 5040.83   3
   1  -1  -4 155970. 4678.65   6
   1  -1  -4 160797. 5140.69   2
   0   1  -4 141967. 5111.50   5
  -1   0  -4 141522. 4941.57   5
   1   0   4 122215. 5816.77   4
  -1   0  -4 140107. 4354.68   3
   1  -1  -4 140467. 5245.09   5
   1  -1  -4 144342. 4508.33   3
   0  -1   4 130000. 5201.21   4
   1  -1  -5 64820.7 3446.03   2
   0   1  -5 62413.5 3571.81   5
   0   1  -5 56378.9 2432.56   6
   1  -1  -5 57441.0 3521.59   5
   0  -1   5 50522.4 3521.02   4
   0   1  -5 60681.1 2150.43   3
   1   0   5 55590.4 4117.79   4
  -1   0  -5 56811.8 3297.03   5
  -1   1   5 49167.5 3506.64   4
   1  -1  -5 57278.2 2791.54   3
  -1   0  -5 56391.6 2788.60   3
   1  -1  -6 99258.4 5090.01   5
  -1   0  -6 95406.0 4001.69   3
   0  -1   6 83551.1 5117.45   4
  -1   1   6 81822.6 5097.11   4
   0   1  -6 100512. 5091.32   5
   0   1  -6 102037. 3207.44   3
   1   0   6 97042.5 6036.23   4
  -1   0  -6 91880.5 4833.56   5
   1  -1  -6 96953.4 3919.66   3
   0   1  -6 99204.8 3593.09   6
   0   1  -7 9609.50 1683.80   5
   0   1  -7 11060.4 1021.04   3
   1  -1  -7 13111.0 1427.37   3
  -1   0  -7 10290.6 1347.41   3
  -1   0  -7 11186.4 1795.04   5
  -1   1   7 10244.4 1889.27   4
   1   0   7 11367.4 2089.72   4
   1  -1  -7 10272.6 1732.14   5
   0  -1   7 8652.69 1718.23   4
   1  -1  -8 20773.4 2684.07   5
   1  -1  -8 22778.1 2001.20   3
   0   1  -8 22385.2 2831.54   5
  -1   0  -8 24102.9 2859.29   5
   1   0   8 25104.0 3527.11   4
   0  -1   8 19632.5 2890.69   4
  -1   1   8 20487.2 2988.10   4
  -1   0  -8 21455.3 2029.24   3
  -1   0  -9 2806.94 1186.81   5
   0  -1   9 4358.25 1539.59   4
   1   0   9 1797.09 743.149   4
   0   1  -9 3414.42 1299.30   5
   1  -1  -9 2554.46 883.991   5
  -1   1   9 785.910 279.536   4
  -1   1  10 46288.3 5288.37   4
  -1   0 -10 44756.4 4575.62   5
   0  -1  10 42109.1 4932.73   4
   1  -1 -10 43149.9 4570.67   5
   1   0  10 54710.8 6030.11   4
   0   1 -10 39747.2 4472.97   5
   2  -1   0 63421.7 2289.11   5
   1  -2   0 71567.2 1609.40   4
  -2   1   0 68276.6 2334.43   3
  -2   1   0 67307.0 2315.67   1
   1   1   0 66377.7 2237.72   1
   1  -2   0 65065.7 2597.94   2
  -2   1   0 69957.1 2456.87   6
  -1  -1   0 67104.4 2094.68   3
   2  -1   0 67614.6 2448.09   2
  -1  -1   0 63400.6 2187.98   1
   1   1   0 72174.2 2171.46   3
   2  -1   0 65857.1 2362.57   1
  -1   2   0 62027.9 2237.15   6
   1   1  -1 2516.73 317.267   5
   1  -2  -1 2078.57 269.037   4
  -2   1  -1 2451.26 402.128   3
  -2   1   1 1986.60 354.184   6
  -1  -1  -1 2357.68 293.666   2
   1  -2  -1 1947.24 372.872   2
  -1   2   1 2562.81 463.529   6
   2  -1  -1 3695.69 449.106   2
  -1  -1   1 2391.65 269.908   3
   1   1   1 2354.51 313.039   2
   1   1   1 2462.94 430.164   1
  -2   1  -1 2218.37 448.094   4
   1   1  -1 2297.81 275.797   3
   2  -1  -1 1681.16 350.384   3
  -1  -1  -1 2675.67 450.619   3
  -1   2  -1 3382.49 449.277   4
  -1  -1   1 2554.80 319.459   5
   2  -1   1 2544.75 485.119   1
   1   1  -1 1725.72 335.578   1
  -2   1   1 2431.37 370.870   2
   2  -1   1 2254.84 461.420   4
  -2   1  -1 2275.26 374.391   5
   2  -1  -1 1951.57 340.899   1
  -1  -1  -1 2647.30 465.106   1
   2  -1   1 2610.78 414.878   5
  -1   2  -1 2436.83 451.468   5
   1  -2   1 1944.76 330.141   4
  -1   2  -1 2306.21 361.356   6
   1  -2   1 2627.24 395.194   6
   2  -1  -1 2728.10 452.806   6
  -2   1   1 1958.03 344.481   1
  -2   1  -2 364435. 8233.22   4
   2  -1  -2 304993. 6646.62   2
  -2   1   2 322529. 6378.84   6
   1  -2   2 301416. 5812.27   3
  -1   2  -2 322049. 6402.99   6
  -2   1  -2 302026. 6699.99   5
   2  -1  -2 350552. 6564.13   4
  -1  -1   2 284784. 6101.74   2
   2  -1  -2 311206. 6450.82   1
  -2   1   2 329397. 6776.46   2
   1  -2   2 318089. 7077.88   4
  -2   1   2 314911. 6754.32   1
   2  -1   2 320609. 6744.17   3
   1   1   2 311005. 8007.29   4
   1   1  -2 318882. 6957.47   1
  -1  -1  -2 295859. 7039.21   3
  -1  -1  -2 291079. 6264.61   2
  -1   2   2 275120. 6667.12   4
   2  -1   2 305106. 7960.34   4
  -1  -1   2 312881. 6638.91   5
  -2   1  -2 305081. 6527.56   3
  -2   1   2 306797. 6516.70   4
   1  -2  -2 321875. 7194.31   6
  -1   2   2 293482. 7381.51   6
   1  -2  -2 311750. 6882.88   2
   1   1  -2 287449. 6437.82   5
  -1  -1   2 325981. 7119.95   4
   1  -2  -2 345539. 6531.00   4
  -1  -1  -2 330700. 7706.95   4
   2  -1   2 330904. 6884.87   5
  -1  -1  -2 272732. 6255.70   5
   1   1   2 306170. 6566.20   2
  -1   2  -2 362424. 7774.33   4
  -1   2  -2 308030. 7037.53   5
  -2   1   3 25913.1 1548.17   6
   1  -2   3 27486.1 2002.99   4
  -1  -1  -3 33051.6 2306.73   4
   1   1  -3 32847.0 1968.88   5
  -2   1   3 32462.3 1951.14   2
   1   1   3 30988.8 1901.55   2
  -1  -1  -3 30237.7 1977.74   3
  -1  -1  -3 31364.1 1818.04   2
   2  -1   3 35444.4 2016.92   5
   1   1   3 26976.9 2431.01   4
   2  -1   3 28882.5 1701.11   3
  -1   2   3 27373.6 2027.59   4
  -1   2  -3 30425.0 2283.24   4
  -2   1  -3 31930.8 1936.89   5
  -1  -1   3 26439.5 1886.85   4
  -1   2   3 28594.1 2008.66   6
   1  -2  -3 28690.5 1897.15   6
  -1   2  -3 29678.6 1978.47   5
   2  -1  -3 31958.5 1916.86   2
  -2   1   3 26085.1 1753.81   4
  -1  -1   3 31514.5 1768.28   2
   2  -1  -3 31188.1 1859.01   4
   1   1   3 34424.2 2127.84   3
  -1  -1   3 36587.6 2085.35   5
   1  -2  -3 29013.5 1892.89   2
   1  -2  -3 31150.0 1797.38   4
  -2   1   3 29058.6 1956.08   1
  -1  -1  -3 31227.3 1881.48   5
  -1   2  -3 31006.3 1346.57   3
   1  -2   3 29162.1 1235.01   3
  -1  -1  -3 33375.9 2006.46   6
  -2   1  -3 32127.2 1730.00   3
   2  -1   3 24964.7 2179.45   4
   2  -1  -3 30738.8 1673.38   6
   1  -2   4 16382.9 1811.83   4
  -1   2  -4 19278.1 1111.89   3
  -2   1   4 17573.3 1351.93   6
  -1  -1  -4 19248.2 1679.88   5
  -1  -1  -4 18658.4 1629.26   3
   1   1  -4 21038.1 1857.13   5
   1  -2  -4 17946.4 1651.49   3
  -1  -1   4 15572.8 1633.86   4
  -2   1  -4 18966.3 1455.45   3
   1  -2  -4 18390.8 1656.55   2
  -1   2   4 15603.3 1778.31   4
   1   1   4 15237.4 2051.46   4
  -1   2  -4 18585.9 1766.42   5
  -1   2   4 18712.0 1694.19   6
  -2   1  -4 18143.0 1651.95   5
   2  -1   4 17418.9 2089.23   4
   2  -1  -4 18240.6 1364.29   6
   2  -1  -4 20397.6 1737.35   2
   1  -2   4 19167.6 1102.76   3
  -2   1   4 13729.3 1443.86   4
   2  -1   4 19049.0 1488.33   3
   1  -2  -4 22091.9 1722.72   4
   1   1  -5 19175.8 1976.39   5
  -1  -1   5 12782.0 1641.98   4
   2  -1  -5 19930.7 2095.10   5
  -1   2  -5 18775.4 1185.83   3
   1  -2  -5 17859.9 1927.96   5
   1   1  -5 18247.7 772.453   3
  -2   1  -5 17987.9 1849.01   5
   2  -1  -5 20208.9 1911.55   2
   1   1   5 16613.0 2361.14   4
  -2   1   5 18041.4 1403.10   6
  -1  -1  -5 18253.4 1822.68   5
  -2   1  -5 19052.7 1571.71   3
   1  -2  -5 17749.2 1731.26   3
   1  -2   5 15237.2 1978.25   4
   2  -1   5 16463.8 2293.53   4
  -2   1   5 15310.6 1822.86   4
   1  -2  -5 18431.9 1851.08   2
  -1   2  -5 19090.3 1977.56   5
   1   1  -5 14750.6 844.508   6
  -1   2   5 18725.6 2219.03   4
   2  -1  -5 15708.0 1370.07   6
  -1  -1  -5 17619.4 1699.51   3
  -1   2   5 16542.3 1650.27   6
   1  -2   5 19145.1 1259.05   3
   1  -2   6 123861. 6337.40   4
  -2   1  -6 123618. 5688.53   5
  -1   2  -6 129197. 3777.83   3
  -1  -1   6 108020. 5616.47   4
   1  -2  -6 145726. 5949.00   2
  -2   1   6 107781. 5657.89   4
   1  -2  -6 121730. 5076.29   3
  -1  -1  -6 123545. 5054.57   3
  -1   2  -6 133162. 6007.80   5
   2  -1   6 128956. 7142.51   4
   1  -2  -6 115824. 5677.21   5
   1   1   6 123216. 7162.28   4
   2  -1  -6 125458. 5925.14   5
   1   1  -6 113071. 3151.86   6
   1   1  -6 129559. 2851.59   3
  -1  -1  -6 124246. 5551.95   5
  -2   1  -6 130189. 4810.42   3
   2  -1  -6 144047. 5876.57   2
   1   1  -6 130532. 6019.93   5
  -1   2  -6 125539. 4135.46   6
   2  -1  -6 124734. 4412.82   3
  -1   2   6 140665. 6844.17   4
   1  -2   7 20971.2 2719.65   4
  -1  -1  -7 23060.9 2182.84   3
   2  -1  -7 20844.6 1738.45   3
  -2   1   7 17373.3 2378.23   4
   1   1   7 22602.6 3296.57   4
  -1  -1   7 17009.2 2349.42   4
  -1  -1  -7 20424.7 2362.27   5
  -2   1  -7 22298.0 2475.70   5
  -2   1  -7 22518.4 1990.90   3
  -1   2   7 22541.7 2892.02   4
   2  -1  -7 20739.2 2470.31   5
   2  -1   7 24163.0 3267.07   4
  -1   2  -7 23485.5 2698.05   5
   1   1  -7 22175.2 2544.83   5
  -1   2  -7 23016.5 1513.46   3
   1  -2  -7 21218.0 2526.52   5
   1  -2  -7 21054.1 2088.20   3
   1  -2  -8 36180.4 2869.13   3
  -1   2   8 41745.1 4355.71   4
   1  -2  -8 34341.3 3493.64   5
  -1  -1  -8 38893.8 3630.21   5
  -1  -1   8 28995.3 3439.14   4
   1   1  -8 34645.9 3588.84   5
   1  -2   8 35389.6 3931.41   4
  -2   1  -8 36029.9 3567.61   5
   2  -1   8 39516.1 4522.98   4
   2  -1  -8 39397.7 3747.06   5
   1   1   8 40010.0 4687.79   4
  -1  -1  -8 35295.4 2898.30   3
  -1   2  -8 37042.2 3740.79   5
  -2   1  -8 36103.3 2694.74   3
  -2   1   8 32377.4 3640.30   4
  -2   1  -9 6708.96 1723.61   5
   1  -2  -9 6303.74 1498.30   5
   1   1   9 7179.57 2224.63   4
  -1  -1   9 5789.02 1736.41   4
   1   1  -9 6262.58 1660.52   5
   2  -1  -9 5703.46 1447.27   5
  -2   1   9 6181.70 1698.67   4
  -1   2   9 8625.56 2162.46   4
   1  -2   9 8394.10 2001.44   4
  -1  -1  -9 6508.42 1231.51   3
  -1   2  -9 5229.69 1617.63   5
   2  -1   9 6819.42 1973.69   4
  -1  -1  -9 5859.02 1540.17   5
   0   2   9 15707.9 3064.08   4
   2   0  -9 12424.9 2359.02   5
   0  -2  -9 12364.4 2243.67   5
  -2   0   9 10290.1 2177.15   4
   0  -2  -9 12079.4 1761.12   3
  -2   2  -9 13162.1 2342.32   5
   2  -2   9 14708.4 2861.95   4
   0  -2  -8 161132. 6658.47   3
   0  -2  -8 152397. 7404.76   5
   2  -2   8 161331. 9053.15   4
   0   2   8 175186. 9714.76   4
  -2   2  -8 148951. 7697.41   5
   2   0  -8 155255. 7889.37   5
   0  -2  -7 84818.9 5061.17   5
   2  -2   7 94115.1 6205.97   4
  -2   2  -7 85781.2 5330.28   5
   2   0  -7 96505.7 3133.21   3
   0  -2  -7 86385.6 4582.20   3
   2   0  -7 91682.9 5442.33   5
   0   2   7 92592.4 6479.49   4
  -2   0   7 74610.7 5067.24   4
  -2   2  -7 93087.0 3935.73   3
  -2   0   6-69.6201 238.811   4
   2   0  -6 416.654 162.011   3
   0  -2  -6 335.953 94.4935   3
   2   0  -6 592.388 237.582   6
  -2   2  -6 507.532 222.189   5
   0  -2  -6 244.350 257.525   2
   2   0  -6 822.466 388.979   5
   2  -2   6 186.448 266.061   4
   0   2   6 170.645 139.971   4
  -2   2  -6 367.519 178.179   3
   0  -2  -6 547.057 380.886   5
  -2   0   5 165653. 6460.13   4
   2  -2   5 190726. 7816.83   4
   0   2   5 179474. 7877.21   4
   0  -2  -5 197716. 6577.35   3
  -2   2  -5 202256. 5530.68   3
   0  -2  -5 177574. 6556.46   5
   2   0  -5 204225. 7154.21   5
   2   0  -5 198189. 4853.37   6
  -2   2  -5 196186. 6837.18   5
   2   0  -5 189935. 4656.84   3
   0  -2  -5 212671. 6763.90   2
   2  -2   5 218851. 5815.37   3
   2  -2   4 220666. 5454.15   3
   2   0  -4 209146. 6586.33   5
   2  -2   4 195771. 7207.20   4
   0  -2  -4 205286. 6510.32   3
  -2   0   4 214918. 4447.85   6
  -2   2  -4 207665. 5351.89   3
   2   0  -4 177087. 4790.28   3
   0  -2  -4 222309. 6281.32   2
  -2   0   4 187174. 6297.82   4
   2   0  -4 225717. 4899.82   6
   0   2   4 177084. 7166.52   4
  -2   2  -4 204846. 6488.12   5
   2  -2   3 378758. 9913.26   4
   0   2   3 442864. 9495.91   2
  -2   0   3 394315. 9115.49   4
   0   2   3 399791. 9421.37   6
   2   0  -3 378280. 7731.63   3
   0   2   3 374947. 9973.11   4
   2   0  -3 443299. 7720.26   6
   2   0  -3 397868. 8884.21   1
   0  -2  -3 365932. 9462.56   3
   0  -2  -3 451186. 9594.86   4
   2   0  -3 366569. 9010.20   5
   0  -2  -3 399295. 8758.34   2
  -2   2  -3 405094. 8214.40   3
   2   0  -3 402009. 8680.19   2
   2  -2   3 411748. 8177.60   3
   2   0  -3 472072. 9532.18   4
  -2   0   3 417843. 7254.01   6
  -2   0   3 408094. 8664.31   2
  -2   2  -3 414664. 9318.25   5
   2  -2   2 245304. 5526.55   3
   2   0  -2 234418. 5763.37   1
   0  -2  -2 230677. 6423.83   3
  -2   2  -2 237569. 5470.90   3
   0  -2  -2 263680. 6196.95   4
  -2   0   2 245225. 4742.02   6
  -2   2  -2 246751. 6597.88   4
  -2   2  -2 241767. 5979.33   5
   0   2   2 236163. 6166.66   4
  -2   0   2 241242. 5234.21   2
   0   2   2 215769. 6195.28   6
   2   0  -2 228684. 5210.87   2
   0   2   2 245988. 5827.51   2
  -2   0   2 226174. 5670.93   4
   2   0  -2 233160. 5071.51   3
   0  -2  -2 232076. 5495.78   2
   2  -2   2 210378. 6050.33   4
   0  -2  -1 473582. 9567.00   3
   0  -2  -1 400031. 8068.78   2
   2   0  -1 421049. 8859.52   1
  -2   2  -1 444084. 8878.29   4
  -2   2  -1 470667. 9083.44   6
   2  -2   1 500773. 8842.23   4
  -2   0   1 410992. 8007.63   3
   2   0  -1 474970. 8319.62   3
  -2   2  -1 466396. 8853.28   3
   2  -2   1 492266. 9000.74   3
   0  -2  -1 430418. 8464.41   4
  -2   0   1 473633. 7576.00   2
   0   2   1 452031. 7836.11   1
  -2   2  -1 483387. 9176.34   5
   2   0  -1 413774. 7485.54   2
   0   2   1 462431. 8527.69   2
   0   2   1 418436. 9248.95   6
   0   2   0 15014.7 811.074   1
   0  -2   0 16084.9 1032.05   6
  -2   2   0 17705.0 828.120   4
   0  -2   0 16749.7 1061.41   5
   0  -2   0 15515.2 838.046   1
   2   0   0 17104.9 1097.10   3
   2   0   0 15854.0 719.090   5
   2  -2   0 17020.7 1380.98   2
   2  -2   0 17785.8 776.475   4
   0  -2   0 17164.3 1084.65   2
   2   0   0 17368.0 706.959   2
   0   2   0 16034.7 1174.55   6
  -2   2   0 15432.7 1140.70   6
   2  -2   0 16568.6 967.863   1
   2   0   0 16802.2 1267.79   1
  -2   2   1 398818. 6147.50   4
  -2   0  -1 384391. 6591.28   5
   2  -2  -1 402185. 6583.25   1
   0   2  -1 357273. 7278.12   5
   2   0   1 361857. 8523.39   1
   2  -2  -1 346067. 7685.24   2
   0  -2   1 385376. 7111.94   1
  -2   0  -1 380809. 7506.43   3
   2   0   1 389357. 6580.11   5
   0  -2   1 392670. 7478.85   5
   0  -2   1 434342. 6833.24   6
  -2   2   1 411410. 6782.14   1
   0  -2   1 410507. 7504.81   4
   0   2  -1 338583. 7042.74   6
   0   2  -1 401645. 7447.22   1
  -2   2   1 405991. 7982.53   6
  -2   2   2 619894. 11705.2   6
  -2   2   2 553411. 10491.6   1
   0   2  -2 563337. 11191.1   5
  -2   0  -2 559310. 10606.0   5
   0  -2   2 631276. 11450.8   1
   2  -2  -2 562778. 11330.0   2
   2   0   2 642813. 10935.5   5
   2  -2  -2 702616. 10521.6   4
   2  -2  -2 622186. 10295.7   1
   0  -2   2 629539. 11455.2   5
   0  -2   2 637950. 11695.0   4
   2   0   2 596837. 10705.8   2
   0   2  -2 588917. 9750.95   6
   2   0   2 621887. 13269.2   4
  -2   0  -2 583357. 11276.3   3
  -2   2   2 500760. 10332.6   4
   0   2  -2 723412. 12235.5   4
  -2   2   3 98122.9 3832.98   6
   0   2  -3 103096. 3813.53   5
  -2   2   3 107367. 3744.22   1
   2   0   3 108998. 3856.89   3
   0  -2   3 100466. 3957.43   4
   0  -2   3 117075. 4010.58   5
   2   0   3 102157. 5012.04   4
  -2   0  -3 100434. 3602.55   3
   0   2  -3 90419.2 2091.88   6
   2  -2  -3 103291. 3832.38   2
  -2   0  -3 99758.6 3516.49   5
  -2   2   3 93979.0 3641.10   4
   2   0   3 100508. 3497.47   2
   2   0   3 125226. 3968.31   5
   0  -2   3 93555.0 3778.49   1
   2  -2  -3 112522. 3567.20   4
   2  -2  -3 117851. 3903.72   6
   2  -2  -4 93353.0 3700.84   4
   0  -2   4 79924.5 3876.77   4
  -2   2   4 93278.0 3891.89   6
   0   2  -4 76576.6 2038.05   6
   2  -2  -4 90574.7 3912.17   2
  -2   0  -4 88127.2 3591.30   3
   0   2  -4 92857.9 4026.78   5
  -2   2   4 86715.5 4024.44   4
  -2   0  -4 87171.5 3718.20   5
   0   2  -4 78302.0 1985.10   6
   2   0   4 80373.1 4940.96   4
   0  -2   5 4279.66 957.205   4
   0   2  -5 4892.98 503.010   6
  -2   0  -5 6569.61 975.763   3
  -2   2   5 5558.56 1100.04   4
  -2   0  -5 6475.97 1066.47   5
   2  -2  -5 5937.58 1042.05   2
   2   0   5 6210.70 1486.52   4
  -2   2   5 6749.25 1052.19   6
   0   2  -5 6477.16 1188.56   5
   0   2  -5 6793.88 581.054   6
  -2   0  -6 368702. 9713.82   3
   2  -2  -6 346531. 9420.62   3
   0   2  -6 331230. 7056.85   6
   2  -2  -6 447382. 11330.4   2
  -2   0  -6 344398. 10459.5   5
  -2   2   6 386346. 9660.22   6
  -2   2   6 389851. 11697.7   4
   0  -2   6 345905. 11145.8   4
   0   2  -6 374633. 11193.3   5
   2  -2  -6 342216. 10829.1   5
   0   2  -6 425419. 7236.99   6
   2   0   6 377480. 13800.8   4
  -2   0  -7 10859.9 1499.29   3
   2   0   7 12838.1 2504.03   4
  -2   0  -7 10784.2 1746.01   5
   0   2  -7 10903.3 1840.42   5
   0  -2   7 9146.31 1760.63   4
   2  -2  -7 10458.9 1780.50   5
  -2   2   7 11381.8 1978.18   4
   2  -2  -7 12395.6 1789.74   2
   2  -2  -7 9766.76 1352.24   3
  -2   0  -8 7858.88 1663.31   5
  -2   2   8 11561.9 2201.54   4
  -2   0  -8 9250.38 1445.35   3
   2   0   8 10247.6 2353.41   4
   2  -2  -8 8569.06 1292.34   3
   0  -2   8 6989.05 1670.97   4
   2  -2  -8 8534.29 1716.15   5
   0   2  -8 9892.54 1961.73   5
   0  -2   9 6656.99 1762.90   4
   2  -2  -9 5950.96 1546.50   5
  -2   2   9 8653.80 2059.57   4
   2   0   9 8436.66 2355.49   4
   0   2  -9 7415.63 1876.33   5
  -2   0  -9 6685.49 1551.76   5
   2  -3   9 1880.18 1095.09   4
  -2  -1   9-125.330 591.638   4
  -3   2  -9 601.852 421.041   5
  -2   3  -9 1162.69 577.566   5
   1  -3  -9 1246.66 643.548   5
   1  -3  -9 2688.47 899.844   3
  -1   3   9 2298.09 1038.80   4
  -1  -2  -9 1763.46 791.543   3
   3  -2   9 2341.08 1418.58   4
  -3   1   9 1861.15 950.595   4
   2   1  -9 1610.65 832.218   5
  -1  -2  -9 1329.50 939.577   5
   3  -1  -9 676.752 610.010   5
   1   2   9 2397.31 1230.68   4
   2  -3   8 67330.0 5491.00   4
   2   1  -8 63175.2 5018.94   5
  -3   1   8 59711.6 4869.02   4
   1  -3  -8 55295.4 4521.96   5
   1  -3  -8 59178.9 4124.39   3
  -1  -2  -8 60854.2 4147.04   3
   3  -1  -8 58954.7 4816.10   5
  -3   2  -8 65033.5 3792.61   3
  -2  -1   8 53226.3 4702.16   4
  -1   3   8 67226.3 5671.50   4
   1   2   8 72614.6 6521.30   4
  -3   2  -8 63182.6 4881.96   5
   3  -2   8 75048.5 6393.77   4
  -2   3  -8 63808.0 5043.06   5
  -1  -2  -8 59000.7 4488.43   5
   3  -1  -7 3152.25 661.104   3
  -1   3   7 2330.61 962.932   4
  -1  -2  -7 2918.72 781.789   3
   2  -3   7 1948.46 923.035   4
  -3   2  -7 3529.09 1090.81   5
  -2   3  -7 3968.12 1157.49   5
   1  -3  -7 3396.74 873.247   2
   3  -2   7 4962.75 1549.26   4
   2   1  -7 3520.74 1088.89   5
  -2   3  -7 2266.01 648.322   6
  -2  -1   7 1834.84 829.039   4
   3  -1  -7 2564.75 937.361   5
  -3   2  -7 2995.57 773.021   3
  -3   1   7 2087.64 858.460   4
   1  -3  -7 3531.19 941.978   3
   1  -3  -7 3184.99 968.113   5
  -1  -2  -7 3720.07 1015.62   5
   1   2   7 4019.51 1347.44   4
  -3   1   6 17352.3 1413.42   6
  -2   3  -6 14680.1 1535.83   6
   1  -3  -6 17751.1 2019.98   2
   3  -2   6 15715.7 2373.23   4
  -1  -2  -6 16062.7 1940.83   5
  -2  -1   6 13029.1 1795.86   4
   3  -1  -6 18960.4 2109.06   2
   1  -3  -6 18433.3 2214.73   5
   1   2   6 14113.0 2451.03   4
  -3   2  -6 18675.3 2181.41   5
   2  -3   6 14516.1 2125.21   4
   1  -3  -6 16688.2 1923.36   3
  -3   1   6 13550.3 1869.39   4
  -2   3  -6 15879.0 1325.99   3
  -1  -2  -6 16673.7 1934.74   3
   3  -1  -6 15607.9 2042.32   5
  -1   3   6 15632.0 2257.66   4
  -2   3  -6 19047.9 2311.50   5
  -3   2  -6 17962.9 1755.03   3
   2   1  -6 15476.2 2038.63   5
   3  -1  -5 7873.77 1349.74   5
  -1   3   5 7668.27 1351.72   4
  -1  -2  -5 7022.89 1142.07   2
   3  -1  -5 8003.74 1200.00   2
   3  -2   5 6338.61 1413.78   4
   2  -3   5 6645.13 814.119   3
   3  -1  -5 6988.74 961.936   6
   1   2   5 5849.47 1374.07   4
   1  -3  -5 7512.39 1207.93   2
  -3   1   5 3707.09 804.812   4
   2   1  -5 7762.83 1307.69   5
   1  -3  -5 5231.22 1045.60   3
  -2  -1   5 4568.62 1046.53   4
  -1  -2  -5 5768.35 1072.26   3
  -2   3  -5 6426.25 815.002   3
  -1   3   5 6362.39 1187.44   6
   2  -3   5 5594.76 1229.07   4
  -1  -2  -5 7531.15 1274.41   5
  -2   3  -5 7539.96 1314.45   5
  -2   3  -5 5770.24 896.845   6
  -3   1   5 6101.67 813.226   6
  -3   2  -5 6206.43 1181.96   5
  -3   2  -5 6375.24 988.659   3
   3  -1  -4 159081. 5322.49   3
  -1   3   4 189322. 6781.09   6
   1  -3  -4 223420. 6008.25   4
  -1   3   4 173596. 6439.37   4
   1   2   4 189448. 7700.82   4
  -1  -2  -4 191482. 5810.60   2
  -2   3  -4 184315. 4944.98   3
  -3   1   4 187276. 5132.30   6
  -3   2  -4 187177. 6176.93   5
   2  -3   4 182702. 6746.00   4
  -2   3  -4 158228. 5097.35   6
  -3   2  -4 185673. 5515.79   3
  -1  -2  -4 186172. 6477.77   3
   3  -1  -4 203547. 6126.07   2
   2   1  -4 188427. 6135.86   5
   2   1  -4 171548. 3231.28   3
   2  -3   4 196059. 4823.95   3
   1  -3  -4 194647. 6129.73   2
  -1  -2  -4 177841. 5783.94   5
  -2  -1   4 172850. 6173.05   4
  -2   3  -4 186711. 6303.25   5
   1  -3  -4 168581. 6188.58   3
   3  -2   4 168644. 7115.56   4
   3  -1  -4 195358. 5874.06   1
   3  -1  -4 224886. 5880.61   6
  -3   1   4 170129. 5860.00   4
   2   1  -3 52336.5 1573.02   3
  -2  -1   3 48356.2 2753.09   4
  -2   3  -3 44531.4 2380.63   6
   1   2   3 48529.4 3286.72   1
  -3   2  -3 56611.6 2879.46   5
   1   2   3 57023.0 3508.29   4
   1  -3  -3 53021.5 2765.33   2
  -3   2  -3 55889.3 2642.81   3
   3  -1  -3 52042.6 2582.74   2
   2  -3   3 48691.6 2898.66   4
   3  -1  -3 47154.6 2521.51   3
  -1  -2  -3 53600.4 2507.84   2
  -3   1   3 47534.3 2169.45   6
  -3   1   3 47210.5 2541.51   4
   2   1  -3 54369.6 2860.29   1
   3  -2   3 55002.8 2676.22   3
  -2  -1   3 54726.8 2418.65   2
   1  -3  -3 54336.0 2474.17   4
  -1   3   3 54092.7 2818.41   4
  -1  -2  -3 51603.0 3048.22   3
   3  -1  -3 51468.8 2555.25   1
  -3   1   3 59307.6 2718.74   2
   3  -2   3 42716.1 3031.98   4
   2   1  -3 54925.0 2684.54   5
   1   2   3 58652.6 2840.44   2
  -2   3  -3 55532.8 2960.89   5
  -1   3   3 55733.1 3357.45   6
   2  -3   3 53022.1 2226.39   3
   3  -1  -3 59773.6 2717.71   6
   1   2   2 69722.5 2665.01   2
  -3   2  -2 69632.8 2882.02   3
  -2  -1   2 62088.7 2908.60   4
   3  -1  -2 70852.7 2950.05   1
   2   1  -2 70582.3 2121.19   3
  -1  -2  -2 65535.6 2443.82   2
  -3   1   2 58491.4 2547.75   4
   3  -2   2 80340.5 3269.21   5
   2  -3   2 70555.8 2729.78   3
   3  -1  -2 67670.5 2938.36   3
  -2   3  -2 72034.8 3200.68   4
  -2   3  -2 59270.9 2646.82   6
  -3   1   2 64445.3 2559.21   6
  -1  -2  -2 75058.4 3332.88   4
  -2   3  -2 68186.9 3122.28   5
   3  -1  -2 68108.9 2612.31   2
   3  -2   2 61271.1 3175.97   4
  -2  -1   2 65493.6 2081.83   3
   2   1  -2 73273.2 2570.90   5
  -1  -2  -2 70824.9 3304.19   3
   1  -3  -2 71388.8 2537.73   4
   2   1  -2 66644.6 2976.26   1
  -3   2  -2 83556.7 3644.38   4
  -3   2  -2 73379.6 3053.08   5
   2  -3   2 62600.9 2866.94   4
  -2  -1   2 71545.4 2302.16   2
   1  -3  -2 67039.0 2867.46   2
  -3   1   2 75390.6 2733.89   2
  -1   3   2 78534.8 3251.20   2
   1   2   2 68339.2 3231.07   1
  -3   1   2 65241.3 2885.96   1
   3  -2   2 73057.4 3054.45   3
  -1   3   2 70006.9 3647.12   6
   1   2   1 39210.7 2133.08   3
  -3   1   1 35280.1 1887.92   3
  -2   3  -1 34857.3 2114.82   5
  -3   2  -1 32916.3 2025.84   6
  -1   3   1 32700.8 2258.46   6
  -3   2  -1 35651.0 2005.15   3
   1  -3  -1 33929.1 1494.21   4
  -1   3   1 43385.3 2406.44   2
   1   2   1 30761.1 1735.36   1
   1   2   1 34099.7 1529.87   2
   2   1  -1 34856.8 1251.23   5
   2  -3   1 42595.8 2166.17   6
  -1  -2  -1 32692.1 1377.23   2
   3  -2   1 32945.0 1903.07   4
  -1  -2  -1 38647.3 2014.99   6
   3  -1  -1 35951.0 2043.13   3
  -2  -1   1 33173.7 1485.76   3
  -3   1   1 30946.4 1795.27   6
  -1  -2  -1 35204.7 2093.23   3
   3  -1  -1 33635.5 1542.56   2
   3  -1  -1 33676.7 2000.13   1
  -3   1   1 41290.8 1829.73   2
   1  -3  -1 31996.4 1869.23   2
  -1  -2  -1 32605.1 1819.12   1
  -3   2  -1 37331.6 2024.27   4
  -2   3  -1 29018.4 1818.85   6
   3  -2   1 31674.0 2049.58   1
  -3   2  -1 32776.1 1939.18   5
   3  -2   1 38547.4 2132.58   5
  -2  -1   1 34889.5 1089.39   2
   2   1  -1 35403.3 1588.13   3
  -3   1   1 34146.2 1922.68   1
  -2   3  -1 35416.7 1685.42   4
   2   1  -1 34919.1 2011.87   1
   2  -3   1 29144.6 1531.03   4
   2  -3   0 157002. 5144.59   2
   2   1   0 161177. 4798.77   1
  -1  -2   0 150193. 3405.00   2
   1  -3   0 152716. 4766.61   2
   1  -3   0 181695. 4516.95   6
  -3   2   0 165884. 3963.32   4
  -3   2   0 170121. 4833.74   3
   3  -1   0 149312. 4300.03   2
  -1  -2   0 164628. 4495.90   3
   3  -2   0 150104. 4962.50   2
   3  -2   0 160279. 4920.87   5
   2  -3   0 161177. 3167.39   4
  -3   1   0 172417. 4796.98   1
  -2   3   0 159031. 4659.81   6
   2   1   0 173431. 4384.93   3
  -2  -1   0 153293. 4547.00   1
  -3   2   0 166302. 4905.17   6
   1   2   0 184481. 4630.50   3
   3  -1   0 164304. 5042.11   1
  -3   1   0 161163. 4501.73   3
  -1   3   0 159299. 4793.81   6
  -1  -2   0 159267. 4264.95   1
   3  -2   0 163247. 4603.17   1
  -1  -2   0 142661. 3418.48   5
   1  -3   0 159086. 3109.31   1
  -2  -1   0 161436. 4182.53   3
  -1  -2   0 167725. 4261.32   6
   3  -1   0 153342. 4230.74   5
  -3   2   0 173070. 4623.87   1
   1  -3   0 162263. 4789.58   5
   1   2   0 158638. 4274.19   1
   3  -2  -1 88878.7 3483.01   3
  -3   2   1 130958. 4091.85   2
  -1  -2   1 94355.0 2622.60   6
   3  -2  -1 94680.4 3076.22   1
   3  -2  -1 86216.4 3207.75   2
   2   1   1 84172.8 2217.92   2
  -2  -1  -1 90435.1 3267.53   3
   1  -3   1 104833. 3081.99   6
   2  -3  -1 85012.3 3407.45   2
  -3   2   1 92741.5 3018.29   1
  -3   2   1 86277.9 3259.33   6
  -3   1  -1 93826.4 3421.67   4
  -2   3   1 81498.4 3417.16   6
  -1  -2   1 92541.2 2657.88   3
   1   2  -1 87207.0 2613.11   5
   1  -3   1 94164.4 3531.58   5
  -1  -2   1 93823.6 2625.88   5
   3  -1   1 80078.6 3730.28   1
   2   1   1 84997.9 3518.47   1
  -1  -2   1 80037.7 2876.29   1
  -2  -1  -1 89766.6 3517.78   1
  -2  -1  -1 93243.6 1998.53   5
  -1   3  -1 82768.5 3059.64   6
   1  -3   1 78350.3 2460.52   1
  -1   3  -1 85389.7 3286.98   5
   1   2  -1 86013.7 3056.37   1
  -3   1  -1 89969.9 3166.78   3
  -3   1  -1 84896.2 2831.96   5
   1  -3   1 87649.7 2821.99   4
   3  -1   1 92902.6 2935.47   5
   3  -2  -1 118214. 3997.41   6
   1  -3   2 154378. 4622.21   4
   1  -3   2 207481. 4546.32   6
   3  -2  -2 160276. 4188.71   1
  -3   2   2 146999. 3886.47   4
   3  -1   2 143251. 5612.61   1
  -1  -2   2 141839. 4407.66   1
   2   1   2 158275. 4122.15   2
   1  -3   2 141523. 3689.05   3
   1   2  -2 147334. 4198.44   5
  -3   2   2 181494. 4985.59   2
  -3   1  -2 154036. 4555.78   3
  -2  -1  -2 151059. 3760.85   5
   3  -1   2 146491. 5577.58   4
   2  -3  -2 159314. 3436.94   4
  -2   3   2 148230. 3296.35   1
  -1   3  -2 158804. 4833.35   5
   1  -3   2 147478. 4327.93   1
   3  -2  -2 149583. 4546.78   2
   3  -1   2 160587. 4857.75   3
  -3   1  -2 148497. 4270.03   5
   1   2  -2 153257. 4692.90   1
  -1  -2   2 163845. 4331.56   5
   1  -3   2 168604. 5150.08   5
   3  -2  -2 204458. 5493.08   6
  -1  -2   2 142108. 2966.77   6
   2   1   2 134207. 5412.37   1
  -1   3  -2 139717. 3967.06   6
   2  -3  -2 155919. 4836.26   2
   3  -1   2 161132. 4400.34   5
  -2   3   2 142518. 4997.73   6
  -2   3   2 148269. 3580.35   4
  -1   3  -2 184176. 5112.15   4
  -3   1  -2 173338. 5524.46   4
  -1  -2   2 142981. 3040.64   3
  -1  -2   2 146218. 4662.04   4
   2  -3  -2 177832. 5139.52   6
  -2  -1  -2 153177. 4851.02   3
  -3   2   2 152637. 4342.57   1
  -3   2   2 145203. 4538.79   6
  -2  -1  -3 65858.3 2712.57   5
   2   1   3 67857.7 2910.86   2
   1   2  -3 65218.9 2967.65   5
   2   1   3 59392.3 3851.99   1
  -1   3  -3 52601.4 2211.06   6
  -2   3   3 60613.8 3400.23   6
   2   1   3 64353.8 4068.41   4
   3  -1   3 71025.7 3032.16   5
  -3   2   3 54819.4 2603.46   4
  -2  -1  -3 63301.9 3151.41   3
   3  -2  -3 62757.9 2965.60   2
   2  -3  -3 62101.5 2400.18   4
   2  -3  -3 61747.5 3100.98   2
  -1   3  -3 62334.6 3127.03   5
  -2   3   3 63564.7 2601.06   1
  -3   1  -3 66521.4 2954.38   3
   3  -2  -3 74346.3 3172.04   6
  -1  -2   3 56405.0 3017.35   4
   1  -3   3 62690.9 1965.25   3
  -3   2   3 59032.1 2857.18   6
  -3   2   3 61945.3 2923.12   1
  -3   1  -3 66277.8 2950.68   5
   3  -1   3 57989.7 3729.04   4
   3  -2  -3 57764.4 2485.08   1
  -2   3   3 60676.7 2777.61   4
   1  -3   3 60489.8 3054.76   4
  -1  -2   3 75118.8 3160.54   5
   2  -3  -4 64328.9 3358.23   2
  -2   3   4 64785.3 3209.06   1
  -3   2   4 50868.1 2852.32   4
  -3   1  -4 61064.1 3000.73   3
   1  -3   4 59045.2 1771.49   3
   1  -3   4 51845.9 3152.34   4
   1   2  -4 58064.8 3210.55   5
   3  -1   4 54623.1 4107.00   4
   3  -2  -4 62872.3 3267.23   2
  -2  -1  -4 59283.7 3003.38   5
  -1   3  -4 57652.6 3277.59   5
  -2   3   4 60747.9 3535.52   6
  -2   3   4 55286.4 3183.62   4
  -2  -1  -4 59500.8 3228.27   3
   3  -2  -4 62102.6 2960.60   4
   2  -3  -4 61731.4 2845.92   4
   2   1   4 55212.2 4266.74   4
  -1  -2   4 51523.2 3142.85   4
  -3   1  -4 61553.0 3217.51   5
  -3   2   4 56189.0 3011.16   6
  -1   3  -4 46297.6 2100.61   6
  -3   1  -5 58946.4 3504.10   5
   3  -2  -5 62175.4 3531.24   2
  -2   3   5 58930.1 3663.56   6
  -1   3  -5 46111.6 2184.72   6
  -1   3  -5 61510.0 3728.48   5
  -3   2   5 56945.2 3141.38   6
   3  -1   5 52080.1 4443.37   4
  -1  -2   5 50336.5 3383.55   4
  -2   3   5 56597.5 3636.09   4
  -3   2   5 51604.7 3317.84   4
  -2  -1  -5 56648.5 3308.84   5
   1  -3   5 49701.3 3517.88   4
   2   1   5 52503.8 4586.52   4
   1   2  -5 58999.4 3571.75   5
  -3   1  -5 60382.0 3176.97   3
  -2  -1  -5 55207.3 3313.33   3
   2  -3  -5 62193.5 3586.16   2
   2  -3  -6 108245. 5035.24   3
  -2   3   6 124099. 5558.84   6
   3  -1   6 119892. 7356.50   4
   1   2  -6 121636. 5885.19   5
  -2   3   6 131450. 6316.63   4
   2   1   6 118748. 7545.08   4
  -3   1  -6 120234. 4961.40   3
   3  -2  -6 106911. 5688.94   5
  -1   3  -6 92287.7 3417.98   6
  -2  -1  -6 115717. 5203.36   3
  -3   2   6 116954. 5743.10   4
  -3   1  -6 115165. 5550.11   5
   1  -3   6 103053. 5749.19   4
  -1   3  -6 126521. 6026.69   5
  -2  -1  -6 113390. 5402.41   5
   2  -3  -6 130261. 5780.28   2
  -3   2   6 131956. 5007.30   6
   3  -2  -6 134872. 5794.81   2
  -1  -2   6 94826.9 5231.77   4
   2  -3  -7 5255.80 1261.55   5
   3  -1   7 5538.71 1734.25   4
   1  -3   7 4596.32 1316.79   4
  -3   2   7 5665.99 1294.51   4
   2   1   7 5651.21 1889.33   4
  -1  -2   7 4340.30 1094.87   4
  -1   3  -7 5837.51 1398.54   5
   2  -3  -7 6208.56 1267.42   2
   1   2  -7 5292.90 1330.35   5
  -3   1  -7 5112.83 1053.94   3
   3  -2  -7 5119.17 936.521   3
  -3   1  -7 5270.29 1208.27   5
  -2   3   7 6714.81 1513.62   4
  -2  -1  -7 4961.93 1094.77   5
   3  -2  -7 5428.67 1302.93   5
  -2  -1  -7 5330.11 1139.62   3
   3  -2  -7 5101.65 1126.51   2
   2  -3  -7 4023.54 933.836   3
  -3   1  -8 4554.43 1020.47   3
  -2  -1  -8 4221.26 1026.05   3
   3  -1   8 5098.66 1465.56   4
   2  -3  -8 5030.22 1319.50   2
  -1  -2   8 4212.42 1281.69   4
   2   1   8 6376.95 1860.45   4
   2  -3  -8 6651.94 1523.03   5
   1  -3   8 4769.57 1390.51   4
   2  -3  -8 5089.65 1170.62   3
  -3   2   8 4970.76 1334.17   4
  -1   3  -8 5499.16 1504.92   5
   3  -2  -8 4345.12 1328.94   5
  -2   3   8 4350.64 1323.38   4
  -3   1  -8 5408.15 1385.84   5
   1   2  -8 3948.56 1146.41   5
  -2  -1  -8 5342.80 1312.00   5
  -2  -1  -9 1326.50 549.559   5
  -3   2   9 1577.81 864.829   4
  -3   1  -9 917.674 687.750   5
   3  -1   9 1962.77 923.578   4
  -2   3   9 2016.78 829.979   4
   1  -3   9 2210.79 1083.89   4
  -1  -2   9 2047.58 996.908   4
  -2  -1  -9 1674.27 670.846   3
   2   1   9 2409.08 1535.03   4
   1   2  -9 1268.04 1023.60   5
  -1   3  -9 1638.28 615.483   5
   2  -3  -9 1829.06 879.394   5
   3  -2  -9 1234.18 515.750   5
  -3   0   9 5893.85 1699.43   4
   0  -3  -9 5826.19 1315.67   3
   3  -3   9 6591.13 1968.53   4
   0   3   9 6926.28 2047.25   4
  -3   3  -9 6639.84 1787.40   5
   3   0  -9 7680.95 1895.53   5
   0  -3  -9 8125.73 1865.84   5
  -3   3  -8 40108.3 3980.09   5
  -3   0   8 30632.9 3523.81   4
   0   3   8 43234.6 4668.26   4
   3   0  -8 37961.8 3912.39   5
   0  -3  -8 39470.9 3430.84   3
   0  -3  -8 37594.3 3641.76   5
   3  -3   8 45570.2 4725.38   4
   0  -3  -7 31490.6 3039.15   5
  -3   3  -7 36501.0 3444.09   5
   0  -3  -7 33656.7 3061.86   3
  -3   3  -7 33861.9 2440.10   3
  -3   0   7 24224.8 2779.18   4
   0   3   7 36518.7 4020.96   4
   3   0  -7 33166.5 3302.37   5
   0  -3  -7 38410.1 3205.77   2
   3  -3   7 38340.0 4042.95   4
   3   0  -6 78981.2 2663.49   3
   0   3   6 79658.6 5455.48   4
   0  -3  -6 78295.8 4568.65   5
  -3   3  -6 82691.6 3769.65   3
  -3   3  -6 79302.5 4744.61   5
   0  -3  -6 77314.8 4525.02   3
   3  -3   6 78700.6 5407.81   4
   3   0  -6 82330.1 4862.93   5
  -3   0   6 59837.1 4079.35   4
   0  -3  -6 85903.5 4518.09   2
  -3   0   5 20702.3 2152.32   4
   3   0  -5 30177.6 2647.21   5
   0  -3  -5 26926.5 2513.77   3
   3   0  -5 27232.0 1644.18   3
  -3   0   5 30062.5 1339.41   6
  -3   3  -5 29944.4 2568.40   5
   0  -3  -5 29885.0 2393.04   2
  -3   3  -5 29287.8 2052.66   3
   3  -3   5 27181.6 2837.02   4
   0   3   5 27614.0 2893.24   4
   0  -3  -4 23500.7 2242.34   3
  -3   3  -4 25437.2 2200.01   5
   3   0  -4 25480.4 1563.33   3
  -3   3  -4 27540.8 1900.36   3
  -3   0   4 24619.3 1306.53   6
   0   3   4 26840.9 2584.91   4
   3   0  -4 25152.4 2089.16   1
   0  -3  -4 25770.6 2012.63   2
   3  -3   4 21363.4 2265.37   4
   3  -3   4 28665.9 1922.60   3
  -3   0   4 21628.8 1997.12   4
   3   0  -4 28078.9 2276.33   5
  -3   3  -3 53973.5 2945.82   6
  -3   3  -3 65799.6 3355.19   5
  -3   0   3 55357.1 2989.60   4
   3  -3   3 64874.1 2937.34   3
  -3   0   3 69838.2 2854.62   2
   0   3   3 72428.6 3591.43   1
   0  -3  -3 61675.1 3570.85   3
  -3   3  -3 62214.7 2896.09   3
   3   0  -3 70656.4 2893.90   2
   0   3   3 62684.0 3598.45   6
  -3   0   3 61812.9 2183.96   6
   3   0  -3 60543.5 3135.09   1
   0  -3  -3 61705.9 2900.76   2
   3   0  -3 62940.1 2520.66   3
   3   0  -3 67273.7 3206.54   5
   0  -3  -3 69447.4 3284.40   4
   3  -3   3 47836.7 3066.58   4
   0   3   2 238890. 6281.25   2
   0  -3  -2 251751. 6477.87   4
   0  -3  -2 224274. 5825.85   2
  -3   3  -2 249624. 6805.15   5
  -3   0   2 233322. 5471.99   6
  -3   0   2 212807. 6139.36   4
   3   0  -2 240884. 5731.27   3
  -3   3  -2 221684. 6426.52   6
   0  -3  -2 236394. 7154.50   3
  -3   0   2 228881. 5559.82   3
  -3   0   2 247299. 5291.87   2
   0   3   2 223622. 7103.82   6
  -3   3  -2 229663. 6263.82   3
   3   0  -2 244284. 6699.83   1
   3   0  -2 228026. 5263.28   2
   3  -3   2 217009. 6246.57   4
   3  -3   2 251532. 6503.65   3
   0   3   2 231406. 5647.70   1
  -3   3  -2 289026. 7251.55   4
  -3   3  -1 16580.2 1274.79   4
   0   3   1 13194.6 908.377   1
   3  -3   1 17053.1 1607.26   5
   0  -3  -1 14930.2 1468.10   3
   0   3   1 14046.1 1477.02   6
  -3   3  -1 11826.7 1214.11   6
  -3   0   1 14369.0 1126.90   3
   0  -3  -1 13709.3 1096.94   2
  -3   3  -1 14102.2 1443.61   5
   3   0  -1 13483.1 1356.47   1
   0  -3  -1 14124.4 1000.56   1
  -3   0   1 14954.1 843.940   2
   3  -3   1 14064.3 1341.73   3
   3   0  -1 14105.3 1183.05   3
   0   3   1 18434.1 1501.78   2
   3  -3   1 11767.4 1016.92   4
   0  -3  -1 15744.7 1353.29   6
   3   0  -1 21778.1 966.144   2
   3   0   0 44670.0 1314.44   2
   0  -3   0 52028.4 2595.85   3
   0  -3   0 50609.0 2220.51   6
   0   3   0 46644.6 2578.48   6
   0  -3   0 47622.9 2180.22   2
   0  -3   0 48627.7 1839.18   1
   3   0   0 50827.1 2379.27   3
  -3   3   0 44418.7 2467.76   6
   3   0   0 47331.4 1503.16   5
   0  -3   0 50481.7 2285.81   5
   0   3   0 42444.1 1739.79   1
  -3   0   0 48940.3 2188.27   3
   3  -3   0 48764.1 2872.85   2
   3  -3   0 47828.5 2029.09   1
   3   0   0 46353.8 2712.22   1
  -3   3   0 51791.2 1734.89   4
   3   0   1 17801.3 883.039   5
   0  -3   1 15614.8 1193.00   4
   0  -3   1 14793.6 1030.57   6
   0   3  -1 15803.0 1286.81   5
   0  -3   1 13567.8 1011.06   1
   3  -3  -1 16380.7 960.021   1
  -3   3   1 12146.0 1273.48   6
   3  -3  -1 16467.8 1517.36   2
   0  -3   1 17856.7 1330.45   5
  -3   0  -1 16539.5 918.406   5
   3   0   1 14826.9 1614.85   1
  -3   3   1 15364.7 977.099   1
  -3   0  -1 15482.4 1295.54   3
   0   3  -1 15412.2 1176.52   1
   0   3  -1 16030.6 1329.75   6
   3   0   2 229576. 7888.71   1
  -3   0  -2 234920. 6435.03   3
   0  -3   2 261878. 6583.37   5
  -3   3   2 256045. 5514.40   1
   3   0   2 270729. 5697.59   5
   0  -3   2 300733. 5400.76   6
   0  -3   2 240751. 6049.90   1
  -3   0  -2 235355. 5521.22   5
  -3   3   2 239769. 6848.66   6
   0  -3   2 248182. 6485.68   4
   0  -3   2 263093. 5396.03   3
   0   3  -2 235763. 6274.09   5
   0   3  -2 212755. 5508.34   6
   3  -3  -2 247390. 6782.56   2
   3   0   2 242227. 5518.66   2
  -3   3   2 266485. 5187.74   4
   3  -3  -2 250482. 5141.30   1
   3   0   3 2692.61 837.928   1
   3   0   3 2812.71 563.885   5
  -3   3   3 2484.88 491.636   4
   0  -3   3 2084.17 559.454   4
  -3   3   3 2073.04 577.216   6
  -3   3   3 3119.30 563.509   1
   3   0   3 2473.68 883.738   4
   0   3  -3 2588.69 636.871   5
  -3   0  -3 2656.27 545.770   5
   0   3  -3 2431.71 354.427   6
   3  -3  -3 2388.36 617.878   2
  -3   0  -3 2909.27 655.267   3
   3   0   3 2958.70 571.780   2
   3  -3  -3 2404.86 412.728   4
  -3   0  -4 15758.6 1541.49   5
  -3   0  -4 13809.7 1478.86   3
   0   3  -4 14490.1 1581.14   5
   0  -3   4 12757.9 1547.41   4
   3  -3  -4 14168.8 1282.55   4
   3  -3  -4 14921.8 1615.37   2
  -3   3   4 15845.8 1554.69   4
   3   0   4 13385.0 2106.99   4
  -3   3   4 14536.5 1676.05   6
   3  -3  -5 166.424 243.116   2
   0   3  -5-59.9574 143.366   5
  -3   3   5 240.649 195.177   4
   0  -3   5 143.809 207.568   4
  -3   0  -5 104.050 103.104   3
  -3   3   5 55.0977 208.513   6
  -3   0  -5 89.7536 253.078   5
   3   0   5 609.532 530.408   4
   0  -3   6 94331.5 5350.80   4
   0   3  -6 114841. 5837.08   5
   3  -3  -6 107563. 5393.44   2
  -3   0  -6 110747. 5436.78   5
  -3   3   6 125676. 5876.09   4
  -3   0  -6 110644. 5065.87   3
  -3   3   6 125240. 5649.61   6
   3   0   6 115580. 7621.62   4
   3  -3  -7 4198.13 995.864   3
   0  -3   7 3512.53 1041.36   4
  -3   0  -7 3682.13 939.035   3
   3   0   7 4960.32 1510.26   4
  -3   3   7 4413.89 1030.11   6
   3  -3  -7 5172.64 1242.24   2
  -3   0  -7 4622.55 1171.73   5
   3  -3  -7 5242.13 1293.32   5
  -3   3   7 3455.14 966.080   4
   0   3  -7 4768.24 1230.35   5
  -3   3   8 19619.7 2713.61   4
   3   0   8 18014.8 3443.99   4
   0   3  -8 16694.3 2622.51   5
   0  -3   8 15653.8 2536.90   4
   3  -3  -8 15887.6 2518.19   5
  -3   0  -8 16170.8 2411.05   5
  -3   0  -8 18278.4 2232.94   3
   3  -3  -8 19738.1 2586.25   2
   3  -3  -8 16154.9 1950.73   3
  -3   0  -9 1014.21 595.405   3
   0  -3   9 832.012 795.720   4
  -3   3   9 137.595 256.136   4
   0   3  -9-276.317 588.846   5
  -3   0  -9 892.356 667.817   5
   3   0   9 553.911 849.096   4
   3  -3  -9 200.828 356.909   5
  -2  -2   0 621095. 10146.8   2
  -2  -2   0 639736. 12471.8   6
   4  -2   0 640183. 13697.2   1
   2   2   0 627515. 13109.8   1
   2  -4   0 610038. 13670.1   2
  -4   2   0 608422. 13068.8   6
   4  -2   0 507599. 12762.8   2
  -2  -2   0 668306. 12953.9   1
   4  -2   0 634810. 13225.0   5
  -4   2   0 706619. 13438.1   3
   2  -4   0 684773. 10286.4   1
   2  -4   0 713585. 14098.1   5
  -4   2   0 733705. 13592.4   1
   2   2   0 719732. 12980.6   3
  -2   4   0 713181. 14128.5   6
  -4   2   0 650194. 12342.5   4
  -2  -2   0 565927. 10034.6   5
  -2  -2   0 632125. 12543.2   3
   2   2  -1 48255.7 2175.98   3
   2  -4   1 39499.8 1920.50   4
  -2  -2   1 52040.0 2132.17   6
   2   2   1 42755.3 1718.39   2
  -4   2  -1 48214.2 2509.01   4
  -4   2   1 60990.9 2962.72   2
   2   2  -1 43599.0 1661.66   5
   2   2  -1 40768.6 2412.97   1
   4  -2  -1 41531.6 2240.62   2
  -2  -2   1 44689.9 2020.59   3
   2  -4  -1 42215.6 2522.92   2
  -2   4  -1 42009.6 2686.98   5
  -2  -2   1 41294.3 2289.73   1
   2   2   1 41761.7 2499.73   1
  -2   4  -1 35754.5 2282.45   6
   2  -4   1 53552.5 2528.86   6
  -2  -2  -1 45799.7 2551.63   3
  -2  -2  -1 44241.7 1516.64   2
   4  -2   1 41101.7 2749.98   1
   4  -2   1 48882.9 2549.67   5
   2  -4   1 38450.8 1701.61   1
  -2   4   1 37429.4 2616.36   6
  -2  -2   1 51132.5 1725.86   5
  -4   2   1 42747.5 2332.69   1
  -4   2  -1 46813.9 2540.10   3
   4  -2  -1 43183.4 2507.92   1
  -4   2   1 38268.7 2375.66   6
   2  -4   1 45559.5 2891.33   2
   2  -4  -1 43953.3 1470.29   4
  -2  -2  -1 43572.3 2503.04   1
  -2  -2  -1 54303.0 2683.70   6
  -2  -2   2 111019. 3082.18   3
  -4   2  -2 118973. 4233.38   5
   2   2  -2 123875. 3381.02   3
   2   2  -2 112560. 4399.83   1
   4  -2  -2 110011. 3957.34   2
   2   2   2 113410. 3563.35   2
   2  -4  -2 115196. 4447.31   2
  -4   2  -2 120699. 4371.69   3
  -4   2   2 97249.9 3519.03   4
   2  -4   2 116181. 3842.92   3
   2   2   2 106582. 4662.27   1
   2  -4  -2 111589. 2864.24   4
  -4   2   2 112964. 4202.24   6
  -2  -2   2 139247. 3898.27   5
  -2   4   2 120591. 5254.06   6
   4  -2   2 104631. 4905.84   1
  -4   2   2 163936. 4876.62   2
  -2  -2   2 117853. 3241.50   2
  -2  -2   2 104800. 4266.48   4
   2  -4   2 115740. 4037.12   4
   4  -2   2 135986. 4582.10   5
   2   2  -2 116223. 3563.63   5
   2  -4   2 166421. 4827.52   6
  -2  -2  -2 126468. 4799.30   3
   4  -2   2 114318. 4902.22   4
  -2   4  -2 134524. 4449.21   4
  -2  -2  -2 117673. 3376.19   2
  -2  -2   2 128495. 3120.78   6
   4  -2  -2 123004. 4292.47   1
  -2   4  -2 118320. 4631.60   5
  -2   4  -2 96474.6 3934.52   6
  -2  -2  -2 117681. 3327.26   5
  -2   4   3 91461.3 2759.85   1
  -2  -2   3 74133.7 3825.59   4
   2  -4  -3 88853.7 3986.36   2
  -2  -2  -3 90801.8 4305.14   3
  -2   4  -3 69556.3 3273.49   6
   2   2   3 93164.3 3663.75   2
  -4   2  -3 89355.5 3832.30   3
   2   2  -3 86603.6 3502.28   5
   4  -2   3 83144.8 4565.20   4
   2   2   3 83817.9 4763.34   1
  -2   4  -3 93546.5 4219.53   5
  -4   2   3 77914.2 3448.83   6
  -4   2  -3 92298.9 3939.47   5
   4  -2  -3 85112.2 3550.05   1
   4  -2  -3 85994.0 3681.51   2
  -2  -2  -3 89436.1 3346.11   5
  -2   4   3 87980.2 3163.27   4
   2  -4   3 80620.7 3781.70   4
  -2  -2   3 84507.2 2202.52   3
  -2   4   3 91458.5 4864.23   6
   2  -4   3 93857.8 3279.57   3
   2  -4  -3 90024.2 2850.39   4
  -4   2   3 76346.3 3318.74   4
  -2  -2  -3 85339.7 3239.87   2
  -2  -2   3 90895.7 3241.10   2
   2   2  -3 83984.6 3956.47   1
   4  -2  -4 355138. 8651.92   1
  -4   2   4 327541. 8705.93   4
   2  -4  -4 360948. 9545.26   2
   2   2   4 302695. 11082.1   1
   2   2  -4 366724. 9808.56   1
  -2   4   4 347438. 10609.8   6
   2   2  -4 317262. 8776.80   5
  -2   4   4 308956. 8432.50   4
  -2  -2  -4 301008. 8231.22   5
  -4   2  -4 323812. 8702.33   3
  -4   2  -4 332671. 9141.73   5
  -2   4   4 379975. 8484.58   1
  -2   4  -4 335285. 9486.41   5
  -2   4  -4 281623. 7746.02   6
  -2  -2   4 314590. 9390.13   4
   2   2   4 349688. 11780.3   4
   2  -4   4 337696. 7191.95   3
   4  -2   4 344847. 11167.8   4
  -4   2   4 349773. 8798.51   6
  -2  -2  -4 309990. 9409.77   3
   2  -4   4 326364. 9519.54   4
   4  -2  -4 329568. 8891.88   2
  -4   2   5 152656. 5975.71   4
   2  -4   5 151792. 6650.77   4
   4  -2  -5 172026. 6328.42   2
  -2  -2   5 148016. 6503.10   4
   2   2   5 154772. 8329.56   1
  -2   4   5 155719. 6209.19   4
   2   2   5 175590. 8707.63   4
  -2   4   5 174176. 7342.96   6
  -4   2  -5 170734. 6013.55   3
  -4   2   5 182324. 6151.77   6
  -2   4  -5 163418. 6624.11   5
  -2  -2  -5 154966. 5862.39   5
  -2  -2  -5 163709. 6606.25   3
   2  -4   5 169630. 4309.84   3
   2   2  -5 158400. 6327.48   5
  -4   2  -5 164225. 6425.59   5
  -2   4  -5 134542. 4799.32   6
   4  -2   5 161858. 7966.23   4
   2  -4  -5 175996. 6586.70   2
  -2   4  -6 2916.65 891.111   5
  -4   2  -6 2658.79 706.892   3
   4  -2   6 3007.47 1149.80   4
  -4   2   6 2595.55 810.094   4
  -4   2  -6 3036.33 788.213   5
  -2  -2  -6 4044.94 927.039   5
  -2  -2   6 2503.61 791.162   4
  -2   4  -6 2442.16 542.998   6
  -2  -2  -6 3367.35 901.960   3
  -2   4   6 4044.11 1108.33   6
   4  -2  -6 3555.15 1045.08   5
  -2   4   6 3449.36 933.880   4
  -4   2   6 2378.37 646.862   6
   2   2   6 3059.11 1167.88   4
   4  -2  -6 4982.06 1097.09   2
   2  -4   6 2767.93 916.977   4
   2   2  -6 3277.17 941.090   5
   2  -4  -6 3323.58 935.038   2
   2  -4  -6 3143.83 808.744   3
  -2  -2   7 56494.2 4428.67   4
   2  -4  -7 81101.0 4971.95   2
   2  -4  -7 66893.0 4797.53   5
   2  -4  -7 63955.9 4341.86   3
   4  -2   7 80911.1 6592.29   4
   2  -4   7 69780.8 5193.86   4
  -2   4  -7 77406.0 5168.17   5
   4  -2  -7 83527.8 4975.35   2
  -2  -2  -7 69490.2 4593.90   3
   2   2   7 81100.3 6878.76   4
  -4   2  -7 78667.2 4375.80   3
  -4   2   7 84030.5 3884.45   6
  -2   4   7 76159.2 5162.08   4
  -2  -2  -7 69678.6 4562.58   5
  -4   2  -7 75698.7 5039.71   5
   4  -2  -7 69134.7 4993.28   5
  -4   2   7 68939.5 4776.72   4
   2   2  -7 70063.6 4993.48   5
   2   2   8 45971.5 5455.34   4
   2   2  -8 38155.3 3987.86   5
   2  -4  -8 38263.5 3894.33   5
  -2  -2  -8 40732.7 3541.11   3
  -4   2  -8 44953.6 4086.44   5
   2  -4  -8 40417.0 3523.98   3
  -2  -2   8 34243.7 3782.50   4
  -2   4  -8 41399.0 4137.38   5
  -4   2  -8 46548.1 3555.24   3
  -2  -2  -8 43367.9 3916.54   5
  -4   2   8 41646.3 4050.25   4
   4  -2  -8 38631.4 3958.28   5
  -2   4   8 46644.0 4384.09   4
   2  -4  -8 49635.4 4118.67   2
   4  -2   8 52982.5 5611.21   4
   2  -4   8 41288.7 4231.28   4
  -2   4   9 49916.8 4822.23   4
  -2  -2  -9 41248.8 4161.58   5
   2   2  -9 43914.8 4585.01   5
  -2   4  -9 47221.3 4781.61   5
  -2  -2  -9 44885.4 3852.65   3
   2  -4  -9 41655.5 3672.32   3
  -4   2  -9 45158.7 4533.96   5
   4  -2  -9 38707.8 4273.08   5
   2  -4  -9 39991.4 4246.18   5
   2   2   9 59335.0 6606.05   4
   4  -2   9 62972.0 6569.72   4
   2  -4   9 44685.6 4817.08   4
  -4   2   9 46262.9 4534.47   4
  -2  -2   9 34954.7 4207.13   4
  -3  -1   9 2293.18 1009.51   4
   3   1  -9 2957.35 1169.39   5
   4  -3   9 4832.64 1733.37   4
   3  -4   9 4177.10 1569.59   4
   1  -4  -9 3217.15 1023.58   3
  -1  -3  -9 2775.01 866.461   3
  -4   3  -9 2729.55 969.731   5
  -1   4   9 3618.58 1320.70   4
  -4   1   9 4241.68 1504.31   4
  -3   4  -9 4045.76 1394.25   5
  -1  -3  -9 4224.94 1358.37   5
   1  -4  -9 4722.15 1465.40   5
   1   3   9 4066.40 1438.19   4
   4  -1  -9 2366.19 1019.88   5
   1  -4  -8 9356.26 1752.50   3
  -1   4   8 9538.05 2016.24   4
   4  -3   8 12847.1 2610.15   4
   3  -4   8 12425.7 2382.96   4
   1  -4  -8 12585.4 2055.17   2
  -1  -3  -8 8543.65 1614.31   3
  -3  -1   8 7430.43 1758.23   4
   3   1  -8 10573.4 2090.34   5
  -4   3  -8 11066.7 2037.92   5
  -3   4  -8 11504.0 2057.49   5
   1   3   8 11024.6 2544.44   4
  -4   1   8 9078.39 1826.17   4
  -1  -3  -8 9599.83 1853.83   5
   4  -1  -8 9165.28 1867.67   5
   1  -4  -8 10808.6 1982.86   5
  -1   4   7 5193.98 1376.04   4
   3  -4   7 2279.48 991.847   4
  -4   1   7 3573.35 1058.46   4
   4  -1  -7 4489.73 1189.48   5
   3   1  -7 3647.13 1205.85   5
  -4   3  -7 3507.56 981.338   5
   1  -4  -7 3451.04 1077.33   5
  -3  -1   7 2476.28 796.157   4
  -1  -3  -7 4487.06 1174.78   5
   1  -4  -7 4385.73 1122.06   2
  -3   4  -7 2999.46 1155.02   5
  -3   4  -7 2993.14 774.623   6
   4  -3   7 6044.80 1566.02   4
  -4   3  -7 5355.01 1069.79   3
   1   3   7 2150.34 1098.89   4
  -1  -3  -7 3740.49 1077.79   3
   1  -4  -7 1890.42 724.580   3
  -4   3  -6 67696.1 4383.65   5
   1   3   6 66362.7 5387.29   4
   1  -4  -6 73197.1 4313.91   2
  -4   3  -6 67926.7 3766.92   3
   1  -4  -6 58458.8 4037.20   3
  -3  -1   6 51744.2 3992.40   4
  -1  -3  -6 70555.8 4014.25   2
  -4   1   6 50084.2 3692.84   4
  -4   1   6 70912.8 2957.82   6
  -1  -3  -6 62062.0 4266.57   3
  -1   4   6 63420.9 4520.83   4
  -3   4  -6 47628.2 3127.51   6
   3   1  -6 64757.6 4360.99   5
  -1  -3  -6 61735.5 3901.86   5
   4  -1  -6 60680.1 4318.25   5
  -3   4  -6 68301.0 4507.83   5
   4  -3   6 63429.8 5122.96   4
   3  -4   6 63661.5 4711.78   4
   4  -1  -6 74414.8 4257.94   2
  -3  -1   5 40974.1 3256.12   4
   1   3   5 52892.6 4468.37   1
  -4   1   5 51837.6 2644.43   6
   1   3   5 52945.2 4370.17   4
  -1   4   5 49489.1 3815.47   6
  -4   3  -5 52309.0 3110.31   3
  -4   1   5 36056.6 2929.45   4
   3  -4   5 59717.0 2861.43   3
   3   1  -5 49833.6 3368.46   5
  -1  -3  -5 46251.2 3517.34   3
   1  -4  -5 45906.3 3417.53   3
  -3   4  -5 47958.5 3447.97   5
  -1  -3  -5 47245.6 3162.13   5
  -4   3  -5 50300.1 3509.47   5
   4  -1  -5 49007.7 3543.93   5
  -1   4   5 49745.9 3585.12   4
  -1  -3  -5 51279.6 3163.17   2
   4  -1  -5 53672.0 3322.65   2
   4  -3   5 42316.0 3822.68   4
  -3   4  -5 38844.1 2687.65   6
   3  -4   5 46911.0 3671.23   4
   1  -4  -5 51613.8 3329.99   2
   1   3   4 74779.1 4759.72   1
  -1  -3  -4 78176.4 4376.06   3
  -4   3  -4 81659.6 3737.27   3
  -3  -1   4 64912.0 3862.50   4
   4  -1  -4 78099.0 3696.26   2
   3  -4   4 69101.7 4055.78   4
  -4   1   4 72656.9 3106.43   6
  -1   4   4 75657.8 3944.28   4
  -4   1   4 59886.5 3508.48   4
  -3   4  -4 62149.4 3374.58   6
   3   1  -4 78983.8 4165.09   1
  -4   3  -4 84450.2 4220.35   5
  -1  -3  -4 77128.1 3581.56   2
   3   1  -4 75269.5 3782.37   5
   3  -4   4 76386.9 3279.16   3
  -3   4  -4 81493.8 4275.49   5
   1  -4  -4 68998.8 4099.49   3
   3   1  -4 76331.5 2327.57   3
   4  -3   4 65985.6 4266.78   4
  -1   4   4 77220.9 4621.55   6
   1  -4  -4 77197.5 3897.98   2
   4  -1  -4 75238.1 3797.60   1
  -3  -1   3 37225.3 2011.12   2
   1  -4  -3 33924.2 2299.80   2
  -3  -1   3 28170.8 2259.20   4
   3   1  -3 33369.5 1663.16   3
  -4   1   3 40623.6 2276.71   2
   4  -1  -3 35185.4 2363.87   3
  -3   4  -3 39486.1 2734.62   5
  -3   4  -3 29386.0 2166.87   6
  -1  -3  -3 34026.0 2679.47   3
   3   1  -3 35398.7 2559.04   1
  -1   4   3 41619.9 3246.44   6
  -1   4   3 39036.6 2074.85   1
  -4   1   3 27550.1 2075.88   4
   3  -4   3 37895.8 2272.01   3
   1  -4  -3 33466.2 2015.73   4
   3   1  -3 35132.1 2142.82   5
   4  -1  -3 33969.6 2397.89   1
  -3  -1   3 32123.8 1403.36   6
   4  -3   3 29194.2 2471.26   4
  -4   1   3 29591.4 1887.10   6
  -4   3  -3 36543.2 2543.09   5
   3  -4   3 29793.1 2346.79   4
   4  -1  -3 33033.8 2082.88   2
  -1  -3  -3 35686.5 2119.83   2
  -4   3  -3 35150.9 2346.00   3
   1   3   3 36718.5 2748.36   1
   1   3   2 74487.5 3097.88   2
  -1  -3  -2 70937.0 2764.47   2
   4  -1  -2 67092.8 2713.68   2
  -3  -1   2 76329.4 2365.29   2
  -3   4  -2 89146.4 3630.21   4
   3   1  -2 70860.1 3569.66   1
   3  -4   2 60605.1 2923.53   4
  -4   1   2 82529.2 3028.84   2
  -4   3  -2 90847.3 3965.06   4
  -1  -3  -2 66647.3 3681.42   3
  -4   3  -2 71643.1 3471.68   5
  -3   4  -2 71126.0 3622.27   5
  -3   4  -2 61921.3 3170.75   6
  -1   4   2 65501.8 3981.60   6
   4  -3   2 59752.1 3360.13   1
  -3  -1   2 69064.3 2584.80   3
   3   1  -2 72585.9 2616.93   5
   4  -1  -2 72778.8 3402.75   3
   4  -3   2 65817.6 3333.50   4
   1   3   2 64539.5 3085.01   1
   3   1  -2 72177.7 2725.63   3
  -1   4   2 66416.6 1948.65   1
   4  -1  -2 72054.6 3545.21   1
  -4   1   2 64485.7 2920.51   6
   1  -4  -2 64814.6 3104.94   2
   1  -4  -2 75130.0 2921.28   4
  -4   3  -2 64563.9 3433.76   6
  -4   3  -2 76399.4 3441.20   3
   3  -4   2 76235.8 3329.62   3
  -3   4  -1 85789.7 2830.74   4
  -1  -3  -1 64365.5 2351.32   2
  -4   3  -1 66813.8 3367.36   6
   4  -1  -1 63145.5 2364.98   2
   3   1  -1 73173.2 3565.23   1
  -3  -1   1 68612.3 2685.12   3
   3  -4   1 70438.8 3224.81   3
   4  -1  -1 72255.0 3610.82   1
   1  -4  -1 66487.9 3046.72   2
  -1   4   1 65086.4 1697.76   1
  -4   1   1 70661.6 3096.59   3
   3  -4   1 70737.2 3838.89   2
  -3   4  -1 75276.0 3834.85   5
   1   3   1 62746.3 2773.20   1
  -4   1   1 65565.9 3050.70   6
   3   1  -1 70799.6 1896.39   5
  -4   1   1 95996.8 3208.60   2
  -1  -3  -1 71975.0 3536.51   3
  -1   4   1 67050.2 3893.01   6
   3   1  -1 75675.3 2938.40   3
   4  -3   1 72888.6 3801.56   2
  -3   4  -1 63962.1 3282.89   6
   4  -3   1 68203.6 2973.90   4
   1   3   1 87968.9 3460.28   2
  -4   3  -1 72997.7 3411.48   3
   4  -3   1 68543.5 3309.77   1
  -4   3  -1 83638.0 3299.55   4
   3  -4   1 58313.9 2332.40   4
  -1  -3  -1 69479.9 2923.37   1
  -1  -3   0 194666. 5747.64   3
  -1  -3   0 208006. 5317.87   1
  -4   3   0 234801. 5982.70   1
   1  -4   0 203320. 5437.07   6
   1   3   0 187930. 5255.40   1
  -1  -3   0 188969. 4525.70   2
  -4   1   0 195271. 5582.00   3
   4  -1   0 176664. 4925.55   2
  -1   4   0 188356. 6477.81   6
  -3   4   0 177538. 5951.99   6
   1  -4   0 187220. 5738.59   2
  -4   3   0 175561. 5908.49   6
   1  -4   0 202771. 4115.98   1
   1  -4   0 214248. 6088.82   5
   3   1   0 193221. 6251.95   1
   4  -1   0 195221. 6563.10   1
   4  -3   0 193312. 5632.19   1
   4  -1   0 188861. 5023.70   5
   3  -4   0 192652. 3709.26   4
  -1  -3   0 203590. 4750.13   5
   3  -4   0 194685. 6590.43   2
   3  -4   0 198332. 4391.34   1
   3   1   0 215583. 5740.84   3
   4  -3   0 173325. 6246.39   2
  -4   3   0 191158. 4829.56   4
  -3  -1   0 184755. 5249.29   3
  -1  -3   0 205818. 5471.63   6
   1  -4   1 11107.3 1007.93   4
   3  -4  -1 9669.68 489.632   1
   4  -1   1 10788.0 1481.62   1
   1  -4   1 8814.67 770.840   1
  -3  -1  -1 12187.8 1261.70   3
   3   1   1 11392.5 1437.28   1
   3   1   1 10613.4 611.380   2
   4  -3  -1 10387.8 1266.13   2
   3  -4  -1 10759.4 1332.90   2
   4  -3  -1 12531.6 1156.48   1
  -1  -3   1 11990.1 993.510   6
   1  -4   1 12191.7 1382.13   2
  -1  -3   1 12160.4 1063.82   2
  -4   3   1 9366.67 1207.84   6
   1   3  -1 10834.4 1019.53   5
  -1   4  -1 9697.55 1185.90   6
  -4   1  -1 13052.6 1310.63   3
  -4   3   1 16232.1 1728.90   2
  -1   4  -1 11011.2 1300.89   5
   1   3  -1 10922.3 1116.97   1
  -1  -3   1 11985.6 990.469   5
  -3   4   1 8520.56 1206.46   6
  -1  -3   1 11434.1 1059.58   3
   1  -4   1 11952.1 1100.89   6
  -1  -3   1 11155.0 1081.12   1
  -4   3   1 13435.6 1150.69   1
   1  -4   1 12405.1 1371.56   5
   4  -1   1 12220.7 1039.54   5
  -1  -3   2 10680.2 1234.92   4
  -4   1  -2 13458.1 1341.29   3
   3   1   2 13285.4 1033.75   2
   1  -4   2 11350.4 1199.05   4
  -1  -3   2 12931.8 907.565   3
   4  -3  -2 11966.0 1081.82   1
   4  -3  -2 13894.7 1449.21   2
  -4   3   2 10216.1 1288.56   6
   1  -4   2 11086.1 1065.74   1
   3   1   2 12630.8 1684.13   1
  -4   3   2 11953.8 923.895   4
  -1  -3   2 12599.0 853.273   6
  -1   4  -2 10274.4 1142.82   6
   4  -1   2 14219.8 1206.47   5
  -3   4   2 10406.4 1416.04   6
   1  -4   2 15750.0 1231.34   6
  -3  -1  -2 13589.3 928.454   5
  -1   4  -2 12004.6 1332.86   5
  -3  -1  -2 12390.0 1391.94   3
  -4   1  -2 12730.6 1139.86   5
   1   3  -2 13023.0 1203.92   5
  -3   4   2 12265.4 719.608   1
  -1  -3   2 14094.3 1217.10   5
   3  -4  -2 12737.7 1447.10   2
   4  -1   2 11008.2 1619.21   1
   1   3  -2 12607.2 1303.50   1
  -4   3   2 12666.5 1173.97   1
   3   1   3 26779.5 1796.68   2
  -4   3   3 27207.8 1691.49   4
   1  -4   3 22678.3 1938.44   4
   4  -3  -3 26592.1 2125.75   2
   3  -4  -3 24634.3 1245.40   4
   3  -4  -3 26562.8 2183.89   2
  -4   1  -3 27000.5 2087.31   3
  -4   3   3 22539.5 1969.01   6
  -3   4   3 24387.6 1372.11   1
   4  -1   3 25326.6 2606.82   4
  -1   4  -3 22370.1 1605.88   6
  -1   4  -3 25493.0 2098.97   5
  -3  -1  -3 28100.2 1740.18   5
  -4   1  -3 27876.9 1917.86   5
   1   3  -3 25412.6 1929.96   5
   1  -4   3 26437.4 1412.24   3
  -3   4   3 24332.4 2322.39   6
  -1  -3   3 24700.3 837.706   3
   4  -1   3 21580.4 2483.18   1
  -3  -1  -3 27709.9 2198.80   3
  -1  -3   3 22240.6 1985.76   4
  -3   4   3 25055.6 1419.66   4
   3   1   3 22129.1 2581.71   1
   4  -3  -3 23293.5 1558.95   1
   1   3  -3 25817.2 2128.22   1
   1  -4   4 184154. 6596.17   4
  -1  -3   4 187409. 6843.69   4
   3  -4  -4 221207. 7296.93   2
   3  -4  -4 230050. 5635.11   4
   3   1   4 195094. 8894.09   1
  -3   4   4 187374. 5786.78   4
   4  -1   4 189898. 8303.02   1
   4  -3  -4 212372. 6944.61   2
  -1   4  -4 203321. 6930.34   5
  -3   4   4 220279. 8056.57   6
  -4   3   4 198484. 6854.55   6
  -1   4  -4 187178. 5166.71   6
   1  -4   4 207398. 4145.11   3
  -3  -1  -4 201212. 6940.18   3
  -4   1  -4 205703. 6661.59   3
   1   3  -4 199251. 6680.02   5
  -3  -1  -4 204536. 6219.29   5
  -4   1  -4 209400. 6635.24   5
   4  -1   4 227525. 9222.60   4
  -3   4   4 220561. 5886.33   1
   3   1   4 218284. 9476.02   4
  -4   3   4 223589. 6303.38   4
  -4   1  -5 887.329 470.638   5
   1  -4   5-28.5140 295.411   4
   3   1   5 1110.61 696.672   4
   4  -1   5 624.360 484.111   4
   1   3  -5 1958.53 667.027   5
  -3   4   5 1349.46 536.114   4
  -4   3   5 193.763 271.939   4
  -1  -3   5 1314.30 668.468   4
   3   1   5 525.043 722.193   1
  -1   4  -5 516.564 215.371   6
   3  -4  -5 542.587 425.243   2
  -3   4   5 679.117 402.624   6
  -1   4  -5 913.757 495.100   5
  -4   3   5 874.482 465.473   6
  -4   1  -5 511.120 265.466   3
   4  -3  -5 604.294 416.109   2
  -3  -1  -5 1006.17 513.452   3
  -3  -1  -5 860.237 469.591   5
  -3   4   6 2333.40 796.793   6
   4  -1   6 1159.64 529.343   4
  -4   1  -6 2995.71 812.516   3
  -3   4   6 2661.22 762.497   4
  -4   3   6 2199.77 721.549   4
  -1  -3   6 1409.47 556.037   4
  -3  -1  -6 3210.00 836.495   3
  -1   4  -6 3601.75 986.313   5
  -4   3   6 3667.52 916.932   6
   3  -4  -6 2980.29 845.499   2
   1  -4   6 2924.13 919.997   4
  -3  -1  -6 3057.24 887.171   5
  -4   1  -6 3035.73 829.229   5
   4  -3  -6 2858.19 871.655   2
   3   1   6 3419.18 1375.88   4
   1   3  -6 3001.07 923.971   5
   4  -1   7 1315.36 879.224   4
  -3   4   7 120.439 42.0275   4
   1  -4   7-283.863 480.362   4
  -1  -3   7-308.369 579.609   4
  -4   3   7 474.092 250.579   6
  -1   4  -7-543.717 485.438   5
   3  -4  -7 10.6196 316.669   2
  -3   4   7 705.882 293.795   6
   4  -3  -7-210.049 89.4004   2
  -4   1  -7-95.9819 429.321   5
   3   1   7 940.994 678.424   4
  -4   1  -7-208.703 384.992   3
  -3  -1  -7-307.688 391.198   3
   1   3  -7 989.611 595.235   5
  -3  -1  -7 314.670 78.0492   5
   4  -3  -7 247.487 346.563   5
   3  -4  -7 422.071 301.047   3
  -4   3   7 302.541 375.480   4
  -3  -1  -8 62277.1 4438.60   3
  -1  -3   8 52425.5 4732.42   4
   3   1   8 71473.3 7024.78   4
   3  -4  -8 57697.6 4157.97   3
   3  -4  -8 69391.1 5042.74   2
  -4   1  -8 65911.5 4367.61   3
   1   3  -8 61847.8 5178.64   5
  -1   4  -8 59894.2 5105.10   5
   4  -3  -8 53260.5 4771.55   5
  -4   1  -8 64870.7 4985.90   5
  -3  -1  -8 59790.2 4736.68   5
   1  -4   8 57098.5 5025.00   4
   3  -4  -8 56806.3 4898.55   5
   4  -1   8 78497.0 7206.47   4
   4  -3  -8 68852.2 4933.02   2
  -3   4   8 72008.9 5168.90   4
  -4   3   8 68310.3 5028.65   4
   4  -1   9 10858.1 2846.02   4
  -4   3   9 8678.85 1875.07   4
   1  -4   9 8730.36 2124.52   4
  -1  -3   9 8014.93 1888.06   4
  -1   4  -9 9243.08 2169.58   5
   3  -4  -9 11595.3 2176.36   2
   3   1   9 11752.0 2959.68   4
  -3  -1  -9 8605.59 1682.08   3
  -4   1  -9 7900.20 1924.18   5
   1   3  -9 8306.37 2083.25   5
  -3  -1  -9 6616.04 1595.16   5
   4  -3  -9 8678.62 2032.95   5
   3  -4  -9 8273.14 2024.24   5
   4  -4   9 5350.92 1838.18   4
  -4   0   9 2076.19 629.407   4
   0  -4  -9 1705.14 900.234   5
   0   4   9 2176.32 989.803   4
   0  -4  -9 1393.67 658.701   3
   4   0  -9 2322.89 1165.22   5
  -4   4  -9 2956.34 1227.43   5
  -4   0   8 3342.23 1191.40   4
   0   4   8 5325.49 1694.36   4
   0  -4  -8 3685.35 1205.42   5
  -4   4  -8 5729.23 1518.20   5
   0  -4  -8 4945.54 1224.23   3
   4  -4   8 5521.98 1580.96   4
   4   0  -8 3131.07 1048.09   5
   0   4   7 12113.5 2333.11   4
   4  -4   7 12023.7 2368.58   4
  -4   0   7 8722.73 1692.91   4
   0  -4  -7 9898.53 1695.43   5
  -4   4  -7 10014.1 1803.73   5
  -4   4  -7 8596.98 1470.19   6
   0  -4  -7 9468.38 1767.50   3
   4   0  -7 8111.70 1653.72   5
   0  -4  -7 12394.8 1855.74   2
  -4   4  -7 10865.1 1474.08   3
  -4   4  -6 263783. 9440.40   5
  -4   4  -6 194779. 7622.20   6
  -4   0   6 202914. 8385.21   4
   0  -4  -6 234163. 8937.27   3
   4   0  -6 240982. 9017.78   5
   0  -4  -6 203918. 8129.01   5
   0   4   6 273507. 10447.4   4
   4  -4   6 280632. 10726.1   4
  -4   4  -6 247277. 7599.43   3
   0  -4  -6 274265. 8760.09   2
   4  -4   5 6353.68 1407.96   4
   0  -4  -5 8413.22 1571.67   3
   4   0  -5 8756.60 1465.01   1
  -4   0   5 7278.60 1370.38   4
  -4   4  -5 6217.83 1084.34   6
  -4   4  -5 8605.79 1240.12   3
  -4   0   5 8203.96 749.808   6
   4   0  -5 7718.63 912.150   3
   0  -4  -5 8101.01 1269.65   2
  -4   4  -5 8446.59 1481.69   5
   0   4   5 9403.47 1687.28   1
   4   0  -5 8544.72 1437.91   5
   0   4   4 59047.2 3618.74   1
   4   0  -4 51516.3 2547.93   3
  -4   4  -4 41527.2 2894.79   6
   0  -4  -4 51029.3 3653.31   3
  -4   0   4 44729.4 3181.37   4
  -4   4  -4 59334.0 3742.83   5
   4   0  -4 54156.4 3332.09   5
  -4   4  -4 54132.8 3124.87   3
   0  -4  -4 54299.9 3118.76   2
  -4   0   4 52802.3 2235.12   6
   4   0  -4 56064.5 3542.12   1
   4  -4   4 48290.2 3496.69   4
   0  -4  -3 49580.5 3507.21   3
   0  -4  -3 49872.6 2751.00   2
   4   0  -3 52323.4 3236.33   1
  -4   0   3 37845.5 2698.45   4
  -4   0   3 54383.0 2504.01   2
  -4   4  -3 51442.8 3222.71   5
   0   4   3 51913.4 3653.66   6
   4   0  -3 48891.4 2519.11   3
  -4   0   3 47250.9 2228.41   6
  -4   4  -3 44722.3 2963.04   6
   4   0  -3 50158.4 2463.69   2
   4   0  -3 53184.5 2920.72   5
   0   4   3 48884.5 2622.09   1
   4  -4   3 41378.0 2856.66   4
   0  -4  -2 382346. 9075.84   2
   4   0  -2 433989. 10919.2   1
  -4   0   2 471472. 8314.79   2
  -4   4  -2 372368. 10169.3   6
  -4   0   2 382391. 8776.39   6
  -4   4  -2 453019. 10942.8   5
   0   4   2 405503. 11581.7   6
  -4   0   2 398083. 9026.22   3
   0  -4  -2 427081. 11216.3   3
   4   0  -2 449749. 9614.91   3
   4   0  -2 415593. 8932.92   5
  -4   4  -2 522189. 10581.1   4
   0   4   2 382656. 8290.11   1
   0  -4  -2 429497. 9820.31   4
   4   0  -2 397683. 8046.02   2
   4  -4   2 425085. 9650.63   4
   4  -4   1 277440. 7116.70   1
   0  -4  -1 244338. 6474.31   2
   4   0  -1 264790. 5162.10   2
   4   0  -1 290713. 8458.72   1
   0   4   1 287761. 8762.58   6
  -4   4  -1 258709. 7638.98   6
   0  -4  -1 285004. 8275.00   3
   0   4   1 266744. 5957.53   1
   4  -4   1 263903. 8597.67   2
  -4   0   1 268481. 6841.02   3
   4  -4   1 290803. 6482.66   4
   0  -4  -1 249777. 6010.74   1
   4  -4   0 3095.73 552.172   1
   4   0   0 2475.68 272.383   2
  -4   4   0 2793.27 709.048   6
   4   0   0 3021.16 831.759   1
  -4   0   0 3171.98 650.008   3
   0   4   0 2904.91 770.463   6
   4   0   0 2850.34 348.926   5
   0  -4   0 3235.42 629.081   5
   4  -4   0 3802.67 958.396   2
   0  -4   0 3605.04 644.739   6
   0   4   0 2714.94 486.410   1
   0  -4   0 3501.76 613.524   2
   0  -4   0 3155.53 782.855   3
   0  -4   0 3298.83 523.677   1
  -4   4   0 3328.91 428.171   4
   0  -4   1 273120. 6895.21   4
  -4   4   1 293797. 6456.00   1
   0  -4   1 285439. 7280.37   3
   0   4  -1 252136. 7496.51   6
   4  -4  -1 244971. 7813.56   2
   0  -4   1 244472. 7060.19   2
   0  -4   1 275674. 6369.91   1
   0  -4   1 344124. 6937.34   6
  -4   0  -1 259530. 7204.42   3
   0   4  -1 258389. 7358.94   5
   4  -4  -1 303492. 6168.76   1
   4   0   1 251089. 8597.67   1
  -4   4   1 277276. 8061.16   6
   0  -4   1 289557. 7315.77   5
   4   0   1 291682. 5360.88   5
   0   4  -1 282816. 6911.79   1
   4  -4  -2 139569. 3518.12   1
   0  -4   2 124758. 4610.94   4
   0  -4   2 138815. 4106.02   3
   4  -4  -2 146676. 5508.36   2
   4   0   2 125098. 6063.43   1
  -4   0  -2 125461. 3644.53   5
  -4   4   2 120347. 5043.00   6
  -4   0  -2 137117. 4972.82   3
   0   4  -2 131216. 4712.27   5
   0   4  -2 121273. 4329.62   6
   4   0   2 150120. 3924.63   5
  -4   4   2 138820. 3799.08   1
   0  -4   2 149173. 4027.31   6
   4   0   2 133500. 3791.90   2
   4  -4  -3 316758. 8979.79   2
   0  -4   3 287993. 8319.37   4
   0   4  -3 274829. 6479.78   6
  -4   4   3 297313. 9142.51   6
  -4   4   3 339188. 7323.31   1
   0  -4   3 288934. 5971.58   3
  -4   0  -3 292496. 8435.11   3
  -4   0  -3 291684. 7282.30   5
   4   0   3 367773. 8002.32   5
   0   4  -3 297651. 8323.10   5
   4   0   3 293961. 10720.5   1
   4   0   3 309965. 7488.56   2
  -4   4   3 311965. 6552.51   4
   0  -4   4 119795. 5342.81   4
   4   0   4 123743. 7068.92   1
  -4   0  -4 144816. 5165.74   5
  -4   4   4 129569. 5997.23   6
  -4   0  -4 134990. 5468.17   3
   4   0   4 153357. 7942.71   4
   0   4  -4 133838. 5525.82   5
   4  -4  -4 148894. 5942.69   2
  -4   4   4 148175. 4668.92   4
   4  -4  -5 119251. 5607.59   2
   0  -4   5 95613.3 5046.42   4
   4   0   5 97108.8 6772.74   1
  -4   4   5 124169. 6276.26   6
  -4   0  -5 106675. 5065.63   3
  -4   0  -5 116454. 5155.70   5
   0   4  -5 108953. 5365.20   5
   4   0   5 123821. 7657.51   4
  -4   4   5 122322. 4898.42   4
  -4   4   6 746.998 312.315   4
   0   4  -6 882.632 483.781   5
  -4   4   6 756.473 330.751   6
   0  -4   6 792.885 386.214   4
   4  -4  -6 1689.60 655.434   2
  -4   0  -6-131.057 274.664   3
  -4   0  -6 1276.14 609.717   5
   4   0   6 2077.40 1084.71   4
   4   0   6 826.888 331.221   1
  -4   0  -7 61289.6 4207.45   3
   4   0   7 55789.4 5840.79   1
   0   4  -7 59044.1 4682.47   5
  -4   4   7 70811.6 4882.37   6
  -4   0  -7 64799.5 4622.83   5
   0  -4   7 50036.4 4314.37   4
  -4   4   7 69371.1 4505.18   4
   4   0   7 68595.0 6616.12   4
   4  -4  -7 71399.1 4856.65   2
   4  -4  -8 92703.3 6479.54   5
  -4   0  -8 102907. 5819.41   3
   4  -4  -8 97742.6 5514.84   3
   0   4  -8 106277. 6980.23   5
  -4   0  -8 105105. 6486.36   5
  -4   4   8 119761. 6298.79   6
   4   0   8 135711. 10000.3   4
   4  -4  -8 121101. 6812.94   2
  -4   4   8 122571. 6610.15   4
   0  -4   8 93558.4 6476.33   4
   4   0   9 4404.86 2043.06   4
   0  -4   9 3649.14 1411.08   4
   4  -4  -9 5174.92 1246.65   2
  -4   0  -9 5092.76 1277.44   3
   0   4  -9 2902.71 1117.54   5
   4  -4  -9 3552.57 1373.57   5
   4   0   9 4740.41 2018.98   1
  -4   0  -9 3801.35 1234.20   5
   2   3   8 48780.8 5872.67   1
   5  -2  -8 40564.2 4280.33   5
   3   2  -8 48121.0 4568.99   5
   3  -5   8 48575.1 4823.57   4
   2   3   8 54139.2 5987.94   4
   2  -5  -8 45350.2 4369.62   5
  -2  -3  -8 47800.1 4234.19   3
  -2  -3  -8 48073.7 4169.31   5
   2  -5  -8 44090.4 3969.91   3
  -3  -2   8 38965.9 4145.60   4
  -3   5  -8 53044.5 4838.39   5
  -5   3  -8 49581.9 4557.22   5
  -5   3  -8 51611.0 3884.56   3
  -2   5   8 51337.3 4406.26   4
   5  -3   8 68672.1 6504.50   4
   2  -5  -8 58635.5 4665.68   2
  -5   2   8 47611.7 4299.76   4
   3  -5   7 1278.01 595.668   4
  -5   2   7 2119.49 865.555   4
  -3  -2   7 942.125 646.059   4
   5  -2  -7 1093.57 529.023   2
   2  -5  -7 1541.65 599.825   2
  -3   5  -7 1804.89 847.772   5
   2   3   7 2160.62 1256.28   1
  -5   3  -7 1322.23 533.679   3
  -5   3  -7 743.664 187.388   5
   5  -2  -7 1585.31 884.632   5
  -2  -3  -7 987.908 548.181   3
   3   2  -7 1173.63 634.261   5
  -2  -3  -7 2155.34 813.504   5
   2  -5  -7 943.605 574.366   3
   5  -3   7 1022.58 344.819   4
  -2   5   7 1372.20 662.551   4
  -2   5   6 1304.89 546.510   4
   5  -3   6 1108.34 312.485   4
   3  -5   6 841.514 514.393   4
  -5   3  -6 1169.44 504.408   5
  -3   5  -6 1161.09 440.702   6
  -5   2   6 1813.60 740.303   4
  -3  -2   6 1562.62 760.637   4
   2  -5  -6 2575.13 860.653   2
   2  -5  -6 1538.30 689.123   3
   3   2  -6 1872.76 769.417   5
  -2   5   6 2662.85 1115.76   6
   5  -2  -6 2393.42 877.295   2
  -2  -3  -6 1647.02 645.123   3
  -3   5  -6 2170.75 902.293   5
  -5   3  -6 2362.75 753.417   3
  -5   2   6 2070.07 690.561   6
  -2  -3  -6 1036.88 344.474   5
   5  -2  -6 1463.19 641.807   5
   2   3   6 821.156 277.143   1
   5  -3   5 8335.31 1699.96   4
   5  -2  -5 6560.24 1165.98   2
   3  -5   5 7032.00 1402.55   4
   5  -2  -5 7498.74 1263.82   1
  -5   2   5 7430.71 1280.12   4
  -5   3  -5 8020.17 1279.12   3
  -3  -2   5 4898.73 1150.64   4
  -3   5  -5 5401.76 1016.83   6
   3   2  -5 7088.19 1293.73   5
   2   3   5 7365.24 1772.97   1
  -5   2   5 7621.59 1210.20   6
   2  -5  -5 8460.32 1388.84   2
  -5   3  -5 7111.62 1324.17   5
  -2   5   5 8309.85 1671.70   6
  -3   5  -5 8551.37 1541.61   5
  -2  -3  -5 6911.07 1515.65   3
   2  -5  -5 5427.61 1147.57   3
  -2  -3  -5 6886.29 1159.12   5
  -5   2   4 168028. 6097.68   4
   2  -5  -4 184288. 6836.40   2
  -3  -2   4 149468. 6553.08   4
  -2   5   4 220841. 5673.86   1
   5  -3   4 150455. 7105.05   1
  -3   5  -4 181672. 7083.82   5
  -3   5  -4 154183. 5892.41   6
   3  -5   4 188640. 5697.71   3
  -2  -3  -4 171595. 7159.42   3
   3   2  -4 173101. 6049.75   5
  -2  -3  -4 167037. 5745.47   5
  -5   2   4 167025. 5891.51   6
  -5   3  -4 185921. 6563.84   3
   2   3   4 188493. 8207.62   1
  -2   5   4 191035. 8267.29   6
   5  -3   4 176734. 7623.52   4
  -2  -3  -4 185461. 5941.98   2
   3   2  -4 189857. 7151.90   1
  -5   3  -4 190438. 6917.29   5
   3  -5   4 177035. 6883.99   4
   5  -2  -4 188993. 6468.97   1
   5  -2  -4 174236. 6227.27   2
   2  -5  -4 191856. 5169.52   4
  -2   5   4 195521. 4952.41   1
   5  -2  -3 6688.57 1008.80   2
  -2   5   3 5876.82 425.534   1
  -3  -2   3 6901.98 609.062   6
   5  -3   3 4662.65 973.594   4
   3  -5   3 6412.40 1095.90   4
   2   3   3 6244.48 1162.25   1
  -3   5  -3 6197.68 1131.57   5
  -5   2   3 6265.87 961.296   4
  -3  -2   3 5147.61 998.629   4
  -5   3  -3 8787.25 1267.77   5
  -2   5   3 5640.67 408.437   1
   3   2  -3 6025.45 1124.78   1
  -3  -2   3 6829.88 634.549   6
  -2   5   3 6592.65 1448.77   6
  -5   3  -3 7226.07 1099.50   3
  -3   5  -3 4940.21 957.565   6
  -5   2   3 5949.05 971.440   6
   5  -3   3 5347.60 1133.34   1
   3   2  -3 6733.46 918.753   5
  -2  -3  -3 7399.86 949.604   5
   5  -2  -3 6723.50 1091.37   1
  -2  -3  -3 7299.00 1350.62   3
  -3  -2   3 7360.35 757.479   3
   2  -5  -3 7878.29 1229.36   2
   3   2  -3 6100.35 692.930   3
  -2  -3  -3 7049.21 918.534   2
   2  -5  -3 5511.49 686.962   4
  -3  -2   3 6527.70 822.046   2
   5  -3   2 3886.25 830.118   4
  -2   5   2 3549.01 937.062   6
   3  -5   2 4046.00 702.132   4
   2   3   2 4533.17 719.059   2
  -3  -2   2 4076.86 488.808   2
  -5   3  -2 3623.09 857.349   6
  -5   2   2 6046.19 930.267   2
  -3   5  -2 4527.59 779.250   4
   5  -3   2 5212.58 1050.21   1
  -3  -2   2 4728.14 654.749   6
   3   2  -2 4405.79 891.533   1
  -3   5  -2 2991.10 762.402   6
  -3   5  -2 4013.07 906.998   5
   2   3   2 3414.28 807.665   1
   2  -5  -2 4286.18 868.209   2
  -5   2   2 2870.14 640.839   6
   3   2  -2 4485.37 681.764   3
   3   2  -2 4095.37 596.679   5
  -5   3  -2 4787.80 896.711   3
  -3  -2   2 4330.73 612.301   3
  -5   3  -2 5455.63 964.228   5
   2  -5  -2 3980.96 528.743   4
   5  -2  -2 5120.56 986.592   1
  -2  -3  -2 5170.23 1026.06   3
   5  -2  -2 3783.06 690.545   2
  -2  -3  -2 4326.59 620.060   2
   5  -2  -1 847.750 488.923   1
  -5   3  -1 695.223 341.919   4
   5  -3   1 339.185 206.026   1
   3  -5   1 547.871 220.881   4
   3   2  -1 285.063 110.214   5
  -5   2   1 204.455 78.3970   3
   2   3   1-22.0980 182.493   1
  -2  -3  -1 438.010 158.696   5
  -3  -2   1 819.757 297.063   6
  -2  -3  -1 272.175 126.955   2
  -5   2   1 715.577 390.229   6
  -5   3  -1-390.727 199.267   6
  -3  -2   1 687.438 286.142   3
   5  -2  -1 251.855 150.286   2
  -5   3  -1 102.402 156.378   3
  -3   5  -1 407.487 229.686   6
   2  -5  -1 819.054 450.439   2
  -2   5   1 464.191 445.928   6
  -2  -3  -1 511.268 310.851   3
   3   2  -1 693.435 310.205   1
   2  -5  -1 459.733 153.337   4
   2   3   1 173.676 163.377   2
   3  -5   1 506.587 363.590   2
   5  -3   1 59.2160 232.771   2
   5  -2   0 201194. 5947.52   5
   2  -5   0 191742. 4421.49   4
   2   3   0 175736. 5752.06   1
   5  -2   0 172422. 5710.43   2
   5  -3   0 167028. 6236.67   2
   2  -5   0 189266. 6308.33   2
   3  -5   0 187219. 6673.40   2
   3   2   0 175536. 6250.02   1
  -5   2   0 194727. 6104.41   3
  -2  -3   0 181145. 5705.24   3
   2  -5   0 188418. 3563.09   1
  -2   5   0 170728. 6561.79   6
  -3   5   0 161515. 6299.98   6
   5  -3   0 192938. 6411.64   1
  -5   2   0 174377. 6006.28   6
  -3  -2   0 179081. 5558.33   3
   5  -2   0 189364. 6812.09   1
  -5   3   0 170160. 6079.16   6
  -2  -3   0 162309. 3751.27   5
  -5   3   0 176699. 5087.68   4
  -2  -3   0 170301. 3745.88   2
   3  -5   0 177485. 3429.34   1
   3  -5   0 181340. 3732.92   1
   3  -5   0 176204. 3763.11   4
   2  -5   1 23390.2 1278.39   1
   2  -5   1 30066.5 2519.02   2
   2   3  -1 25043.2 2024.73   1
   3  -5  -1 27274.6 2323.64   2
  -2  -3   1 32626.9 1875.65   6
   2  -5   1 25813.0 1615.97   4
   3   2   1 26122.2 2311.44   1
  -5   3   1 22867.1 2001.16   6
   5  -3  -1 25861.5 2069.68   1
  -2  -3   1 28525.3 1387.21   2
  -2  -3   1 26667.8 1791.02   3
  -3  -2  -1 29697.9 2184.06   3
  -2  -3   1 31422.2 1493.11   5
   5  -2   1 32127.0 2131.43   5
  -3   5   1 24181.4 2309.65   6
  -5   2  -1 30070.0 2195.14   3
   3   2   1 28633.5 1349.41   2
   5  -2   1 26191.5 2499.18   1
   5  -3  -1 26814.4 2124.07   2
   5  -2   1 29499.1 2430.10   2
   2   3  -1 25405.3 1519.28   5
  -2   5  -1 25324.4 2233.51   6
   2  -5   2 26158.0 1886.83   4
   2   3  -2 23986.5 2082.97   1
  -2   5  -2 24075.9 2211.79   5
  -5   3   2 22359.2 1534.04   4
  -2  -3   2 19956.2 1873.97   4
   5  -3  -2 23707.0 1986.67   2
   3   2   2 24127.7 1439.87   2
   3  -5  -2 25752.9 2238.49   2
   5  -3  -2 25923.6 1964.22   1
  -5   2  -2 27182.7 2170.85   3
  -5   2  -2 24003.2 1887.87   5
  -2  -3   2 27256.2 1489.64   6
  -2  -3   2 25277.4 1490.29   3
  -5   3   2 23602.8 2054.67   6
  -3   5   2 22315.2 2366.15   6
  -3  -2  -2 26525.9 2260.03   3
   2   3  -2 24090.7 1647.27   5
  -3  -2  -2 27359.8 1257.24   5
  -2  -3   2 29845.2 1779.99   5
   3   2   2 24704.2 2451.22   1
  -2   5  -2 21655.4 2004.08   6
   5  -2   2 22386.9 2442.18   1
   2  -5   2 21957.9 1543.19   1
   3  -5  -3 4473.99 467.379   4
  -5   2  -3 4488.11 832.642   5
  -3   5   3 3983.34 336.590   1
  -2  -3   3 4466.19 490.523   3
   3   2   3 3870.05 1022.49   1
   5  -2   3 3868.95 1049.37   4
   2  -5   3 3865.70 743.985   4
  -5   3   3 3845.96 660.168   4
  -2  -3   3 2612.63 712.179   4
   2   3  -3 3513.63 878.532   1
   2   3  -3 3969.38 754.419   5
  -3   5   3 4227.82 1125.11   6
   5  -3  -3 3965.52 735.118   1
  -2   5  -3 3115.77 703.359   6
  -5   3   3 3169.34 775.448   6
   5  -3  -3 5851.11 1019.30   2
   5  -2   3 3767.92 1031.65   1
  -3  -2  -3 4100.17 989.804   3
   3   2   3 4436.65 751.632   2
   3  -5  -3 4723.63 1002.46   2
   2  -5   3 4306.12 711.694   3
  -5   2  -3 4432.32 881.749   3
  -3  -2  -3 5723.28 762.760   5
  -2   5  -3 4141.86 926.746   5
  -2  -3   3 4626.18 679.773   2
  -2  -3   3 3436.80 353.909   6
   5  -3  -4 99541.6 4707.78   2
  -5   3   4 112358. 4471.90   4
   3  -5  -4 109190. 3370.27   4
   3  -5  -4 113450. 5279.83   2
  -2  -3   4 83071.5 4673.59   4
   5  -2   4 85659.9 5524.12   1
   5  -2   4 101430. 5948.39   4
  -3   5   4 101541. 3170.90   1
  -2   5  -4 78489.4 3793.36   6
  -5   2  -4 108250. 4835.02   5
  -3   5   4 102206. 5951.58   6
  -5   3   4 90869.9 4652.78   6
  -2   5  -4 99933.1 4991.85   5
   2   3  -4 94529.0 4386.39   5
  -3  -2  -4 103764. 4179.31   5
   2   3  -4 103348. 5143.69   1
  -3  -2  -4 103172. 5184.49   3
   2  -5   4 102540. 3464.32   3
  -5   2  -4 107490. 4792.76   3
   3   2   4 99351.6 6381.24   1
   5  -3  -4 105793. 4292.06   1
   2  -5   4 86839.1 4468.82   4
  -5   3   5 26750.1 2292.77   4
  -3   5   5 25242.6 2895.91   6
   3  -5  -5 27616.2 2683.07   2
  -2  -3   5 20612.7 2371.44   4
  -3  -2  -5 25178.1 2629.98   3
   5  -2   5 24749.7 3069.03   1
  -5   3   5 25303.0 2476.68   6
  -2   5  -5 16843.4 1619.27   6
   5  -2   5 25863.6 3198.96   4
  -2   5  -5 24592.9 2595.00   5
   2   3  -5 24975.5 2435.94   5
  -5   2  -5 29319.9 2510.39   3
  -5   2  -5 27944.4 2562.72   5
  -3   5   5 24450.9 2060.27   4
  -3  -2  -5 25988.2 2264.27   5
   5  -3  -5 24623.4 2386.30   2
   2  -5   5 22342.1 2373.84   4
   3   2   5 25703.2 3499.84   1
  -2  -3   6 18299.2 2419.03   4
   3   2   6 20832.9 3421.87   1
   2   3  -6 19477.6 2421.23   5
  -3   5   6 20783.1 2747.70   6
  -3  -2  -6 20578.7 2279.43   5
  -2   5  -6 19329.4 2454.96   5
  -5   2  -6 22710.6 2556.68   5
   5  -2   6 18734.9 3032.59   4
  -5   2  -6 21625.3 2323.20   3
  -3  -2  -6 18683.9 2356.22   3
  -5   3   6 22333.0 2470.43   6
  -3   5   6 24283.2 2320.37   4
   5  -3  -6 20600.3 2404.02   2
   2  -5   6 19424.0 2490.67   4
   3  -5  -6 20870.8 2426.70   2
  -5   3   6 22622.1 2371.84   4
   3   2   7 491.733 604.748   4
   5  -2   7 954.888 856.118   4
  -3   5   7 602.369 389.834   4
  -3  -2  -7 822.149 536.602   3
   2  -5   7 1216.23 638.674   4
  -5   3   7 708.934 426.091   4
  -2  -3   7 337.174 295.394   4
   3  -5  -7 697.346 631.547   3
   5  -3  -7 1249.14 718.211   2
   3  -5  -7 879.234 665.047   2
  -3   5   7 1201.45 779.126   6
   3   2   7 821.214 171.541   1
  -5   3   7 579.016 509.363   6
  -5   2  -7-41.3068 304.573   3
  -2   5  -7 1432.64 665.017   5
  -5   2  -7 749.928 561.874   5
   2   3  -7 1073.94 582.237   5
  -3  -2  -7 1012.28 521.179   5
   5  -3  -7 68.5920 172.283   5
  -5   2  -8 26890.7 3292.71   5
   3   2   8 26716.8 4521.32   1
   5  -3  -8 27719.8 3163.57   2
  -3  -2  -8 25469.9 2987.95   3
  -5   2  -8 27668.4 2894.53   3
   2  -5   8 23066.6 3167.96   4
   3  -5  -8 19637.7 2541.56   3
  -2   5  -8 26424.6 3352.08   5
   2   3  -8 21129.7 3093.60   5
  -3  -2  -8 25246.1 2976.79   5
   5  -3  -8 23051.9 3077.03   5
   3  -5  -8 24809.6 3283.33   5
   3   2   8 28043.6 4560.39   4
   5  -2   8 39321.4 5106.55   4
   3  -5  -8 27465.5 3240.80   2
  -5   3   8 28436.1 3180.61   4
  -2  -3   8 21677.9 3065.56   4
  -1   5   8 12160.4 2208.50   4
   5  -4   8 13675.9 2852.64   4
   4  -5   8 13609.6 2605.92   4
  -5   1   8 12108.7 2159.94   4
  -4  -1   8 8823.07 1909.51   4
   1   4   8 11893.9 2697.75   1
  -5   4  -8 9973.44 1841.03   6
   1  -5  -8 13204.0 2158.84   2
   5  -1  -8 10940.0 2103.63   5
  -5   4  -8 13294.1 2310.38   5
  -1  -4  -8 11157.8 2049.68   3
   4   1  -8 10688.6 2194.94   5
   1  -5  -8 8284.49 1731.48   3
  -1  -4  -8 9086.51 1807.89   5
   1  -5  -8 12181.2 2233.46   5
  -4   5  -8 11765.3 2258.84   5
   4   1  -7 5161.52 1326.77   5
   5  -4   7 5899.36 1643.69   4
   4  -5   7 5653.53 1627.11   4
   1   4   7 5932.62 1818.56   1
  -5   1   7 5673.42 1386.10   4
  -4  -1   7 4893.01 1382.44   4
   1  -5  -7 7384.50 1500.57   2
  -5   4  -7 3786.61 1042.54   6
  -4   5  -7 3232.28 878.104   6
  -5   4  -7 5677.50 1127.58   3
  -5   4  -7 6129.74 1598.38   5
  -1  -4  -7 5916.26 1444.33   3
  -4   5  -7 6872.35 1630.70   5
   1  -5  -7 6270.84 1483.23   3
   5  -1  -7 6035.37 1552.91   5
  -1  -4  -7 5065.05 1234.48   5
   1  -5  -7 5346.35 1293.38   5
   1   4   6 76269.7 5759.70   1
  -5   1   6 60813.6 4297.77   4
   5  -1  -6 68440.1 4715.68   5
  -1   5   6 86711.4 5172.57   1
   4   1  -6 66526.7 4506.29   5
  -5   4  -6 57609.0 4180.96   6
   1  -5  -6 66643.4 4610.72   3
  -4   5  -6 51027.5 3548.58   6
  -5   4  -6 76244.8 4991.02   5
  -1  -4  -6 66044.2 4768.52   3
  -4  -1   6 58302.7 4456.13   4
  -4   5  -6 80150.9 5135.89   5
  -5   4  -6 72122.5 4224.10   3
  -1  -4  -6 63160.7 4200.94   5
  -1  -4  -6 73682.4 4347.94   2
   5  -4   6 71088.0 5552.46   4
   4  -5   6 74670.8 5337.49   4
   1  -5  -6 76934.5 4630.43   2
   1   4   5 542.866 435.898   1
   5  -4   5 268.548 194.783   4
   4  -5   5 824.791 603.122   4
   4   1  -5 599.530 618.756   1
  -5   1   5-124.648 470.174   4
  -4  -1   5 394.694 372.335   4
   5  -1  -5 694.612 530.080   1
   1  -5  -5 79.8985 226.064   2
   5  -1  -5 918.568 442.348   2
  -1   5   5 1696.50 876.332   6
   1  -5  -5 617.836 479.241   3
  -5   1   5 104.872 65.9316   6
  -4   5  -5 273.455 61.7621   6
  -5   4  -5 430.794 540.398   6
  -5   4  -5 1661.05 588.324   3
  -5   4  -5 345.537 324.716   5
  -4   5  -5 1199.94 658.304   5
  -1  -4  -5 62.0179 217.738   3
   4   1  -5 875.862 507.404   5
  -1   5   5 517.546 434.502   1
   5  -1  -5 591.415 255.191   5
  -1  -4  -5 494.841 307.210   5
   1  -5  -4 6068.78 1266.99   3
   5  -4   4 5413.00 1198.46   4
   4  -5   4 6128.50 1261.41   4
  -5   1   4 5436.32 1126.28   4
   4   1  -4 6795.88 1351.74   1
  -4  -1   4 5279.75 1143.16   4
  -4  -1   4 5414.70 552.766   6
   5  -1  -4 5989.76 1190.54   1
  -1   5   4 6266.83 1488.71   6
  -1  -4  -4 5994.30 987.796   2
  -5   1   4 5477.48 867.440   6
   1  -5  -4 6179.50 1160.79   2
  -5   4  -4 5792.70 1177.60   6
  -4   5  -4 4817.92 977.832   6
   1   4   4 6449.17 1274.08   1
  -5   4  -4 7171.10 1182.05   3
   5  -1  -4 6349.28 1180.96   5
  -5   4  -4 7644.18 1315.13   5
  -4   5  -4 7485.12 1367.19   5
  -1  -4  -4 6459.86 1347.95   3
   4   1  -4 6361.79 1074.47   5
   4   1  -4 6221.13 770.353   3
  -1   5   4 7150.57 976.659   1
   5  -1  -4 7334.64 1135.32   2
   1  -5  -3 7153.76 1312.74   3
  -4  -1   3 6569.43 790.901   2
   5  -4   3 5416.78 1085.31   4
   4  -5   3 5241.17 977.804   4
  -4   5  -3 5694.99 1048.51   6
  -5   1   3 6818.05 970.277   2
  -5   1   3 3926.53 862.543   4
  -4  -1   3 6011.85 1204.05   4
  -4  -1   3 6475.95 846.683   3
  -4   5  -3 6205.32 1265.89   5
  -5   1   3 5922.81 913.639   6
  -1   5   3 6300.07 1409.34   6
  -1  -4  -3 5504.61 836.989   2
   4   1  -3 5285.83 1113.43   1
  -4  -1   3 6409.60 788.795   6
   1  -5  -3 6910.37 1084.16   2
  -5   4  -3 5551.90 1047.94   6
  -1   5   3 6127.99 659.564   1
   5  -1  -3 5719.04 1144.41   1
  -5   4  -3 6229.75 1135.06   5
   4   1  -3 6961.84 967.977   5
   5  -4   3 6282.72 1164.71   1
   4   1  -3 6044.71 838.209   3
  -1  -4  -3 6752.15 1334.02   3
   1  -5  -3 6274.16 919.288   4
   5  -1  -3 6303.40 958.681   2
   1   4   3 6970.64 1105.19   1
  -5   4  -3 7601.89 1216.18   3
   5  -1  -2 155561. 4666.10   2
   5  -4   2 159689. 6039.23   1
  -1  -4  -2 160805. 4873.18   2
  -4   5  -2 242360. 6361.33   4
   4  -5   2 151667. 5008.92   4
   1   4   2 155504. 5200.90   1
  -1  -4  -2 166940. 6755.00   3
   1  -5  -2 160140. 5559.66   2
   4   1  -2 175979. 6636.68   1
  -1   5   2 163236. 3524.78   1
   5  -1  -2 181843. 6758.96   1
  -4  -1   2 168136. 3733.78   2
  -5   1   2 218972. 5617.76   2
  -5   1   2 152482. 5370.49   6
  -5   4  -2 144143. 5954.78   6
  -4   5  -2 186371. 6878.36   5
  -4   5  -2 157777. 6077.63   6
  -1   5   2 178990. 7687.36   6
  -4  -1   2 165273. 5012.44   3
  -5   4  -2 183199. 6662.83   5
   4   1  -2 168326. 4393.15   5
   5  -4   2 171162. 5739.73   4
   1  -5  -2 176944. 5250.00   4
  -4   5  -1 20144.3 1324.61   4
   5  -1  -1 14030.5 1094.42   2
   4  -5   1 14435.0 1274.05   1
  -1  -4  -1 13934.5 1146.84   2
  -5   1   1 16091.5 1569.40   3
   1  -5  -1 16587.9 1551.56   2
  -4   5  -1 16053.0 1799.52   6
   4   1  -1 15107.2 1815.25   1
   1   4   1 14056.3 1346.51   1
  -1   5   1 15400.9 2053.01   6
  -4  -1   1 16041.6 1417.52   3
   4  -5   1 18580.2 2136.18   2
  -5   4  -1 13086.3 1601.66   6
  -5   1   1 14817.9 1536.22   6
  -1  -4  -1 15864.4 1295.57   5
   1   4   1 23630.6 2212.53   2
   4   1  -1 14463.4 687.178   5
   5  -4   1 15682.6 1995.34   2
   5  -1  -1 15775.1 1924.16   1
  -1  -4  -1 15664.0 1768.53   3
   5  -4   1 15461.6 1592.38   1
   4  -5   1 12598.5 1028.42   4
  -1   5   1 15150.6 894.565   1
  -5   4  -1 19128.7 1552.96   4
  -1  -4  -1 17162.7 1485.40   1
   1  -5   0 10496.7 998.882   4
   1   4   0 10897.5 1185.47   1
   5  -1   0 12189.0 1058.72   2
  -1  -4   0 12492.8 1049.71   2
   1  -5   0 11651.3 1328.22   2
  -5   4   0 10428.4 1385.21   6
   5  -4   0 12222.5 1659.42   2
  -4  -1   0 12775.3 1322.36   3
   5  -1   0 11816.5 1726.55   1
  -4   5   0 10094.4 1452.05   6
   4   1   0 12856.2 1726.21   1
  -1   5   0 11792.0 1749.31   6
  -5   1   0 12980.4 1378.80   3
  -1  -4   0 11363.3 1408.89   3
   5  -4   0 12974.4 1389.85   1
   5  -1   0 13547.2 1168.02   5
  -1  -4   0 13896.4 1194.35   5
  -1  -4   0 12248.1 1196.97   1
   4  -5   0 13218.5 980.434   1
   1  -5   0 12344.8 908.721   1
   4  -5   0 11990.6 1640.24   2
  -5   4   0 14442.8 1159.67   4
  -4   5   1 3451.41 829.952   6
   5  -4  -1 4241.78 722.304   1
   4  -5  -1 3428.00 359.238   1
   1  -5   1 3626.29 549.799   1
   1  -5   1 4280.50 720.573   4
  -1  -4   1 4277.33 663.324   6
   1   4  -1 4146.69 731.179   1
  -1   5  -1 3342.70 871.363   6
  -5   4   1 3290.23 825.743   6
   5  -1   1 4066.13 1025.47   1
   4   1   1 3050.29 881.340   1
   5  -1   1 4589.11 644.857   5
   5  -4  -1 4195.61 975.389   2
  -5   1  -1 4346.61 845.490   3
   4  -5  -1 4152.50 955.952   2
  -4  -1  -1 4763.38 863.737   3
  -1  -4   1 4424.99 680.992   2
   1  -5   1 5165.33 962.386   2
  -5   4   1 4119.01 729.559   1
   5  -1   1 4500.48 861.258   2
  -1  -4   1 3478.64 642.125   3
  -1  -4   1 4289.72 659.620   5
  -5   4   1 4720.73 566.975   4
   4   1   2 151582. 4105.34   2
  -5   4   2 204250. 4281.09   4
  -5   1  -2 165390. 5774.11   3
   1  -5   2 147483. 5141.55   4
  -1  -4   2 145833. 5381.68   4
   1   4  -2 147213. 5103.01   5
   5  -4  -2 165888. 4832.08   1
   5  -4  -2 163091. 6159.22   2
   4  -5  -2 163448. 6287.85   2
  -1   5  -2 141534. 5774.51   6
  -4  -1  -2 163186. 5916.24   3
   1  -5   2 190821. 5258.54   6
  -1  -4   2 187589. 4506.28   6
   5  -1   2 151013. 7007.89   1
  -1  -4   2 143836. 4403.20   3
  -5   1  -2 158148. 4823.08   5
  -1   5  -2 152784. 5824.75   5
  -4  -1  -2 152215. 3553.70   5
  -5   4   2 154297. 6046.97   6
   4   1   2 143280. 6897.14   1
  -4   5   2 141165. 6315.14   6
  -1  -4   2 155797. 5033.85   5
   5  -1   2 171773. 4912.40   5
  -5   4   2 164535. 4975.48   1
   1   4  -2 160534. 5632.54   1
   4   1   3 60471.2 2836.53   2
   1  -5   3 50004.0 3107.51   4
  -1  -4   3 50083.7 3234.32   4
  -5   4   3 70470.2 2610.57   4
   5  -4  -3 61287.5 3683.24   2
   4  -5  -3 62299.5 3788.23   2
  -1   5  -3 50761.2 3023.05   6
   1  -5   3 56690.7 2489.23   3
  -4   5   3 54800.5 3842.31   6
  -1  -4   3 58487.3 2007.05   3
  -5   1  -3 56498.6 2887.58   5
  -1  -4   3 62851.5 2094.27   6
   1  -5   3 76643.3 3123.83   6
  -5   1  -3 59981.5 3446.50   3
  -1   5  -3 59901.9 3515.68   5
   1   4  -3 58626.6 3246.37   5
  -4   5   3 60220.4 2134.81   1
  -4  -1  -3 58543.5 3584.07   3
   5  -4  -3 56347.8 2622.36   1
   5  -1   3 50963.5 4240.68   1
  -5   4   3 48314.0 3349.67   6
  -4  -1  -3 59832.0 2562.93   5
   4   1   3 51349.8 4302.79   1
   1   4  -3 60218.8 3566.86   1
   1  -5   4 10536.4 1469.10   4
  -5   1  -4 13396.9 1669.80   3
  -1  -4   4 10735.8 1549.63   4
   5  -4  -4 12661.0 1697.52   2
   4  -5  -4 14779.8 1935.01   2
   5  -4  -4 12416.1 1242.71   1
  -5   4   4 11714.8 1665.76   6
  -1   5  -4 11565.1 1215.92   6
   1  -5   4 13133.4 904.529   3
  -4   5   4 12519.4 1118.80   1
  -1   5  -4 12925.9 1707.46   5
  -4  -1  -4 14762.7 1863.72   3
   5  -1   4 11526.5 2125.32   1
   1  -5   4 12467.7 895.346   3
  -5   1  -4 14011.1 1538.56   5
   1   4  -4 12458.4 1554.80   5
  -4  -1  -4 13157.6 1416.83   5
  -4   5   4 13250.8 2021.50   6
  -4   5   4 13581.5 1089.76   4
   4   1   4 13870.9 2362.76   1
  -5   4   4 15155.5 1410.36   4
   1  -5   5 13108.0 1804.18   4
   4  -5  -5 16900.5 2116.95   2
  -1  -4   5 13123.5 1911.04   4
  -4  -1  -5 19139.9 1973.99   5
   5  -1   5 12781.0 2376.11   1
  -4   5   5 17198.6 2429.58   6
   5  -4  -5 17957.1 2169.89   2
  -4  -1  -5 16139.5 2067.16   3
   4   1   5 13316.0 2565.01   1
  -1   5  -5 16651.1 2096.20   5
  -5   1  -5 17228.1 1943.49   5
   1   4  -5 15571.3 1947.54   5
  -5   4   5 14761.2 2106.38   6
  -1   5  -5 13710.3 1036.93   6
  -5   1  -5 15282.9 1920.11   3
   5  -1   5 16759.3 2796.28   4
  -4   5   5 17108.1 1555.66   4
  -5   4   5 19923.5 1871.08   4
  -1  -4   6 36883.8 3449.83   4
   4   1   6 43404.9 5041.07   1
   5  -1   6 42199.7 4649.52   1
  -4  -1  -6 46306.9 3712.68   3
  -4   5   6 51324.3 4438.08   6
  -5   4   6 53909.2 4336.55   6
  -1   5  -6 50290.7 3993.89   5
  -5   1  -6 47100.6 3694.20   5
   1   4  -6 48101.4 3848.72   5
  -4  -1  -6 47057.6 3541.34   5
  -5   1  -6 49072.3 3600.10   3
   5  -1   6 48592.2 5150.39   4
  -4   5   6 47312.9 3122.89   4
  -5   4   6 51699.9 3455.21   4
   5  -4  -6 48446.6 3787.18   2
   4  -5  -6 47222.8 3888.39   2
   1  -5   6 39372.6 3520.74   4
  -1  -4   7 23313.7 2899.36   4
   4   1   7 28596.1 4422.14   1
   5  -1   7 30606.4 4346.11   1
  -4   5   7 33185.1 3700.59   6
  -5   4   7 36749.1 3553.49   6
  -4  -1  -7 31281.8 3207.00   5
  -1   5  -7 30664.6 3422.68   5
  -5   1  -7 34073.2 3398.09   5
  -4  -1  -7 29162.9 3079.39   3
   1   4  -7 30811.6 3345.91   5
  -5   1  -7 31778.1 3058.06   3
   4   1   7 36003.8 5067.06   4
   5  -1   7 35685.2 4764.01   4
   5  -4  -7 33878.5 3403.56   2
  -5   4   7 36349.1 3142.15   4
   4  -5  -7 39040.5 3613.82   2
   1  -5   7 30401.3 3363.48   4
   4   1   8 26692.8 4535.28   1
  -4   5   8 31717.1 3634.79   6
  -5   1  -8 29075.9 3045.20   3
  -4  -1  -8 28743.6 3297.91   5
   4  -5  -8 22879.5 2774.47   3
  -1   5  -8 25235.3 3335.87   5
  -5   1  -8 27520.5 3323.93   5
   1   4  -8 28316.3 3525.60   5
  -4  -1  -8 27388.5 3045.87   3
   5  -1   8 23627.1 4059.16   1
   5  -4  -8 23359.3 3220.66   5
   4  -5  -8 25387.9 3438.45   5
   4   1   8 34728.2 5222.66   4
   5  -1   8 30329.1 4580.68   4
   5  -4  -8 30450.0 3417.49   2
   4  -5  -8 31386.4 3532.60   2
   1  -5   8 26617.3 3408.03   4
  -1  -4   8 23053.0 3187.66   4
   5  -5   8 3242.90 1440.30   4
  -5   0   8 911.504 776.887   4
   0  -5  -8 1183.70 627.475   2
  -5   5  -8 447.313 436.734   5
   0  -5  -8-91.7836 302.183   3
   5   0  -8 482.673 81.7054   5
   0  -5  -8 3070.14 1014.69   5
   5  -5   7-727.516 773.647   4
  -5   0   7 702.115 480.908   4
  -5   5  -7 30.9438 244.215   6
   0  -5  -7-532.627 630.413   2
  -5   5  -7-255.382 419.121   5
   0  -5  -7 644.948 502.778   3
   5   0  -7 546.458 694.964   5
   0  -5  -7 328.375 390.098   5
  -5   0   6 59123.5 4530.86   4
  -5   5  -6 85065.1 5493.82   5
  -5   5  -6 59235.9 4153.95   6
   0  -5  -6 71026.4 4989.15   3
   5   0  -6 65498.1 4622.81   5
   0  -5  -6 63769.3 4360.12   5
   5  -5   6 82849.5 5788.20   4
   0  -5  -6 80554.3 4678.94   2
   0   5   6 86423.1 5377.70   1
  -5   0   5 23926.0 2677.27   4
   0  -5  -5 28665.9 3035.97   3
  -5   0   5 34130.8 1771.84   6
  -5   5  -5 19869.5 2299.66   6
  -5   5  -5 31483.2 3078.28   5
   5   0  -5 27618.8 2681.18   5
   0   5   5 32596.9 2799.09   1
   5  -5   5 28095.7 3014.04   4
   5   0  -5 31081.9 3076.88   1
   0  -5  -5 29775.7 2624.12   2
  -5   0   4 9250.54 1045.78   6
   5  -5   4 9131.83 1470.76   4
  -5   0   4 7492.09 1402.20   4
  -5   5  -4 6987.91 1334.77   6
   5   0  -4 10506.0 1670.03   1
   0  -5  -4 9591.13 1358.88   2
  -5   5  -4 9434.90 1588.65   5
   5   0  -4 9081.14 1353.81   5
   0   5   4 10490.4 1310.55   1
   0  -5  -4 9920.92 1707.57   3
   0  -5  -3 10778.5 1294.79   2
   5   0  -3 12035.7 1724.17   1
  -5   5  -3 8746.48 1437.35   6
  -5   0   3 11753.1 1133.85   2
  -5   0   3 7903.16 1357.90   4
  -5   0   3 9632.54 1150.03   6
   0  -5  -3 11438.0 1831.43   3
   0   5   3 11510.3 1919.46   6
   0   5   3 10550.9 1119.90   1
   5   0  -3 11239.4 1326.33   5
  -5   5  -3 9659.25 1552.09   5
   5  -5   3 10447.1 1391.28   4
   5  -5   2 94739.4 4279.75   1
   0  -5  -2 92278.5 3940.24   2
  -5   0   2 105221. 4252.86   3
   5   0  -2 113525. 5503.00   1
   0   5   2 97733.5 3425.33   1
   0   5   2 109905. 5954.06   6
  -5   0   2 125472. 3441.16   2
   5  -5   2 111714. 5780.74   2
  -5   0   2 97657.5 4094.05   6
  -5   5  -2 114329. 5501.74   5
   5   0  -2 111251. 3838.00   5
   5  -5   2 96349.3 3921.50   4
  -5   5  -2 82900.3 4451.86   6
   0  -5  -2 104904. 5325.86   3
  -5   0   1 58021.1 3075.91   3
   0  -5  -1 60787.1 2565.57   1
   0   5   1 53513.4 2344.80   1
   0  -5  -1 54872.7 2764.57   2
   5   0  -1 55811.7 3874.80   1
   0   5   1 56564.7 4018.14   6
   5  -5   1 57069.9 3953.39   2
  -5   5  -1 48261.6 3309.09   6
   5   0  -1 52869.6 2205.14   5
   0  -5  -1 53168.8 3525.34   3
   5  -5   1 55013.4 2450.97   4
   5  -5   1 56362.8 2960.73   1
   5   0  -1 52496.5 1507.08   2
   0   5   0 41113.5 2174.16   1
   5  -5   0 43342.3 2326.40   1
   0  -5   0 44044.4 2449.57   2
   5  -5   0 41680.5 3276.33   2
   0  -5   0 40151.3 2860.66   3
  -5   5   0 38165.3 2990.87   6
   5   0   0 43175.3 3428.27   1
   0  -5   0 44212.5 2171.02   1
   5   0   0 40787.8 1366.97   5
   0   5   0 41755.7 3236.04   6
  -5   0   0 43394.5 2701.72   3
   0  -5   1 4978.61 815.257   4
   5  -5  -1 6536.24 755.835   1
   5   0   1 6998.05 743.633   2
   5   0   1 5363.16 1199.21   1
   0  -5   1 7349.44 898.203   1
   0   5  -1 5892.67 1083.84   6
  -5   5   1 6279.25 1202.00   6
   5  -5  -1 5941.55 1127.88   2
   5   0   1 6761.60 537.218   5
   0  -5   1 7358.92 1047.76   2
  -5   0  -1 6776.62 1050.43   3
   0   5  -1 6515.72 934.656   1
   5   0   1 5963.46 528.790   2
   0  -5   1 5968.21 1003.37   3
  -5   5   2 62839.2 2631.13   1
   5  -5  -2 59115.7 2236.50   1
   0  -5   2 52714.8 3028.26   4
   5  -5  -2 58473.4 3817.49   2
   0   5  -2 58673.4 3395.32   5
   0  -5   2 60871.1 2709.23   6
   0   5  -2 53182.3 3067.42   6
   5   0   2 68625.9 2459.98   5
  -5   5   2 50167.8 3564.71   6
  -5   0  -2 66088.2 3627.43   3
   0  -5   2 57066.3 2818.37   3
   0  -5   2 62249.5 3535.94   2
   5   0   2 53838.9 4316.93   1
   5   0   2 59013.4 2398.37   2
   0  -5   3 35588.9 2698.49   4
  -5   0  -3 43678.5 3102.18   3
   5  -5  -3 44873.6 3317.74   2
   0   5  -3 35439.6 2081.93   6
   0  -5   3 49359.1 2326.53   6
   0  -5   3 40804.6 1945.57   3
   0   5  -3 38707.2 2842.52   5
  -5   0  -3 39162.2 2146.85   5
  -5   5   3 35281.6 3145.15   6
  -5   5   3 43495.8 2180.96   1
   5   0   3 37779.0 3864.70   1
   5  -5  -3 40646.2 1909.79   1
   0  -5   4 40628.3 3144.35   4
   5  -5  -4 54420.3 3821.14   2
  -5   5   4 45737.9 3788.89   6
  -5   0  -4 51393.5 2898.77   5
   0   5  -4 51461.1 3471.97   5
  -5   0  -4 56164.8 3644.58   3
   5   0   4 47182.8 4642.02   1
  -5   5   4 53110.4 2210.50   4
  -5   5   5 3902.97 726.447   4
   0  -5   5 3023.12 949.161   4
   5   0   5 4121.11 1565.12   1
  -5   5   5 3676.18 1080.08   6
   5  -5  -5 3666.54 993.083   2
  -5   0  -5 3981.62 1053.53   3
   0   5  -5 3085.16 926.921   5
  -5   0  -5 7207.11 1188.96   5
   5   0   6 19702.5 3382.71   1
   0  -5   6 17677.5 2325.28   4
  -5   0  -6 20534.7 2482.02   3
  -5   5   6 25728.4 3219.95   6
   0   5  -6 21199.7 2611.17   5
  -5   0  -6 27467.5 2728.26   5
   5  -5  -6 26089.3 2893.49   2
   5   0   7 17185.1 3505.61   4
   0  -5   7 11643.8 2063.75   4
  -5   5   7 16795.2 2638.44   6
   5  -5  -7 15381.0 2362.00   2
  -5   0  -7 14542.7 2187.78   5
  -5   0  -7 11100.3 1859.39   3
   0   5  -7 12487.5 2222.94   5
   5   0   7 11718.3 2696.87   1
   5   0   8 22897.5 4260.97   1
   5   0   8 24143.7 4433.05   4
  -5   5   8 26490.7 3332.19   6
  -5   0  -8 19570.9 2565.82   3
   5  -5  -8 18329.5 2452.92   3
   0   5  -8 21705.1 3136.71   5
  -5   0  -8 23066.3 2993.06   5
   5  -5  -8 15984.1 2805.61   5
   5  -5  -8 25288.9 3164.03   2
   0  -5   8 17096.9 2731.75   4
   3  -6   0 2344.91 382.005   4
  -3  -3   0 2223.10 624.558   3
   6  -3   0 2131.77 666.204   1
  -3   6   0 1810.98 621.179   6
  -6   3   0 1377.79 541.386   6
  -6   3   0 3153.00 771.272   3
   6  -3   0 1682.49 544.588   2
   3  -6   0 2747.30 766.726   2
   3   3   0 2276.69 622.468   1
   6  -3  -1 1397.20 480.842   1
   3  -6  -1 936.797 178.202   4
  -3   6   1 619.534 612.665   6
   3  -6   1 1207.71 376.643   4
   3  -6  -1 921.900 174.313   4
   3   3   1 1018.76 410.363   1
  -6   3   1 1705.78 597.441   6
   3  -6   1 774.779 240.896   1
  -3   6  -1 1257.98 613.188   6
  -6   3  -1 503.696 366.755   6
   6  -3  -1 1407.89 558.480   2
  -6   3  -1 638.627 465.672   3
   3  -6  -1 952.300 485.421   2
   3   3  -1 602.015 280.994   1
  -3  -3   1 1263.50 364.936   3
  -3  -3  -1 1091.98 488.164   3
   6  -3   1 1414.96 553.321   2
   3  -6   1 636.714 448.249   2
   6  -3   1 581.220 327.093   1
   3   3  -2 153798. 6142.44   1
   3  -6  -2 143849. 2714.62   4
  -3  -3   2 140637. 4519.56   3
   6  -3  -2 146055. 5478.68   2
   3  -6  -2 155050. 6170.49   2
   6  -3  -2 162236. 6134.80   1
   3   3   2 173815. 5112.88   2
  -3  -3   2 175916. 4762.08   6
  -6   3   2 137146. 5595.33   6
   3  -6   2 163060. 6982.32   2
  -3  -3   2 143382. 3822.17   2
  -3  -3  -2 150641. 6355.19   3
  -6   3  -2 135358. 5991.33   6
  -3   6  -2 164895. 6808.96   5
   3   3  -2 142872. 4313.65   5
  -3   6  -2 134376. 6139.60   6
  -3  -3  -2 157369. 3585.74   5
  -3   6   2 147004. 7301.48   6
  -6   3  -2 164922. 6176.92   3
   6  -3   2 151262. 6682.62   1
   3   3   2 149267. 6450.82   1
   3  -6   2 146409. 4511.15   1
  -3  -3   2 149705. 3730.19   2
   3  -6  -2 143342. 2731.66   4
   3  -6   2 143637. 5010.48   4
   3  -6  -3 33016.7 1293.54   4
   6  -3  -3 27378.0 2349.12   2
  -6   3   3 29160.2 2161.79   4
   6  -3  -3 31724.7 2515.89   1
  -3  -3   3 24292.4 2418.75   4
   3  -6  -3 33347.9 2788.75   2
  -6   3  -3 35242.2 2767.06   3
  -3  -3   3 33972.6 1507.84   6
  -3  -3   3 31714.2 1754.37   3
  -3   6   3 30340.6 3373.31   6
  -6   3   3 27636.3 2464.52   6
  -3   6  -3 32439.5 2871.35   5
  -3  -3  -3 33076.4 1906.77   5
   3   3  -3 31666.8 2135.19   5
   3   3   3 28753.4 2945.57   1
  -3   6  -3 23381.6 2373.45   6
  -3  -3  -3 31935.4 2962.89   3
  -6   3  -3 32002.8 2598.53   5
   6  -3   3 31134.5 3088.88   1
  -3  -3   3 32629.2 1914.41   2
   3  -6   3 28503.7 2361.62   4
   3   3  -3 30726.5 2733.36   1
   6  -3   4 3841.18 1018.71   4
   3  -6   4 4527.19 1034.73   4
   3   3   4 5132.55 1390.11   1
  -6   3   4 4858.52 942.471   4
  -3  -3   4 3288.36 989.507   4
   3   3  -4 5238.99 1206.18   1
   6  -3  -4 5338.85 1027.55   1
  -3   6  -4 3045.86 719.449   6
   6  -3  -4 4115.73 958.504   2
  -3   6   4 4808.38 1360.88   6
  -6   3   4 4373.52 997.735   6
  -6   3  -4 4652.91 1079.27   3
   3  -6  -4 3278.45 937.088   2
  -3   6  -4 5024.90 1162.58   5
  -6   3  -4 4793.80 1012.61   5
   6  -3   4 3575.89 1076.24   1
   3   3  -4 4554.36 894.980   5
  -3  -3  -4 4915.80 872.064   5
  -3  -3  -4 3768.74 1030.74   3
   6  -3   5 4387.12 1347.18   4
   3  -6   5 3470.23 1014.02   4
  -6   3   5 5112.43 1085.60   4
   6  -3  -5 4329.31 957.591   1
  -3  -3   5 3802.60 1200.32   4
  -3   6   5 5174.67 1504.42   6
   6  -3  -5 5188.22 1113.27   2
  -6   3   5 3129.18 925.142   6
  -3   6  -5 2517.61 707.927   6
   3  -6  -5 5544.56 1311.66   2
   6  -3   5 4288.21 1328.88   1
   3   3   5 5794.20 1644.93   1
  -6   3  -5 5133.84 1162.39   3
  -3  -3  -5 4894.19 1254.09   3
  -3   6  -5 4258.49 1074.58   5
  -6   3  -5 4962.79 1135.26   5
   3   3  -5 3998.37 972.855   5
  -3  -3  -5 4396.63 923.237   5
  -6   3   6 49542.1 3554.01   4
  -3  -3   6 40002.0 3916.24   4
   6  -3   6 43251.7 4547.46   1
  -6   3   6 52467.4 3972.94   6
  -3   6   6 49987.2 4757.80   6
  -6   3  -6 54140.0 3934.12   3
  -3  -3  -6 47469.5 4147.42   3
  -3   6  -6 51766.3 4356.30   5
   3  -6  -6 41479.5 3598.06   3
   3   3  -6 45300.9 3802.62   5
  -6   3  -6 55323.4 4310.17   5
  -3  -3  -6 48284.3 3579.48   5
   6  -3   6 49297.9 4888.46   4
   3   3   6 52071.7 5569.51   1
   6  -3  -6 47333.2 3773.06   2
   3  -6   6 45774.7 4035.22   4
   3  -6  -6 53309.7 4171.74   2
  -3  -3   7 17384.4 2616.14   4
   6  -3   7 21638.5 3454.94   1
  -3  -3  -7 20823.4 2818.66   3
   3  -6  -7 16802.0 2384.50   3
  -6   3  -7 21375.0 2571.18   3
  -3   6   7 21598.0 3198.56   6
  -3   6  -7 22084.8 2994.22   5
   3   3  -7 20221.3 2734.57   5
  -3  -3  -7 19032.1 2430.15   5
   6  -3  -7 16209.5 2581.22   5
  -6   3  -7 20713.0 2832.78   5
   6  -3   7 24312.6 3759.43   4
   6  -3  -7 22068.6 2718.15   2
   3   3   7 24268.9 4097.12   1
   3  -6   7 18318.6 2631.21   4
   3  -6  -7 22916.1 2898.56   2
  -6   3   7 23126.7 2628.85   4
   6  -3   8 19196.6 3553.71   4
   3  -6   8 15037.0 2626.24   4
  -3  -3   8 12937.2 2496.18   4
   6  -3   8 19780.3 3643.94   1
  -6   3  -8 17127.2 2339.74   3
   3   3   8 16468.7 3537.86   1
   3  -6  -8 17547.8 2682.44   2
  -3  -3  -8 16001.9 2533.10   3
   3  -6  -8 14306.0 2286.30   3
  -3   6  -8 16548.8 2754.29   5
  -6   3  -8 16186.2 2706.36   5
   3   3  -8 14904.6 2577.56   5
  -3  -3  -8 13549.6 2190.49   5
   6  -3  -8 15131.6 2650.44   5
   3  -6  -8 13694.8 2520.54   5
   6  -3  -8 17464.6 2593.30   2
  -4  -2   8 49615.6 4886.67   4
  -6   4  -8 51450.0 4610.28   6
  -2  -4  -8 63462.2 5170.77   3
  -4   6  -8 67351.2 5671.50   5
   2  -6  -8 59977.4 4863.23   3
  -6   4  -8 72596.2 5765.68   5
   4   2  -8 53184.0 4921.20   5
  -2  -4  -8 60329.8 4703.42   5
   6  -2  -8 58759.2 5242.47   5
   2  -6  -8 56155.6 5049.83   5
   6  -4   8 82793.1 7227.88   4
   2  -6  -8 81942.3 5646.23   2
   4  -6   8 74337.2 6081.55   4
   2   4   8 72958.8 6892.86   1
  -6   2   8 61960.2 4929.54   4
  -6   2   7 38768.1 3576.76   4
  -4  -2   7 27780.6 3468.57   4
  -6   4  -7 45070.4 3720.68   3
  -2  -4  -7 39897.5 3967.20   3
  -6   4  -7 29581.7 3359.56   6
   2  -6  -7 37109.3 3624.06   3
  -4   6  -7 44616.6 4329.99   5
  -6   4  -7 47406.1 4326.79   5
   4   2  -7 35299.4 3640.75   5
  -2  -4  -7 39435.4 3512.52   5
   6  -2  -7 32331.1 3623.58   5
   6  -4   7 47228.6 5006.78   4
   2   4   7 44779.5 5052.80   1
   4  -6   7 45527.6 4382.53   4
   2  -6  -7 45684.8 3972.77   2
  -4   6  -6-827.733 725.649   5
   6  -4   6-169.269 79.0958   4
   4  -6   6 106.922 228.792   4
  -6   2   6-212.234 68.9185   4
  -4  -2   6 779.979 541.236   4
  -6   4  -6 180.785 399.721   6
  -2   6   6 377.918 674.176   6
   6  -2  -6-254.476 197.221   2
   2  -6  -6 352.811 310.596   2
  -6   4  -6 356.837 224.454   3
  -4   6  -6 539.354 464.994   6
  -6   4  -6 594.926 686.034   5
  -2  -4  -6-211.488 217.759   3
   2   4   6 421.273 540.375   1
   4   2  -6 310.806 343.534   5
  -2  -4  -6 106.627 164.002   5
   6  -2  -6 502.882 444.689   5
   2  -6  -6 1067.73 555.576   3
   2  -6  -5 62240.3 4141.87   2
  -6   2   5 54977.6 3497.67   6
  -6   2   5 56934.4 3819.46   4
  -4  -2   5 44003.6 3871.23   4
   6  -4   5 52895.0 4492.89   1
  -6   4  -5 51390.2 3983.51   6
  -2   6   5 58954.4 4952.37   6
  -6   4  -5 61599.9 4006.60   3
  -2  -4  -5 54671.0 3501.79   5
  -4   6  -5 47652.5 3464.74   6
  -4   6  -5 59095.3 4296.24   5
  -6   4  -5 63953.1 4357.16   5
   2  -6  -5 51587.8 4010.21   3
   4   2  -5 54136.8 3657.86   5
   2   4   5 58154.3 4741.17   1
   6  -4   5 56193.0 4502.88   4
  -2  -4  -5 59309.7 3589.43   2
   4   2  -5 59956.3 4501.85   1
   6  -2  -5 60076.2 4032.33   1
   6  -2  -5 59991.1 3882.86   2
   4  -6   5 56395.6 4178.88   4
  -2  -4  -5 54570.9 4373.62   3
   6  -2  -4 85885.9 4692.41   1
   2  -6  -4 83002.2 4595.70   2
  -6   2   4 76079.2 4206.61   4
  -4  -2   4 61862.2 4312.71   4
   6  -4   4 64338.3 4602.22   1
  -2   6   4 85492.4 5911.74   6
  -2   6   4 79878.4 2029.58   1
  -6   2   4 68172.3 3747.10   6
  -6   4  -4 63885.1 4319.61   6
  -4   6  -4 83849.3 4950.60   5
  -2  -4  -4 75855.5 4950.46   3
  -6   4  -4 83913.7 4772.34   5
   2  -6  -4 64485.6 4365.72   3
  -4   6  -4 72910.6 4293.80   6
  -6   4  -4 84887.4 4567.55   3
   4   2  -4 78157.4 3897.04   5
   2   4   4 77894.1 4944.53   1
  -2  -4  -4 80810.9 3896.23   5
   6  -4   4 79104.0 4851.67   4
  -2  -4  -4 86129.5 3927.10   2
   4  -6   4 76930.1 4427.92   4
   6  -2  -4 76844.0 4092.13   2
   4   2  -4 84722.8 4998.97   1
   6  -2  -3 199604. 6490.68   2
  -6   2   3 205831. 6937.28   6
   4   2  -3 223665. 8194.81   1
  -6   2   3 194699. 6763.47   4
  -4  -2   3 221806. 5282.86   2
  -4  -2   3 168304. 7061.90   4
   2  -6  -3 206558. 7296.63   2
   6  -2  -3 233328. 8035.30   1
  -2   6   3 227635. 9646.44   6
  -6   4  -3 230348. 7932.69   5
  -4   6  -3 189702. 7397.15   6
  -6   4  -3 172041. 7083.44   6
  -4  -2   3 218352. 5547.19   6
  -2  -4  -3 192178. 7990.62   3
   4   2  -3 222336. 6131.86   3
   2   4   3 208904. 7695.72   1
  -6   4  -3 220248. 7576.25   3
   4   2  -3 202568. 5897.31   5
  -4  -2   3 239051. 5513.48   6
   6  -4   3 219682. 7734.38   4
  -4  -2   3 205851. 5746.78   3
  -4   6  -3 227439. 8262.89   5
   2  -6  -3 203411. 5275.27   4
  -2  -4  -3 201439. 6017.31   2
   4  -6   3 200833. 6795.18   4
   6  -4   3 201751. 7865.52   1
   4  -6   2 94567.7 5463.40   2
   6  -2  -2 83053.3 3676.99   2
   4   2  -2 91275.0 4879.79   1
   2  -6  -2 98053.2 4544.90   2
   6  -2  -2 92904.7 4956.17   1
  -4  -2   2 86251.8 3574.09   3
  -4  -2   2 109934. 3920.50   6
  -6   4  -2 93712.0 4697.78   3
  -4   6  -2 82005.3 4528.55   6
   6  -4   2 85443.4 5060.24   2
  -6   4  -2 75468.7 4370.17   6
   2   4   2 84476.6 4270.73   1
  -2  -4  -2 83208.8 4777.16   3
   4   2  -2 87397.5 2823.41   5
   2   4   2 115929. 4962.68   2
  -6   2   2 80933.2 4087.78   6
  -2   6   2 94262.3 5907.03   6
   6  -4   2 84718.5 4663.77   1
   2  -6  -2 91343.0 3177.53   4
   4  -6   2 78835.5 3462.57   4
  -2  -4  -2 84998.7 3285.84   2
  -2  -4  -1 146554. 4068.92   2
   2  -6  -1 154204. 3945.70   4
   6  -2  -1 140746. 4830.80   2
   4  -6   1 141562. 4286.23   1
   2  -6  -1 168178. 6035.54   2
   4   2  -1 151646. 6428.09   1
  -6   2   1 164847. 5980.93   3
   2   4   1 142019. 5448.90   1
   6  -2  -1 160995. 6811.41   1
   4  -6   1 159530. 6803.30   2
  -4   6  -1 141498. 6230.36   6
   6  -4   1 150869. 6688.22   2
  -4  -2   1 146205. 5100.50   3
  -2   6   1 164887. 7673.96   6
  -6   4  -1 129045. 5844.07   6
  -6   2   1 134976. 5508.65   6
  -2  -4  -1 148825. 6090.49   3
  -2  -4  -1 177351. 4231.84   5
   6  -4   1 161499. 6274.37   1
   4  -6   1 146053. 4031.56   4
   4   2   0 2139.42 793.343   1
  -2  -4   0 6123.77 629.664   2
  -6   4   0 2852.39 596.837   4
   6  -2   0 2933.80 971.899   1
   2  -6   0 2749.54 520.208   4
  -4   6   0 1421.01 639.683   6
  -6   4   0 3028.51 787.785   6
   6  -4   0 2911.69 809.748   1
  -6   2   0 2971.37 809.206   6
   2  -6   0 2700.91 342.102   1
   4  -6   0 2982.98 367.471   1
  -6   2   0 2872.07 743.155   3
   6  -2   0 2748.99 625.767   2
  -2   6   0 2539.91 667.697   6
   2  -6   0 2729.23 752.423   2
   6  -4   0 3346.53 965.899   2
  -4  -2   0 2701.06 682.260   3
   4  -6   0 3777.17 1040.07   2
   2   4   0 2233.22 654.033   1
   6  -2   0 2759.93 705.547   5
  -2  -4   0 1936.37 541.809   3
  -2  -4   0 2757.75 438.082   5
   4  -6   0 2712.26 329.114   1
   2  -6   1 177004. 5246.26   4
   2   4  -1 180322. 6290.22   1
  -4   6   1 166126. 7327.96   6
   6  -4  -1 168796. 6727.13   2
   4  -6  -1 186207. 7122.02   2
   2  -6   1 180271. 4503.73   1
  -2  -4   1 201302. 4635.46   2
   6  -2   1 182403. 6663.27   2
   2  -6   1 194411. 7032.07   2
   6  -4  -1 193980. 6485.91   1
  -2   6  -1 179946. 7699.83   6
  -6   2  -1 196004. 6699.14   3
  -4  -2  -1 183855. 6565.24   3
  -6   4   1 175601. 6645.50   6
   6  -2   1 178717. 7785.17   1
  -2  -4   1 181899. 4727.61   5
  -2  -4   1 173159. 5731.01   3
  -6   4   1 176744. 5009.59   4
   4   2   1 171252. 7292.98   1
   2  -6   2 295711. 9729.21   2
   2   4  -2 288094. 8692.32   1
   2  -6   2 290706. 7840.90   4
  -6   4   2 344004. 7082.07   4
  -4   6   2 259964. 9784.01   6
  -2  -4   2 258667. 8287.23   4
   6  -4  -2 290884. 8957.35   2
   4  -6  -2 293155. 9353.52   2
   6  -4  -2 317972. 8291.84   1
   4   2   2 283575. 6143.46   2
  -6   2  -2 303159. 8880.03   3
  -2   6  -2 282000. 9564.90   6
  -2  -4   2 360356. 7141.69   6
  -2  -4   2 266448. 6974.20   2
  -4  -2  -2 286374. 9117.17   3
  -2  -4   2 265285. 6950.13   3
   4   2   2 280844. 10306.8   1
  -2   6  -2 307833. 9661.06   5
   2   4  -2 260765. 7338.04   5
  -2  -4   2 284506. 7176.29   5
   6  -2   2 280829. 10335.1   1
  -6   4   2 300334. 9206.02   6
   2  -6   3 14198.1 1625.06   4
  -6   4   3 18695.3 1507.89   4
   6  -4  -3 16817.5 1602.54   1
   2   4  -3 17387.5 1742.96   5
  -2  -4   3 13810.1 1809.13   4
   6  -4  -3 16209.8 1916.19   2
   4  -6  -3 15489.9 1998.57   2
   4   2   3 17344.6 1478.67   2
  -6   2  -3 17026.8 1901.13   3
  -4  -2  -3 18440.5 2190.14   3
  -2   6  -3 14187.6 1840.35   6
  -6   4   3 13997.7 1786.96   6
  -2  -4   3 16106.0 1026.15   6
  -2  -4   3 16351.4 1147.60   3
  -6   2  -3 15720.6 1661.25   5
  -2   6  -3 17687.1 2090.10   5
  -4  -2  -3 16486.1 1163.30   5
   4   2   3 15605.5 2412.71   1
  -4   6   3 16565.0 2388.40   6
   6  -2   3 13976.7 2229.89   1
   2   4  -3 16871.7 1954.72   1
   2  -6   4 29482.9 2540.89   4
  -6   4   4 42937.6 2551.22   4
   6  -4  -4 35860.3 3058.85   2
  -2  -4   4 25234.5 2628.91   4
   4  -6  -4 39573.4 3345.03   2
  -2   6  -4 27721.3 2492.17   6
  -4   6   4 38491.4 3869.85   6
  -6   2  -4 41453.1 3134.15   3
  -2   6  -4 36079.0 3080.50   5
  -6   2  -4 34888.6 2698.38   5
   2   4  -4 34273.6 2673.24   5
  -6   4   4 31354.9 2882.55   6
  -4  -2  -4 36003.0 2312.73   5
   4   2   4 38075.0 4192.35   1
  -4  -2  -4 36200.6 3262.70   3
   6  -2   4 29224.2 3404.39   1
   6  -4  -4 35512.3 2449.30   1
   6  -2   5 5651.33 1562.11   4
   2  -6   5 3773.51 1019.95   4
  -6   4   5 6147.54 1080.63   4
  -2  -4   5 3647.32 1076.01   4
  -2   6  -5 4450.40 898.014   6
   6  -4  -5 3730.39 1053.81   2
  -6   4   5 6009.14 1381.86   6
   4  -6  -5 6100.13 1429.09   2
   6  -2   5 4578.87 1298.66   1
  -6   2  -5 9348.68 1556.12   3
   4   2   5 5523.09 1750.92   1
  -4  -2  -5 4685.70 1210.02   3
  -2   6  -5 5661.51 1319.50   5
  -6   2  -5 4697.31 1071.05   5
   2   4  -5 4269.84 1022.75   5
  -4  -2  -5 4976.29 971.520   5
  -4   6   5 5301.51 1492.87   6
   4  -6  -6 198260. 8551.27   2
  -2  -4   6 144934. 7626.38   4
   6  -2   6 166580. 9723.02   1
  -6   4   6 209173. 9070.84   6
  -4  -2  -6 164799. 7930.96   3
  -4   6   6 210205. 10131.2   6
  -6   2  -6 178860. 7623.15   3
  -2   6  -6 162711. 7971.22   5
  -6   2  -6 179632. 7853.97   5
   2   4  -6 157744. 7445.88   5
  -4  -2  -6 169889. 7082.56   5
   6  -2   6 200654. 10655.8   4
   4   2   6 182234. 11172.7   1
   6  -4  -6 184636. 8028.73   2
  -6   4   6 193343. 7106.46   4
   2  -6   6 153371. 7523.02   4
   6  -2   7 15788.6 3174.25   4
   4   2   7 14385.8 3253.62   1
   2  -6   7 9809.25 1878.27   4
  -2  -4   7 9703.87 2045.65   4
   4  -6  -7 14592.0 2339.11   2
   6  -2   7 11599.6 2615.53   1
  -4  -2  -7 15073.2 2359.07   3
  -4   6   7 13788.8 2581.02   6
  -6   4   7 16379.0 2390.79   6
  -6   2  -7 15045.6 2352.38   5
  -4  -2  -7 15725.7 2221.88   5
  -2   6  -7 11787.8 2253.09   5
   2   4  -7 11106.4 1970.41   5
   4  -6  -7 10691.4 1913.07   3
  -6   2  -7 13225.9 2064.28   3
   6  -4  -7 15703.8 2381.11   2
   6  -2   8 1497.06 1085.95   4
   2  -6   8 2050.14 1039.87   4
  -2  -4   8 860.920 480.061   4
  -2   6  -8 2641.84 896.551   5
   4   2   8 3799.79 1419.29   1
   6  -4  -8 2195.93 873.160   2
  -6   2  -8 3355.45 1175.52   5
   4  -6  -8 2635.61 997.624   2
   6  -2   8 1234.24 820.050   1
  -6   2  -8 2553.50 870.234   3
  -4  -2  -8 2866.78 979.717   3
   2   4  -8 3270.50 1287.40   5
  -4  -2  -8 2029.42 817.934   5
   6  -4  -8 1772.06 1014.70   5
   4  -6  -8 1237.38 674.738   3
  -4   6   8 2268.54 1044.00   6
  -6   1   8 25552.1 3222.91   4
  -5  -1   8 21732.4 3206.32   4
  -1  -5  -8 27335.7 3431.60   3
   1  -6  -8 27037.4 3325.47   3
  -5   6  -8 30227.7 3724.97   5
  -6   5  -8 31292.3 3827.93   5
   5   1  -8 24785.3 3294.78   5
   6  -1  -8 25391.5 3398.53   5
  -1  -5  -8 21925.7 2838.84   5
   1  -6  -8 23450.1 3099.16   5
   6  -5   8 35421.1 4564.70   4
   1  -6  -8 31905.7 3447.01   2
   5  -6   8 33872.3 4265.50   4
   6  -5   7 4239.81 1529.78   4
   5  -6   7 2024.05 864.330   4
  -6   1   7 2840.46 1101.22   4
  -5  -1   7 1527.74 729.890   4
   1  -6  -7 2622.83 922.364   2
  -6   5  -7 2232.41 905.512   6
  -1  -5  -7 2669.40 868.801   2
  -5   6  -7 3760.05 1277.62   5
  -6   5  -7 2966.19 1184.95   5
  -1  -5  -7 2516.12 958.081   3
   5   1  -7 1581.58 738.146   5
   1  -6  -7 2806.15 1012.26   3
   6  -1  -7 2099.02 814.075   5
  -1  -5  -7 2650.12 972.575   5
   1  -6  -7 1479.72 735.720   5
   6  -5   6 4741.04 1442.46   4
   5  -6   6 5447.00 1498.04   4
   1  -6  -6 3702.31 1009.54   2
   6  -1  -6 5469.76 1402.84   1
  -6   1   6 3082.34 1012.79   4
  -5  -1   6 3249.09 1115.36   4
  -1  -5  -6 4381.08 1066.34   2
  -5   6  -6 3457.74 1089.48   5
   1   5   6 3337.11 1047.91   1
  -5   6  -6 2609.47 782.609   6
  -6   5  -6 2737.63 909.649   6
  -6   5  -6 4618.54 1329.06   5
  -1  -5  -6 2686.22 1008.77   3
   5   1  -6 3525.65 1075.23   5
   1  -6  -6 2876.79 953.200   3
   6  -1  -6 3045.30 844.710   5
  -1  -5  -6 3740.17 1005.05   5
   1   5   5 71.6077 64.4043   1
   6  -5   5 1104.16 727.784   4
   5  -6   5 424.369 450.345   4
  -6   1   5 125.135 274.660   4
  -5  -1   5 1186.13 796.227   4
   5   1  -5 454.665 455.604   1
   1  -6  -5 328.075 378.412   2
  -6   1   5 349.815 214.327   6
  -5   6  -5 621.457 596.713   5
  -5   6  -5 1464.71 384.304   6
  -6   5  -5 46.9134 110.698   6
  -6   5  -5 1314.84 750.027   5
  -1   6   5 1403.62 1087.39   6
  -1  -5  -5 149.855 244.616   2
   6  -1  -5-33.0888 460.075   1
  -1  -5  -5 2456.92 1013.73   3
   5   1  -5-369.957 408.609   5
   6  -1  -5-27.0426 329.600   5
   1  -6  -5-234.701 367.286   3
  -1  -5  -5 485.338 495.175   5
   6  -1  -4 96140.6 5381.06   1
   1  -6  -4 81633.2 4473.63   2
  -6   1   4 69164.9 4406.53   4
  -5  -1   4 63746.0 4515.88   4
   6  -5   4 77770.3 4869.20   1
  -1   6   4 90804.5 6141.98   6
  -6   5  -4 69209.2 4489.44   6
  -5  -1   4 83852.6 3062.02   6
  -5   6  -4 68276.8 4295.05   6
  -1   6   4 92682.6 3143.90   1
  -6   1   4 74734.7 3739.85   6
  -1  -5  -4 84381.6 5448.12   3
  -5   6  -4 90830.2 5293.42   5
   1  -6  -4 77751.2 4990.07   3
   1   5   4 91634.8 4667.22   1
   5   1  -4 84725.7 4122.41   5
  -6   5  -4 95346.7 5345.73   5
   6  -1  -4 84442.0 4649.95   5
   6  -5   4 81287.4 4768.07   4
   6  -1  -4 87888.3 4112.65   2
   5  -6   4 82042.0 4670.36   4
  -1  -5  -4 81826.4 4089.50   2
   5   1  -4 92391.1 5531.75   1
  -1  -5  -3 31320.2 2252.53   2
   6  -5   3 28120.5 2665.55   1
   5   1  -3 32380.8 3052.08   1
   1  -6  -3 29268.0 2463.31   2
  -6   1   3 23664.0 2356.77   4
  -5  -1   3 23808.8 2537.15   4
   6  -1  -3 32170.5 3045.85   1
  -1   6   3 31943.2 1399.71   1
  -5  -1   3 32700.3 2241.76   3
  -1   6   3 32783.9 3546.65   6
  -6   5  -3 27283.0 2722.47   6
  -5   6  -3 26625.1 2626.70   6
  -6   1   3 30099.3 2265.21   6
  -5  -1   3 30696.2 2066.07   6
   1   5   3 31757.8 2414.80   1
  -1  -5  -3 32801.9 3198.48   3
  -6   5  -3 35766.0 3156.50   5
   1  -6  -3 30779.8 2921.64   3
   5   1  -3 30627.2 2020.11   5
   6  -5   3 28191.3 2464.11   4
  -5   6  -3 35024.9 3169.12   5
   5  -6   3 28582.6 2303.59   4
   6  -1  -3 31182.8 2134.78   2
  -1  -5  -2 12172.2 1282.45   2
   1  -6  -2 12105.1 1469.75   2
   5  -6   2 10048.1 1302.89   1
   5   1  -2 12741.7 1874.64   1
   6  -1  -2 14391.2 2028.73   1
  -6   1   2 13600.3 1623.15   3
   1   5   2 11851.3 1347.04   1
  -5  -1   2 12665.6 1411.24   3
  -6   1   2 14541.6 1338.46   2
  -5   6  -2 12347.9 1713.89   6
  -6   1   2 10620.3 1401.26   6
  -1   6   2 12264.1 2156.63   6
  -6   5  -2 10267.1 1561.90   6
   5   1  -2 12459.1 971.173   5
   6  -5   2 12918.4 1960.78   2
  -1  -5  -2 12290.3 1797.79   3
   5  -6   2 11944.6 1914.81   2
   6  -5   2 12002.3 1400.72   4
   1  -6  -2 11615.8 1683.20   3
   6  -5   2 12267.9 1646.59   1
   5  -6   2 10571.4 1176.99   4
   6  -1  -2 11460.6 1130.94   2
  -1   6   2 11740.7 729.043   1
   6  -1  -1 7223.95 1484.93   1
   6  -1  -1 7309.99 792.774   2
  -5   6  -1 9654.67 869.020   4
  -1  -5  -1 7240.25 903.412   2
   1  -6  -1 8720.94 1242.65   2
   1   5   1 7562.96 1031.46   1
  -5  -1   1 8095.62 1152.48   3
  -5   6  -1 7043.58 1377.16   6
  -6   1   1 7474.69 1205.70   6
   6  -1  -1 7190.95 961.533   5
  -1  -5  -1 8066.49 1009.87   5
  -6   1   1 8012.78 1223.57   3
  -6   5  -1 6249.32 1175.26   6
   6  -5   1 8211.58 1206.94   1
   6  -5   1 8284.34 1535.52   2
   5  -6   1 9330.35 1580.38   2
  -1   6   1 8199.99 1676.09   6
  -1  -5  -1 7598.82 1325.64   3
   5  -6   1 7260.97 741.645   4
   1  -6  -1 6062.32 1188.54   3
   5  -6   1 7215.79 958.263   1
   5   1  -1 7122.15 1452.56   1
  -6   5  -1 8905.54 1071.81   4
   1   5   0 64396.4 3214.41   1
   1  -6   0 62397.1 2862.34   4
   5   1   0 63111.2 4443.72   1
   6  -1   0 62157.7 2484.73   2
  -1  -5   0 71037.5 2951.66   2
   1  -6   0 69134.5 3594.84   2
   6  -5   0 62603.6 4268.05   2
   5  -6   0 67889.1 4378.49   2
  -6   1   0 71685.6 3830.04   3
  -5   6   0 67437.6 4249.25   6
  -5  -1   0 69045.2 3659.27   3
  -6   5   0 61978.1 3987.53   6
   6  -1   0 66083.1 4663.09   1
   6  -5   0 69373.8 3531.84   1
   5  -6   0 75699.2 2731.98   1
  -1  -5   0 67595.4 3854.02   3
  -1  -5   0 78391.6 3290.90   5
   1  -6   0 73837.4 2565.88   1
  -1   6   0 64888.9 4634.24   6
   6  -1   0 67890.2 2771.16   5
  -6   5   0 84759.1 2943.62   4
   1  -6   1 65789.1 3184.62   4
  -6   5   1 80975.4 2230.20   4
   5  -6  -1 69680.4 2049.40   1
   6  -5  -1 64003.4 4157.42   2
   5  -6  -1 67227.1 4319.42   2
  -1  -5   1 73847.0 3153.99   2
   6  -1   1 69241.2 3316.80   2
   6  -5  -1 75328.8 3408.27   1
  -6   1  -1 75014.6 4005.52   3
  -5   6   1 63356.3 4306.45   6
   1  -6   1 67816.8 2765.09   1
  -6   5   1 72792.7 4359.65   6
  -5  -1  -1 73464.5 3935.02   3
   5   1   1 66570.2 4838.17   1
   6  -1   1 72246.2 5054.62   1
   1  -6   1 76309.3 4002.52   2
  -1  -5   1 68313.1 3562.84   3
  -1  -5   1 74125.8 3322.23   5
   6  -1   1 78062.1 2910.34   5
  -1   6  -1 64925.7 4452.23   6
  -6   5   1 81882.9 2418.31   4
   1   5  -1 69617.8 3541.96   1
  -6   5   2 72617.9 1940.13   4
   1  -6   2 49572.8 2997.81   4
  -1  -5   2 46126.3 3079.28   4
   5   1   2 51278.3 1949.76   2
   6  -5  -2 56145.0 2743.20   1
   6  -5  -2 55304.5 3812.98   2
   5  -6  -2 54270.6 3910.75   2
  -5   6   2 44077.5 3716.85   6
  -1  -5   2 65917.3 2744.65   6
  -6   5   2 54507.6 3775.94   6
  -5  -1  -2 61441.3 3742.62   3
  -6   1  -2 60653.5 3699.09   3
  -1  -5   2 50111.4 2683.34   3
  -1   6  -2 56527.3 3824.58   5
   1   5  -2 55701.3 3358.34   5
   5   1   2 51860.3 4520.92   1
   6  -1   2 53905.6 4502.87   1
  -1  -5   2 61979.7 3289.81   2
   6  -1   2 58726.7 2701.15   5
  -1   6  -2 50483.4 3644.88   6
   1  -6   2 62804.0 3936.63   2
  -6   5   2 58035.5 1813.42   4
   1   5  -2 57085.1 3430.90   1
   1  -6   3 13421.6 1612.43   4
   5   1   3 12755.2 2367.37   1
  -1  -5   3 12825.1 1709.08   4
   6  -5  -3 16684.9 2085.01   2
   5  -6  -3 16319.2 2060.88   2
  -6   1  -3 16893.2 1521.43   5
  -1   6  -3 12580.2 1610.16   6
  -5   6   3 13575.4 2130.85   6
  -6   5   3 14608.8 2018.34   6
  -6   1  -3 17071.2 2006.77   3
  -5  -1  -3 16431.5 1997.31   3
  -1  -5   3 15159.7 1177.47   3
  -1   6  -3 16439.1 2020.25   5
   1   5  -3 14338.8 1721.75   5
  -5  -1  -3 16481.8 1114.20   5
   1  -6   3 14659.5 1363.85   3
   6  -1   3 15973.9 2560.83   1
  -6   5   3 20273.2 1148.56   4
   6  -5  -3 14376.6 1342.14   1
   1  -6   4 10052.8 1548.24   4
   6  -5  -4 12797.4 1941.80   2
   5  -6  -4 14651.4 2120.83   2
  -1  -5   4 8341.33 1490.11   4
  -6   1  -4 11319.5 1726.93   3
  -5  -1  -4 13965.7 1967.12   3
   5   1   4 10367.5 2290.22   1
  -5   6   4 11838.4 2017.58   6
   1  -6   4 10802.7 920.805   3
  -1   6  -4 11430.4 1770.07   5
  -6   1  -4 10277.3 1376.63   5
   1   5  -4 11206.9 1648.91   5
  -5  -1  -4 11024.5 1183.17   5
  -1   6  -4 9973.46 1203.00   6
   6  -1   4 9302.97 2123.83   1
  -6   5   4 9543.22 1731.99   6
   6  -5  -4 11138.9 1221.15   1
  -6   5   4 15040.6 1207.90   4
   1  -6   5 31075.0 2916.48   4
   6  -5  -5 40425.8 3584.49   2
  -1  -5   5 28457.6 2998.58   4
   5  -6  -5 44305.1 3820.58   2
  -5   6   5 41432.8 4259.00   6
  -6   1  -5 38566.5 3004.61   5
  -6   5   5 36613.0 3657.94   6
  -5  -1  -5 39609.8 3449.99   3
  -1   6  -5 37721.1 3407.37   5
   1   5  -5 36527.4 3238.78   5
  -5  -1  -5 37965.7 2741.64   5
  -6   1  -5 39812.2 3316.27   3
   5   1   5 36919.6 4611.28   1
   6  -1   5 34763.6 4266.56   1
   5  -6  -6 69738.2 5034.27   2
  -1  -5   6 46963.5 4125.01   4
  -5   6   6 71835.2 5841.59   6
  -6   5   6 69368.8 5545.86   6
  -5  -1  -6 56593.0 4446.24   3
  -1   6  -6 57293.1 4542.90   5
  -6   1  -6 63116.1 4337.80   5
   1   5  -6 57280.1 4386.66   5
  -5  -1  -6 64486.4 4141.56   5
  -6   1  -6 61776.1 4360.09   3
   5   1   6 59830.9 6450.87   1
   6  -1   6 55811.1 5799.25   1
   6  -5  -6 62450.7 4754.61   2
   1  -6   6 43963.8 3856.86   4
   5   1   7-1287.64 1189.91   1
   1  -6   7-480.164 503.146   4
  -1  -5   7-665.781 570.280   4
   6  -5  -7-5.78728 143.052   2
  -6   5   7 1899.78 813.256   6
   5  -6  -7 1620.45 802.052   2
  -5   6   7 916.259 646.776   6
   6  -1   7 363.926 517.648   1
  -6   1  -7 584.821 545.687   3
  -5  -1  -7 314.125 231.798   3
  -1   6  -7 307.596 721.049   5
  -6   1  -7 131.300 461.611   5
   1   5  -7 646.755 519.730   5
  -5  -1  -7 495.338 568.466   5
   1  -6   8 615.979 460.481   4
  -1  -5   8 1835.04 1057.80   4
   5   1   8 326.751 610.839   1
   6  -5  -8 1512.89 737.717   2
   5  -6  -8 1308.18 609.060   2
  -5   6   8-274.532 363.576   6
  -6   1  -8 290.973 130.457   3
   6  -1   8-1442.99 1128.34   1
  -5  -1  -8 690.165 587.705   3
  -1   6  -8 1460.90 719.725   5
  -6   1  -8 514.639 510.672   5
   1   5  -8-841.578 761.573   5
   6  -5  -8 1036.05 792.841   5
   5  -6  -8 1312.63 786.238   3
  -6   0   7 17513.8 2755.15   4
  -6   6  -7 12891.5 2074.02   6
   0  -6  -7 16432.7 2606.95   3
  -6   6  -7 20076.1 2945.53   5
   6   0  -7 13472.9 2292.11   5
   0  -6  -7 12862.2 2086.44   5
   6  -6   7 20747.7 3272.97   4
   0  -6  -7 18393.4 2390.07   2
   6  -6   6 2364.11 1116.24   4
   6   0  -6 2086.13 1001.11   1
  -6   0   6 977.694 523.745   4
   0  -6  -6 1693.84 690.099   2
  -6   6  -6 2174.86 880.355   5
  -6   6  -6 1371.20 687.044   6
   0  -6  -6 2374.28 1039.47   3
   6   0  -6 1916.56 763.324   5
  -6   0   5 54788.3 4363.15   4
  -6   6  -5 51477.6 3892.84   6
   0  -6  -5 71107.4 5167.88   3
  -6   6  -5 76499.0 5221.09   5
   6   0  -5 66229.5 4244.29   5
   6  -6   5 68677.8 4799.75   4
   6   0  -5 77731.3 5384.05   1
   0  -6  -5 68217.9 4213.46   2
   0  -6  -4 126425. 5501.59   2
   6   0  -4 158488. 7543.68   1
  -6   0   4 101407. 5819.97   4
  -6   0   4 137220. 4883.73   6
  -6   6  -4 92297.3 5329.67   6
   0   6   4 151487. 5160.61   1
   0  -6  -4 148430. 7283.99   3
  -6   6  -4 161890. 7383.18   5
   6   0  -4 137435. 5631.54   5
   6  -6   4 140685. 6247.57   4
   0  -6  -3 13220.9 1589.53   2
   6  -6   3 12211.3 1717.11   1
   6   0  -3 13822.5 2182.57   1
  -6   0   3 10101.7 1622.15   4
   0   6   3 13429.5 1268.44   1
  -6   6  -3 11031.1 1696.54   6
  -6   0   3 10588.8 1358.65   6
  -6   6  -3 16176.3 2260.98   5
   0  -6  -3 13811.0 2070.47   3
   6   0  -3 12869.8 1434.57   5
   6  -6   3 13778.9 1629.75   4
   0  -6  -2 34404.4 2418.41   2
   0   6   2 36450.4 2018.75   1
   6   0  -2 41017.9 3585.03   1
   0   6   2 39371.8 3800.13   6
  -6   0   2 36915.6 2652.27   3
   6  -6   2 37843.0 3584.79   2
  -6   6  -2 32638.7 2987.74   6
  -6   0   2 32526.1 2451.71   6
   0  -6  -2 35135.7 3180.10   3
   6   0  -2 40015.0 2088.41   5
   6  -6   2 35405.6 2282.62   4
   6  -6   2 33278.3 2575.13   1
   0   6   1 18366.1 1435.56   1
   0  -6  -1 23487.9 1619.06   1
   0  -6  -1 18563.4 1691.71   2
   6   0  -1 17982.2 2439.80   1
   0   6   1 16574.5 2413.07   6
   6  -6   1 18349.8 2448.48   2
  -6   0   1 19932.1 1975.32   3
   0  -6  -1 19406.2 2260.34   3
   6   0  -1 18310.5 1067.93   5
  -6   6  -1 15717.0 2053.31   6
   6   0  -1 18044.9 1009.90   5
   6  -6   1 18039.3 1722.45   1
   0  -6   0 330565. 8531.16   2
   6  -6   0 314097. 10698.6   2
   0   6   0 295645. 10608.6   6
   0  -6   0 313221. 9767.36   3
  -6   0   0 318005. 9334.31   3
   6   0   0 311106. 11611.8   1
   0  -6   0 401404. 8272.57   1
   6  -6   0 365594. 8468.68   1
  -6   6   0 332276. 10736.9   6
   0   6   0 346851. 8308.10   1
   0  -6   1 27965.2 2184.91   4
   6  -6  -1 33395.0 3095.53   2
   6  -6  -1 32222.0 1837.02   1
   0  -6   1 34100.1 2411.92   2
   0   6  -1 28363.3 2738.44   6
  -6   0  -1 36371.5 2790.82   3
  -6   6   1 32044.1 3036.64   6
   6   0   1 28655.1 3351.59   1
   0  -6   1 30440.9 2454.89   3
   0   6  -1 35044.4 2461.98   1
   6  -6  -2 34537.3 1747.30   1
   0  -6   2 29436.0 2392.25   4
   6  -6  -2 34119.0 3156.55   2
   0   6  -2 29588.8 2528.33   6
   0  -6   2 39153.9 2878.03   2
   6   0   2 37688.1 2391.20   2
  -6   6   2 36002.5 3281.99   6
  -6   0  -2 36850.1 2972.55   3
   0  -6   2 33947.6 2350.39   3
   6   0   2 33615.9 3874.09   1
   0  -6   3 21743.1 2225.59   4
   6  -6  -3 24910.6 2736.01   2
  -6   0  -3 26350.7 2626.15   3
   0  -6   3 32357.4 2942.77   2
   0  -6   3 24530.6 1718.37   3
  -6   6   3 21214.1 2734.80   6
  -6   0  -3 22917.9 1548.38   5
   0   6  -3 23654.5 2452.97   5
   6   0   3 22294.2 3251.73   1
   6  -6  -3 25689.8 1533.36   1
   0  -6   4 102476. 5402.77   4
   6  -6  -4 146716. 7093.95   2
  -6   0  -4 132912. 6353.10   3
   0   6  -4 124953. 6128.46   5
  -6   0  -4 134628. 4596.73   5
  -6   6   4 115798. 6867.57   6
   6   0   4 131165. 8357.41   1
   0  -6   5 73418.5 4819.05   4
   6  -6  -5 105083. 6237.39   2
  -6   6   5 93615.1 6560.51   6
  -6   0  -5 95659.9 5567.87   3
   0   6  -5 89155.6 5457.01   5
  -6   0  -5 95079.3 4500.15   5
   6   0   5 95875.6 7638.23   1
   0  -6   6 3676.12 1141.85   4
  -6   6   6 3255.82 1222.23   6
   6  -6  -6 4324.85 1208.20   2
  -6   0  -6 3726.28 1200.55   3
   0   6  -6 3560.69 1139.34   5
  -6   0  -6 3258.67 913.737   5
   6   0   6 5191.92 1945.24   1
  -6   6   7 32766.4 4193.06   6
  -6   0  -7 24119.5 2969.70   3
   0   6  -7 22749.5 3137.68   5
   6   0   7 27988.1 4627.45   1
   6  -6  -7 29454.2 3505.34   2
   0  -6   7 18957.3 2689.62   4
   7  -4   7 9741.65 2311.18   4
   4  -7   7 9963.19 2055.56   4
  -4  -3   7 5845.90 1610.09   4
   7  -4   7 9300.02 2359.08   1
   7  -3  -7 8654.61 1807.29   2
  -3   7   7 10058.0 2256.58   6
   3  -7  -7 12155.2 2219.85   2
  -7   4  -7 7985.92 1866.35   6
  -7   4  -7 9918.03 1743.26   3
   3   4   7 9583.70 2432.97   1
  -3  -4  -7 8103.68 1798.50   3
  -4   7  -7 11055.7 2242.89   5
  -7   4  -7 10719.3 2058.91   5
   4   3  -7 7533.22 1676.29   5
   7  -3  -7 7142.77 1792.88   5
   3  -7  -7 8800.78 1841.79   3
  -7   3   6 14468.5 1983.53   4
   7  -4   6 13758.0 2513.53   1
   7  -4   6 14294.4 2532.35   4
   4  -7   6 13132.3 2193.71   4
   3   4   6 16103.9 3013.39   1
  -4  -3   6 10093.4 2125.58   4
  -7   4  -6 14426.5 2175.37   3
  -3   7   6 14937.7 2902.96   6
   3  -7  -6 12666.8 2076.81   2
  -7   4  -6 9623.19 1929.85   6
  -7   4  -6 16054.7 2365.11   5
   4   3  -6 11970.5 1897.75   5
  -4   7  -6 13617.7 2308.57   5
  -3  -4  -6 11046.1 2178.96   3
   7  -3  -6 8119.63 1795.06   5
   3  -7  -6 9116.96 1789.06   3
   7  -3  -6 13262.0 2071.86   2
   3   4   5 695.661 537.625   1
   7  -4   5 1525.41 915.334   4
   4  -7   5 416.331 335.814   4
   4   3  -5 884.500 548.684   1
  -7   3   5 964.610 480.900   4
  -4  -3   5 618.470 523.991   4
   7  -3  -5 1244.78 628.361   1
  -3   7   5 1839.42 1027.34   6
  -4   7  -5 1625.23 780.084   6
   3  -7  -5 1429.18 720.508   2
  -7   3   5 1334.36 539.423   6
  -7   4  -5 1341.95 605.122   6
   7  -4   5 1122.55 609.829   1
  -7   4  -5 1372.54 714.371   3
  -7   4  -5 948.276 602.003   5
  -4   7  -5 465.433 251.148   5
  -3  -4  -5 1858.58 877.205   3
   4   3  -5 1385.22 608.719   5
  -3  -4  -5 908.897 456.321   5
   3  -7  -5 832.178 499.142   3
   7  -3  -4 33741.9 2985.62   1
  -7   3   4 37331.6 2847.71   4
   3  -7  -4 35849.4 3193.56   2
  -4  -3   4 27178.6 3041.12   4
  -7   4  -4 41183.0 3347.89   3
  -3   7   4 37031.4 4156.13   6
  -4   7  -4 33426.6 3125.67   6
  -7   3   4 29267.3 2661.73   6
  -7   4  -4 29751.8 3097.09   6
  -3  -4  -4 33437.9 3451.87   3
  -7   4  -4 35519.2 3169.34   5
  -4   7  -4 35280.0 3391.28   5
   3   4   4 37151.7 3764.56   1
   4   3  -4 33898.2 2521.96   5
  -3  -4  -4 36106.1 2419.36   5
   7  -4   4 29584.1 3237.05   1
   4   3  -4 35903.9 3473.71   1
   4  -7   4 32028.4 2888.50   4
   7  -3  -4 34652.2 2913.89   2
   4   3  -3 34221.0 3133.95   1
   7  -3  -3 29222.2 2559.63   2
  -7   3   3 32460.3 2484.74   4
  -4  -3   3 23954.8 2572.45   4
   7  -3  -3 32071.5 2932.16   1
   3  -7  -3 33170.8 3004.18   2
  -7   4  -3 37306.6 3061.34   3
  -7   4  -3 24518.0 2719.17   6
  -3   7   3 34767.0 3951.02   6
  -4   7  -3 30622.2 3084.31   6
   4  -7   3 38671.9 3706.43   2
  -7   3   3 29257.4 2674.43   6
   3   4   3 33477.9 3272.14   1
  -3  -4  -3 31138.8 3264.66   3
  -4   7  -3 35494.9 3379.14   5
   4   3  -3 34436.9 2177.47   5
  -3  -4  -3 33843.8 1939.79   5
  -4  -3   3 32042.7 2077.81   3
   7  -4   3 28564.6 3031.67   1
   4  -7   3 32151.1 2523.19   4
   3  -7  -2 32984.9 1242.85   4
   7  -3  -2 31863.0 2543.18   2
   4   3  -2 31997.7 2952.57   1
   3  -7  -2 34745.3 2947.35   2
   7  -4   2 33063.3 3212.04   2
   7  -3  -2 33167.3 3057.46   1
  -7   4  -2 32964.2 2865.45   3
  -4   7  -2 30228.4 3101.92   6
  -4  -3   2 30766.4 2197.63   3
   3   4   2 30674.3 2906.16   1
  -7   3   2 27938.0 2510.20   6
  -3  -4  -2 31695.8 3069.78   3
   4   3  -2 28042.4 1450.47   5
   4  -7   2 40191.7 3692.09   2
  -3  -4  -2 34274.2 1449.00   5
   7  -4   2 30812.9 2971.88   1
  -3  -4  -2 34822.0 1841.48   2
  -3   7   2 33602.1 3866.24   6
   4  -7   2 29439.5 2100.14   4
  -7   4  -2 24499.6 2567.60   6
   3   4   1 3459.41 899.962   1
   3  -7  -1 3501.13 445.262   4
   7  -3  -1 3463.04 1005.70   1
   4  -7   1 3524.87 587.643   4
   4  -7   1 2939.35 438.625   1
  -3   7   1 2968.67 1095.11   6
  -4   7  -1 2553.91 953.200   6
  -7   3   1 2400.29 771.458   6
  -7   4  -1 2521.67 818.642   6
   4  -7   1 3301.83 505.589   1
   7  -3  -1 2647.14 695.805   2
   3  -7  -1 2619.04 769.390   2
  -4  -3   1 3436.56 777.065   3
   4   3  -1 3114.39 926.909   1
   7  -4   1 2671.16 828.582   1
   7  -4   1 3745.41 1024.89   2
   4  -7   1 3818.89 1022.93   2
  -3  -4  -1 3609.28 939.151   3
   3  -7  -1 4073.86 506.296   4
  -3  -4  -1 3596.33 438.170   2
   3  -7   0 23414.9 1469.08   4
   3   4   0 24430.0 2393.04   1
   7  -3   0 21211.3 2149.60   2
   7  -4   0 22835.9 2425.99   2
   3  -7   0 25349.9 2469.64   2
   4   3   0 22951.9 2493.79   1
   4  -7   0 29788.5 2760.59   2
  -7   3   0 27341.6 2510.98   3
  -3   7   0 24702.9 3119.60   6
  -4   7   0 20568.6 2568.82   6
  -7   4   0 18926.9 2191.96   6
  -7   3   0 20098.3 2212.49   6
  -4  -3   0 24867.1 2268.97   3
   7  -3   0 23885.9 2738.01   1
   7  -4   0 25851.9 2602.21   1
  -3  -4   0 22661.1 2185.25   3
   4  -7   0 21291.5 902.609   4
   3  -7   1 44385.4 2385.00   4
  -3  -4   1 46596.3 1371.82   2
   3   4  -1 46169.5 3329.01   1
   7  -4  -1 44138.2 3318.91   2
   4  -7  -1 53737.7 3726.02   2
   3  -7   1 45352.8 1889.25   1
   7  -3   1 47460.3 3512.67   2
  -7   3  -1 50486.2 3482.45   3
   3  -7   1 56843.9 3955.04   2
   7  -4  -1 50514.4 3523.59   1
  -3   7  -1 48548.0 4161.86   6
  -4   7   1 41577.6 3946.65   6
   4   3   1 46892.2 3714.22   1
  -7   4   1 43378.1 3234.38   6
  -7   3  -1 39275.8 3245.27   6
  -4  -3  -1 49681.0 3480.09   3
  -3  -4   1 46192.1 2885.28   3
   7  -3   1 49223.1 4092.02   1
  -3  -4   1 45805.9 1425.79   2
   3  -7   2 62477.2 3220.12   4
   3   4  -2 65129.3 4083.90   1
  -7   4   2 68957.7 3199.47   4
  -3  -4   2 50621.2 3565.06   4
   7  -4  -2 63472.0 3978.78   2
   4  -7  -2 70939.5 4431.61   2
   7  -4  -2 69752.5 4038.33   1
  -3  -4   2 71955.0 2355.26   2
  -7   3  -2 69793.0 4265.85   3
  -4   7   2 58296.9 4973.58   6
  -3   7  -2 61739.8 4602.65   6
   3  -7   2 76513.4 4954.52   2
   7  -3   2 61392.1 4284.49   2
  -7   4   2 63093.5 4026.54   6
  -3  -4   2 63175.4 3151.70   3
  -7   3  -2 54307.0 3951.19   6
  -4  -3  -2 68275.0 4355.07   3
   4   3   2 64856.9 4626.09   1
   7  -3   2 68300.2 4902.05   1
   3  -7   3 4915.74 976.177   4
  -7   4   3 6130.38 937.782   4
  -3  -4   3 4712.88 1126.58   4
   3   4  -3 5941.35 1254.54   1
  -3  -4   3 6258.63 813.336   3
  -4   7   3 4375.64 1351.87   6
  -3   7  -3 4822.32 1228.98   6
  -7   4   3 5118.98 1152.21   6
   7  -3   3 6592.68 1571.14   1
   7  -4  -3 6355.67 1238.11   2
   7  -4  -3 6024.31 1106.36   1
   4  -7  -3 5877.60 1266.99   2
   4   3   3 6578.12 1601.52   1
  -7   3  -3 6152.53 1240.56   3
  -3   7  -3 6188.59 1275.13   5
  -4  -3  -3 5710.82 1274.05   3
   3   4  -3 5472.72 948.825   5
   3  -7   3 7938.87 1669.71   2
  -4   7   4 3937.70 1242.85   6
   3  -7   4 5092.93 1143.25   4
  -7   4   4 3697.17 755.051   4
   3   4  -4 4682.94 1304.52   1
  -3  -4   4 2753.57 946.752   4
   7  -4  -4 4068.53 1088.55   2
   7  -4  -4 4191.55 968.131   1
  -3   7  -4 2416.44 796.145   6
  -7   4   4 3525.89 973.030   6
   4  -7  -4 4160.07 1166.15   2
  -7   3  -4 4137.29 1072.15   3
  -7   3  -4 4228.89 1042.56   5
  -3   7  -4 3963.17 1097.76   5
  -4  -3  -4 3196.67 1001.51   3
   3   4  -4 4023.03 981.828   5
   4   3   4 3182.88 1239.64   1
   7  -3   4 3026.19 1065.83   1
  -7   4   5 29013.0 2418.88   4
   4  -7  -5 27045.2 3054.72   2
  -3  -4   5 17530.5 2531.23   4
  -4   7   5 23997.3 3441.33   6
  -7   3  -5 26248.8 2836.46   3
  -7   4   5 22751.0 2785.40   6
  -4  -3  -5 24227.5 3069.44   3
  -3   7  -5 25049.5 2937.98   5
  -7   3  -5 24761.1 2677.06   5
   3   4  -5 24053.2 2528.00   5
   4   3   5 24886.0 3722.88   1
   7  -4  -5 23243.9 2319.41   1
   7  -3   5 23924.9 3288.25   1
   3  -7   5 21984.7 2569.91   4
   7  -4  -5 24496.1 2717.70   2
   4  -7  -6 66678.6 5040.22   2
  -3  -4   6 44404.6 4337.64   4
  -7   3  -6 58838.1 4498.88   3
  -7   4   6 61412.3 4846.84   6
  -4  -3  -6 56527.4 4853.06   3
  -4   7   6 69293.9 6130.23   6
  -3   7  -6 57015.3 4750.97   5
  -7   3  -6 62620.9 4700.99   5
   3   4  -6 53663.6 4187.01   5
   4   3   6 61456.7 6435.33   1
   7  -4  -6 56169.4 4432.36   2
   3  -7   6 54047.8 4347.99   4
   7  -3   6 55536.6 5472.43   1
   7  -3   7 42.8803 670.521   4
   3  -7   7-408.827 545.286   4
  -3  -4   7-264.523 205.823   4
   7  -4  -7 45.8441 191.412   2
  -4   7   7 461.384 684.820   6
   4   3   7-211.654 709.443   1
  -7   3  -7 443.919 264.495   3
  -4  -3  -7 307.289 338.516   3
   4  -7  -7-16.3389 358.888   2
  -3   7  -7-433.714 848.974   5
  -7   3  -7 1347.93 783.469   5
   3   4  -7 250.117 162.009   5
   7  -4  -7-79.3473 554.480   5
   4  -7  -7-159.575 79.8720   3
  -7   2   7 19509.2 2602.82   4
  -5  -2   7 13489.7 2537.28   4
   7  -5   7 18413.5 3179.74   1
  -7   5  -7 21246.6 2660.66   3
  -2  -5  -7 19179.5 2975.29   3
  -7   5  -7 15237.1 2491.46   6
  -5   7  -7 19266.2 2931.97   5
  -7   5  -7 23449.6 3182.59   5
   7  -2  -7 16385.2 2712.74   5
   2  -7  -7 16192.0 2523.20   3
   7  -5   7 25914.0 3669.60   4
   5  -7   7 20503.6 3014.50   4
   2  -7  -7 23251.8 2898.96   2
  -7   2   6 16448.6 2305.94   4
   7  -5   6 15303.8 2731.27   1
  -5  -2   6 14587.4 2506.95   4
  -7   5  -6 18801.3 2479.17   3
  -5   7  -6 14866.1 2084.33   6
  -2   7   6 18145.0 3112.41   6
  -7   5  -6 11488.8 2070.22   6
  -7   5  -6 16014.4 2531.97   5
   2  -7  -6 15078.8 2368.24   3
   5   2  -6 14954.6 2141.75   5
   2   5   6 16393.2 2625.20   1
  -2  -5  -6 14534.9 1947.09   5
  -5   7  -6 15236.6 2424.75   5
  -2  -5  -6 16310.2 2553.88   3
   7  -2  -6 12329.1 2190.01   5
   7  -5   6 17741.5 2770.30   4
   7  -2  -6 16975.8 2240.21   2
   7  -2  -6 16785.7 2448.30   1
   5  -7   6 18830.1 2666.59   4
   2  -7  -6 15739.4 2293.83   2
   7  -5   5 4955.06 1428.19   1
   7  -5   5 5006.47 1287.63   4
   5  -7   5 5381.25 1357.59   4
  -7   2   5 5593.85 1265.26   4
  -5  -2   5 3979.33 1145.43   4
   5   2  -5 5560.08 1420.10   1
   2  -7  -5 6187.10 1330.06   2
   7  -2  -5 5154.54 1207.26   1
   7  -2  -5 5919.82 1221.14   2
  -2   7   5 3999.13 1302.39   6
  -7   2   5 4802.41 1042.57   6
  -5   7  -5 4371.68 1132.66   6
  -7   5  -5 4129.90 1108.31   6
  -7   5  -5 6544.72 1351.93   3
  -2  -5  -5 4101.73 939.218   2
  -7   5  -5 5693.11 1366.62   5
  -5   7  -5 3906.93 1121.90   5
  -2  -5  -5 5952.46 1533.28   3
   2   5   5 5654.86 1363.23   1
   5   2  -5 4385.95 1029.24   5
  -2  -5  -5 5790.20 1122.73   5
   7  -2  -5 4201.49 1094.64   5
   2  -7  -5 4100.70 1147.56   3
   7  -2  -4 14159.0 2098.92   1
   2  -7  -4 14725.2 1956.94   2
  -7   2   4 12853.3 1829.05   4
  -7   5  -4 11120.9 1794.24   6
  -5  -2   4 9831.42 1816.46   4
  -7   2   4 12367.2 1661.30   6
  -5   7  -4 12885.8 1938.21   6
  -2   7   4 19008.4 2985.25   6
   2   5   4 13902.3 1999.38   1
  -2  -5  -4 14134.5 2322.47   3
  -7   5  -4 16173.6 2277.55   5
  -5   7  -4 17803.7 2375.41   5
   5   2  -4 13550.0 1546.05   5
  -2  -5  -4 13326.5 1595.65   5
   7  -5   4 12550.3 1871.30   4
   2  -7  -4 12625.1 2013.53   3
  -2  -5  -4 15349.9 1708.99   2
   5  -7   4 12857.7 1803.07   4
   7  -2  -4 13581.9 1699.35   2
   7  -5   4 12480.1 2052.54   1
   5   2  -4 16307.8 2374.85   1
   5   2  -3 43675.3 3804.79   1
  -7   2   3 39414.7 3079.12   4
   2  -7  -3 45759.1 3343.76   2
  -5  -2   3 32123.3 3088.44   4
   7  -2  -3 44093.2 3737.22   1
  -2   7   3 45146.4 4521.81   6
  -5  -2   3 41852.3 2634.48   3
  -5   7  -3 38379.4 3377.43   6
   5  -7   3 51259.0 4440.36   2
   7  -5   3 47701.8 4187.42   2
  -7   2   3 37435.2 2859.22   6
   2   5   3 45143.2 3334.48   1
  -7   5  -3 34086.0 3231.26   6
  -5  -2   3 41745.8 2477.82   6
  -5   7  -3 46996.3 3979.34   5
   2  -7  -3 39492.5 3457.53   3
   5   2  -3 42943.3 2274.62   5
  -2  -5  -3 40169.8 3719.10   3
   7  -5   3 40061.1 3423.79   1
   5  -7   3 40288.8 2785.28   4
  -2  -5  -3 41784.3 2568.68   2
   7  -2  -3 38273.1 2698.82   2
   7  -2  -2 50207.0 2902.35   2
   5   2  -2 55601.1 4245.06   1
   2  -7  -2 61991.4 3786.67   2
   5  -7   2 51659.6 2864.00   1
   7  -2  -2 56735.8 4318.83   1
   5  -7   2 66166.9 4757.60   2
   2   5   2 55983.0 3507.15   1
  -2   7   2 57305.1 5043.11   6
   7  -5   2 55969.7 4477.66   2
  -5  -2   2 54040.5 3151.85   3
  -5   7  -2 57843.6 4187.05   6
  -7   2   2 45674.2 3267.39   6
  -7   5  -2 47208.2 3706.98   6
  -2  -5  -2 55443.2 4184.59   3
   7  -5   2 56681.2 3901.96   1
   5  -7   2 51986.5 2651.36   4
  -2  -5  -2 52121.7 2638.16   2
   7  -2  -1 4040.04 1237.84   1
   5  -7   1 2284.79 397.775   4
   2  -7  -1 2447.08 510.360   4
  -2   7   1 2915.48 1056.87   6
  -5   7  -1 2200.02 811.244   6
  -2  -5  -1 2705.43 531.099   2
  -7   5  -1 1739.08 628.770   6
  -7   2   1 2362.38 685.984   6
   7  -2  -1 2104.16 537.835   2
  -7   2   1 2666.48 762.192   3
   2  -7  -1 3164.17 836.700   2
  -5  -2   1 2987.88 751.902   3
   7  -5   1 2190.42 751.838   2
   5  -7   1 3481.64 1116.15   2
  -2  -5  -1 3447.89 938.153   3
   7  -5   1 3876.59 951.615   1
   5   2  -1 2511.40 793.647   1
   2   5   1 2672.23 712.579   1
   5  -7   1 2938.87 557.243   1
   2  -7   0 13332.6 1223.97   4
  -2  -5   0 14829.5 1115.68   2
   2   5   0 13908.1 1655.20   1
   7  -2   0 12299.1 1379.58   2
   2  -7   0 16495.1 1880.35   2
   7  -5   0 15189.3 2146.81   2
   5  -7   0 16505.6 2148.33   2
  -7   2   0 13761.4 1704.38   3
  -5   7   0 13643.4 2129.10   6
   5  -7   0 15874.4 836.400   1
   7  -2   0 15988.6 2379.38   1
  -5  -2   0 14476.0 1704.02   3
  -7   5   0 11195.6 1705.76   6
  -7   2   0 11077.0 1607.64   6
   7  -5   0 14170.2 1749.95   1
  -2   7   0 14285.9 2465.18   6
  -2  -5   0 11403.5 1595.91   3
   5   2   0 12293.8 1977.73   1
   2  -7   1 26295.7 1956.83   4
   2   5  -1 29201.4 2518.70   1
   7  -5  -1 27893.7 2819.69   2
  -2  -5   1 29782.2 1653.46   2
   5  -7  -1 31578.2 2928.13   2
   7  -2   1 28706.8 2398.44   2
   2  -7   1 32186.1 2842.86   2
   7  -5  -1 28524.3 2401.04   1
  -7   2  -1 31707.2 2706.59   3
  -2   7  -1 29009.7 3375.61   6
  -5   7   1 25505.5 2980.79   6
   5   2   1 27064.9 3091.47   1
   7  -2   1 29412.4 3362.50   1
  -7   5   1 26076.8 2667.64   6
  -5  -2  -1 29514.4 2634.73   3
  -2  -5   1 26423.7 2239.12   3
   2  -7   2 56095.0 3226.10   4
  -7   5   2 80796.0 2816.13   4
  -2  -5   2 53587.1 3574.30   4
   7  -5  -2 56947.6 4106.30   2
   7  -5  -2 66299.7 3571.40   1
   5  -7  -2 67643.1 4515.36   2
  -2  -5   2 67098.5 2959.36   2
  -2   7  -2 63372.7 4884.37   6
  -7   2  -2 68293.2 4177.18   3
   2  -7   2 73452.1 4618.83   2
   7  -2   2 61612.4 4079.47   2
  -5   7   2 52857.0 4518.74   6
  -7   5   2 66725.0 4377.97   6
  -5  -2  -2 67487.6 4330.31   3
  -2  -5   2 55171.4 2998.09   3
   5   2   2 56575.5 4840.11   1
   7  -2   2 63449.5 5098.41   1
   2   5  -2 65188.7 3984.81   1
   7  -2   3-433.421 407.741   1
   2  -7   3-254.425 108.290   4
  -7   5   3 234.341 221.422   4
   2   5  -3 1040.32 658.251   1
  -2  -5   3-655.717 541.404   4
  -2   7  -3-173.879 56.1036   6
  -5   7   3-414.058 618.876   6
   7  -5  -3 239.830 143.434   1
  -7   5   3-105.341 239.219   6
   7  -5  -3 2126.56 657.187   2
   5  -7  -3 581.233 514.201   2
  -7   2  -3 869.615 511.848   3
   5   2   3-516.103 423.133   1
  -2  -5   3 200.400 99.1169   3
  -5  -2  -3 283.080 413.577   3
  -2   7  -3 891.270 605.688   5
   2   5  -3 1276.36 517.126   5
  -2  -5   3 711.607 354.674   2
   2  -7   3 2345.33 923.110   2
   2  -7   4 5365.27 1134.13   4
  -2  -5   4 5051.23 1260.82   4
   7  -5  -4 6451.57 1059.29   1
  -2   7  -4 5466.30 1211.54   6
  -5   7   4 4455.78 1510.05   6
  -7   5   4 5719.42 1376.13   6
   7  -5  -4 4865.52 1197.43   2
   7  -2   4 6013.87 1661.13   1
   5  -7  -4 6802.77 1521.58   2
  -7   2  -4 5915.06 1312.45   3
  -5  -2  -4 5861.10 1314.04   3
  -7   2  -4 4960.56 1042.03   5
  -2   7  -4 6290.73 1361.70   5
   2   5  -4 5593.36 1161.63   5
   5   2   4 4913.04 1691.24   1
   7  -5  -5 14340.7 2264.87   2
   5   2   5 11916.6 2730.69   1
  -2  -5   5 13273.0 2112.33   4
  -7   2  -5 13775.5 2006.04   3
  -5   7   5 16177.8 3000.52   6
  -7   5   5 10791.5 2014.63   6
   5  -7  -5 13494.3 2230.95   2
  -2   7  -5 12841.6 2123.07   5
  -7   2  -5 12013.6 1719.10   5
   2   5  -5 13403.1 1926.54   5
  -5  -2  -5 12170.8 2111.40   3
   7  -2   5 12297.2 2456.20   1
   2  -7   5 10436.8 1767.03   4
   5  -7  -6 41147.7 4050.01   2
  -2  -5   6 26862.3 3327.11   4
  -5   7   6 45930.3 5030.31   6
  -7   5   6 40278.8 4275.43   6
  -7   2  -6 39394.8 3702.80   3
  -5  -2  -6 37846.9 3807.20   3
  -2   7  -6 36351.8 3754.37   5
  -7   2  -6 40101.2 3550.47   5
   2   5  -6 37141.2 3508.94   5
   5   2   6 38427.4 5329.92   1
   7  -2   6 36375.0 4644.95   1
   7  -5  -6 37079.8 3763.99   2
   2  -7   6 31886.2 3256.15   4
   2  -7   7-7.91325 579.530   4
   7  -2   7-533.012 577.874   1
  -2  -5   7 954.397 805.674   4
  -7   5   7 323.206 404.420   6
   7  -5  -7 150.865 211.889   2
  -5   7   7-185.129 328.598   6
   5  -7  -7 1160.83 416.835   2
   5   2   7-1423.66 1083.33   1
  -7   2  -7 920.261 539.591   3
  -5  -2  -7 1202.81 787.423   3
  -2   7  -7-535.645 775.094   5
  -7   2  -7-154.373 228.714   5
   2   5  -7 396.320 257.332   5
   7  -6   7 760.516 698.659   4
   6  -7   7-656.319 547.742   4
  -7   1   7 124.903 159.544   4
  -6  -1   7 212.039 136.880   4
  -1  -6  -7 790.874 556.315   2
   1  -7  -7-154.388 465.451   2
  -7   6  -7-342.098 504.088   6
   7  -6   7 1027.77 631.192   1
  -7   6  -7 400.425 468.207   5
  -6   7  -7 1106.33 634.714   5
  -1  -6  -7 540.336 648.529   3
   1  -7  -7 550.869 543.730   3
   7  -1  -7 549.629 484.763   5
  -1  -6  -7 832.970 617.734   5
   1  -7  -7 838.085 766.364   5
   7  -6   6 10775.3 2144.69   4
   6  -7   6 10681.1 2032.81   4
   6   1  -6 12511.8 2373.16   1
   7  -1  -6 14029.6 2422.20   1
  -7   1   6 8952.74 1898.40   4
  -6  -1   6 7264.29 1802.79   4
   1  -7  -6 10736.4 1789.41   2
   7  -6   6 10879.9 2189.28   1
  -6   7  -6 9228.69 1734.96   6
  -7   6  -6 8971.42 1841.22   6
  -7   6  -6 9998.60 2023.84   5
  -6   7  -6 13562.1 2388.24   5
  -1  -6  -6 11161.5 2153.22   3
   1  -7  -6 12313.4 2090.51   3
   7  -1  -6 9209.56 1765.43   5
  -1  -6  -6 9464.62 1626.99   5
  -1  -6  -6 11483.4 1790.08   2
  -7   1   5 14496.3 2226.21   4
   7  -6   5 15033.9 2412.73   1
  -6  -1   5 12078.2 2170.22   4
  -6   7  -5 14344.2 2160.98   6
  -1  -6  -5 21058.7 2971.04   3
  -7   6  -5 12400.8 1996.26   6
   1  -7  -5 16937.5 2452.50   3
  -7   6  -5 19061.5 2743.79   5
  -6   7  -5 19997.5 2766.33   5
   7  -1  -5 15041.9 2098.39   5
  -1  -6  -5 14230.4 1851.26   5
   7  -6   5 17246.2 2372.91   4
   6  -7   5 17608.5 2387.78   4
  -1  -6  -5 17567.5 2032.46   2
   6   1  -5 21119.0 2876.47   1
   7  -1  -5 19878.2 2745.25   1
   1  -7  -5 16318.7 2136.44   2
   6   1  -4 38887.0 3881.54   1
   7  -6   4 34083.7 3271.14   1
   1  -7  -4 34859.9 3000.07   2
   7  -1  -4 36246.6 3719.53   1
  -7   1   4 28452.5 2993.60   4
  -6  -1   4 24577.6 2951.33   4
  -1   7   4 38541.6 4356.64   6
  -7   1   4 33287.4 2627.12   6
  -6   7  -4 30057.5 3057.40   6
   1   6   4 39393.7 2925.66   1
  -7   6  -4 26822.0 2954.25   6
  -1  -6  -4 34616.8 3654.00   3
  -7   6  -4 40151.1 3768.37   5
  -6   7  -4 39305.4 3816.79   5
   1  -7  -4 34934.5 3528.91   3
   7  -1  -4 34007.2 2916.00   5
   7  -6   4 34505.8 3051.80   4
   6  -7   4 33871.4 2928.04   4
  -1  -6  -4 34626.0 2709.76   2
   7  -6   3 456.675 318.296   1
   1   6   3 818.969 318.865   1
   7  -6   3 1104.80 533.334   4
   6  -7   3 1297.97 446.057   4
  -7   1   3 875.040 444.906   4
  -6  -1   3 783.252 386.848   4
   7  -1  -3 1474.88 448.856   2
  -1   7   3 359.638 634.105   6
  -1  -6  -3 1135.01 499.484   2
  -6   7  -3 1577.14 760.275   6
  -7   6  -3 801.037 550.864   6
  -6  -1   3 1026.78 474.546   6
   1  -7  -3 281.324 190.053   2
   6   1  -3 1188.95 798.711   1
  -7   1   3-297.589 338.075   6
  -6  -1   3 1589.55 576.531   3
   7  -1  -3 517.793 389.470   1
  -1  -6  -3 911.118 846.208   3
   6  -7   3 908.206 522.787   1
   6  -7   3 1274.36 715.045   2
   7  -1  -3 1057.14 397.846   5
   1  -7  -3 1255.45 636.441   3
   7  -6   3 392.722 293.469   2
  -1  -6  -2 7730.52 1080.73   2
   6  -7   2 6905.08 1091.77   1
   1   6   2 7010.42 1087.30   1
   7  -6   2 7071.15 1281.31   1
  -1   7   2 9099.94 1991.01   6
  -6   7  -2 8655.28 1633.50   6
  -7   6  -2 5486.51 1228.31   6
  -7   1   2 6232.96 1185.77   6
   1  -7  -2 8229.79 1310.24   2
  -7   1   2 6820.36 1232.29   3
  -6  -1   2 6692.13 1117.46   3
   6   1  -2 7251.64 1674.84   1
   7  -1  -2 7120.67 1609.28   1
   6  -7   2 7500.66 1666.60   2
   7  -6   2 6687.86 1567.27   2
  -1  -6  -2 8181.53 1637.14   3
   1  -7  -2 4988.24 1169.83   3
   6  -7   2 6771.33 924.365   4
   7  -1  -2 7603.50 853.540   2
  -1  -6  -1 26693.8 1899.60   2
   1   6   1 22527.9 1959.70   1
   1  -7  -1 26544.2 2296.58   2
   6   1  -1 22857.8 2918.13   1
   7  -1  -1 24457.8 3046.38   1
   7  -6   1 24940.9 2843.46   2
   6  -7   1 27907.1 3034.73   2
  -1   7   1 26511.8 3305.03   6
  -7   1   1 25074.8 2381.26   3
  -6  -1   1 23376.3 2195.66   3
  -6   7  -1 23631.1 2742.29   6
  -7   6  -1 19737.5 2389.28   6
  -7   1   1 21869.8 2285.03   6
  -1  -6  -1 23486.6 2570.59   3
   1  -7  -1 25018.4 2595.82   3
   7  -6   1 26431.8 2371.64   1
   6  -7   1 27950.2 1920.43   1
   7  -1  -1 21480.9 1276.99   2
   1   6   0 86573.5 4043.03   1
   7  -1   0 76805.4 2589.44   2
   1  -7   0 79609.4 3532.10   4
  -1  -6   0 96181.1 3682.02   2
   1  -7   0 86776.6 4264.69   2
   7  -6   0 80741.3 5147.06   2
   6  -7   0 91160.6 5421.69   2
  -1   7   0 85876.3 5953.28   6
   6   1   0 81900.2 5740.37   1
  -7   1   0 90467.5 4700.56   3
   7  -1   0 82636.8 5893.30   1
  -6  -1   0 84887.8 4525.68   3
  -6   7   0 90986.6 5481.23   6
  -7   6   0 78639.0 4976.44   6
   6  -7   0 96594.4 3197.60   1
   7  -6   0 96073.4 4336.77   1
  -1  -6   0 84689.0 4624.25   3
   1  -7   0 80072.8 4578.81   3
   1  -7   1 1016.11 402.587   4
  -1  -6   1 750.932 261.002   4
   1   6  -1 1387.22 494.861   1
   6   1   1 626.718 284.366   1
   7  -1   1 922.226 652.248   1
  -1   7  -1 361.426 405.381   6
  -6   7   1 39.4039 252.139   6
  -7   6   1 855.136 363.545   6
   6  -7  -1 851.191 184.978   1
   7  -1   1 1201.04 330.825   2
   7  -6  -1 536.950 353.458   2
   6  -7  -1 935.757 529.037   2
  -7   1  -1 1775.54 726.105   3
  -1  -6   1 1098.02 407.124   2
  -6  -1  -1 942.193 565.904   3
   1  -7   1 674.650 359.836   2
  -1  -6   1 967.253 493.802   3
   1  -7   1 2231.78 728.950   3
   7  -6  -1 898.050 379.888   1
   1   6  -2 211.240 304.441   1
   1  -7   2 315.968 255.499   4
  -1  -6   2 586.868 436.545   4
  -1   7  -2 1038.37 631.996   6
  -6   7   2 1128.98 675.510   6
   6   1   2 583.042 754.001   1
  -7   6   2 1218.15 638.229   6
   7  -6  -2 1089.33 643.486   2
   6  -7  -2-33.2136 389.471   2
   7  -1   2 838.449 922.264   1
   7  -6  -2 597.514 302.906   1
  -7   1  -2 265.354 369.075   3
  -6  -1  -2 588.272 392.983   3
  -1  -6   2 301.492 334.486   2
   7  -1   2 662.355 455.732   2
   1  -7   2 848.018 265.347   2
  -1  -6   2 155.765 151.309   3
   1  -7   2 585.450 375.553   3
   1  -7   3 5000.79 1077.47   4
  -1  -6   3 4502.53 1051.87   4
   7  -6  -3 5104.15 826.459   1
  -1   7  -3 4595.64 1085.78   6
  -6   7   3 4081.40 1179.06   6
  -7   6   3 5876.94 1505.80   6
   7  -6  -3 5534.46 1282.31   2
   6  -7  -3 4462.48 1236.98   2
  -7   1  -3 6324.92 1257.51   3
  -6  -1  -3 5223.15 1191.99   3
   6   1   3 6290.04 1824.26   1
  -1   7  -3 6390.68 1382.24   5
   1   6  -3 6306.75 1298.90   5
  -1  -6   3 4833.57 719.151   3
  -1  -6   3 7133.15 1248.47   2
   1  -7   3 5969.45 1305.59   2
   1  -7   3 5173.03 891.271   3
   7  -1   3 5036.80 1698.65   1
   1  -7   4 71215.3 4434.86   4
  -1  -6   4 79170.8 4897.53   4
   7  -6  -4 94791.6 5909.04   2
   6  -7  -4 93290.7 5908.26   2
  -6   7   4 82501.5 6184.04   6
  -7   6   4 80163.8 5688.50   6
  -7   1  -4 94779.5 5453.28   3
  -6  -1  -4 91133.4 5571.66   3
  -7   1  -4 82746.0 3875.19   5
  -1   7  -4 88133.3 5431.02   5
   1   6  -4 85298.4 5025.60   5
   6   1   4 82285.4 7211.07   1
   7  -1   4 85646.0 6862.66   1
   6   1   5 11021.1 2668.85   1
   1  -7   5 6499.20 1415.91   4
  -1  -6   5 8707.87 1613.70   4
   7  -1   5 8976.96 2347.70   1
  -7   6   5 8712.32 1909.28   6
  -6   7   5 9554.88 2227.10   6
   7  -6  -5 10133.2 1987.45   2
   6  -7  -5 10521.3 2015.88   2
  -7   1  -5 10558.1 1857.97   3
  -6  -1  -5 10884.1 1936.49   3
  -1   7  -5 10302.1 1912.88   5
   1   6  -5 9263.28 1699.61   5
   1  -7   6 1389.49 756.035   4
  -1  -6   6 294.553 109.665   4
   6   1   6 1941.98 1152.17   1
  -6   7   6-710.036 797.257   6
  -7   6   6 477.291 613.613   6
   7  -6  -6 545.842 603.399   2
   6  -7  -6-451.511 709.872   2
   7  -1   6-134.118 475.143   1
  -7   1  -6 1042.87 639.827   3
  -6  -1  -6-19.4070 158.098   3
  -1   7  -6-444.892 301.498   5
   1   6  -6-198.522 517.708   5
   1  -7   7 721.905 444.742   4
  -1  -6   7-207.629 215.775   4
  -6   7   7 926.740 976.506   6
   7  -6  -7 379.932 157.808   2
  -7   6   7-617.291 926.203   6
   6  -7  -7-531.313 447.392   2
   6   1   7 231.751 240.752   1
  -7   1  -7 398.663 353.075   3
  -6  -1  -7-35.4855 347.152   3
  -1   7  -7 383.229 541.481   5
   1   6  -7 679.382 701.903   5
   7  -1   7-139.398 540.881   1
   7  -7   6 609.794 327.630   4
   7   0  -6 3185.43 1372.55   1
  -7   0   6 908.322 457.823   4
   0  -7  -6 1252.16 598.569   2
  -7   7  -6 1451.88 724.812   6
   7  -7   6 2141.66 954.390   1
  -7   7  -6 2936.33 1164.55   5
   0  -7  -6 2346.57 1185.98   3
   7  -7   5 11806.3 1882.79   4
  -7   0   5 9169.03 1931.97   4
   7   0  -5 11210.7 2222.14   1
   0  -7  -5 8747.77 1509.64   2
  -7   7  -5 6597.56 1424.45   6
  -7   7  -5 12054.4 2256.40   5
   0  -7  -5 11269.9 2089.51   3
   7  -7   5 10067.8 1930.91   1
   0  -7  -4 54211.2 3652.44   2
   7   0  -4 65730.8 5373.62   1
   7  -7   4 55569.7 4066.11   1
  -7   0   4 35202.3 3610.48   4
   7  -7   4 60024.4 5357.77   2
  -7   7  -4 41804.9 3757.35   6
   0  -7  -4 52134.8 4555.40   3
   7  -7   4 56560.5 3777.70   4
   7  -7   3 1298.33 483.184   4
   7  -7   3 1208.68 549.543   1
  -7   0   3 855.545 446.843   4
   0  -7  -3 622.308 312.814   2
  -7   7  -3 1345.47 725.994   6
  -7   0   3 1064.16 515.386   6
   7   0  -3 1388.96 794.484   1
   0  -7  -3 1024.40 467.103   3
   7  -7   3 1918.61 941.905   2
   7  -7   2 593.595 293.426   1
  -7   7  -2 782.649 501.360   6
  -7   0   2 957.304 431.646   6
   0  -7  -2 1637.08 549.427   2
  -7   0   2 2020.38 763.648   3
   7   0  -2 700.766 469.139   1
   7  -7   2 2053.17 1058.48   2
   0  -7  -2 1061.34 535.740   3
   0  -7  -1 10052.1 1313.61   2
  -7   0   1 10996.3 1590.21   3
   0   7   1 8274.10 1774.20   6
  -7   7  -1 10494.4 1814.45   6
   7  -7   1 11313.2 1405.13   1
   7  -7   1 9664.72 1800.88   2
   0  -7  -1 9538.36 1688.48   3
   7   0  -1 8909.65 1934.71   1
   0   7   1 8321.84 1039.26   1
   0  -7   0 54484.3 3169.27   4
   0  -7   0 71788.8 3590.43   2
   7  -7   0 66754.0 4863.69   2
   0   7   0 59995.5 4685.55   6
   7   0   0 63507.1 5435.90   1
  -7   0   0 62148.2 4029.46   3
  -7   7   0 71095.2 4910.69   6
   7  -7   0 73843.0 3328.27   1
   0  -7   0 60658.6 4111.94   3
   0   7   0 73609.1 3526.10   1
   0  -7   1 3142.72 777.729   4
   7   0   1 2914.12 1027.47   1
   0   7  -1 4052.51 1086.09   6
  -7   7   1 4358.10 1164.01   6
   7  -7  -1 4082.48 1059.10   2
  -7   0  -1 5216.34 1169.20   3
   0  -7   1 4535.46 878.794   2
   7  -7  -1 4486.89 664.114   1
   0  -7   1 4083.36 896.211   3
   0  -7   2 3184.82 862.792   4
  -7   7   2 3160.25 1143.38   6
   7   0   2 689.601 216.582   1
   7  -7  -2 2272.11 695.455   2
  -7   0  -2 2925.11 1025.09   3
   0  -7   2 2723.61 745.085   2
   0  -7   2 2942.94 763.464   3
   0  -7   3 3518.36 942.354   4
  -7   7   3 4371.81 1331.80   6
   7  -7  -3 5033.12 1297.47   2
   7   0   3 4707.49 1558.11   1
  -7   0  -3 3422.85 984.614   3
   0  -7   3 5361.43 1218.01   2
   0  -7   4 43680.9 3532.43   4
   7  -7  -4 54526.6 4676.74   2
  -7   7   4 48354.9 4772.10   6
   0  -7   4 61193.1 4552.84   2
  -7   0  -4 52214.2 4207.52   3
   0   7  -4 51106.9 4183.95   5
   7   0   4 49835.7 5690.84   1
   7   0   5 6959.15 2142.91   1
   0  -7   5 5812.76 1356.07   4
  -7   7   5 5004.80 1549.68   6
   7  -7  -5 6588.88 1649.41   2
  -7   0  -5 7700.30 1733.00   3
   0   7  -5 5143.35 1415.41   5
   0  -7   6 1037.84 427.264   4
  -7   7   6 1570.93 849.392   6
   7  -7  -6 1726.27 873.774   2
  -7   0  -6 311.754 186.724   3
   0   7  -6 55.8634 297.361   5
   4   4   0 195767. 8117.74   1
   8  -4   0 179568. 7470.62   2
   4  -8   0 228105. 8541.47   2
  -4   8   0 201692. 10052.8   6
   8  -4   0 215234. 8879.85   1
  -8   4   0 163449. 7390.21   6
  -4  -4   0 185646. 7214.00   3
   4   4  -1 17717.3 2328.97   1
   8  -4  -1 17778.1 2141.96   2
   4  -8  -1 19828.1 2369.56   2
   8  -4   1 17830.3 2298.68   2
   4   4   1 18713.9 2415.47   1
   4  -8   1 22249.5 2588.00   2
   8  -4  -1 18823.3 2426.38   1
  -4   8  -1 16761.4 2728.74   6
  -8   4   1 13131.8 1865.69   6
  -4  -4   1 16625.4 1842.58   3
  -8   4  -1 14544.9 2106.24   6
  -4  -4  -1 17265.4 2155.63   3
   8  -4   1 18994.3 2552.83   1
  -4   8   1 16108.6 2804.32   6
   4  -8   1 16601.6 1359.38   4
   4   4  -2 17582.3 2301.39   1
  -8   4   2 16262.3 1673.45   4
   8  -4  -2 16135.1 2050.29   2
   4  -8  -2 17456.0 2238.49   2
   8  -4  -2 17253.7 2263.18   1
  -8   4  -2 19507.3 2333.03   3
   8  -4   2 18994.5 2479.18   2
  -4   8   2 20602.8 3285.54   6
   4  -8   2 22482.5 2773.28   2
  -4   8  -2 16137.5 2525.81   6
   4   4   2 13784.6 2178.09   1
  -4  -4   2 16839.6 1738.42   3
  -8   4   2 14790.6 1981.34   6
  -8   4  -2 15705.4 2149.70   6
  -4  -4  -2 16579.3 2332.60   3
   8  -4   2 18967.6 2652.10   1
   4  -8   2 16727.5 1632.03   4
   8  -4   3 7865.61 1678.05   1
   4  -8   3 8106.67 1298.93   4
  -8   4   3 8356.56 1221.37   4
  -4  -4   3 6019.92 1308.23   4
  -4  -4   3 8655.48 1122.95   3
   4   4  -3 7896.70 1597.48   1
   4   4   3 8223.77 1825.43   1
  -4   8   3 9254.34 2352.94   6
  -4   8  -3 5957.54 1542.29   6
  -8   4   3 7595.58 1498.98   6
   8  -4  -3 7371.00 1387.80   2
  -8   4  -3 6997.60 1508.27   6
   4  -8  -3 9296.43 1631.15   2
   8  -4  -3 8044.29 1496.14   1
  -8   4  -3 9422.90 1723.52   3
  -4  -4  -3 8224.52 1747.56   3
   4  -8   3 9750.43 2036.22   2
   8  -4   3 7040.38 1613.66   2
   8  -4  -4 67610.4 4725.73   2
   8  -4  -4 87364.0 5117.39   1
  -8   4   4 98799.4 4656.97   4
  -4  -4   4 70734.5 5175.24   4
   4  -8  -4 97321.8 5815.70   2
  -8   4  -4 92501.5 5532.17   3
  -4   8   4 90793.5 7174.09   6
  -4   8  -4 73041.4 5589.98   6
  -8   4   4 84107.2 5142.32   6
   4  -8   4 109556. 7067.29   2
  -8   4  -4 68171.7 5025.99   6
  -4  -4  -4 79064.7 5772.88   3
   4   4   4 92575.5 6716.54   1
  -4   8  -4 88984.7 5999.70   5
   8  -4   4 80005.4 5780.46   1
   4   4  -4 91981.4 5884.16   1
   4  -8   4 83663.0 4788.46   4
   4  -8  -5 62043.8 4773.12   2
  -4  -4   5 43420.7 4267.96   4
  -4   8   5 60754.3 6059.68   6
  -8   4  -5 57136.2 4513.24   3
  -8   4   5 55111.0 4428.21   6
  -8   4  -5 49568.2 4487.40   6
  -4  -4  -5 52105.2 4899.03   3
  -8   4  -5 59934.1 4519.23   5
  -4   8  -5 57892.8 4851.84   5
   4   4   5 63597.7 6080.16   1
   8  -4   5 59246.3 5193.28   1
   4   4  -5 61811.9 5118.82   1
   8  -4  -5 55432.1 4076.39   1
   4  -8   5 52296.3 4082.89   4
   8  -4  -5 55648.2 4355.52   2
   8  -4   6 2818.11 1178.64   1
   4  -8   6 1629.79 696.780   4
  -4  -4   6 1102.10 586.577   4
   8  -4  -6 1672.01 787.424   2
  -4   8   6 4149.02 1703.76   6
   4  -8  -6 3949.86 1238.31   2
  -8   4  -6 2780.27 1135.25   6
  -8   4  -6 2456.66 996.191   3
  -4  -4  -6 1961.65 883.417   3
  -8   4  -6 1996.26 772.314   5
  -4   8  -6 3075.69 1110.44   5
   4  -8  -6 2029.17 957.351   3
   4   4   6 2338.18 1217.02   1
  -5  -3   6 13951.3 2552.79   4
  -8   5  -6 24174.3 3030.75   3
  -3   8   6 26861.9 4078.70   6
  -8   5  -6 16410.7 2557.20   6
  -3  -5  -6 21639.0 3232.00   3
  -8   5  -6 24595.5 3222.65   5
  -5   8  -6 23636.8 3187.01   5
   3  -8  -6 17949.9 2694.91   3
   3   5   6 27340.7 3700.09   1
   8  -3  -6 18037.5 2791.54   5
   8  -3  -6 21538.2 2798.16   1
   8  -3  -6 22677.2 2750.99   2
   5  -8   6 22798.5 2880.13   4
   8  -5   6 24085.8 3475.41   1
   3  -8  -6 24823.3 3093.81   2
   3  -8  -5 25695.8 3008.02   2
  -8   3   5 24069.9 2604.78   4
  -5  -3   5 18899.8 2868.14   4
  -8   5  -5 23452.8 2879.91   3
  -3   8   5 28761.7 4121.68   6
  -8   3   5 20967.2 2531.24   6
  -5   8  -5 23428.2 2892.55   6
  -8   5  -5 17340.2 2612.15   6
  -3  -5  -5 26009.8 3402.61   3
   3   5   5 24133.2 3285.69   1
  -8   5  -5 25799.5 3103.42   5
  -5   8  -5 25198.0 3255.65   5
   3  -8  -5 19249.6 2646.24   3
   5   3  -5 24142.4 3260.59   1
   8  -5   5 21453.3 3035.64   1
   5  -8   5 24856.9 2781.78   4
   8  -3  -5 23189.9 2667.95   2
   8  -3  -5 24164.1 2879.42   1
   8  -3  -4 13256.1 2155.52   1
  -8   3   4 14814.4 1909.31   4
   3  -8  -4 14295.9 2075.84   2
  -5  -3   4 10360.1 1982.88   4
  -8   5  -4 15510.0 2272.69   3
   5   3  -4 13060.7 2326.54   1
  -8   3   4 12202.3 1812.23   6
   3   5   4 12647.7 2134.98   1
  -3   8   4 14594.2 2892.63   6
  -5   8  -4 12545.4 2155.17   6
  -8   5  -4 10350.4 1910.08   6
  -5   8  -4 12926.1 2243.57   5
   8  -5   4 14203.4 2247.31   1
  -3  -5  -4 13643.1 2385.64   3
   5  -8   4 14060.5 2526.88   2
   3  -8  -4 12507.9 2092.48   3
   5  -8   4 11520.3 1656.64   4
   8  -3  -4 12819.9 1845.52   2
   5  -8   3 4526.51 927.740   4
   3   5   3 5219.34 1283.51   1
  -8   3   3 4139.31 986.296   4
   8  -5   3 3698.80 962.091   1
  -5  -3   3 3685.31 1144.04   4
   5   3  -3 4576.21 1266.01   1
  -3   8   3 4129.67 1595.15   6
   8  -3  -3 3832.04 886.139   2
  -5   8  -3 5422.94 1467.83   6
  -8   3   3 3053.86 857.789   6
  -8   5  -3 3860.66 1128.47   6
   3  -8  -3 3897.65 1044.30   2
   8  -3  -3 3658.09 947.213   1
  -5  -3   3 3719.82 799.117   3
  -3  -5  -3 3895.00 1141.92   3
   5  -8   3 4412.22 1271.01   2
   8  -5   3 3229.11 1076.08   2
   8  -3  -2 12191.7 1625.33   2
   5   3  -2 13424.3 2153.06   1
   5  -8   2 17005.3 1496.15   1
   3  -8  -2 15234.2 2029.45   2
   3   5   2 13156.0 1934.00   1
   5  -8   2 15168.5 2399.26   2
  -5   8  -2 15654.0 2468.59   6
  -5  -3   2 13051.9 1553.20   3
  -8   3   2 10371.2 1635.32   6
  -3   8   2 13561.5 2625.85   6
  -3  -5  -2 14211.3 2140.42   3
  -8   5  -2 9761.90 1756.33   6
   8  -5   2 14515.2 2159.19   1
   8  -5   2 13273.1 2164.63   2
   8  -3  -2 12121.3 2042.27   1
   5  -8   2 13268.9 1323.02   4
   8  -3  -1 37449.2 2779.53   2
   5   3  -1 37788.0 3584.82   1
   3  -8  -1 44343.9 3394.72   2
   3   5   1 37940.7 3202.78   1
   8  -5   1 39823.8 3629.93   2
   8  -3  -1 40098.4 3823.58   1
   5  -8   1 42374.5 3764.17   2
  -3   8   1 44706.9 4879.06   6
  -5   8  -1 45213.4 4397.28   6
  -5  -3   1 35523.4 2778.75   3
  -8   5  -1 27369.6 2892.56   6
  -8   3   1 32090.8 3007.29   6
  -3  -5  -1 37287.6 3351.23   3
   8  -5   1 44602.3 3704.60   1
   3  -8   0 55672.9 2538.13   4
   3   5   0 54632.5 3840.03   1
   8  -3   0 49677.9 3366.20   2
   8  -5   0 51167.4 4058.73   2
   3  -8   0 61936.3 4096.04   2
   5   3   0 55208.4 4482.22   1
   5  -8   0 62624.9 4412.57   2
  -8   3   0 61266.9 4118.77   3
  -3   8   0 63017.1 5749.35   6
  -5   8   0 55462.6 4921.99   6
   8  -3   0 59350.9 4861.36   1
  -8   5   0 48710.2 3744.13   6
   8  -5   0 58051.9 4088.73   1
  -5  -3   0 53001.6 3654.05   3
  -8   3   0 46002.9 3633.11   6
  -3  -5   0 50864.2 3650.10   3
   8  -5  -1 186.799 236.992   1
   5   3   1 984.828 696.060   1
   3  -8   1 377.028 247.117   4
   8  -3   1-675.793 688.021   1
  -3   8  -1 954.963 254.933   6
  -5   8   1 623.799 630.663   6
   3   5  -1 1122.88 492.674   1
  -8   5   1 399.161 530.013   6
  -8   3  -1 484.435 113.956   6
   8  -5  -1 581.648 259.828   2
  -8   3  -1 774.412 301.667   3
   5  -8  -1 1257.00 686.547   2
   8  -3   1 541.465 530.850   2
  -5  -3  -1 385.824 380.856   3
   3  -8   1 621.891 355.579   2
  -3  -5   1 798.212 403.270   3
   3  -8   2 317.100 227.761   4
  -8   5   2 413.723 251.495   4
   5   3   2 343.396 536.395   1
  -3  -5   2 290.558 76.6600   4
   3   5  -2 1112.31 530.661   1
  -3   8  -2 793.990 465.530   6
  -5   8   2 433.177 388.466   6
  -8   5   2 447.183 211.306   6
  -8   3  -2 433.684 559.255   6
   8  -5  -2-134.702 357.828   2
   5  -8  -2 767.890 502.636   2
  -8   3  -2 309.130 194.281   3
   8  -3   2 306.509 202.348   1
  -3  -5   2 370.245 214.665   3
  -5  -3  -2 1177.47 670.601   3
   8  -5  -2 341.552 127.015   1
   8  -3   2 63.2110 123.214   2
   3  -8   2 852.496 692.351   2
   8  -3   3 12416.6 2258.99   1
   8  -5  -3 11920.7 1678.25   1
   8  -5  -3 12239.7 2019.57   2
  -3  -5   3 11250.6 1793.10   4
   3   5  -3 12666.5 1988.36   1
  -8   3  -3 14958.5 2063.58   3
   8  -3   3 12401.6 2018.66   2
   5   3   3 15029.0 2679.04   1
  -5   8   3 13632.5 2656.51   6
  -3   8  -3 14410.0 2492.23   6
  -8   5   3 12702.3 1878.94   6
   5  -8  -3 11751.0 1972.83   2
  -5  -3  -3 12452.1 2041.32   3
   3  -8   3 16201.5 2454.92   2
   3  -8   3 10882.5 1511.12   4
   8  -5  -4 67542.3 4924.90   2
  -3  -5   4 57715.8 4519.64   4
   5  -8  -4 73730.1 5315.38   2
  -8   3  -4 74163.3 4966.27   3
  -5   8   4 72838.5 6522.54   6
  -3   8  -4 72381.7 5533.44   6
  -8   5   4 67010.0 4887.36   6
   3  -8   4 84966.2 6115.20   2
  -5  -3  -4 71890.0 5338.23   3
   5   3   4 73666.0 6648.49   1
  -3   8  -4 73481.2 5389.37   5
   8  -3   4 68713.7 5690.39   1
   3   5  -4 70677.6 5115.80   1
   8  -5  -4 68378.6 4081.07   1
   3  -8   4 58797.3 3981.52   4
   3  -8   5 2867.72 939.332   4
   8  -5  -5 4829.30 1079.73   1
  -3  -5   5 3611.63 1100.08   4
  -5   8   5 4555.84 1664.82   6
   8  -5  -5 4715.09 1354.56   2
  -8   5   5 4787.21 1379.87   6
   5  -8  -5 3998.28 1101.91   2
   8  -3   5 4326.27 1514.52   1
  -8   3  -5 3476.69 1059.65   3
  -5  -3  -5 5641.27 1651.07   3
  -8   3  -5 5315.65 1250.77   5
  -3   8  -5 4241.41 1210.61   5
   5   3   5 5041.90 1923.75   1
   3  -8   6 414.188 228.530   4
  -3  -5   6-722.181 499.779   4
  -5   8   6 816.091 681.284   6
   8  -5  -6 722.852 689.226   2
  -8   5   6-787.846 768.239   6
   5  -8  -6 869.780 624.083   2
  -8   3  -6-16.7518 521.871   3
  -5  -3  -6 429.875 356.049   3
  -8   3  -6 541.963 381.123   5
  -3   8  -6-886.383 697.379   5
   8  -3   6-1166.42 938.032   1
   5   3   6-955.277 960.888   1
  -8   2   6 67684.5 5010.30   4
  -6  -2   6 46306.4 4858.48   4
  -8   6  -6 50249.1 4680.06   6
  -2  -6  -6 71283.0 5820.38   3
  -8   6  -6 73371.9 5844.87   5
  -6   8  -6 72093.2 5867.30   5
   2  -8  -6 60325.9 5057.90   3
   8  -6   6 74941.5 5773.08   4
   6   2  -6 80452.3 6515.40   1
   8  -2  -6 73536.1 5793.67   1
   6  -8   6 67790.7 5176.84   4
   2  -8  -6 67233.6 4939.64   2
   8  -6   6 62632.9 5570.73   1
   8  -6   5 5761.37 1417.99   4
   6  -8   5 6056.38 1287.38   4
  -8   2   5 4285.57 1188.86   4
  -6  -2   5 4351.92 1519.99   4
   8  -6   5 4192.38 1300.49   1
   6   2  -5 6416.66 1722.42   1
   8  -2  -5 6007.57 1583.49   1
  -2   8   5 6074.45 2014.10   6
   2  -8  -5 5883.64 1377.99   2
  -6   8  -5 6572.40 1563.16   6
  -8   6  -5 4437.91 1311.27   6
  -8   6  -5 7541.94 1858.69   5
  -6   8  -5 6231.37 1588.67   5
  -2  -6  -5 10587.6 2165.77   3
   8  -2  -5 5382.93 1367.09   5
   2  -8  -5 5608.57 1499.44   3
   6  -8   4 7409.72 1304.30   4
   2   6   4 7852.62 1504.03   1
  -8   2   4 5774.95 1278.84   4
  -6  -2   4 5325.23 1426.81   4
   6   2  -4 8011.23 1870.92   1
  -2  -6  -4 5669.09 1046.10   2
  -2   8   4 6818.86 1956.36   6
   8  -2  -4 6588.13 1593.05   1
  -6   8  -4 6225.82 1437.24   6
  -8   2   4 5006.53 1081.05   6
   2  -8  -4 7121.33 1414.95   2
  -8   6  -4 4059.55 1082.40   6
  -2  -6  -4 7089.54 1703.56   3
   8  -2  -4 6631.72 1435.77   5
   6  -8   4 8304.18 2096.64   2
   2  -8  -4 5760.10 1481.45   3
   8  -6   4 6688.86 1804.93   2
   8  -6   4 6686.72 1560.35   1
   2   6   3 2587.64 786.397   1
  -8   2   3 3347.38 950.882   4
  -6  -2   3 2302.32 959.514   4
   8  -6   3 3082.31 1030.56   1
  -2  -6  -3 4634.32 933.222   2
  -2   8   3 3672.91 1339.63   6
   6   2  -3 3800.26 1245.16   1
  -6   8  -3 4004.96 1246.67   6
  -8   2   3 3036.68 860.378   6
  -8   6  -3 2058.60 813.955   6
   2  -8  -3 3815.27 1028.87   2
  -6  -2   3 3357.21 835.732   3
   8  -2  -3 3815.54 1255.77   1
  -2  -6  -3 3464.44 1091.14   3
   6  -8   3 3545.45 865.355   1
   6  -8   3 4490.16 1527.57   2
   8  -6   3 2738.03 1096.98   2
   2  -8  -3 4551.46 1237.23   3
   6   2  -2 117046. 6896.66   1
   2  -8  -2 121495. 5642.49   2
   8  -2  -2 110533. 6884.08   1
   2   6   2 112855. 5383.08   1
  -2   8   2 118983. 8135.69   6
   8  -6   2 111648. 6784.17   2
   6  -8   2 128954. 7275.20   2
  -6  -2   2 104140. 4990.26   3
  -6   8  -2 118625. 6662.85   6
  -8   6  -2 84328.0 5325.78   6
  -8   2   2 86584.5 5030.53   6
  -2  -6  -2 105492. 6207.34   3
   2  -8  -2 99989.6 5835.98   3
   8  -6   2 111634. 5853.57   1
   6  -8   2 127919. 4662.36   1
  -2  -6  -2 110565. 4239.96   2
  -2  -6  -1 92005.2 3543.17   2
   2  -8  -1 88001.6 3405.07   4
   2   6   1 85375.3 4560.61   1
   2  -8  -1 99408.5 4992.42   2
   6   2  -1 86810.4 5974.36   1
   8  -2  -1 88383.4 6295.79   1
   8  -6   1 85230.4 5642.20   2
   6  -8   1 98314.2 6041.91   2
  -8   2   1 91245.0 5086.28   3
  -2   8   1 99348.9 7239.82   6
  -6  -2   1 82458.6 4536.45   3
  -6   8  -1 105213. 6376.42   6
  -8   6  -1 75594.2 5014.55   6
  -8   2   1 72040.8 4563.35   6
  -2  -6  -1 88629.2 5323.92   3
   8  -6   1 98755.8 5245.28   1
   2  -8  -1 83674.9 5084.82   3
   8  -2   0 611.670 666.513   1
   2  -8   0-24.8856 187.980   4
   8  -6   0 670.296 404.461   1
  -2   8   0 463.874 561.025   6
  -6   8   0 446.929 383.826   6
   2   6   0 767.280 440.008   1
  -8   6   0-7.83767 349.256   6
  -8   2   0 444.568 405.851   6
  -2  -6   0 255.758 196.779   2
  -8   2   0 501.144 290.084   3
   2  -8   0 255.342 217.555   2
   8  -6   0 689.029 530.850   2
  -6  -2   0 945.624 550.032   3
   6  -8   0 294.276 622.493   2
  -2  -6   0 950.239 423.832   3
   6   2   0 144.264 350.119   1
   2  -8   1 46516.3 2784.86   4
  -2  -6   1 34254.6 2865.79   4
   8  -6  -1 43005.3 3842.81   2
   6  -8  -1 48209.2 4002.76   2
   2  -8   1 50944.6 3666.66   2
   8  -6  -1 49165.6 3278.12   1
  -2   8  -1 48469.5 4815.40   6
  -8   2  -1 51739.4 3816.98   3
   6   2   1 43469.6 4457.22   1
  -6   8   1 55172.7 4884.20   6
  -8   6   1 45930.6 3884.49   6
  -6  -2  -1 45232.7 3647.43   3
  -8   2  -1 38629.6 3481.70   6
   8  -2   1 43802.9 4549.56   1
  -2  -6   1 42874.9 3132.32   3
   2   6  -1 46962.7 3452.36   1
   2  -8   2 22244.1 2081.29   4
  -2  -6   2 19391.7 2229.89   4
   8  -6  -2 22877.6 2082.07   1
   8  -6  -2 22450.0 2739.81   2
   6  -8  -2 25484.6 2977.52   2
   2  -8   2 32622.4 3119.62   2
  -2   8  -2 26029.5 3372.34   6
  -8   2  -2 22929.7 2623.81   3
  -6   8   2 23420.8 3237.90   6
  -8   6   2 24635.6 2883.54   6
  -6  -2  -2 25740.8 2908.19   3
   6   2   2 23327.4 3481.39   1
  -2  -6   2 21851.9 1987.29   3
   8  -2   2 21152.8 3228.70   1
   2   6  -2 24878.2 2601.64   1
   2  -8   3 91012.5 4651.51   4
   8  -6  -3 98812.4 4432.32   1
  -2  -6   3 84923.9 5197.40   4
   8  -6  -3 99439.6 6099.64   2
   6  -8  -3 101588. 6201.66   2
  -2   8  -3 98830.5 6242.52   6
  -8   2  -3 104856. 5836.32   3
  -6   8   3 93391.9 7010.22   6
   2  -8   3 123189. 6715.96   2
  -8   6   3 105266. 6198.96   6
  -6  -2  -3 103930. 6221.62   3
   6   2   3 98765.4 7822.89   1
   2  -8   3 97613.6 4543.45   3
   8  -2   3 104595. 7453.79   1
   2   6  -3 100135. 5747.36   1
   2  -8   4 34769.4 3007.99   4
  -2  -6   4 38240.9 3491.75   4
   8  -6  -4 43051.8 4070.95   2
   6  -8  -4 47708.4 4302.53   2
  -6   8   4 43291.9 5004.81   6
  -8   2  -4 48344.3 4023.05   3
  -8   6   4 48802.7 4463.27   6
   2  -8   4 58316.6 4978.90   2
  -6  -2  -4 41085.7 4065.62   3
  -2   8  -4 45401.6 4213.56   5
   6   2   4 48214.1 5840.36   1
   8  -2   4 44380.8 4892.54   1
   8  -6  -4 42555.2 2870.76   1
   2  -8   5 9502.14 1723.37   4
   8  -2   5 13058.0 2660.86   1
  -2  -6   5 12247.8 2139.64   4
  -8   2  -5 15813.7 2360.76   3
  -6   8   5 16419.8 3120.07   6
  -8   6   5 11084.5 2204.51   6
   8  -6  -5 14106.0 2456.92   2
   6  -8  -5 13293.4 2305.97   2
  -6  -2  -5 13342.9 2362.67   3
  -2   8  -5 12940.8 2305.64   5
   6   2   5 13058.8 3060.67   1
   6   2   6-21.9027 451.340   1
   2  -8   6-611.044 429.338   4
  -2  -6   6 1386.45 881.311   4
  -6   8   6 1823.30 1065.21   6
   8  -6  -6 2489.35 957.772   2
  -8   6   6 985.594 706.267   6
   8  -2   6 858.618 1034.53   1
   6  -8  -6 1542.90 823.468   2
  -8   2  -6 625.211 531.622   3
  -6  -2  -6 2502.00 1112.44   3
  -2   8  -6-649.741 797.695   5
   8  -7   6 19056.8 2999.01   1
  -8   1   6 16960.1 2647.95   4
   7  -8   6 19556.7 2886.18   1
  -7  -1   6 14618.1 2698.86   4
  -7   8  -6 17462.0 2583.42   6
  -8   7  -6 13363.0 2294.22   6
   1  -8  -6 18759.4 2865.44   3
  -8   7  -6 21917.0 3216.20   5
  -7   8  -6 25544.2 3467.50   5
  -1  -7  -6 18659.5 2976.07   3
   8  -7   6 21186.3 2924.91   4
   7   1  -6 23882.1 3588.57   1
   8  -1  -6 20815.5 3248.53   1
   1  -8  -6 17580.5 2323.61   2
   7  -8   5 712.055 432.338   1
   8  -7   5 464.169 205.715   4
  -8   1   5-934.287 622.213   4
  -7  -1   5 39.6599 228.998   4
   7   1  -5 662.727 915.824   1
   8  -1  -5-373.203 821.822   1
   8  -7   5 861.008 620.142   1
  -1  -7  -5 21.5899 210.532   2
   1  -8  -5 509.495 395.100   2
  -7   8  -5 280.209 267.911   6
  -8   7  -5-95.4726 328.979   6
  -7   8  -5 1411.10 847.758   5
  -1  -7  -5 179.606 463.515   3
   1  -8  -5-204.219 603.619   3
   7  -8   5 2765.87 1423.42   2
   8  -7   5 1465.86 975.276   2
  -8   1   4 1055.20 684.906   4
  -7  -1   4 562.999 461.047   4
   7   1  -4 1552.10 848.506   1
  -1  -7  -4 1538.01 639.454   2
   8  -1  -4 1993.13 946.123   1
   1  -8  -4 980.790 365.464   2
  -7   8  -4 1779.89 813.196   6
  -8   7  -4 1304.91 714.756   6
  -1  -7  -4 1864.62 885.834   3
   1  -8  -4 1456.56 702.696   3
   7  -8   4 1725.05 1006.62   2
   8  -7   4 1770.00 956.798   2
   7  -8   4 1538.81 707.934   1
   8  -7   4 2475.11 942.147   1
   7  -8   3 7579.44 1314.69   1
  -8   1   3 4890.44 1228.69   4
  -7  -1   3 4502.85 1292.75   4
  -1   8   3 6876.27 1902.62   6
  -1  -7  -3 6561.71 1134.05   2
  -7   8  -3 6863.12 1628.41   6
   8  -7   3 6649.19 1409.00   1
  -8   7  -3 4833.80 1283.86   6
  -8   1   3 5836.94 1168.69   6
   1  -8  -3 7779.43 1343.70   2
   7   1  -3 6882.65 1665.40   1
  -7  -1   3 5272.95 1061.25   3
   8  -1  -3 7375.19 1808.55   1
  -1  -7  -3 8525.88 1868.04   3
   7  -8   3 8402.00 1891.76   2
   8  -7   3 7448.18 1875.75   2
   1  -8  -3 7625.70 1657.16   3
  -1  -7  -2 58341.7 3274.62   2
   1  -8  -2 60004.6 3764.82   2
   7   1  -2 55521.7 4930.82   1
   8  -1  -2 54168.8 5060.66   1
  -1   8   2 60579.5 5684.35   6
  -7  -1   2 54386.2 3714.20   3
   8  -7   2 59107.6 4984.78   2
   7  -8   2 65518.4 5216.71   2
  -7   8  -2 54983.8 4615.00   6
  -8   7  -2 44863.4 3936.96   6
  -8   1   2 43933.7 3497.84   6
  -7  -1   2 49169.3 3544.30   6
  -1  -7  -2 52985.8 4466.57   3
   1  -8  -2 49704.0 4246.58   3
   8  -7   2 56846.3 3836.14   1
   7  -8   2 62854.6 3409.62   1
   1   7   1 8907.83 1275.98   1
  -1  -7  -1 9283.50 1190.67   2
   1  -8  -1 8419.03 1107.15   4
   1  -8  -1 10807.2 1480.12   2
  -1   8   1 8759.65 2109.62   6
  -7   8  -1 9363.50 1854.40   6
  -8   7  -1 7667.43 1608.51   6
   8  -7   1 9933.68 1501.42   1
  -8   1   1 6745.77 1360.75   6
  -8   1   1 8986.91 1565.61   3
  -7  -1   1 9237.49 1507.90   3
   8  -7   1 9868.07 1976.04   2
   7  -8   1 10500.1 1918.48   2
  -1  -7  -1 7731.10 1531.99   3
   7   1  -1 9489.48 1971.86   1
   1  -8  -1 9552.39 1768.89   3
   8  -1  -1 8675.98 2154.26   1
   8  -1   0 552.686 591.575   1
   8  -7   0 526.808 421.463   1
   1  -8   0 1121.87 393.545   4
   1   7   0 444.883 278.687   1
  -1   8   0 403.767 178.256   6
  -7   8   0 1590.52 906.214   6
  -8   7   0 208.055 239.194   6
  -8   1   0 955.305 564.342   6
  -1  -7   0 908.223 394.017   2
   1  -8   0 487.505 383.543   2
  -8   1   0-51.0609 335.991   3
  -7  -1   0 1041.34 620.476   3
   8  -7   0 18.1283 244.650   2
   7  -8   0 1269.23 689.597   2
  -1  -7   0 413.852 280.884   3
   1  -8   0 137.196 250.815   3
   7   1   0 526.331 640.796   1
   7   1   1 516.477 715.233   1
   1   7  -1 608.480 373.731   1
   1  -8   1 416.184 199.780   4
  -1  -7   1 415.785 322.841   4
   8  -1   1-42.8971 607.485   1
  -1   8  -1-157.776 445.444   6
  -7   8   1 187.061 402.257   6
  -8   7   1-131.511 246.194   6
   8  -7  -1-306.360 259.692   2
  -1  -7   1 638.660 405.764   2
   7  -8  -1 789.134 496.596   2
  -8   1  -1 835.067 498.041   3
  -7  -1  -1 533.453 483.222   3
   1  -8   1 802.324 523.780   2
  -1  -7   1 769.216 455.034   3
   8  -7  -1 189.231 216.196   1
   1  -8   1 430.144 463.831   3
   1  -8   2 50567.9 3372.69   4
  -1  -7   2 45182.8 3403.11   4
   8  -7  -2 46849.3 4189.77   2
   7  -8  -2 52327.7 4440.35   2
  -1  -7   2 53619.0 3073.98   2
   1  -8   2 55967.0 3906.04   2
  -1   8  -2 43534.3 3976.61   6
  -8   1  -2 55410.7 4181.18   3
  -7   8   2 57679.4 5220.88   6
  -8   7   2 55557.1 4633.61   6
  -7  -1  -2 47815.1 3995.15   3
   7   1   2 48456.4 5409.83   1
   8  -1   2 43953.0 5114.39   1
  -1  -7   2 46326.9 3041.23   3
   1  -8   2 51627.9 3402.69   3
   1  -8   3 30614.3 2775.69   4
  -1  -7   3 28730.0 2854.64   4
   8  -7  -3 30246.8 3452.35   2
   7  -8  -3 30662.8 3473.48   2
  -1  -7   3 38091.2 2898.02   2
   1  -8   3 40020.5 3568.09   2
  -7   8   3 36065.4 4236.44   6
  -8   1  -3 35241.9 3489.16   3
  -8   7   3 36100.9 3959.63   6
  -7  -1  -3 34756.7 3526.74   3
   7   1   3 28313.4 4353.61   1
   8  -1   3 32907.2 4529.42   1
   1  -8   4 3538.51 1037.89   4
  -1  -7   4 2157.97 789.126   4
  -7   8   4 3768.57 1364.52   6
  -8   7   4 4625.57 1473.46   6
   8  -7  -4 3510.74 1272.08   2
   7  -8  -4 3239.77 1123.99   2
  -8   1  -4 4233.63 1222.76   3
   7   1   4 842.093 685.459   1
  -7  -1  -4 3281.81 1154.33   3
   1   7  -4 4040.67 1201.86   5
   1  -8   4 4681.65 1312.14   2
   8  -1   4 3928.70 1568.48   1
   8  -1   5 4494.34 1704.36   1
   1  -8   5 2995.88 884.931   4
  -1  -7   5 3365.04 1145.81   4
  -7   8   5 2005.25 1114.91   6
  -8   7   5 4713.08 1587.44   6
   8  -7  -5 4050.28 1385.96   2
   7  -8  -5 3737.82 1262.17   2
  -8   1  -5 3540.51 1141.21   3
  -7  -1  -5 3644.71 1335.92   3
  -1   8  -5 3061.86 1110.13   5
   1   7  -5 3187.69 1087.76   5
   7   1   5 5256.27 2109.64   1
   1  -8   5 5498.55 1594.80   2
   8  -1   6 12532.3 3173.65   1
   1  -8   6 8676.11 1714.76   4
  -1  -7   6 9130.62 1923.80   4
  -7   8   6 14605.9 3179.32   6
  -8   7   6 12110.8 2728.87   6
   8  -7  -6 12163.6 2419.46   2
   7  -8  -6 15793.0 2737.81   2
  -8   1  -6 10768.4 2149.73   3
  -7  -1  -6 10213.3 2135.44   3
  -1   8  -6 9128.10 1986.81   5
   7   1   6 15334.4 3702.73   1
  -8   0   5 4402.01 1310.43   4
   8   0  -5 7022.94 1918.14   1
   8  -8   5 5956.29 1524.90   1
   0  -8  -5 6883.43 1410.01   2
  -8   8  -5 4735.94 1387.68   6
   0  -8  -5 5751.69 1558.61   3
   8  -8   5 6462.60 1785.63   2
  -8   0   4 11624.8 2169.17   4
  -8   8  -4 14645.2 2457.82   6
   8   0  -4 20704.7 3303.88   1
   8  -8   4 20126.3 3282.85   2
   0  -8  -4 15636.6 2596.93   3
   8  -8   4 16524.7 2240.18   1
   0  -8  -4 16971.9 2052.15   2
   0  -8  -3 62368.7 3846.04   2
   8   0  -3 63322.1 5685.66   1
   8  -8   3 67520.0 5744.58   2
  -8   8  -3 48442.4 4417.84   6
   0  -8  -3 57243.3 4862.20   3
   8  -8   3 64368.0 4110.72   1
   0  -8  -2 30452.4 2547.67   2
   8   0  -2 31310.7 3950.68   1
  -8   0   2 27868.4 2820.24   3
   8  -8   2 33010.6 3762.84   2
  -8   8  -2 25538.1 3197.67   6
  -8   0   2 23029.7 2525.51   6
   0  -8  -2 26395.6 3123.44   3
   8  -8   2 30770.7 2625.08   1
   0  -8  -1 18489.2 1898.44   2
   8  -8   1 21581.7 2982.54   2
  -8   0   1 14876.5 2048.35   3
  -8   8  -1 18573.8 2755.81   6
  -8   0   1 13749.6 2050.01   6
   0  -8  -1 14911.9 2230.05   3
   8   0  -1 14587.0 2810.85   1
   8   0   0 142.415 321.786   1
   0  -8   0 1066.12 549.448   4
  -8   8   0 497.563 549.544   6
   0  -8   0 660.136 334.571   2
  -8   0   0 467.850 494.606   3
   8  -8   0 1481.81 581.470   2
   0  -8   0 1401.16 770.430   3
   0  -8   1 42938.1 3165.06   4
   8  -8  -1 49869.8 4474.79   2
   0  -8   1 46913.6 3080.76   2
  -8   0  -1 50908.8 4094.34   3
   8   0   1 39400.8 4901.37   1
  -8   8   1 55689.3 4839.90   6
   0  -8   1 46005.6 3502.93   3
   0  -8   2 86068.3 4829.75   4
   8  -8  -2 87047.5 6072.56   2
   0  -8   2 100555. 4853.43   2
  -8   0  -2 98134.5 5932.10   3
   8   0   2 85947.3 7600.83   1
   0  -8   2 91642.3 4616.90   3
   0  -8   3 159.595 334.789   4
  -8   8   3-61.5821 83.0538   6
   8   0   3-42.9575 184.354   1
   8  -8  -3 283.054 462.620   2
  -8   0  -3 225.888 180.197   3
   0  -8   3-50.5193 400.464   2
   0  -8   4 6958.23 1469.93   4
  -8   8   4 9475.79 2317.74   6
   8  -8  -4 8833.22 1964.59   2
   8   0   4 5455.52 2096.89   1
  -8   0  -4 9708.88 1939.64   3
   0  -8   4 9544.30 1763.07   2
   0  -8   5-188.361 506.191   4
  -8   8   5 2809.17 999.645   6
   8  -8  -5 451.300 247.074   2
  -8   0  -5 1524.88 870.531   3
   0   8  -5 904.191 533.719   5
   8   0   5 1972.07 1312.36   1
   5   4  -5 10325.9 2274.76   1
  -5  -4   5 8617.97 1933.68   4
   9  -4  -5 8917.04 1762.37   1
   4   5   5 9419.44 2202.89   1
   9  -5   5 11234.1 2340.66   1
  -4   9   5 11682.8 2742.64   6
   4  -9  -5 12290.4 2205.87   2
  -9   5  -5 7306.40 1816.40   6
  -9   5  -5 13279.6 2279.27   3
  -5   9  -5 8284.68 1910.68   5
  -4  -5  -5 8227.06 2006.62   3
   5  -9   5 13667.1 2739.55   2
   9  -5   5 11190.7 2345.61   2
   4  -9  -5 9198.40 1907.42   3
   9  -4  -4 37342.5 3658.73   1
   4  -9  -4 49802.4 4266.57   2
  -5  -4   4 31004.0 3595.60   4
  -9   5  -4 44542.7 4015.83   3
  -4   9   4 50945.7 5814.86   6
  -5   9  -4 45535.4 4772.01   6
   5  -9   4 52255.7 5234.02   2
   9  -5   4 41081.4 4366.35   2
  -9   4   4 38831.3 3544.78   6
   4   5   4 44268.1 4587.11   1
  -9   5  -4 32852.2 3594.10   6
  -4  -5  -4 39931.1 4283.15   3
   9  -5   4 40204.9 4107.88   1
   5   4  -4 41374.5 4311.75   1
   4   5   3 548.548 374.932   1
  -5  -4   3 1564.45 694.255   4
   5   4  -3 1070.30 679.598   1
  -4   9   3 1765.98 1069.47   6
  -5   9  -3 691.990 751.266   6
   9  -4  -3 1026.11 567.044   2
  -9   4   3 1010.97 478.184   6
  -9   5  -3 1775.32 1036.80   6
   4  -9  -3 816.309 111.156   2
   9  -4  -3 3497.06 1100.56   1
  -4  -5  -3 680.773 440.476   3
   9  -5   3 1369.71 624.506   2
   5  -9   3 2161.73 1156.21   2
   9  -5   3 1378.93 709.688   1
  -9   4   2 95.4571 70.9870   4
  -5  -4   2 246.548 215.396   4
  -4   9   2 938.556 468.304   6
  -5   9  -2-267.807 356.302   6
   5   4  -2 1001.86 504.227   1
  -9   4   2 213.220 245.402   6
  -9   5  -2 417.116 375.314   6
   9  -4  -2 360.937 348.788   2
   4  -9  -2 931.602 606.090   2
   9  -5   2 906.141 645.643   1
  -5  -4   2-160.742 164.542   3
   9  -5   2 725.034 482.011   2
  -4  -5  -2 772.776 619.553   3
   5  -9   2 856.537 516.596   2
   9  -4  -2 720.454 185.955   1
   4   5   2 36.8221 479.475   1
   9  -5   1 6308.45 1484.60   1
  -4   9   1 7318.86 2318.17   6
  -5   9  -1 7416.11 1902.59   6
  -9   4   1 5234.93 1199.45   6
  -9   5  -1 5979.93 1392.74   6
   9  -4  -1 5762.48 1214.90   2
   4  -9  -1 7341.36 1430.83   2
   5   4  -1 5571.63 1444.71   1
   9  -5   1 7881.47 1650.89   2
  -5  -4   1 6249.99 1234.75   3
   5  -9   1 7687.69 1633.74   2
  -4  -5  -1 6364.49 1421.92   3
   4   5   1 7869.36 1566.22   1
   9  -4  -1 7290.65 1743.13   1
   4   5   0 42876.8 3824.66   1
   9  -4   0 40209.9 3369.64   2
   5   4   0 42075.2 3980.68   1
   9  -5   0 40514.1 3678.54   2
   4  -9   0 50997.3 3994.50   2
   5  -9   0 53760.5 4265.75   2
  -4   9   0 45842.9 5301.43   6
  -5   9   0 44435.8 4984.89   6
   9  -4   0 47774.6 4515.16   1
   9  -5   0 47839.3 4149.13   1
  -9   5   0 34462.0 3322.75   6
  -9   4   0 34125.1 3364.68   6
  -5  -4   0 39485.5 3360.39   3
  -4  -5   0 41752.3 3415.65   3
   9  -4   1 5653.90 1416.77   1
  -4   9  -1 3164.87 1490.44   6
  -5   9   1 4009.64 1583.06   6
  -9   5   1 3760.81 1060.84   6
   4   5  -1 3846.38 1185.44   1
  -9   4  -1 4153.45 1150.52   6
   9  -5  -1 4378.34 1223.95   2
   5  -9  -1 6489.80 1407.31   2
   9  -4   1 4168.99 1106.24   2
   4  -9   1 6031.92 1390.61   2
  -4  -5   1 5104.05 1112.77   3
  -5  -4  -1 5123.43 1259.78   3
   5   4   1 4715.31 1314.87   1
   9  -5  -1 5310.26 1290.69   1
   5   4   2 1200.04 754.066   1
  -4  -5   2 1823.53 766.329   4
   4   5  -2 1687.34 678.530   1
  -5   9   2 2687.83 1253.47   6
  -4   9  -2 913.168 747.036   6
  -9   5   2 1348.25 839.350   6
  -9   4  -2 1515.36 817.403   6
   9  -5  -2 1540.18 781.032   2
   5  -9  -2 2322.11 1013.04   2
   9  -4   2 1289.82 804.928   1
  -9   4  -2 1914.21 864.705   3
  -4  -5   2 1046.03 399.051   3
  -5  -4  -2 2029.38 833.801   3
   9  -4   2 3260.68 1004.77   2
   9  -5  -2 1045.38 629.378   1
   4  -9   2 1963.62 939.057   2
   5   4   3 2342.10 978.053   1
  -4  -5   3 1841.91 741.248   4
   4   5  -3 2590.48 990.628   1
  -5   9   3 3491.68 1437.29   6
  -4   9  -3 2367.08 1207.15   6
  -9   5   3 2795.18 1006.63   6
   9  -5  -3 4126.91 1191.26   2
  -9   4  -3 1382.94 714.135   6
   9  -5  -3 2610.14 923.727   1
   5  -9  -3 2152.57 759.697   2
  -9   4  -3 3343.19 1138.06   3
  -5  -4  -3 4567.01 1346.98   3
   9  -4   3 2165.23 920.598   2
   4  -9   3 2086.25 860.160   2
   9  -4   3 3521.67 1237.18   1
   9  -5  -4 33559.3 3120.52   1
   9  -5  -4 29348.1 3258.21   2
  -4  -5   4 25155.4 3134.76   4
   5  -9  -4 36949.5 3789.44   2
  -9   4  -4 35392.5 3591.24   3
  -5   9   4 29345.8 4456.29   6
   4  -9   4 42528.9 4672.22   2
   9  -4   4 30162.8 3598.01   2
  -9   5   4 32026.4 3409.52   6
  -9   4  -4 22805.4 3084.74   6
   5   4   4 33799.6 4445.73   1
  -5  -4  -4 26300.9 3549.46   3
   9  -4   4 28713.1 3723.15   1
   4   5  -4 31677.3 3660.33   1
   4  -9   5 5073.27 1208.99   4
   9  -4   5 4747.52 1437.08   1
  -4  -5   5 4553.82 1498.00   4
   9  -5  -5 7056.91 1468.28   1
  -5   9   5 5190.66 1908.67   6
   9  -5  -5 4719.39 1317.77   2
  -9   5   5 4478.39 1266.09   6
   5  -9  -5 5482.65 1388.27   2
   5   4   5 4637.80 1606.86   1
  -9   4  -5 5526.00 1617.20   6
  -9   4  -5 5397.25 1404.93   3
  -5  -4  -5 4865.85 1647.58   3
  -4   9  -5 7012.80 1886.40   5
   4  -9   5 6721.54 1968.24   2
  -6  -3   5 4576.61 1494.31   4
   6   3  -5 5557.70 1585.51   1
   9  -3  -5 6575.79 1694.88   1
  -3   9   5 7417.71 2206.06   6
   3  -9  -5 5297.16 1307.86   2
  -9   6  -5 5131.55 1494.16   6
   9  -6   5 6459.36 1641.31   1
  -3  -6  -5 4516.28 1370.05   3
   6  -9   5 9796.26 2360.62   2
   3  -9  -5 5390.94 1428.77   3
   9  -6   5 5276.56 1584.22   2
  -9   3   4 2222.48 894.745   4
  -6  -3   4 1444.43 710.393   4
   9  -6   4 1525.88 807.930   1
   6   3  -4 2402.77 987.425   1
  -3   9   4 2912.41 1456.71   6
   9  -3  -4 2455.32 1112.55   1
  -6   9  -4 2104.30 865.539   6
  -9   3   4 1903.55 801.049   6
   3  -9  -4 3217.80 1004.85   2
  -9   6  -4 1814.46 678.699   6
  -3  -6  -4 1397.65 735.609   3
   6  -9   4 816.602 438.801   2
   9  -6   4 3255.09 1157.39   2
   3  -9  -4 3727.85 1216.26   3
   9  -6   3 476.833 165.865   1
  -6  -3   3 1718.14 855.187   4
   6   3  -3 523.396 257.849   1
  -3   9   3 2457.93 1297.80   6
  -6   9  -3 1780.59 890.549   6
  -9   3   3 1666.56 582.777   6
  -9   6  -3 745.134 436.460   6
   3  -9  -3 2073.47 925.313   2
   9  -3  -3 1236.37 657.297   1
  -3  -6  -3 615.289 406.325   3
   9  -6   3 751.472 500.019   2
   6  -9   3 2159.38 1196.28   2
   3  -9  -3 610.649 350.938   3
   3   6   3 912.355 424.821   1
   6   3  -2 33272.9 3760.66   1
   3  -9  -2 33689.6 3143.95   2
   9  -3  -2 30096.3 3655.28   1
   3   6   2 33663.0 3230.56   1
   9  -6   2 30951.6 3454.80   2
   6  -9   2 37466.6 3896.93   2
  -3   9   2 37414.9 4963.74   6
  -6  -3   2 29765.4 2658.04   3
  -6   9  -2 42298.3 4431.14   6
  -9   3   2 23429.1 2642.74   6
  -9   6  -2 23775.1 2899.10   6
  -3  -6  -2 33774.1 3564.05   3
   9  -6   2 35170.2 3480.21   1
   3   6   1 17193.3 2267.89   1
   3  -9  -1 20364.9 2395.65   2
   9  -6   1 14155.5 2263.76   2
   9  -3  -1 17239.4 2838.61   1
   6  -9   1 20255.0 2738.51   2
  -6   9  -1 22665.8 3332.19   6
  -6  -3   1 15608.3 1977.68   3
  -3   9   1 20770.7 3636.50   6
   9  -6   1 17518.3 2418.52   1
  -3  -6  -1 15353.9 2288.74   3
  -9   6  -1 12392.6 2033.68   6
  -9   3   1 11835.1 1901.95   6
   6   3  -1 16254.4 2598.40   1
   9  -3   0 3977.63 1325.19   1
   9  -6   0 4327.95 1120.95   1
  -3   9   0 5031.21 1738.76   6
  -6   9   0 2759.44 929.004   6
  -9   6   0 2428.57 911.095   6
  -9   3   0 2457.80 920.850   6
   3   6   0 3180.63 880.663   1
  -9   3   0 3338.26 958.261   3
   9  -6   0 3447.79 1059.44   2
   3  -9   0 4607.14 1132.91   2
   6  -9   0 3866.91 1172.03   2
  -6  -3   0 2855.77 870.150   3
  -3  -6   0 3165.28 918.041   3
   6   3   0 3370.22 1149.47   1
   9  -3   1 461.302 472.858   1
   3   6  -1 879.722 534.294   1
  -3   9  -1 575.499 885.481   6
  -6   9   1 1373.52 918.506   6
  -9   6   1-133.431 512.690   6
  -9   3  -1 834.964 574.361   6
   9  -6  -1 832.974 553.901   2
  -9   3  -1 635.168 512.712   3
   6  -9  -1 753.311 652.525   2
   3  -9   1 784.295 602.730   2
  -6  -3  -1 820.552 581.665   3
  -3  -6   1-11.8780 243.696   3
   9  -6  -1 655.554 441.293   1
   6   3   1-598.541 747.098   1
  -3  -6   2 18779.6 2337.54   4
   9  -6  -2 24418.8 3022.77   2
   9  -6  -2 29197.5 2714.45   1
   6  -9  -2 29991.4 3320.86   2
   3  -9   2 31966.1 3361.93   2
  -9   3  -2 31208.6 3234.80   3
  -3   9  -2 29580.3 4243.00   6
  -6   9   2 29416.2 4185.28   6
   6   3   2 29577.9 4012.46   1
  -9   6   2 25553.7 3010.38   6
  -6  -3  -2 25761.9 3016.56   3
  -9   3  -2 20518.0 2718.36   6
   9  -3   2 29748.0 3821.31   1
   3   6  -2 25771.3 2904.28   1
   9  -6  -3 31859.8 2780.87   1
  -3  -6   3 27020.8 3025.72   4
   9  -6  -3 25706.9 3181.44   2
   6  -9  -3 32634.7 3547.31   2
  -9   3  -3 32785.4 3446.33   3
  -3   9  -3 33080.9 4315.52   6
   3  -9   3 34383.7 3718.19   2
  -6   9   3 29419.2 4489.75   6
  -9   6   3 29416.7 3258.39   6
   6   3   3 32349.8 4453.76   1
  -6  -3  -3 32208.9 3627.66   3
  -9   3  -3 25112.4 3141.82   6
   9  -3   3 29552.6 3939.23   1
   3   6  -3 30325.5 3313.49   1
   3  -9   3 26289.1 2428.14   4
   3  -9   4 5682.40 1222.53   4
  -3  -6   4 7139.22 1636.26   4
   6   3   4 6743.86 2177.72   1
  -6   9   4 8983.82 2396.44   6
  -9   6   4 6837.09 1635.07   6
   9  -6  -4 5116.15 1417.68   2
   6  -9  -4 6226.97 1593.07   2
  -9   3  -4 7974.41 1771.99   3
  -6  -3  -4 8763.87 1892.39   3
   3  -9   4 9581.72 2075.79   2
   9  -3   4 7094.90 1816.27   1
   9  -3   5 2146.19 1069.54   1
   3  -9   5 1001.60 288.024   4
  -3  -6   5 1648.77 671.240   4
  -6   9   5 3822.90 1831.12   6
  -9   6   5 2006.89 899.569   6
   9  -6  -5 1195.07 721.389   2
   6  -9  -5 2715.65 911.010   2
   6   3   5 3078.84 1546.39   1
  -9   3  -5 912.437 755.601   3
  -6  -3  -5 3445.79 1351.79   3
  -3   9  -5 1891.08 841.339   5
   3  -9   5 4254.38 1570.63   2
  -9   2   5 5985.95 1452.20   4
  -7  -2   5 5260.92 1575.88   4
   7   2  -5 7876.10 2056.64   1
   9  -2  -5 8377.98 1934.16   1
   2  -9  -5 6600.85 1428.80   2
  -7   9  -5 7737.49 1783.27   6
  -9   7  -5 4361.68 1240.50   6
   9  -7   5 6394.79 1604.44   1
  -2  -7  -5 7146.41 1840.65   3
   7  -9   5 9189.23 2241.17   2
   2  -9  -5 7210.92 1810.71   3
   9  -7   5 7846.46 2068.50   2
  -9   2   4 621.785 310.836   4
  -7  -2   4 291.678 130.211   4
   9  -7   4-283.430 399.287   1
   7   2  -4 535.529 418.973   1
  -2   9   4 1973.28 1172.38   6
   9  -2  -4 1172.59 781.225   1
  -7   9  -4 1012.14 759.380   6
   2  -9  -4 1076.77 621.184   2
  -9   7  -4 580.558 215.585   6
  -2  -7  -4 1018.54 536.783   3
   7  -9   4 2242.27 1057.04   2
   9  -7   4 757.444 540.217   2
   2  -9  -4 2016.07 981.193   3
   9  -7   3 401.912 456.586   1
  -9   2   3 515.605 500.223   4
  -7  -2   3-316.849 446.208   4
  -2   9   3-932.216 914.775   6
   7   2  -3 435.153 504.747   1
  -7   9  -3 152.874 50.0827   6
  -9   2   3 145.552 268.601   6
  -9   7  -3 1122.32 722.357   6
   2  -9  -3-104.926 481.753   2
   9  -2  -3-109.957 247.163   1
   9  -7   3 46.8259 232.403   2
   7  -9   3 833.105 688.799   2
  -2  -7  -3 268.853 678.325   3
   2  -9  -3 952.461 674.791   3
   2  -9  -2 35140.5 3071.22   2
   7   2  -2 30996.8 3849.95   1
   9  -2  -2 28431.3 3817.08   1
   9  -7   2 28692.4 3477.04   2
   7  -9   2 36272.3 4001.85   2
  -2   9   2 33385.4 4718.84   6
  -7  -2   2 30995.9 2843.59   3
  -7   9  -2 33959.2 3864.76   6
  -9   7  -2 24915.7 3073.14   6
  -9   2   2 22790.5 2675.79   6
  -2  -7  -2 32081.5 3495.23   3
   9  -7   2 33302.2 3219.17   1
   2  -9  -2 29155.1 3298.14   3
   2  -9  -1 16335.2 2052.72   2
   7  -9   1 18318.1 2714.82   2
  -7  -2   1 13843.2 1998.41   3
  -7   9  -1 20803.5 3070.77   6
  -9   7  -1 13565.7 2233.03   6
  -9   2   1 12333.6 2020.35   6
  -2   9   1 16628.7 3249.32   6
   9  -7   1 16113.8 2114.76   1
  -2  -7  -1 14453.4 2215.43   3
   2  -9  -1 14720.4 2259.36   3
   9  -7   1 13101.0 2305.31   2
   7   2  -1 15838.4 2876.51   1
   9  -2  -1 12562.3 2436.79   1
   9  -2   0 3069.94 1289.07   1
   9  -7   0 2932.55 857.855   1
   2   7   0 2968.00 884.933   1
  -2   9   0 4870.42 1799.91   6
  -7   9   0 3416.26 1289.52   6
  -9   7   0 3151.71 1025.68   6
  -9   2   0 2830.19 969.686   6
  -9   2   0 3515.92 1075.91   3
   2  -9   0 3321.06 873.120   2
   9  -7   0 2545.74 1160.19   2
  -7  -2   0 2788.23 943.512   3
   7  -9   0 2961.95 1035.09   2
  -2  -7   0 2851.77 860.711   3
   2  -9   0 3077.45 1013.97   3
   7   2   0 4752.99 1544.24   1
   7   2   1 1815.21 1047.78   1
   9  -2   1 150.116 321.476   1
  -2  -7   1-584.935 400.472   4
   2   7  -1 989.743 496.628   1
  -2   9  -1 612.271 347.912   6
  -7   9   1 525.994 502.958   6
  -9   7   1-835.313 567.397   6
  -9   2  -1 378.626 494.573   6
   9  -7  -1 256.235 299.796   2
  -9   2  -1 792.722 463.874   3
   7  -9  -1 491.720 286.073   2
   2  -9   1 35.6567 273.547   2
  -7  -2  -1 1067.00 672.943   3
  -2  -7   1 163.637 240.712   3
   9  -7  -1 46.0110 256.342   1
   2  -9   1-616.774 569.961   3
   2  -9   2 24710.7 2298.73   4
  -2  -7   2 20613.9 2462.08   4
   9  -7  -2 22493.9 3056.84   2
   7  -9  -2 28202.0 3308.61   2
   2  -9   2 27843.3 2967.79   2
  -2   9  -2 22718.9 3382.55   6
  -9   2  -2 26394.5 3026.31   3
  -7   9   2 33115.1 4331.54   6
   7   2   2 22687.7 3786.75   1
  -9   7   2 25260.7 3100.92   6
  -7  -2  -2 25977.3 3048.70   3
   9  -2   2 25849.0 3814.97   1
   2  -9   2 24957.2 2527.07   3
   2   7  -2 24581.0 2773.90   1
   2  -9   3 14098.7 1814.56   4
  -2  -7   3 14389.7 2107.77   4
   2  -9   3 18563.8 2619.81   2
   7   2   3 14928.8 3236.63   1
  -7  -2  -3 18614.9 2734.48   3
  -7   9   3 21062.6 3569.32   6
  -9   7   3 17179.2 2652.01   6
   9  -2   3 18190.5 3327.79   1
   9  -7  -3 14791.0 2536.21   2
   7  -9  -3 16514.3 2599.36   2
  -9   2  -3 15969.5 2315.56   3
   2  -9   4 2902.95 854.883   4
  -2  -7   4 3742.88 1203.44   4
  -7   9   4 5623.89 2084.55   6
   7   2   4 3672.84 1683.63   1
  -9   7   4 3038.13 1121.96   6
   9  -7  -4 2526.49 1055.20   2
   7  -9  -4 3340.76 1138.24   2
  -9   2  -4 4671.92 1343.99   3
  -7  -2  -4 3656.52 1325.99   3
   9  -2   4 3969.20 1526.51   1
   2  -9   4 4050.40 1207.46   2
   2  -9   5-249.548 414.769   4
  -2  -7   5 500.192 364.652   4
  -7   9   5-1954.55 1455.69   6
  -9   7   5-41.8029 596.319   6
   9  -7  -5 980.738 757.891   2
   7  -9  -5 533.379 457.171   2
   7   2   5-1589.99 1278.41   1
  -9   2  -5-1010.45 708.210   3
  -7  -2  -5 158.467 532.665   3
   2  -9   5-883.835 514.600   2
   9  -2   5-610.440 642.126   1
   1  -9  -4 14684.4 2036.96   2
  -9   1   4 11252.8 2198.84   4
  -8  -1   4 8526.57 2007.54   4
   9  -8   4 13427.6 2087.89   1
   8   1  -4 15755.4 3002.32   1
   9  -1  -4 15226.1 2907.43   1
  -8   9  -4 11611.8 2225.65   6
  -9   8  -4 9752.80 2011.70   6
  -1  -8  -4 12827.8 2416.31   3
   8  -9   4 14500.5 2896.00   2
   9  -8   4 16167.6 2836.83   2
   1  -9  -4 14491.1 2466.83   3
   1  -9  -3 15839.9 2035.38   2
  -9   1   3 12662.3 2217.33   4
  -8  -1   3 7816.35 1784.09   4
  -8   9  -3 15922.4 2621.65   6
  -9   8  -3 12723.6 2308.05   6
   8   1  -3 15579.1 2862.18   1
   9  -1  -3 17414.1 3148.09   1
   9  -8   3 16264.0 2184.93   1
   9  -8   3 18161.9 2973.39   2
   8  -9   3 17475.6 3019.79   2
  -1  -8  -3 15181.5 2514.55   3
   1  -9  -3 15232.6 2548.97   3
  -1   9   2 6658.95 1985.00   6
  -8   9  -2 7581.79 1666.23   6
  -9   8  -2 6640.61 1593.92   6
  -9   1   2 4971.03 1188.27   6
   1  -9  -2 8036.52 1389.86   2
  -8  -1   2 6040.03 1322.68   3
   8   1  -2 7190.56 2059.31   1
   9  -1  -2 9723.42 2446.81   1
   9  -8   2 9229.43 2002.76   2
   8  -9   2 8661.22 1922.58   2
  -1  -8  -2 6400.61 1476.84   3
   1  -9  -2 7004.18 1659.01   3
  -1   9   1 511.805 624.907   6
  -8   9  -1-130.600 342.032   6
  -9   8  -1 465.309 597.834   6
  -9   1   1-291.145 220.561   6
   1  -9  -1 774.533 494.828   2
  -9   1   1 487.493 156.697   3
  -8  -1   1-223.310 352.829   3
   9  -8   1 19.1022 189.414   2
   8  -9   1 656.842 622.799   2
   8   1  -1 651.513 104.690   1
  -1  -8  -1 1513.84 856.979   3
   1  -9  -1 319.296 469.718   3
   9  -1  -1 1448.49 893.220   1
  -1  -8   0 8755.08 1483.27   4
  -1   9   0 5079.22 1706.92   6
  -8   9   0 11367.5 2306.56   6
  -9   8   0 9241.48 2023.83   6
  -9   1   0 7087.20 1617.12   6
   1  -9   0 7101.19 1307.52   2
  -9   1   0 9163.68 1834.55   3
  -8  -1   0 6705.59 1465.38   3
   9  -8   0 6445.30 1638.64   2
   8  -9   0 7545.10 1803.49   2
  -1  -8   0 6955.38 1511.31   3
   1  -9   0 8310.04 1663.50   3
   8   1   0 6593.42 1997.13   1
   9  -1   0 9549.81 2442.95   1
   1  -9   1 24775.9 2307.05   4
  -1  -8   1 20459.9 2279.82   4
   9  -8  -1 22156.4 2989.54   2
   8  -9  -1 29663.6 3481.33   2
   1  -9   1 27460.5 2605.14   2
  -1   9  -1 23378.0 3369.77   6
   8   1   1 23798.8 4017.58   1
  -9   1  -1 26024.8 3090.66   3
   9  -1   1 28296.8 4364.60   1
  -8  -1  -1 25358.7 3026.54   3
  -8   9   1 34778.5 4266.02   6
  -9   8   1 25775.5 3316.55   6
  -1  -8   1 24457.9 2553.59   3
   1  -9   1 23972.1 2628.28   3
   1  -9   2 21721.3 2300.06   4
  -1  -8   2 18746.6 2308.78   4
   9  -8  -2 21909.8 3090.24   2
   8  -9  -2 22099.9 3067.14   2
   8   1   2 23833.7 4128.90   1
   1  -9   2 26448.5 2664.63   2
  -9   1  -2 23237.8 2977.34   3
   9  -1   2 21058.3 3788.38   1
  -8   9   2 30516.1 4003.66   6
  -8  -1  -2 22739.6 3031.90   3
  -9   8   2 22740.9 3178.22   6
   1  -9   3 932.440 551.646   4
  -1  -8   3 413.705 339.514   4
   8   1   3 774.727 158.289   1
   9  -1   3 1523.95 1261.24   1
  -8   9   3-286.397 1036.03   6
  -9   8   3 1460.83 1060.90   6
   9  -8  -3 526.318 319.988   2
   8  -9  -3-249.272 644.824   2
  -9   1  -3 218.559 48.6478   3
  -8  -1  -3 1748.13 851.046   3
   1  -9   3 1037.85 470.760   2
   1  -9   4 264.471 224.963   4
  -1  -8   4-13.5417 484.791   4
  -8   9   4 1017.71 716.518   6
  -9   8   4 200.110 82.1718   6
   8   1   4 290.831 394.324   1
   9  -8  -4-350.627 532.521   2
   8  -9  -4 742.422 473.061   2
   9  -1   4 275.013 652.928   1
  -9   1  -4-316.175 214.636   3
  -8  -1  -4 501.762 714.802   3
   1  -9   4 348.340 397.328   2
  -9   0   3 9150.50 1993.50   4
  -9   9  -3 13096.9 2370.27   6
   9   0  -3 11307.9 2681.85   1
   9  -9   3 16539.3 2833.96   2
   0  -9  -3 14436.7 2596.87   3
  -9   9  -2 8113.61 1830.82   6
  -9   0   2 9167.49 1792.47   3
   9   0  -2 6831.72 1984.35   1
   9  -9   2 9734.49 2126.07   2
   0  -9  -2 10433.6 2060.20   3
  -9   9  -1 278.786 785.261   6
  -9   0   1 294.264 364.581   6
  -9   0   1 809.931 569.303   3
   9  -9   1-419.387 469.145   2
   9   0  -1 404.726 345.191   1
   0  -9  -1-452.278 494.080   3
   0  -9   0 6706.89 1204.78   4
  -9   9   0 9176.64 2096.70   6
  -9   0   0 5887.69 1476.38   6
  -9   0   0 6302.49 1442.47   3
   9  -9   0 8391.80 1846.91   2
   0  -9   0 9270.80 1735.72   3
   9   0   0 8195.29 2445.14   1
   0  -9   1 17567.5 2100.81   4
   9   0   1 15176.4 3258.44   1
  -9   0  -1 14524.1 2435.63   3
  -9   9   1 19644.4 3206.53   6
   9  -9  -1 16262.9 2680.89   2
   9   0   2 8155.52 2458.70   1
   0  -9   2 10295.5 1637.30   4
  -9   9   2 12106.6 2592.24   6
   9  -9  -2 9108.54 2026.08   2
  -9   0  -2 10092.6 2065.43   3
   0  -9   3 96.1872 218.427   4
   9   0   3 215.801 349.436   1
  -9   9   3 357.055 652.630   6
   9  -9  -3 166.412 338.522   2
  -9   0  -3 286.019 135.448   3
  10  -5   0 227.622 163.017   1
  -5  10   0 138.788 602.061   6
 -10   5   0-961.122 616.075   6
   5 -10   0 214.929 73.3419   2
   5   5   0 647.143 722.463   1
  -5  -5   0 228.991 346.919   3
  10  -5   1 1336.74 825.809   1
  -5  10   1 1481.81 981.281   6
  -5  10  -1 1930.03 1122.36   6
 -10   5   1 1506.06 710.851   6
   5   5  -1 1610.46 783.799   1
 -10   5  -1 1072.41 632.401   6
   5 -10  -1 2098.86 860.331   2
   5 -10   1 2266.06 982.534   2
  -5  -5   1 733.135 320.512   3
  -5  -5  -1 1339.05 688.568   3
   5   5   1 1962.72 912.575   1
  10  -5  -1 1412.11 792.307   1
   5   5  -2 33161.4 3792.73   1
  -5  -5   2 22384.7 2843.50   4
   5 -10  -2 38962.8 3785.46   2
  10  -5  -2 34701.0 3699.82   1
   5   5   2 33836.4 3969.80   1
   5 -10   2 40914.7 4208.52   2
  -5  10   2 40670.6 5734.51   6
  -5  10  -2 37765.9 5197.65   6
 -10   5   2 28783.8 3222.46   6
 -10   5  -2 27574.0 3318.42   6
  -5  -5  -2 32572.1 3668.46   3
  10  -5   2 39386.8 4268.23   1
   5   5   3 13268.5 2592.56   1
   5 -10  -3 17583.4 2545.81   2
  -5  -5   3 9885.07 1886.69   4
   5   5  -3 13680.3 2504.13   1
  -5  10   3 17294.9 3678.88   6
  -5  10  -3 19605.2 3677.10   6
 -10   5   3 11517.7 2057.05   6
 -10   5  -3 10869.4 2115.93   6
  10  -5  -3 13555.7 2214.52   1
  10  -5   3 14842.6 2734.65   1
  -5  -5  -3 11817.1 2318.05   3
   5 -10   3 17716.4 2889.36   2
   5   5   4 485.400 293.420   1
   5   5  -4 662.292 462.530   1
  -5  -5   4 1546.32 883.646   4
  10  -5  -4 843.268 348.088   1
  -5  10   4 434.774 350.560   6
 -10   5   4 1543.42 715.468   6
 -10   5  -4 1371.37 803.363   6
   5 -10  -4 547.977 200.858   2
  -5  -5  -4 883.301 571.099   3
   5 -10   4 13.3273 156.120   2
  10  -5   4 330.865 390.573   1
   4 -10  -4 18353.1 2690.41   2
  -6  -4   4 10382.2 2133.59   4
   6   4  -4 16614.0 2971.11   1
 -10   4   4 15144.5 2321.83   6
  10  -4  -4 15368.2 2548.52   1
  -4  10   4 15453.9 3489.25   6
 -10   6  -4 10569.4 2187.97   6
  -4  -6  -4 16371.8 2908.22   3
  10  -6   4 14419.6 2622.57   2
   6 -10   4 18649.8 3115.93   2
   4 -10  -4 14777.7 2407.89   3
  10  -6   4 17426.2 2786.63   1
   6   4  -3 37317.0 4271.90   1
  -6  -4   3 28708.7 3444.60   4
  10  -4  -3 42181.9 4331.78   1
   4 -10  -3 45247.0 4038.38   2
  10  -6   3 39038.0 4194.34   2
   6 -10   3 58340.3 5380.75   2
  -4  10   3 47940.4 6116.29   6
  -6  10  -3 57870.9 5832.28   6
 -10   4   3 32987.3 3481.69   6
 -10   6  -3 33552.0 3770.18   6
  -4  -6  -3 40395.4 4366.89   3
  10  -6   3 40559.8 4269.46   1
   4 -10  -2 18110.7 2494.26   2
   4   6   2 15063.7 2474.21   1
   6 -10   2 20229.3 3008.56   2
  -6  -4   2 8502.59 1771.15   4
  -6  10  -2 22239.3 3740.79   6
 -10   4   2 13501.1 2180.73   6
  -4  10   2 18502.5 3808.55   6
  10  -6   2 17519.4 2718.14   1
   6   4  -2 15586.2 2714.85   1
 -10   6  -2 11655.5 2085.57   6
  10  -6   2 14322.7 2372.94   2
  10  -4  -2 14724.4 2618.91   1
  -4  -6  -2 14009.3 2408.35   3
  10  -6   1 10531.1 2033.21   1
  -4  10   1 10123.5 2755.59   6
  -6  10  -1 14423.8 2906.09   6
 -10   6  -1 6763.53 1625.68   6
 -10   4   1 6256.84 1456.50   6
   4 -10  -1 9919.65 1771.66   2
   6   4  -1 9536.17 2145.04   1
  10  -6   1 9325.30 1883.04   2
   4   6   1 9018.94 1859.03   1
  -6  -4   1 7721.29 1455.90   3
   6 -10   1 10360.4 2007.01   2
  -4  -6  -1 7674.75 1665.22   3
  10  -4  -1 9470.20 2162.63   1
  10  -4   0 418.746 426.143   1
  10  -6   0 109.083 212.333   1
  -4  10   0-262.900 673.074   6
  -6  10   0 745.478 79.7217   6
 -10   6   0-179.739 536.174   6
 -10   4   0-778.088 865.372   6
   4   6   0 829.716 645.758   1
  10  -6   0-26.4090 382.456   2
   4 -10   0 607.583 507.479   2
   6 -10   0-189.721 184.651   2
  -6  -4   0 384.482 472.110   3
  -4  -6   0 492.038 342.729   3
   6   4   0-317.249 461.975   1
   4   6  -1 32333.4 3475.35   1
  10  -6  -1 31434.7 3495.82   2
   6 -10  -1 36333.5 3724.57   2
   6   4   1 29220.8 3879.10   1
   4 -10   1 39183.2 3751.45   2
  10  -6  -1 35096.6 3469.06   1
  -4  10  -1 41394.2 5728.82   6
  -6  10   1 43699.6 5668.02   6
  10  -4   1 36643.5 4305.68   1
 -10   6   1 29476.9 3407.24   6
  -6  -4  -1 31017.8 3380.20   3
 -10   4  -1 25743.3 3208.06   6
  -4  -6   1 31697.2 2925.02   3
  -4  -6   2 40829.0 3774.09   4
  10  -6  -2 51039.6 4541.90   2
  10  -6  -2 57928.1 4285.69   1
   6 -10  -2 60772.1 4878.14   2
   4 -10   2 64976.8 5080.28   2
   6   4   2 51285.4 5445.30   1
 -10   4  -2 54866.5 4597.02   3
  -4  10  -2 65823.9 7134.37   6
  -6  10   2 61311.1 6895.53   6
 -10   6   2 49945.0 4483.79   6
  -6  -4  -2 45935.3 4358.91   3
 -10   4  -2 40555.8 4094.84   6
  10  -4   2 59956.1 5637.70   1
   4   6  -2 51563.6 4545.50   1
   6   4   3 514.939 393.728   1
  -4  -6   3 475.675 649.386   4
   4   6  -3 233.158 382.264   1
  -6  10   3-43.0601 595.089   6
  10  -6  -3-131.202 346.419   1
 -10   6   3-600.028 581.357   6
  10  -6  -3-334.839 478.510   2
 -10   4  -3-53.8065 403.813   6
  10  -4   3-436.107 565.557   1
   6 -10  -3 988.920 594.652   2
 -10   4  -3-1150.20 664.064   3
  -6  -4  -3-447.925 210.792   3
   4 -10   3 2.20581 179.609   2
   4   6  -4 3825.01 1366.37   1
   6   4   4 2090.50 1093.58   1
  -4  -6   4 2501.67 894.020   4
  -6  10   4 3428.18 1679.94   6
 -10   6   4 3220.34 961.509   6
  10  -6  -4 2820.93 1096.65   2
 -10   4  -4 1678.47 856.905   6
   6 -10  -4 4323.98 1421.50   2
 -10   4  -4 2777.83 1106.56   3
  -6  -4  -4 1252.48 711.138   3
  10  -4   4 2791.43 1072.19   1
   4 -10   4 3843.99 1442.47   2
  -7  -3   3 7423.13 1701.63   4
   7   3  -3 12286.7 2513.33   1
  -3  10   3 13458.1 3320.43   6
  -7  10  -3 14983.0 2902.92   6
 -10   3   3 9732.83 1768.37   6
 -10   7  -3 7784.51 1820.59   6
   3 -10  -3 11181.5 1938.88   2
  10  -3  -3 11724.1 2448.58   1
  10  -7   3 13164.4 2278.52   1
  10  -7   3 11341.0 2263.94   2
   7 -10   3 15037.4 2719.05   2
  -3  -7  -3 13815.1 2563.07   3
   3 -10  -3 11462.3 2174.72   3
 -10   3   2 756.494 439.375   4
  -3  10   2 1094.56 837.722   6
  -7  10  -2 703.408 425.053   6
 -10   7  -2 1328.43 732.671   6
 -10   3   2 1083.18 565.766   6
  10  -7   2 2193.41 883.978   1
   7   3  -2 1163.71 761.271   1
   3 -10  -2 1724.70 745.773   2
  10  -3  -2 2284.77 1108.57   1
  10  -7   2 2492.96 1209.50   2
   7 -10   2 671.372 394.410   2
  -3  -7  -2 1581.45 874.800   3
   3 -10  -2 2715.68 1096.06   3
  10  -7   1 290.098 46.3278   1
  -3  10   1 1578.91 1213.29   6
  -7  10  -1 872.713 434.968   6
 -10   7  -1 634.505 498.150   6
 -10   3   1 266.265 331.938   6
   3 -10  -1-197.597 404.853   2
  -7  -3   1 541.184 456.681   3
  10  -7   1 1018.32 606.541   2
   7   3  -1 13.2362 496.940   1
   7 -10   1 144.616 297.129   2
  -3  -7  -1 355.615 652.647   3
   3 -10  -1 64.7004 289.355   3
  10  -3  -1 1133.66 849.633   1
   3   7   0 12775.0 2050.90   1
  10  -3   0 18536.7 3255.98   1
   3 -10   0 16360.0 2212.21   2
  10  -7   0 14109.7 2109.07   1
  -3  10   0 15523.3 3450.36   6
  -3  -7   0 13449.7 2024.72   3
  -7  10   0 18731.4 3300.42   6
 -10   7   0 13608.1 2357.21   6
 -10   3   0 8857.77 1776.46   6
  10  -7   0 13656.8 2434.11   2
   7 -10   0 16039.2 2492.31   2
  -7  -3   0 11540.2 1955.51   3
   7   3   0 13337.0 2699.35   1
   3 -10   0 12669.5 2121.51   3
  -3  -7   1 20195.5 2453.24   4
  10  -7  -1 22515.8 3053.21   2
   7 -10  -1 30462.6 3502.35   2
   3 -10   1 28272.3 3067.44   2
   7   3   1 26016.3 4048.26   1
 -10   3  -1 27357.6 3223.50   3
  -3  10  -1 23847.5 4226.24   6
  -7  10   1 37001.5 4909.78   6
  10  -3   1 28333.2 4047.38   1
  -7  -3  -1 21631.0 2878.84   3
 -10   7   1 28085.7 3460.04   6
 -10   3  -1 20923.7 2834.59   6
   3 -10   1 24675.0 2863.36   3
   3   7  -1 28279.4 3134.87   1
   7   3   2 11917.7 2796.05   1
   7 -10  -2 16170.8 2611.98   2
   3   7  -2 12500.5 2135.91   1
  -3  -7   2 8452.41 1576.40   4
  10  -3   2 14709.9 3049.01   1
  -3  10  -2 14312.9 3141.57   6
  -7  10   2 14527.2 3163.44   6
 -10   7   2 12736.3 2290.56   6
 -10   3  -2 9778.83 1964.13   6
  10  -7  -2 11203.2 2146.09   2
 -10   3  -2 12584.1 2159.67   3
  -7  -3  -2 10959.4 2107.41   3
   3 -10   2 14422.3 2257.75   2
   7   3   3 2597.00 1115.19   1
  -3  -7   3 1196.69 620.312   4
  -7  10   3 944.631 717.119   6
 -10   7   3 1717.39 812.131   6
  10  -3   3 902.907 989.123   1
 -10   3  -3 943.779 714.602   6
  10  -7  -3 746.692 661.728   2
   7 -10  -3 170.474 495.519   2
 -10   3  -3 1297.06 811.336   3
  -7  -3  -3 1378.61 600.268   3
   3 -10   3 2489.97 1137.63   2
  -2  10   2 3043.95 1523.90   6
  -8  10  -2 2347.84 1118.37   6
 -10   8  -2 2068.10 830.921   6
 -10   2   2 1239.47 525.737   6
   2 -10  -2 1830.95 724.815   2
   8   2  -2 1877.23 1100.25   1
  10  -2  -2 2493.74 1280.82   1
  10  -8   2 2203.72 995.186   2
   8 -10   2 2014.07 925.680   2
  -2  -8  -2 868.024 384.759   3
   2 -10  -2 1562.43 749.575   3
  -2  10   1 5076.14 1865.61   6
  -8  10  -1 4316.15 1492.48   6
 -10   8  -1 4505.54 1421.92   6
 -10   2   1 3802.67 1240.32   6
   2 -10  -1 4567.26 1084.66   2
  -8  -2   1 4512.90 1230.68   3
  10  -8   1 4816.24 1548.40   2
   8 -10   1 4208.04 1414.35   2
   8   2  -1 3689.17 1593.35   1
  -2  -8  -1 4842.50 1425.01   3
  10  -2  -1 4444.78 1539.28   1
   2 -10  -1 5554.30 1512.66   3
  -2  -8   0 40820.4 3422.70   4
   2 -10   0 59688.7 4158.77   2
  10  -8   0 56636.3 5026.07   2
   8 -10   0 59219.8 5137.76   2
   8   2   0 56959.3 6106.08   1
  10  -2   0 54103.1 5972.28   1
 -10   2   0 56866.2 4690.22   3
  -2  10   0 55692.0 6246.30   6
  -8  -2   0 45811.1 4160.66   3
  -8  10   0 76609.7 6675.00   6
 -10   8   0 51795.4 4791.86   6
 -10   2   0 37412.4 3855.08   6
  -2  -8   0 56704.5 4337.44   3
   2 -10   0 49257.3 4264.74   3
  10  -2   1 11670.2 2795.59   1
   2 -10   1 16546.9 2291.74   2
  -2  -8   1 10354.1 1758.81   4
  -2  10  -1 12956.2 2920.16   6
  -8  10   1 20148.2 3521.07   6
 -10   8   1 15126.9 2521.23   6
 -10   2  -1 8699.00 1856.49   6
   2 -10   1 13260.6 2101.16   3
  10  -8  -1 13322.0 2426.32   2
 -10   2  -1 16831.6 2521.63   3
   8 -10  -1 16581.2 2677.63   2
  -8  -2  -1 12196.8 2153.14   3
   8   2   1 12475.7 2915.08   1
   8   2   2 4401.46 1859.57   1
  10  -2   2 2879.70 1474.79   1
  -8  10   2 2971.93 1498.83   6
 -10   8   2 1460.34 911.315   6
 -10   2  -2-371.200 528.023   6
  10  -8  -2 1267.91 669.555   2
   8 -10  -2 459.950 605.396   2
 -10   2  -2 1763.59 715.921   3
  -8  -2  -2 1150.66 546.943   3
   2 -10   2 2276.94 848.618   2
   0   0   0    0.00    0.00   0

;
_shelx_hkl_checksum              63262
loop_
_space_group_symop_operation_xyz
'x, y, z'
'-y, x-y, z'
'-x+y, -x, z'
'y, x, -z'
'x-y, -y, -z'
'-x, -x+y, -z'
'-x, -y, -z'
'y, -x+y, -z'
'x-y, x, -z'
'-y, -x, z'
'-x+y, y, z'
'x, x-y, z'
loop_
_atom_site_label
_atom_site_type_symbol
_atom_site_fract_x
_atom_site_fract_y
_atom_site_fract_z
_atom_site_U_iso_or_equiv
_atom_site_adp_type
_atom_site_occupancy
_atom_site_site_symmetry_order
_atom_site_calc_flag
_atom_site_refinement_flags_posn
_atom_site_refinement_flags_adp
_atom_site_refinement_flags_occupancy
_atom_site_disorder_assembly
_atom_site_disorder_group
In1 In 0.0000 0.0000 0.0000 0.0152(2) Uani 1 12 d S T P . .
Ag1 Ag 0.0000 0.0000 0.5000 0.0468(3) Uani 1 12 d S T P . .
Br1 Br 0.32284(6) 0.16142(3) 0.22171(6) 0.0337(2) Uani 1 2 d S T P . .
N1 N 0.373(5) 0.705(7) 0.1574(14) 0.027(7) Uani 0.1667 1 d D . P A -1
H1A H 0.3768 0.8146 0.1120 0.040 Uiso 0.1667 1 calc R U P A -1
H1B H 0.2828 0.5983 0.0932 0.040 Uiso 0.1667 1 calc R U P A -1
H1C H 0.4930 0.7161 0.1455 0.040 Uiso 0.1667 1 calc R U P A -1
C1 C 0.317(8) 0.682(12) 0.3573(13) 0.027(7) Uani 0.1667 1 d D . P A -1
H1D H 0.2995 0.5566 0.4031 0.040 Uiso 0.1667 1 calc R U P A -1
H1E H 0.1932 0.6826 0.3715 0.040 Uiso 0.1667 1 calc R U P A -1
H1F H 0.4202 0.7900 0.4285 0.040 Uiso 0.1667 1 calc R U P A -1
loop_
_atom_site_aniso_label
_atom_site_aniso_U_11
_atom_site_aniso_U_22
_atom_site_aniso_U_33
_atom_site_aniso_U_23
_atom_site_aniso_U_13
_atom_site_aniso_U_12
In1 0.0165(2) 0.0165(2) 0.0126(3) 0.000 0.000 0.00827(12)
Ag1 0.0633(4) 0.0633(4) 0.0140(4) 0.000 0.000 0.0316(2)
Br1 0.0218(3) 0.0435(3) 0.0284(3) -0.00558(7) -0.01117(15) 0.01092(13)
N1 0.025(15) 0.04(2) 0.023(2) -0.005(5) -0.005(4) 0.025(6)
C1 0.025(15) 0.04(2) 0.023(2) -0.005(5) -0.005(4) 0.025(6)
loop_
_atom_type_symbol
_atom_type_description
_atom_type_scat_dispersion_real
_atom_type_scat_dispersion_imag
_atom_type_scat_source
C C 0.0033 0.0016 'International Tables Vol C Tables 4.2.6.8 and 6.1.1.4'
H H 0.0000 0.0000 'International Tables Vol C Tables 4.2.6.8 and 6.1.1.4'
N N 0.0061 0.0033 'International Tables Vol C Tables 4.2.6.8 and 6.1.1.4'
Br Br -0.2901 2.4595 'International Tables Vol C Tables 4.2.6.8 and 6.1.1.4'
In In -0.7276 1.3100 'International Tables Vol C Tables 4.2.6.8 and 6.1.1.4'
Ag Ag -0.8971 1.1015 'International Tables Vol C Tables 4.2.6.8 and 6.1.1.4'
loop_
_geom_angle_atom_site_label_1
_geom_angle_atom_site_label_2
_geom_angle_atom_site_label_3
_geom_angle
_geom_angle_site_symmetry_1
_geom_angle_site_symmetry_3
Br1 In1 Br1 88.870(16) 7 8
Br1 In1 Br1 91.130(16) 7 2
Br1 In1 Br1 180.000(15) 8 2
Br1 In1 Br1 88.870(16) 7 9
Br1 In1 Br1 88.870(16) 8 9
Br1 In1 Br1 91.130(16) 2 9
Br1 In1 Br1 91.130(16) 7 3
Br1 In1 Br1 91.130(16) 8 3
Br1 In1 Br1 88.870(16) 2 3
Br1 In1 Br1 180.000(19) 9 3
Br1 In1 Br1 180.0 7 .
Br1 In1 Br1 91.131(16) 8 .
Br1 In1 Br1 88.869(16) 2 .
Br1 In1 Br1 91.130(16) 9 .
Br1 In1 Br1 88.870(16) 3 .
Br1 Ag1 Br1 100.526(14) . 9_556
Br1 Ag1 Br1 79.474(14) . 3
Br1 Ag1 Br1 180.000(14) 9_556 3
Br1 Ag1 Br1 79.473(14) . 2
Br1 Ag1 Br1 100.527(14) 9_556 2
Br1 Ag1 Br1 79.473(14) 3 2
Br1 Ag1 Br1 100.527(14) . 8_556
Br1 Ag1 Br1 79.473(14) 9_556 8_556
Br1 Ag1 Br1 100.527(14) 3 8_556
Br1 Ag1 Br1 180.000(12) 2 8_556
Br1 Ag1 Br1 180.0 . 7_556
Br1 Ag1 Br1 79.473(14) 9_556 7_556
Br1 Ag1 Br1 100.527(14) 3 7_556
Br1 Ag1 Br1 100.527(14) 2 7_556
Br1 Ag1 Br1 79.473(14) 8_556 7_556
In1 Br1 Ag1 78.485(15) . .
loop_
_geom_bond_atom_site_label_1
_geom_bond_atom_site_label_2
_geom_bond_distance
_geom_bond_site_symmetry_2
In1 Br1 2.6637(5) 7
In1 Br1 2.6637(5) 8
In1 Br1 2.6637(5) 2
In1 Br1 2.6637(5) 9
In1 Br1 2.6637(5) 3
In1 Br1 2.6637(5) .
Ag1 Br1 2.9172(5) .
Ag1 Br1 2.9172(5) 9_556
Ag1 Br1 2.9172(5) 3
Ag1 Br1 2.9172(5) 2
Ag1 Br1 2.9172(5) 8_556
Ag1 Br1 2.9172(5) 7_556
N1 C1 1.463(5) .
