#------------------------------------------------------------------------------
#$Date: 2019-11-17 09:16:52 +0200 (Sun, 17 Nov 2019) $
#$Revision: 229055 $
#$URL: file:///home/coder/svn-repositories/cod/cif/7/23/01/7230157.cif $
#------------------------------------------------------------------------------
#
# This file is available in the Crystallography Open Database (COD),
# http://www.crystallography.net/
#
# All data on this site have been placed in the public domain by the
# contributors.
#
data_7230157
loop_
_publ_author_name
'Mol\<canov, Kre\<simir'
'Stalke, Dietmar'
'\<Santi\'c, Ana'
'Demeshko, Serhiy'
'Stilinovi\'c, Vladimir'
'Mou, Zhongyu'
'Kertesz, Miklos'
'Koji\'c-Prodi\'c, Biserka'
_publ_section_title
;
 Probing semiconductivity in crystals of stable semiquinone radicals:
 organic salts of 5,6-dichloro-2,3-dicyanosemiquinone (DDQ) radical anions
;
_journal_issue                   13
_journal_name_full               CrystEngComm
_journal_page_first              1862
_journal_paper_doi               10.1039/C7CE02146A
_journal_volume                  20
_journal_year                    2018
_chemical_formula_moiety         'C17 H9 Cl2 N4 O2'
_chemical_formula_sum            'C17 H9 Cl2 N4 O2'
_chemical_formula_weight         372.18
_space_group_IT_number           2
_space_group_name_Hall           '-P 1'
_space_group_name_H-M_alt        'P -1'
_symmetry_cell_setting           triclinic
_symmetry_space_group_name_Hall  '-P 1'
_symmetry_space_group_name_H-M   'P -1'
_atom_sites_solution_hydrogens   geom
_atom_sites_solution_primary     direct
_atom_sites_solution_secondary   difmap
_audit_creation_date             2016-12-22T15:28:31-00:00
_audit_creation_method           'WinGX routine CIF_UPDATE'
_audit_update_record
;
2017-11-06 deposited with the CCDC.
2018-02-13 downloaded from the CCDC.
;
_cell_angle_alpha                96.753(5)
_cell_angle_beta                 98.883(6)
_cell_angle_gamma                104.199(5)
_cell_formula_units_Z            2
_cell_length_a                   6.5095(4)
_cell_length_b                   10.0244(6)
_cell_length_c                   12.1968(9)
_cell_measurement_reflns_used    1940
_cell_measurement_temperature    100(2)
_cell_measurement_theta_max      75.8319
_cell_measurement_theta_min      3.7142
_cell_volume                     752.21(9)
_computing_cell_refinement
;
        CrysAlisPro, Agilent Technologies,
        Version 1.171.36.20 (release 27-06-2012 CrysAlis171 .NET)
        (compiled Jul 11 2012,15:38:31)
;
_computing_data_collection
;
        CrysAlisPro, Agilent Technologies,
        Version 1.171.36.20 (release 27-06-2012 CrysAlis171 .NET)
        (compiled Jul 11 2012,15:38:31)
;
_computing_data_reduction
;
        CrysAlisPro, Agilent Technologies,
        Version 1.171.36.20 (release 27-06-2012 CrysAlis171 .NET)
        (compiled Jul 11 2012,15:38:31)
;
_computing_molecular_graphics    'Ortep-3 for Windows (Farrugia, 1997)'
_computing_publication_material  'WinGX publication routines (Farrugia, 1999)'
_computing_structure_refinement  'SHELXL-97 (Sheldrick, 1997)'
_computing_structure_solution    'SHELXS-97 (Sheldrick, 1997)'
_diffrn_ambient_temperature      100(2)
_diffrn_detector_area_resol_mean 10.4323
_diffrn_measured_fraction_theta_full 0.981
_diffrn_measured_fraction_theta_max 0.981
_diffrn_measurement_device_type  'Xcalibur, Ruby, Nova'
_diffrn_measurement_method       '\w scans'
_diffrn_radiation_monochromator  graphite
_diffrn_radiation_type           CuK\a
_diffrn_radiation_wavelength     1.54184
_diffrn_reflns_av_R_equivalents  0.0633
_diffrn_reflns_av_unetI/netI     0.0786
_diffrn_reflns_limit_h_max       8
_diffrn_reflns_limit_h_min       -5
_diffrn_reflns_limit_k_max       11
_diffrn_reflns_limit_k_min       -12
_diffrn_reflns_limit_l_max       15
_diffrn_reflns_limit_l_min       -14
_diffrn_reflns_number            6590
_diffrn_reflns_theta_full        76.02
_diffrn_reflns_theta_max         76.02
_diffrn_reflns_theta_min         3.72
_exptl_absorpt_coefficient_mu    4.072
_exptl_absorpt_correction_T_max  1
_exptl_absorpt_correction_T_min  0.6417
_exptl_absorpt_correction_type   multi-scan
_exptl_absorpt_process_details
;
        CrysAlisPro, Agilent Technologies,
        Version 1.171.36.20 (release 27-06-2012 CrysAlis171 .NET)
        (compiled Jul 11 2012,15:38:31)
        Empirical absorption correction using spherical harmonics,
 implemented in SCALE3 ABSPACK scaling algorithm.
;
_exptl_crystal_colour            black
_exptl_crystal_density_diffrn    1.643
_exptl_crystal_density_method    'not measured'
_exptl_crystal_description       prism
_exptl_crystal_F_000             378
_exptl_crystal_size_max          0.2
_exptl_crystal_size_mid          0.15
_exptl_crystal_size_min          0.1
_refine_diff_density_max         0.748
_refine_diff_density_min         -1.155
_refine_diff_density_rms         0.137
_refine_ls_extinction_method     none
_refine_ls_goodness_of_fit_ref   1.172
_refine_ls_hydrogen_treatment    constr
_refine_ls_matrix_type           full
_refine_ls_number_parameters     296
_refine_ls_number_reflns         3083
_refine_ls_number_restraints     176
_refine_ls_restrained_S_all      1.14
_refine_ls_R_factor_all          0.1559
_refine_ls_R_factor_gt           0.1478
_refine_ls_shift/su_max          0.006
_refine_ls_shift/su_mean         0.001
_refine_ls_structure_factor_coef Fsqd
_refine_ls_weighting_details
'calc w=1/[\s^2^(Fo^2^)+(0.0001P)^2^+14.4240P] where P=(Fo^2^+2Fc^2^)/3'
_refine_ls_weighting_scheme      calc
_refine_ls_wR_factor_ref         0.3196
_reflns_number_gt                2716
_reflns_number_total             3083
_reflns_threshold_expression     >2sigma(I)
_iucr_refine_instructions_details
;
TITL DDQ_kinoksalin_100K in P-1
CELL  1.54184   6.5095  10.0244  12.1968   96.753   98.883  104.199
ZERR    2.00   0.0004   0.0006   0.0009    0.005    0.006    0.005
LATT   1
SFAC  C    H    N    O    CL
UNIT  34   18   8   4   4
MERG   2
OMIT    -4.00 180.00
OMIT    1 -7 6
DFIX  1.150 0.020 C8A N2A
DFIX     1.150   0.020 C7A N1A
DFIX     1.450   0.020 C7A C2A
DFIX  1.450 0.020 C8A C3A
DFIX     1.450   0.020 C7B C2B
DFIX     1.150   0.020 C7B N1B
DFIX     1.450   0.020 C3B C8B
DFIX     1.150   0.020 C8B N2B
DFIX     1.370   0.020 C6B C5B
DFIX     1.470   0.020 C1B C6B
DFIX     1.370   0.020 C2B C3B
DFIX     1.720   0.020 C6B CL2B
DFIX     1.720   0.020 C5B CL1B
ISOR  0.03 0.00001 C1A C2A C3A C4A C5A C6A C7A C8A
SIMU  0.03 0.002 C1A C2A C3A C4A C5A C6A C7A C8A
ISOR  0.03 0.01 O1A O2A
SIMU  0.03 0.002 O1A O2A
ISOR  0.03 0.001 O1B O2B
SIMU  0.03 0.002 O1B O2B
ISOR  0.03 0.001 N1A N2A
SIMU  0.03 0.002  N1A N2A
ISOR  0.03 0.001 N1B N2B
SIMU  0.03 0.002  N1B N2B
ISOR  0.03 0.00001 C1B C2B C3B C4B C5B C6B C7B C8B
SIMU  0.03 0.002 C1B C2B C3B C4B C5B C6B C7B C8B
SIMU  0.03 0.002 Cl1A Cl2A
SIMU  0.03 0.002 Cl1B Cl2B
ISOR  0.03 0.01 Cl1A Cl2A Cl1B Cl2B
FMAP   2
PLAN   20
BOND   $H
HTAB
CONF
ACTA
L.S.  10
WGHT    0.000100   14.424000
FVAR       6.73294   0.72236
MOLE    1
PART    1
CL1A  5    0.188677    0.614887    0.822161    21.00000    0.02901    0.02170 =
         0.02007    0.00333    0.00661    0.00848
CL2A  5    0.252350    0.836537    1.039130    21.00000    0.03530    0.01858 =
         0.02350    0.00444    0.00973    0.01288
O1A   4    0.342518    0.727936    1.247753    21.00000    0.03681    0.02187 =
         0.01733   -0.00187    0.00204    0.01476
O2A   4    0.243132    0.347736    0.874358    21.00000    0.03826    0.01597 =
         0.01893    0.00362    0.00816    0.01482
N1A   3    0.386035    0.428527    1.363678    21.00000    0.03205    0.03198 =
         0.03199    0.00515    0.00591    0.00883
N2A   3    0.290788    0.147833    1.098795    21.00000    0.04056    0.04046 =
         0.04046    0.00654    0.00783    0.01098
C1A   1    0.320142    0.644425    1.160046    21.00000    0.01745    0.02192 =
         0.02546   -0.00170    0.00548    0.01371
C2A   1    0.326945    0.499846    1.166332    21.00000    0.02465    0.02205 =
         0.02540    0.00705    0.00746    0.01595
C3A   1    0.300174    0.400125    1.071517    21.00000    0.02169
C4A   1    0.263900    0.435094    0.957908    21.00000    0.01947    0.01757 =
         0.02016    0.00499    0.00778    0.01258
C5A   1    0.246121    0.575125    0.954303    21.00000    0.01910
C6A   1    0.274082    0.671241    1.048390    21.00000    0.01420
C7A   1    0.356456    0.461073    1.276242    21.00000    0.02399    0.02573 =
         0.02464    0.00857    0.01132    0.00994
C8A   1    0.294469    0.258457    1.084020    21.00000    0.02060
PART    2
CL1B  5    0.364125    0.417540    1.322467   -21.00000    0.03462    0.03139 =
         0.02735   -0.00091    0.00406    0.00962
CL2B  5    0.294220    0.196614    1.105484   -21.00000    0.03198    0.02622 =
         0.03570    0.00612    0.00977    0.00844
O1B   4    0.264191    0.317003    0.895648   -21.00000    0.00930    0.00929 =
         0.00925    0.00135    0.00165    0.00260
O2B   4    0.358689    0.695737    1.273885   -21.00000    0.01933    0.01919 =
         0.01922    0.00302    0.00361    0.00527
N1B   3    0.157765    0.602490    0.781570   -21.00000    0.02235    0.02230 =
         0.02236    0.00358    0.00419    0.00603
N2B   3    0.244485    0.884862    1.059544   -21.00000    0.02462    0.02456 =
         0.02449    0.00398    0.00480    0.00658
C1B   1    0.283738    0.407840    0.984146   -21.00000    0.01222
C2B   1    0.273650    0.549837    0.981780   -21.00000    0.01521    0.02541 =
         0.01509   -0.00227    0.00330    0.01023
C3B   1    0.291032    0.638674    1.079600   -21.00000    0.01615
C4B   1    0.335879    0.613659    1.182853   -21.00000   10.02000
C5B   1    0.339682    0.463400    1.191309   -21.00000   10.02000
C6B   1    0.308174    0.369182    1.096255   -21.00000    0.02024
C7B   1    0.198144    0.575038    0.870027   -21.00000    0.01428
C8B   1    0.257549    0.774257    1.069225   -21.00000    0.01146
MOLE    2
PART    0
N3    3    0.062248    0.973249    0.705258    11.00000    0.04038    0.02918 =
         0.02643    0.00337    0.01306    0.00709
N4    3   -0.293309    0.915005    0.531496    11.00000    0.03094    0.03462 =
         0.03640    0.00574    0.01310    0.00502
C9    1   -0.080297    1.044928    0.706696    11.00000    0.05529    0.03349 =
         0.04049    0.00310    0.02305    0.01155
AFIX  43
H9    2   -0.061449    1.116752    0.766099    11.00000   -1.20000
AFIX   0
C10   1   -0.262011    1.014930    0.619563    11.00000    0.04653    0.03212 =
         0.03828    0.00277    0.02049    0.01408
AFIX  43
H10   2   -0.362797    1.066099    0.623516    11.00000   -1.20000
AFIX   0
C11   1   -0.141943    0.841252    0.530939    11.00000    0.03632    0.02711 =
         0.02855    0.00633    0.01361    0.00911
C12   1   -0.169763    0.736971    0.434993    11.00000    0.04267    0.02700 =
         0.03059    0.00107    0.00692   -0.00152
AFIX  43
H12   2   -0.289052    0.718151    0.377079    11.00000   -1.20000
AFIX   0
C13   1   -0.016606    0.666039    0.430867    11.00000    0.05509    0.03288 =
         0.02773   -0.00440    0.01585    0.01183
AFIX  43
H13   2   -0.034330    0.596981    0.369510    11.00000   -1.20000
AFIX   0
C14   1    0.165951    0.693437    0.515537    11.00000    0.04414    0.03148 =
         0.04650    0.01306    0.01772    0.01516
AFIX  43
H14   2    0.268357    0.644152    0.508562    11.00000   -1.20000
AFIX   0
C15   1    0.197057    0.793922    0.610689    11.00000    0.02794    0.03069 =
         0.04130    0.00585    0.00745    0.00528
AFIX  43
H15   2    0.316604    0.811158    0.668235    11.00000   -1.20000
AFIX   0
C16   1    0.041919    0.866964    0.615696    11.00000    0.03907    0.02437 =
         0.02036    0.00516    0.01190    0.00510
C17   1    0.251698    1.007380    0.794897    11.00000    0.05248    0.05266 =
         0.02278    0.00103    0.01236    0.00731
AFIX  33
H17A  2    0.338840    0.944900    0.781046    11.00000   -1.50000
H17B  2    0.206828    0.998179    0.865638    11.00000   -1.50000
H17C  2    0.334281    1.101554    0.797083    11.00000   -1.50000
HKLF    4
 
REM  DDQ_kinoksalin_100K in P-1
REM R1 =  0.1478 for   2716 Fo > 4sig(Fo)  and  0.1559 for all   3083 data
REM    296 parameters refined using    176 restraints
 
END
 
WGHT      0.0000     14.1352
REM Highest difference peak  0.748,  deepest hole -1.155,  1-sigma level  0.137
Q1    1   0.2016  1.1271  0.8215  11.00000  0.05    0.75
Q2    1   0.2616  0.3662  1.0318  11.00000  0.05    0.64
Q3    1   0.2616  0.6285  0.9955  11.00000  0.05    0.62
Q4    1   0.1535  0.7210  0.7637  11.00000  0.05    0.57
Q5    1   0.2365  0.8953  0.8400  11.00000  0.05    0.56
Q6    1   0.1684  0.4836  0.8514  11.00000  0.05    0.55
Q7    1  -0.1586  0.6708  0.2852  11.00000  0.05    0.53
Q8    1   0.1853  0.7372  0.7878  11.00000  0.05    0.52
Q9    1   0.3471  0.7126  1.1865  11.00000  0.05    0.50
Q10   1   0.3168  0.7246  1.0564  11.00000  0.05    0.49
Q11   1   0.5243  0.4770  1.3823  11.00000  0.05    0.49
Q12   1   0.2300  0.5409  0.9018  11.00000  0.05    0.49
Q13   1   0.1853  0.3167  0.8123  11.00000  0.05    0.48
Q14   1   0.1937  0.8813  0.9272  11.00000  0.05    0.47
Q15   1   0.1971  0.9414  0.9977  11.00000  0.05    0.46
Q16   1   0.2416  0.8816  0.7214  11.00000  0.05    0.45
Q17   1   0.2701  0.2195  1.0248  11.00000  0.05    0.44
Q18   1   0.2944  0.9066  0.9117  11.00000  0.05    0.44
Q19   1   0.0073  0.9450  0.4986  11.00000  0.05    0.44
Q20   1   0.1020  1.0658  0.9487  11.00000  0.05    0.44
;
_cod_data_source_file            c7ce02146a2.cif
_cod_data_source_block           ddq_kinoksalin_100k
_cod_depositor_comments
'Adding full bibliography for 7230151--7230160.cif.'
_cod_database_code               7230157
_iucr_refine_reflections_details
;
   0   0  -1 39833.5 1215.84   2
   0   0  -2 29250.1 1373.42   2
   0   0  -3 3157.79 580.600   2
   0   0  -4 2498.74 608.380   2
   0   0  -5 5452.84 940.996   2
   0   0  -6 2137.81 689.572   2
   0   0  -7 3179.11 565.136   8
   0   0  -7 2926.95 895.134   2
   0   0  -8 11413.0 1844.26   2
   0   0  -8 13358.5 1324.20   8
   0   0  -9 25040.9 3008.42   2
   0   0  -9 29844.1 2182.85   8
   0   0   9 31177.9 2190.53  19
   0   0 -10 1731.49 826.851   2
   0   0  10 1961.85 624.285  19
   0   0  10 2887.15 621.923  33
   0   0 -10 1681.03 567.117   8
   0   0  11 2391.15 663.890  19
   0   0 -11 1923.01 635.900   8
   0   0  12 4741.18 947.324  19
   0   0 -12 4566.48 884.078   8
   0   0  13 3383.37 723.878  19
   0   0  13 2808.17 568.101  12
   0   0  14 10803.6 889.915  12
   0   0  14 10011.1 915.719   6
   0  -1  15 3556.87 407.753  20
   0  -1  14 9205.61 862.844  12
   0  -1  14 7917.39 872.555  20
   0  -1  13 19104.6 1476.71  12
   0  -1  12 20110.3 1909.19  19
   0  -1  12 16702.5 1497.94  12
   0   1 -12 21147.3 1860.73   8
   0  -1  11 3159.59 790.064  19
   0   1 -11 3575.66 777.599   8
   0  -1  10 7249.32 1094.74  19
   0   1 -10 7441.14 1121.17   8
   0   1 -10 7409.87 1675.76   2
   0   1  -9 4807.01 846.921   8
   0   1  -9 5038.76 1295.60   2
   0  -1   9 4656.20 813.102  19
   0   1  -8 7466.35 1471.46   2
   0   1  -7 8417.70 1406.75   2
   0   1  -6 35739.0 2682.89   2
   0   1  -5 64567.0 2227.37   4
   0   1  -5 78641.5 3676.85   2
   0  -1   4 85.1172 52.9909   1
   0   1  -4 305.543 274.526   2
   0   1  -3 34094.4 1829.06   2
   0   1  -2 2034.48 350.963   2
   0   1  -1 54369.6 1614.65   2
   0   1   0 22170.1 1034.23   3
   0  -1  -1 131153. 3097.83   2
   0   1   1 117450. 3457.21   3
   0  -1  -2 9110.30 775.740   2
   0  -1  -3 7528.97 827.102   2
   0  -1  -3 4046.40 319.435   1
   0  -1  -4 26452.3 1845.69   2
   0  -1  -5 20534.6 1852.88   2
   0  -1  -6 4250.83 935.591   2
   0  -1  -7 4542.58 1121.82   2
   0  -1  -7 4604.02 739.984   8
   0  -1  -8 45831.4 2639.96   8
   0  -1  -8 46832.8 3899.56   2
   0  -1  -9 11623.3 1379.86   8
   0  -1  -9 11124.2 1995.61   2
   0   1   9 9820.55 1084.23  33
   0   1   9 11497.0 1366.05  19
   0   1  10 43944.5 2904.41  19
   0   1  10 40953.3 2434.41  33
   0  -1 -10 44751.8 2892.67   8
   0   1  11 12884.8 1313.63  33
   0   1  11 11144.5 1495.98  19
   0   1  12 7427.59 1157.48  19
   0   1  13 2211.26 484.997   6
   0   1  13 2669.91 517.167  12
   0   1  13 1866.16 533.141  19
   0   1  14 802.970 237.633  12
   0  -2  15 1359.96 259.382  20
   0  -2  14 3201.03 507.845  12
   0  -2  14 3167.89 547.484  20
   0   2 -13 1618.95 466.441   8
   0  -2  13 1741.52 436.066  12
   0  -2  13 1321.62 440.083  20
   0   2 -12 6679.08 1048.67   8
   0  -2  12 5859.80 867.453  12
   0  -2  11 4881.41 924.496  19
   0   2 -11 4658.36 910.085   8
   0  -2  11 2579.83 565.750  12
   0  -2  10 4639.77 897.708  19
   0  -2  10 3837.84 676.594  12
   0   2 -10 4176.75 1255.09   2
   0   2  -9 889.231 563.614   2
   0  -2   9 368.218 318.133  19
   0   2  -8 21345.5 2486.75   2
   0   2  -7 30981.0 2768.85   2
   0   2  -6 15100.0 1723.60   2
   0  -2   5 8997.55 618.421   1
   0   2  -5 10370.2 1264.90   2
   0   2  -4 9155.48 1093.52   2
   0   2  -3 94443.8 3335.56   2
   0  -2   2 114314. 2402.62   4
   0   2  -2 161754. 3771.21   2
   0   2  -1 2610.67 457.380   3
   0   2   0 576.783 241.505   3
   0   2   1 1280.36 398.514   3
   0   2   2 38149.2 2257.17   3
   0  -2  -2 39522.5 2025.05   2
   0  -2  -3 5176.89 791.307   2
   0  -2  -4 24433.8 1863.53   2
   0  -2  -4 20202.6 1056.60   1
   0  -2  -5 2796.96 697.720   2
   0  -2  -6 150818. 4755.49   8
   0  -2  -6 154766. 6435.37   2
   0  -2  -7 45933.0 3637.21   2
   0  -2  -7 46727.4 2581.63   8
   0  -2  -8 2232.44 765.293   4
   0  -2  -8 2633.70 935.763   2
   0  -2  -8 2494.59 657.457   8
   0  -2  -9 7078.40 959.260  26
   0   2   9 5377.93 835.920  33
   0   2   9 6593.12 1077.15  19
   0  -2  -9 6567.54 1821.43   2
   0   2  10 1795.26 519.012  33
   0   2  10 1783.41 626.841  19
   0   2  11 1449.75 416.464  33
   0   2  11 870.281 383.999   6
   0   2  11 510.041 371.012  19
   0   2  12 5086.73 976.345  19
   0   2  12 5279.44 838.050   6
   0   2  13 1213.62 394.797  19
   0   2  13 1160.97 319.621  12
   0   2  13 1156.79 337.609   6
   0   2  14 333.839 128.039  12
   0  -3  15 1147.53 236.354  20
   0  -3  14 4995.38 673.937  20
   0  -3  14 4911.33 619.422  12
   0  -3  13 405.736 215.236  12
   0  -3  13 388.184 234.263  20
   0   3 -13 868.781 344.792   8
   0  -3  12 6261.12 889.262  12
   0   3 -12 6533.62 1014.35   8
   0  -3  12 5315.20 857.541  20
   0  -3  11 220.142 198.554  12
   0   3 -11 511.423 321.745   8
   0  -3  10 801.474 317.037  12
   0   3  -9 1067.69 613.368   2
   0  -3   9 1625.93 404.103  12
   0   3  -8 17970.0 2319.46   2
   0   3  -7 21834.5 2338.90   2
   0   3  -6 6313.60 1143.69   2
   0   3  -5 449.534 335.250   2
   0   3  -4 6911.42 966.646   2
   0   3  -3 34327.4 2012.58   2
   0   3  -2 69724.8 2871.64   2
   0   3  -2 93581.3 3765.81   3
   0   3  -1 23818.2 1756.85   3
   0   3   0 26605.1 1950.93   3
   0   3   1 122940. 4864.50   3
   0   3   2 23556.0 2063.46   3
   0   3   3 12870.8 1604.48   3
   0  -3  -4 4215.78 608.816   1
   0   3   5 3747.42 570.527   6
   0  -3  -5 4750.15 942.801   2
   0  -3  -6 9778.35 1556.25   2
   0   3   7 3828.30 731.809   6
   0  -3  -8 721.681 324.254  26
   0   3   8 1054.96 399.452   6
   0   3   8 83.6627 190.950  19
   0  -3  -8 1145.40 610.225   4
   0   3   9 832.493 393.328  33
   0  -3  -9 553.823 326.949  26
   0   3   9 784.257 352.658   6
   0   3   9 552.980 352.959  19
   0   3  10 7279.14 987.498  33
   0   3  10 8439.59 1315.79  19
   0   3  10 7899.33 1129.10   6
   0   3  11 5796.93 799.332  33
   0   3  11 6524.30 968.680   6
   0   3  11 6206.06 1059.75  19
   0   3  12 1660.79 433.875   6
   0   3  12 1561.52 496.006  19
   0   3  13 221.362 201.612  19
   0  -4  14 5770.04 695.559  20
   0  -4  13 4309.25 669.436  12
   0  -4  13 3635.43 670.456  20
   0   4 -13 3885.30 679.325   8
   0  -4  12 838.129 390.507  20
   0   4 -12 1206.99 472.080   8
   0  -4  12 1041.39 316.521  12
   0  -4  11 132.365 212.374  20
   0  -4  11 256.982 209.916  12
   0  -4  10 5174.80 810.355  12
   0  -4  10 5167.13 857.002  20
   0   4  -9 10600.3 1900.75   2
   0  -4   9 10995.1 1170.21  20
   0  -4   9 12328.2 1153.43  12
   0   4  -8 7019.27 1444.19   2
   0   4  -7 32714.5 2948.33   2
   0   4  -6 6163.10 1140.15   2
   0   4  -5 4842.15 947.997   2
   0   4  -4 8967.24 1165.65   2
   0   4  -3 2964.58 651.176   2
   0   4  -3 4065.01 921.225   3
   0   4  -2 23611.1 1690.71   2
   0   4  -2 30156.5 2384.63   3
   0   4  -1 270686. 8279.75   3
   0   4   0 49182.6 3131.66   3
   0   4   1 25906.7 2342.56   3
   0   4   2 28545.8 2526.00   3
   0   4   3 22083.2 2304.20   3
   0   4   4 5531.87 710.036   6
   0  -4  -4 5955.30 831.379   1
   0   4   5 13961.3 1205.47   6
   0   4   6 22918.7 1679.79   6
   0  -4  -7 4530.86 1212.53   4
   0   4   7 5635.00 877.737   6
   0  -4  -7 6152.45 856.844  26
   0  -4  -7 5334.56 795.156  13
   0  -4  -8 1411.44 455.896  26
   0   4   8 1319.18 452.468   6
   0  -4  -8 1163.24 421.043  13
   0   4   8 1336.88 535.715  19
   0  -4  -8 826.797 539.784   4
   0   4   9 1591.13 543.548   6
   0  -4  -9 1386.39 432.758  26
   0   4   9 1504.40 495.335  33
   0   4   9 2192.92 711.444  19
   0   4  10 1266.16 453.157   6
   0   4  10 1000.83 462.969  19
   0   4  10 1053.62 412.747  33
   0   4  11 1233.82 441.233  19
   0   4  11 1129.16 411.256   6
   0   4  11 1364.20 344.492  33
   0   4  12 545.484 309.911  19
   0   4  12 561.160 271.218   6
   0   4  13 241.907 98.6857  12
   0   4  13 477.175 194.683  19
   0  -5  14 6506.58 640.306  13
   0  -5  14 6268.74 672.006  20
   0  -5  13 5018.06 731.175  20
   0  -5  12 642.145 312.889  20
   0  -5  11 174.507 186.630  20
   0  -5  11 238.115 179.296  12
   0  -5  10 17090.3 1449.63  12
   0  -5  10 13216.0 1380.24  20
   0  -5   9 5647.47 900.795  20
   0   5  -9 6242.77 1436.51   2
   0  -5   9 7001.48 901.393  12
   0  -5   8 654.390 272.351  20
   0  -5   8 1221.15 367.315  12
   0   5  -8 1452.61 682.979   2
   0   5  -7 598.444 416.859   2
   0  -5   6 8622.91 1156.86   1
   0   5  -6 10028.7 1501.46   2
   0   5  -5 14054.1 2097.92   3
   0   5  -5 16069.5 1782.98   2
   0   5  -4 3267.55 931.142   3
   0   5  -4 2404.09 639.884   2
   0   5  -3 35990.1 3057.07   3
   0   5  -3 30682.3 2101.56   2
   0   5  -2 12967.3 1764.19   3
   0  -5   2 8825.68 1044.60   4
   0   5  -2 10908.1 1247.05   2
   0   5  -1 36159.9 2233.41   2
   0   5  -1 48021.1 3423.61   3
   0   5   0 39942.4 3168.85   3
   0   5   1 13768.6 1846.28   3
   0   5   2 20644.9 2267.27   3
   0   5   3-8.32794 133.082   3
   0   5   3 130.006 124.974   6
   0   5   4 53022.5 2513.14   6
   0   5   5 4705.24 769.059   6
   0  -5  -6 3155.06 598.029  26
   0   5   6 2558.80 614.550   6
   0  -5  -6 2873.99 589.671  13
   0  -5  -7 9516.97 1864.26   4
   0   5   7 11681.9 1321.07   6
   0  -5  -7 10947.0 1189.84  13
   0  -5  -7 11964.1 1230.65  26
   0  -5  -8 17276.9 1543.77  13
   0   5   8 17959.4 1878.13  19
   0   5   8 18244.7 1678.97   6
   0  -5  -8 20549.2 1640.39  26
   0  -5  -9 5234.43 816.337  26
   0   5   9 4871.55 955.337  19
   0   5   9 4267.86 705.465  33
   0   5   9 4481.89 802.523   6
   0   5  10 582.494 263.741   6
   0   5  10 453.692 328.554  19
   0   5  10 267.383 179.433  33
   0   5  11 131.887 136.241  19
   0   5  11 453.230 227.919   6
   0   5  12 982.408 291.483  19
   0  -6  14 1304.62 265.860  20
   0  -6  14 680.982 181.166  13
   0  -6  13 14.8540 90.5733  13
   0  -6  13 298.314 219.606  20
   0  -6  12 991.027 388.787  20
   0  -6  11 6059.74 909.587  20
   0  -6  10 1925.71 576.434  20
   0  -6   9 7517.10 1059.49  20
   0  -6   8 6436.22 969.672  20
   0   6  -8 5158.35 1487.81   3
   0   6  -7 16728.3 2659.82   3
   0  -6   7 21241.3 1682.27  20
   0   6  -6 4112.35 1250.20   3
   0  -6   6 6382.37 1159.43   1
   0  -6   5 2351.24 670.310   1
   0   6  -5 1548.98 708.900   3
   0   6  -4 1376.72 679.948   3
   0   6  -3 1945.96 745.219   3
   0   6  -2 18250.5 2337.55   3
   0   6  -1 15784.1 2135.01   3
   0  -6   1 11103.4 1391.97   4
   0   6   0 9502.92 1652.81   3
   0   6   1 190.531 263.522   3
   0   6   2 161.123 205.442   3
   0   6   3 627.145 416.076   3
   0  -6  -3 858.569 484.678   1
   0  -6  -4 2784.55 526.426  13
   0  -6  -5 850.790 337.431  13
   0  -6  -5 943.966 597.484   4
   0   6   5 1220.33 442.413   6
   0  -6  -6 2776.91 594.834  13
   0   6   6 2826.96 637.721   6
   0  -6  -6 2671.37 588.337  26
   0  -6  -7 4165.38 750.110  26
   0  -6  -7 4636.23 780.096  13
   0   6   7 4269.33 794.829   6
   0  -6  -8 637.618 322.236  26
   0  -6  -8 526.042 263.213  13
   0   6   8 620.080 418.632  19
   0   6   8 737.435 293.783   6
   0  -6  -9-142.134 238.126  26
   0   6   9-129.696 203.291  19
   0   6   9 176.141 119.754  33
   0   6  10 304.993 223.573  19
   0   6  11 744.364 260.378  19
   0  -7  13 1170.23 293.231  20
   0  -7  13 977.134 231.352  13
   0  -7  12 4457.30 623.309  13
   0  -7  12 5030.04 706.700  20
   0  -7  11 1922.34 461.334  13
   0  -7  11 1880.52 492.251  20
   0  -7  10 702.172 370.129  20
   0  -7  10 1165.27 372.234  13
   0  -7   9 637.291 354.135  20
   0  -7   9 357.734 195.536  13
   0  -7   8 2495.76 627.013  20
   0  -7   8 3555.02 683.824  13
   0  -7   7 34433.6 2133.16  13
   0  -7   7 36950.1 2399.82  20
   0   7  -7 30917.7 3699.23   3
   0  -7   6 21992.7 1806.56  20
   0   7  -6 20364.1 2952.11   3
   0  -7   6 19766.4 1574.98  13
   0  -7   5 749.984 341.707  20
   0  -7   5 2009.87 676.129   1
   0  -7   5 1379.37 409.674  13
   0   7  -5 1362.62 735.904   3
   0   7  -4 4777.80 1335.37   3
   0  -7   4 5517.03 758.097  13
   0  -7   4 4739.86 758.243  20
   0  -7   4 4742.80 1043.64   1
   0   7  -3 9955.11 1883.24   3
   0   7  -2 15222.7 2317.97   3
   0   7  -1 10304.0 1867.04   3
   0   7   0 10151.6 1805.91   3
   0  -7   0 7292.96 1331.37   4
   0  -7  -1 5261.45 1178.47   4
   0  -7  -1 6325.54 790.121  13
   0  -7  -1 6513.73 1268.34   1
   0  -7  -2 15835.1 1997.26   1
   0  -7  -2 11996.0 1970.48   4
   0  -7  -2 14354.6 1236.50  13
   0   7   3 41205.0 2428.70  24
   0  -7  -3 44371.5 2293.98  13
   0  -7  -4 6236.81 1516.07   4
   0  -7  -4 8853.20 1018.32  13
   0  -7  -5 1112.55 389.797  26
   0  -7  -5 1665.56 440.785  13
   0  -7  -6 6685.47 895.847  13
   0  -7  -6 6088.70 856.270  26
   0  -7  -7 851.169 373.048  26
   0  -7  -7 898.559 341.604  13
   0  -7  -8 2093.83 487.932  13
   0  -7  -8 2220.04 478.713  26
   0   7   8 2456.79 596.424  19
   0   7   9 588.034 279.122  19
   0   7  10 1037.40 296.376  19
   0  -8  12 1925.12 351.396  13
   0  -8  11 1569.94 436.905  20
   0  -8  11 1562.04 360.265  13
   0  -8  10 329.673 189.232  13
   0   8 -10 340.142 228.275  11
   0  -8  10 174.573 213.927  20
   0  -8   9 10518.4 1143.56  13
   0  -8   9 11386.6 1277.54  20
   0  -8   8 13301.6 1297.21  13
   0  -8   8 13240.2 1455.25  20
   0  -8   7 14.1224 253.510  20
   0  -8   7 20.6000 109.858  13
   0   8  -7 158.915 219.843  11
   0   8  -6 3103.43 611.423  11
   0  -8   6 3042.53 647.940  13
   0  -8   5 1505.33 465.507  13
   0  -8   4 9194.26 1527.14   1
   0  -8   4 8223.88 1017.61  13
   0  -8   3 6414.56 870.386  13
   0  -8   3 6617.07 1331.71   1
   0  -8   2 1942.48 453.641  13
   0  -8   2 2590.23 839.218   1
   0  -8   2 2723.98 546.672   9
   0  -8   1 2885.96 581.754  13
   0  -8   1 2961.53 888.971   1
   0   8   0 1083.08 406.066  24
   0  -8   0 1738.16 459.547  13
   0  -8   0 2310.71 790.076   1
   0  -8  -1 540.489 238.049  13
   0  -8  -2 19061.1 1500.28  13
   0  -8  -3 20718.1 1581.18  13
   0  -8  -4 1358.55 413.856  13
   0  -8  -5 22520.5 1621.29  13
   0  -8  -5 22112.4 1558.85  26
   0  -8  -6 8103.63 917.102  26
   0  -8  -6 8305.38 948.416  13
   0  -8  -7 1152.29 340.416  13
   0  -8  -7 757.558 290.953  26
   0  -8  -8 129.210 111.439  26
   0   8   8 123.967 169.358  19
   0   8   9 757.525 220.904  19
   0  -9  11 536.142 178.556  13
   0  -9  10 4121.06 577.302  13
   0  -9   9 3297.52 558.721  13
   0  -9   8 9175.75 999.503  13
   0  -9   7 1057.92 381.907  13
   0  -9   6 2434.16 553.255  13
   0  -9   5 596.319 318.156  13
   0  -9   4 2904.34 618.452  13
   0  -9   3 993.243 332.643   9
   0  -9   3 2023.08 497.577  13
   0  -9   2 826.353 293.385  13
   0   9  -2 1070.30 479.924  24
   0  -9   1 9502.98 1063.26  13
   0   9  -1 8178.64 1090.44  24
   0  -9   0 5647.65 815.487  13
   0  -9  -1 1216.37 379.040  13
   0  -9  -2 536.719 255.594  13
   0  -9  -3 8883.27 975.166  13
   0  -9  -4 8358.59 922.753  13
   0  -9  -4 7126.42 809.005  26
   0  -9  -5 3810.77 571.052  26
   0  -9  -5 4023.03 605.831  13
   0  -9  -6 2518.50 446.300  13
   0  -9  -6 2136.07 391.844  26
   0   9   7 192.534 105.748  19
   0  -9  -7 45.6858 102.936  26
   0   9   8 730.061 184.771  19
   0 -10  10 9365.56 654.296  13
   0 -10   9 1717.86 334.273  13
   0 -10   8 1678.74 365.185  13
   0 -10   7 1272.18 317.003   9
   0 -10   7 2548.86 471.856  13
   0 -10   6 1539.46 345.865   9
   0 -10   6 3266.12 568.698  13
   0 -10   5 2081.78 432.245   9
   0 -10   5 3037.75 585.524  13
   0  10  -4 2145.18 558.438  24
   0 -10   4 1860.49 457.531  13
   0 -10   3 3513.46 620.810  13
   0 -10   2 11998.2 1150.95  13
   0 -10   1 5877.80 803.250  13
   0 -10   0 508.235 262.052  13
   0 -10  -1 453.213 221.672  13
   0 -10  -2 173.750 192.961  26
   0 -10  -2 453.401 204.383  13
   0 -10  -3 3044.07 494.868  13
   0 -10  -3 2484.54 407.033  26
   0 -10  -4 7231.12 727.212  13
   0 -10  -4 6233.06 605.457  26
   0 -10  -5 369.576 155.348  26
   0 -10  -5 565.596 193.171  13
   0  10   6 171.705 120.037  19
   0 -11   8 8386.11 596.962  13
   0 -11   7 4882.32 512.152  13
   0 -11   6 661.422 219.925  13
   0 -11   5 1611.53 339.916  13
   0 -11   4 3463.77 508.945  13
   0 -11   3 4371.31 579.408  13
   0 -11   2 4653.70 601.616  13
   0 -11   1 5555.97 649.913  13
   0 -11   0 39.0401 107.556  13
   0 -11  -1 1847.59 347.855  13
   0 -11  -2 3025.51 413.082  13
   0 -11  -3 5053.23 489.702  13
   0 -11  -4 942.237 181.633  13
   0 -12   5 209.682 90.7168  13
   0 -12   4 8448.91 561.373  13
   0 -12   3 2256.54 294.545  13
   0 -12   2 4998.61 442.999  13
   0 -12   1 105.026 67.5581  13
   0 -12   0 1526.25 215.733  13
   1 -12  -1 3585.07 354.176  34
   1 -12  -1 6074.06 451.530  13
   1 -12   0 1418.01 239.521  13
   1 -12   0 684.662 155.096  34
   1 -12   1 112.207 90.8397  13
   1 -12   2 1681.77 278.820  13
   1 -12   3 8855.74 655.700  13
   1 -12   4 949.452 205.699  13
   1 -12   5-22.1848 59.0818  13
   1 -12   6 3472.55 331.391  13
  -1  11   5 320.120 144.563  19
   1 -11  -5 555.152 148.971  34
   1 -11  -4 1639.23 257.640  13
   1 -11  -3 4524.57 490.414  13
   1 -11  -2 7383.11 686.660  13
   1 -11  -1 4934.65 583.766  13
   1 -11   0 6133.19 596.839   9
   1 -11   0 6215.88 693.839  13
   1 -11   1 15665.4 1142.20  13
   1 -11   1 15588.2 1013.26   9
   1 -11   2 1613.58 377.004  13
   1 -11   2 1287.26 301.692   9
   1 -11   3 3452.82 496.051   9
   1 -11   3 4052.72 586.697  13
   1 -11   4 470.343 232.213  13
   1 -11   4 485.650 210.637   9
   1 -11   5 1292.39 311.915  13
   1 -11   5 715.292 230.163   9
   1 -11   6 1682.52 329.086   9
   1 -11   6 3108.96 457.379  13
   1 -11   7 8709.77 715.146  13
   1 -11   7 3150.87 419.634   9
   1 -11   8 479.687 142.602   9
   1 -11   8 1518.13 267.734  13
   1 -11   9 530.275 127.779  13
  -1  10   7 1318.43 298.263  19
   1 -10  -6 181.555 104.815  13
   1 -10  -5 876.543 246.812  13
   1 -10  -4 332.882 163.693  13
   1 -10  -3 1942.23 404.751  13
   1 -10  -2 3019.14 512.243  13
   1 -10  -1 4936.01 691.571  13
   1 -10  -1 5882.06 702.407   9
   1 -10   0 3024.83 535.305   9
   1 -10   0 3203.50 565.919  13
   1 -10   1 15189.9 1263.45   9
   1 -10   1 14145.8 1244.38  13
   1 -10   2 1417.96 373.648   9
   1 -10   2 1582.03 408.614  13
   1 -10   3-62.7817 123.860  13
   1 -10   3 242.072 200.986   9
   1 -10   4 2378.53 502.954  13
   1 -10   4 2105.97 527.891   9
   1 -10   5 17043.8 1381.10  13
   1 -10   6 12293.6 1150.51  13
   1 -10   7 1094.11 342.197  13
   1 -10   8 1070.27 289.804  13
   1 -10   9 627.668 216.902  13
   1 -10  10 2915.15 377.078  13
  -1   9   8 1057.02 320.520  19
   1  -9  -7 406.945 177.798  13
  -1   9   7 629.752 311.048  19
   1  -9  -6 7241.86 759.139  13
   1  -9  -6 7009.81 724.595  26
   1  -9  -5 2084.99 419.861  26
   1  -9  -5 2093.60 433.786  13
   1  -9  -4 7442.99 859.839  13
   1  -9  -4 8312.41 834.456  26
   1  -9  -3 5987.56 787.975  13
   1  -9  -3 6514.07 725.780  26
   1  -9  -3 7341.98 842.457   9
   1  -9  -2 457.286 214.169  28
   1  -9  -2 489.170 247.547  13
   1  -9  -2 396.021 179.445   9
   1  -9  -1 7562.04 884.987   9
   1  -9  -1 7070.06 875.288  13
   1  -9  -1 7156.09 779.583  28
   1  -9   0 2859.10 567.486  13
   1  -9   0 3139.33 580.378   9
   1  -9   1 1792.24 462.448  13
   1  -9   1 2056.69 522.841   9
   1  -9   2 1143.86 400.143   9
   1  -9   2 685.315 283.534  13
   1  -9   3 2916.06 601.183  13
   1  -9   4 8637.24 1044.59  13
   1  -9   5 7805.94 995.290  13
   1  -9   6 2663.48 568.386  13
   1  -9   7 511.866 290.748  13
   1  -9   8 1360.13 396.103  13
   1  -9   9 5099.03 692.369  13
   1  -9  10 3045.38 493.387  13
   1  -9  11 1835.82 329.557  13
  -1   8  10 1351.64 287.578  19
  -1   8   9 2382.26 492.004  19
  -1   8   8 1384.93 408.059  19
   1  -8  -8 1167.74 277.840  34
   1  -8  -7 8927.40 915.012  13
   1  -8  -7 9530.22 935.342  26
   1  -8  -6 323.293 197.081  13
   1  -8  -6 86.2908 128.338  26
   1  -8  -5 152.696 169.099  13
   1  -8  -5 52.0990 181.016  26
   1  -8  -4 507.939 268.323  26
   1  -8  -4 299.108 151.831  13
   1  -8  -3 12129.3 1127.97   9
   1  -8  -3 11529.7 1128.89  13
   1  -8  -3 10565.7 986.556  26
   1  -8  -3 11060.6 1011.45  28
   1  -8  -2 4838.04 645.964  28
   1  -8  -2 4263.29 660.721   9
   1  -8  -2 5414.85 760.746  13
   1  -8  -2 2828.24 978.103   4
   1  -8  -2 4072.06 1005.54   1
   1  -8  -1 16657.1 1335.26  13
   1  -8  -1 18109.6 1421.91   9
   1  -8  -1 16523.2 1156.89  28
   1  -8   0 5198.24 1176.43   1
   1  -8   0 4373.53 666.421  13
   1  -8   0 4391.17 703.581   9
   1  -8   1 865.943 349.302   9
   1  -8   1 1795.21 706.253   1
   1  -8   1 731.182 282.706  13
   1  -8   2 575.383 420.469   1
   1  -8   2 127.264 203.140  13
   1  -8   3 2402.57 806.341   1
   1  -8   3 1973.84 477.959  13
   1  -8   4 32533.2 2950.81   1
   1  -8   4 33549.5 2074.00  13
   1  -8   5 5646.45 1177.79   1
   1  -8   5 5040.69 793.291  13
   1  -8   6 1742.76 469.531  13
   1  -8   6 2016.96 565.232  20
   1  -8   7 12.5251 219.493  20
   1  -8   7 575.504 328.618  13
   1  -8   8 946.411 365.434  13
   1  -8   8 234.316 268.135  20
   1  -8   9 320.800 268.922  20
   1  -8   9 181.854 188.018  13
   1  -8  10 147.462 137.562  20
   1  -8  10 122.533 165.600  13
   1  -8  11 7643.37 819.971  20
   1  -8  11 6692.76 767.621  13
   1  -8  12 15490.6 982.431  13
  -1   7  11 3035.05 450.593  19
  -1   7  10 2568.47 541.250  19
  -1   7   9 282.953 279.392  19
   1  -7  -8 3256.46 588.863  26
   1  -7  -8 3087.89 564.968  13
   1  -7  -7 1580.29 415.815  13
   1  -7  -7 1408.55 416.024  26
   1  -7  -6 5254.79 773.883  13
   1  -7  -6 6060.37 819.132  26
   1  -7  -5 481.500 219.698  13
   1  -7  -5 463.777 255.359  26
   1  -7  -4 2751.43 1019.57   4
   1  -7  -4 4132.90 635.817  26
   1  -7  -4 3754.84 581.254  28
   1  -7  -4 4013.65 632.717  13
   1  -7  -4 4391.06 680.919   9
   1  -7  -3 49686.5 2171.40  28
   1  -7  -3 50024.4 2341.44  13
   1  -7  -3 53745.6 2403.63   9
   1  -7  -3 55078.3 3530.49   1
   1  -7  -2 35312.3 2841.04   1
   1  -7  -2 22800.9 2727.72   4
   1  -7  -1 11891.0 1649.85   1
   1  -7  -1 7356.60 1437.71   4
   1  -7   0 1730.11 652.859   1
   1  -7   0 1923.33 690.740   4
   1  -7   1 5132.54 1133.72   1
   1  -7   2 13163.2 1777.66   1
   1  -7   3 37528.2 3056.14   1
   1  -7   4 4010.92 996.140   1
   1  -7   5 9830.04 1516.17   1
   1  -7   5 10253.8 1069.63  13
   1  -7   5 9767.79 1114.72  20
   1  -7   6 21751.1 1630.82  13
   1  -7   6 18938.5 1619.49  20
   1  -7   7 7881.59 1072.00  20
   1  -7   7 6889.03 936.784  13
   1  -7   8 897.043 407.001  20
   1  -7   9-73.4886 231.834  20
   1  -7  10 2295.07 535.372  20
   1  -7  11 6703.53 848.879  20
   1  -7  11 6303.83 817.843  13
   1  -7  12 4064.26 593.129  20
   1  -7  12 4252.53 599.081  13
   1  -7  13 469.177 159.996  13
  -1   6  12 406.178 190.653  19
   1  -6 -12 63.8983 64.2219  22
  -1   6  11 2502.82 534.142  19
  -1   6  10 206.859 252.396  19
  -1   6   9 26691.2 1866.90   6
  -1   6   9 28424.2 2292.54  19
  -1   6   8 34742.3 2214.62   6
   1  -6  -8 37328.4 2196.08  26
   1  -6  -8 35279.3 2096.06  13
   1  -6  -7 2122.15 497.956  13
   1  -6  -7 2506.67 551.338  26
  -1   6   7 2399.15 588.867   6
   1  -6  -6 853.870 586.915   4
  -1   6   6 1041.01 358.941   6
   1  -6  -6 1018.79 351.135  13
   1  -6  -6 1462.46 433.124  26
   1  -6  -5 299.121 168.764  28
  -1   6   5 612.997 277.236   6
   1  -6  -5 718.690 294.827  26
   1  -6  -5 557.511 233.878  13
   1  -6  -4 16942.5 2345.64   4
   1  -6  -3 43623.6 2843.91   1
   1  -6  -3 30828.4 3111.85   4
   1  -6  -2 25682.0 2186.37   1
   1  -6  -2 19788.0 2302.45   4
   1  -6  -1 4763.37 1098.31   4
   1  -6  -1 5154.70 975.326   1
   1  -6   0 1258.86 504.759   1
   1  -6   0 678.819 458.244   4
   1  -6   1 1261.01 515.127   1
  -1   6  -1 1109.56 500.710   3
   1  -6   1 1329.28 481.730   4
  -1   6  -2 1915.34 640.512   3
  -1   6  -2 2304.32 831.529   2
   1  -6   2 2781.13 748.354   1
  -1   6  -3 2041.69 657.307   2
   1  -6   3 3014.89 786.509   1
  -1   6  -3 2770.47 788.369   3
   1  -6   4 2654.32 701.127   1
  -1   6  -4 2070.95 733.589   2
  -1   6  -4 2244.82 787.863   3
   1  -6   5 47418.2 3051.32   1
  -1   6  -5 50288.4 3830.36   2
  -1   6  -5 43345.3 3660.33   3
  -1   6  -6 47412.2 3876.18   2
  -1   6  -6 40821.1 3717.34   3
  -1   6  -7 13395.8 2168.85   3
   1  -6   7 13401.9 1291.40  20
  -1   6  -7 11267.3 1951.74   2
  -1   6  -8 1628.11 784.746   3
  -1   6  -8 1178.99 683.469   2
   1  -6   8 1361.49 493.051  20
   1  -6   8 1491.16 375.167  12
   1  -6   9-42.7763 134.520  20
   1  -6   9 201.207 130.029  12
   1  -6  10 5664.88 886.758  20
   1  -6  11 12978.5 1254.41  20
   1  -6  12 1248.08 355.740  20
   1  -6  13 205.770 155.550  20
   1  -6  13 158.387 99.2841  13
   1  -6  14 481.589 146.187  13
  -1   5  13 1870.58 321.321  19
  -1   5  12 756.413 279.167  19
  -1   5  11 1028.77 335.446   6
  -1   5  11 1538.18 517.109  19
  -1   5  10 4376.79 747.061   6
  -1   5  10 4817.66 950.998  19
   1  -5  -9 14597.8 1409.66  26
  -1   5   9 16664.1 1546.98   6
  -1   5   9 17204.2 1872.79  19
   1  -5  -8 32447.6 2076.56  26
   1  -5  -8 31662.3 2011.30  13
  -1   5   8 32209.8 2183.08   6
   1  -5  -7 1902.54 470.158  26
   1  -5  -7 1357.73 385.347  13
  -1   5   7 1591.93 472.692   6
   1  -5  -7 1853.56 832.740   4
  -1   5   6 1300.55 412.209   6
   1  -5  -6 919.476 585.715   4
  -1   5   5 4056.70 656.091   6
   1  -5  -5 3978.89 1129.96   4
   1  -5  -4 49854.4 3797.54   4
   1  -5  -4 57789.8 3018.29   1
  -1   5   4 48466.1 2263.22   6
   1  -5  -3 25511.6 2537.38   4
  -1   5   3 28130.1 1555.59   6
   1  -5  -3 29860.8 2183.47   1
  -1   5   2 7128.46 1017.87   3
   1  -5  -2 9631.52 1451.13   4
   1  -5  -2 9653.13 1230.77   1
   1  -5  -1 3260.52 785.866   4
  -1   5   1 2516.62 623.776   3
   1  -5  -1 3632.98 710.417   1
   1  -5   0 26721.2 2156.15   4
   1  -5   0 22334.9 1826.23   1
  -1   5   0 23855.7 1925.22   3
   1  -5   1 21185.8 1754.71   4
  -1   5  -1 18152.3 1671.56   3
   1  -5   2 7144.91 1022.34   1
  -1   5  -2 6536.86 1178.10   2
  -1   5  -2 8168.04 1178.07   3
   1  -5   2 7115.96 910.463   4
  -1   5  -3 22550.1 2121.10   3
   1  -5   3 26280.1 2001.49   1
   1  -5   4 4813.68 887.603   1
  -1   5  -4 4411.29 989.078   2
  -1   5  -5 28608.5 2730.67   2
   1  -5   5 30517.9 2121.90   1
  -1   5  -6 13890.2 2004.99   2
  -1   5  -7 297.423 228.664   2
   1  -5   8 4411.41 682.034  12
  -1   5  -8 4362.45 1239.39   2
   1  -5   8 4052.84 686.465  20
   1  -5   9 20155.6 1642.74  20
   1  -5   9 19871.1 1561.46  12
   1  -5  10 3407.52 652.635  12
   1  -5  10 3342.58 653.983  20
   1  -5  11 1518.91 402.619  12
   1  -5  11 808.167 357.294  20
   1  -5  12 1156.25 373.345  12
   1  -5  12 636.198 245.603  20
   1  -5  13 2010.98 397.493  20
   1  -5  14 1494.30 255.001  20
  -1   4  13 335.552 236.433  19
  -1   4  13 108.748 81.7821  12
  -1   4  12 361.277 263.349  19
  -1   4  12 573.046 251.454   6
  -1   4  11 7489.45 994.018   6
  -1   4  11 8599.66 1279.55  19
  -1   4  10 5188.72 1011.98  19
  -1   4  10 3868.05 757.907   6
  -1   4   9 3648.17 741.213   6
  -1   4   9 3646.68 861.165  19
   1  -4  -9 2177.27 579.413  26
  -1   4   8 26.5955 151.573   6
  -1   4   8-90.4338 329.080  19
   1  -4  -8-239.077 256.118  26
   1  -4  -8-197.405 314.892   4
   1  -4  -8 340.365 212.621  13
  -1   4   7 424.549 250.766   6
   1  -4  -7-48.3579 226.694   4
  -1   4   6 288.959 189.904   6
   1  -4  -6 129.626 325.117   4
  -1   4   5 8964.37 898.189   6
   1  -4  -5 8077.48 1505.71   4
   1  -4  -4 46429.9 3302.48   4
   1  -4  -4 44126.0 2382.21   1
   1  -4  -3 710.693 434.529   4
   1  -4  -3 1226.40 410.709   1
   1  -4  -2 36452.5 2528.20   4
   1  -4  -2 39071.5 2135.75   1
   1  -4  -1 15409.2 1319.92   1
  -1   4   1 13238.8 1248.40   3
   1  -4  -1 15555.8 1541.35   4
   1  -4   0 8223.58 972.232   1
  -1   4   0 9226.21 1006.81   3
   1  -4   0 8982.59 1085.58   4
   1  -4   1 5421.94 776.975   4
  -1   4  -1 5680.16 808.062   3
   1  -4   1 5470.10 786.080   1
   1  -4   2 2897.50 496.323   4
   1  -4   2 3220.67 617.513   1
  -1   4  -2 3524.40 676.101   3
  -1   4  -3 17853.2 1839.56   2
   1  -4   3 21097.6 1527.40   1
  -1   4  -4 32529.3 2542.18   2
   1  -4   4 33863.0 1960.92   1
   1  -4   5 22184.0 1591.08   1
  -1   4  -5 23868.3 2301.57   2
  -1   4  -6 1872.30 677.178   2
  -1   4  -7 9376.65 1693.50   2
   1  -4   8 9718.23 975.432  12
  -1   4  -8 8321.32 1689.36   2
   1  -4   9 3948.06 667.263  12
   1  -4   9 4335.75 719.504  20
   1  -4   9 5032.19 730.850  32
  -1   4  -9 4061.24 1223.42   2
   1  -4  10 1872.10 501.234  12
   1  -4  10 1848.30 509.347  20
   1  -4  11 2140.83 532.375  20
   1  -4  11 1777.80 490.742  12
   1  -4  12 9655.01 1042.45  12
   1  -4  12 8505.58 994.098  20
   1  -4  13 5748.81 729.215  12
   1  -4  13 4247.41 631.318  20
   1  -4  14 200.928 136.062  20
  -1   3  13 624.417 239.999   6
  -1   3  13 531.696 148.429  12
  -1   3  13 817.556 348.908  19
  -1   3  12 6600.81 891.598   6
  -1   3  12 7393.13 1141.21  19
  -1   3  11 11044.3 1285.04   6
  -1   3  11 12563.6 1586.23  19
  -1   3  10 4270.51 976.758  19
  -1   3  10 3973.52 795.084   6
  -1   3   9 4837.94 961.560  19
  -1   3   9 4373.74 795.571   6
   1  -3  -8 738.135 320.585  26
  -1   3   8 191.984 162.654  19
   1  -3  -8 711.187 486.098   4
   1  -3  -8 746.288 442.500   8
   1  -3  -7 13321.4 1459.32   8
   1  -3  -7 11225.1 1796.72   4
   1  -3  -6 2633.29 605.041   8
   1  -3  -6 1787.50 699.610   4
   1  -3  -5 28136.6 2452.44   4
   1  -3  -4 72926.5 3842.00   4
   1  -3  -3 4331.50 833.619   4
   1  -3  -3 8300.82 836.074   1
   1  -3  -2 148983. 5049.88   4
   1  -3  -2 141141. 4095.97   1
   1  -3  -1 83456.6 2874.67   1
  -1   3   1 74021.6 2651.03   3
   1  -3   0 15737.6 1121.09   1
  -1   3   0 17520.5 1108.07   3
  -1   3  -1 1930.78 399.673   3
   1  -3   1 1955.13 400.845   4
   1  -3   1 2603.19 463.562   1
   1  -3   2 113127. 3203.13   4
   1  -3   2 113378. 3455.14   1
  -1   3  -3 42645.3 2609.23   2
   1  -3   3 50131.2 2055.67   1
  -1   3  -4 3625.87 793.002   2
   1  -3   4 4623.93 601.700   1
  -1   3  -5 18515.3 1912.00   2
  -1   3  -6 1709.39 596.327   2
  -1   3  -7 21554.2 2451.83   2
  -1   3  -8 3326.48 1035.30   2
   1  -3   9-126.954 152.437  12
   1  -3   9-19.1991 98.2295  32
   1  -3  10 2060.00 453.438  32
   1  -3  10 1683.80 451.417  12
   1  -3  11 1759.09 445.485  32
   1  -3  11 1859.75 479.228  12
   1  -3  12 6373.65 865.336  12
   1  -3  12 5487.90 814.833  20
   1  -3  13 344.855 193.498  12
   1  -3  13 380.495 180.468  20
   1  -3  14 43.4293 98.7977  12
   1  -3  14 196.631 156.344  20
  -1   2  14 496.549 145.542  12
  -1   2  13 2351.95 602.218  19
  -1   2  13 1872.11 430.422   6
  -1   2  13 1844.21 376.263  12
   1  -2 -12 7072.11 882.409  17
  -1   2  12 6414.15 941.833   6
  -1   2  12 7833.78 1214.00  19
  -1   2  11 11224.2 1529.92  19
  -1   2  10 3012.53 816.112  19
   1  -2 -10 2129.21 716.434   8
  -1   2   9 2818.22 689.032  19
   1  -2  -9 3368.80 799.480   8
   1  -2  -8 3631.81 794.992   8
   1  -2  -8 3271.30 878.771   4
   1  -2  -8 4198.59 1212.21   2
   1  -2  -7 709.835 490.922   2
   1  -2  -7 537.823 294.145   8
   1  -2  -7 357.367 186.561   4
   1  -2  -6 1473.78 571.802   4
   1  -2  -6 1794.30 441.237   8
   1  -2  -6 1904.96 713.683   2
   1  -2  -5 72736.5 4035.61   2
   1  -2  -5 74392.6 3657.67   4
   1  -2  -4 6317.88 1021.52   2
   1  -2  -4 5632.77 925.976   4
   1  -2  -3 185523. 5675.31   4
   1  -2  -2 141256. 4142.12   4
   1  -2  -2 109076. 3205.76   1
   1  -2  -1 230.470 157.066   4
   1  -2  -1 123.928 113.696   1
  -1   2   0 23.5270 44.2353   3
   1  -2   0 65.5366 149.299   1
   1  -2   0-68.3400 118.410   4
   1  -2   1 6080.49 597.029   4
   1  -2   1 6224.98 572.947   1
  -1   2  -2 10258.9 1051.92   2
   1  -2   2 11052.4 784.639   1
   1  -2   2 10247.5 702.397   4
  -1   2  -3 66406.7 2942.14   2
  -1   2  -4 109899. 4328.53   2
  -1   2  -5 13497.2 1559.74   2
  -1   2  -6 29095.4 2561.68   2
  -1   2  -7 115.094 418.779   2
  -1   2  -8 3472.61 1067.75   2
   1  -2   9 280.680 177.768  32
   1  -2   9 618.145 336.103  19
  -1   2  -9 56.9326 189.407   2
   1  -2  10 14786.0 1291.20  32
   1  -2  10 17349.8 1631.80  19
   1  -2  10 14181.9 1334.56  12
   1  -2  11 10482.3 1185.48  12
   1  -2  11 12371.3 1167.08  32
   1  -2  12 5516.13 722.865  32
   1  -2  12 4361.54 731.102  12
   1  -2  13 58.8596 122.514  12
   1  -2  13-408.604 215.541  20
   1  -2  14 555.900 190.772  20
   1  -2  14 1032.84 263.470  12
  -1   1  15 1.81991 64.3414  20
  -1   1  14 2685.00 370.294  12
  -1   1  14 2980.96 473.493   6
  -1   1  13 3484.00 624.983   6
  -1   1  13 2869.96 502.240  12
  -1   1  13 3881.42 819.018  19
   1  -1 -12 2083.23 489.496  17
   1  -1 -12 2042.92 682.923   8
  -1   1  12 2031.43 695.681  19
   1  -1 -11 9952.37 1428.12   8
  -1   1  11 9553.86 1421.50  19
  -1   1  10 48224.3 3118.26  19
   1  -1 -10 48162.2 4544.06   2
   1  -1 -10 49019.9 3192.87   8
   1  -1  -9 50712.6 4475.23   2
   1  -1  -9 48027.3 2989.10   8
  -1   1   9 48311.1 2899.67  19
   1  -1  -8 3334.48 1048.11   2
   1  -1  -8 2620.85 641.586   8
   1  -1  -7 23144.7 1682.38   8
   1  -1  -7 24680.7 2631.39   2
   1  -1  -7 24259.8 2138.37   4
   1  -1  -6 16329.0 1607.97   4
   1  -1  -6 16085.6 1920.05   2
   1  -1  -5 41469.3 2819.33   2
   1  -1  -5 43970.5 2452.02   4
   1  -1  -4 27965.6 1774.30   4
   1  -1  -4 28001.1 2033.56   2
   1  -1  -3 252284. 6133.76   4
   1  -1  -3 217788. 6330.60   2
   1  -1  -2 195.905 149.410   4
   1  -1  -1 57905.0 2073.43   4
   1  -1   0 14940.5 914.064   4
   1  -1   1 4176.62 433.869   4
  -1   1  -2 9057.35 888.220   2
  -1   1  -3 61765.9 2690.33   2
  -1   1  -4 54857.1 2828.47   2
  -1   1  -5 166480. 5951.44   2
  -1   1  -6 3162.56 809.917   2
  -1   1  -7 554.938 279.004   2
  -1   1  -8 1698.32 726.859   2
   1  -1   9 11215.4 1199.14  33
   1  -1   9 11025.2 1227.43  19
  -1   1  -9 7566.70 1650.71   2
   1  -1  10 8227.10 1094.57  33
   1  -1  10 6627.75 1015.00  19
   1  -1  11 1278.94 518.913  19
   1  -1  11 918.123 303.977  32
   1  -1  12 3691.49 598.558  32
   1  -1  12 3514.07 672.648  12
   1  -1  13 2418.79 495.921  12
   1  -1  14 5287.98 587.141  12
   1  -1  14 3785.91 442.658  20
  -1   0  15 1201.35 287.863  20
  -1   0  14 992.081 307.060   6
  -1   0  14 1661.97 325.205  12
  -1   0  13 1854.34 588.701  19
  -1   0  13 1333.82 389.568  12
   1   0 -13 1819.92 514.268   8
   1   0 -12 7585.80 917.674  17
  -1   0  12 6469.56 872.852  12
   1   0 -12 7142.56 1181.75   8
  -1   0  12 8081.41 1264.47  19
  -1   0  11 1989.47 637.959  19
   1   0 -11 1718.02 461.081  17
   1   0 -11 2023.82 641.970   8
  -1   0  10 11833.9 1462.97  19
   1   0 -10 9461.97 2000.55   2
   1   0 -10 10551.7 1420.03   8
   1   0  -9 6519.09 1047.57   8
   1   0  -9 6705.71 1564.21   2
   1   0  -8 13008.1 2011.04   2
   1   0  -7 5357.10 1171.42   2
   1   0  -6 5155.77 1032.19   2
   1   0  -6 3348.89 632.657   4
   1   0  -5 73336.8 2908.92   4
   1   0  -5 76020.8 3718.93   2
   1   0  -4 179343. 5692.27   2
   1   0  -4 190865. 4992.60   4
   1   0  -3 16065.2 1251.36   2
   1   0  -3 18023.0 1112.80   4
   1   0  -2 14890.8 914.641   4
   1   0  -2 15545.8 1041.92   2
   1   0  -1 23163.3 1157.81   3
   1   0  -1 23429.0 1109.01   4
   1   0   0 14795.0 1005.49   3
   1   0   0 12873.4 802.894   4
  -1   0  -1 105189. 2959.35   2
   1   0   1 132331. 3744.67   3
  -1   0  -2 415.445 185.004   2
  -1   0  -3 34294.2 1866.84   2
  -1   0  -4 100614. 3948.41   2
  -1   0  -5 21995.7 1931.89   2
  -1   0  -6 284.675 232.867   2
  -1   0  -7 5175.10 1187.78   2
  -1   0  -8 1728.61 724.135   2
   1   0   9 16093.4 1531.51  33
  -1   0  -9 15402.1 2315.31   2
   1   0   9 15250.1 1498.69  19
   1   0  10 9624.33 1233.97  33
   1   0  10 8729.78 1194.50  19
   1   0  11 790.989 330.703  32
   1   0  11 795.689 338.277  19
   1   0  11 1319.74 515.673  33
   1   0  12 751.028 313.284  19
   1   0  12 956.454 307.187  32
   1   0  13 317.957 192.870   6
   1   0  13 202.690 168.754  12
   1   0  14 567.167 137.942  20
   1   0  14 828.435 220.143  12
  -1  -1  15 7263.05 691.815  20
  -1  -1  14 4594.24 561.086  12
  -1  -1  14 4673.24 695.477  20
   1   1 -13 3469.50 771.453   8
  -1  -1  13 3286.63 562.344  12
  -1  -1  12 3781.49 874.370  19
  -1  -1  12 3313.80 632.963  12
   1   1 -12 3548.26 831.047   8
   1   1 -11 7533.61 901.392  17
   1   1 -11 7903.32 1251.86   8
  -1  -1  11 7623.43 940.243  12
  -1  -1  11 7526.62 1212.02  19
   1   1 -10 10006.5 1033.46  17
   1   1 -10 9998.20 1960.82   2
   1   1 -10 9639.20 1334.05   8
  -1  -1  10 7715.13 903.366  12
  -1  -1  10 10076.1 1304.37  19
   1   1  -9 15108.1 2292.10   2
   1   1  -8 522.352 462.703   2
   1   1  -7 5344.43 1155.05   2
   1   1  -6 46094.1 3058.10   2
   1   1  -5 64137.7 2244.85   4
   1   1  -5 70781.1 3419.63   2
   1   1  -4 28101.0 1845.12   2
   1   1  -4 28814.7 1307.60   4
   1   1  -3 223089. 5069.39   4
   1   1  -3 233825. 5791.34   2
   1   1  -2 23607.7 1125.01   2
   1   1  -2 19616.2 995.472   4
   1   1  -1 8234.93 651.509   4
   1   1  -1 7644.58 865.669   3
   1   1   0 146982. 4759.44   3
  -1  -1  -1 379.822 106.832   2
   1   1   1 308.663 274.650   3
  -1  -1  -2 107063. 3189.38   2
   1   1   2 107062. 4434.23   3
  -1  -1  -3 16267.4 1250.49   2
  -1  -1  -4 50110.7 2643.62   2
  -1  -1  -5 2509.47 674.235   2
  -1  -1  -6 2132.65 753.701   2
  -1  -1  -7 3511.82 1007.13   2
  -1  -1  -8 10986.8 1841.09   2
   1   1   9 127118. 4864.25  19
   1   1   9 125580. 4759.97  33
  -1  -1  -9 113947. 6622.54   2
   1   1  10 2534.95 654.866  33
   1   1  10 1779.47 584.253  19
   1   1  11 19677.1 1721.81  33
   1   1  11 15477.4 1526.24   6
   1   1  11 16575.8 1654.55  19
   1   1  12 872.910 366.858  19
   1   1  12 893.048 259.033  32
   1   1  12 1339.02 415.448   6
   1   1  13 2649.48 475.906   6
   1   1  13 2122.12 428.876  12
   1   1  14 502.220 142.900  12
  -1  -2  15 1124.25 278.084  20
   1   2 -14 3132.33 612.146   8
  -1  -2  14 3181.78 589.021  20
  -1  -2  14 3131.78 459.342  12
  -1  -2  13 1689.34 480.238  20
  -1  -2  13 1827.32 422.341  12
   1   2 -13 2192.00 590.463   8
  -1  -2  12 18782.4 1470.04  12
   1   2 -12 20644.4 1993.83   8
   1   2 -11 12940.3 1160.66  17
  -1  -2  11 12904.1 1225.25  12
   1   2 -11 12517.6 1567.06   8
  -1  -2  10 2865.13 555.131  12
   1   2 -10 2843.09 550.503  17
  -1  -2  10 2776.40 669.673  19
  -1  -2   9 1618.05 475.241  19
   1   2  -9 1508.01 727.822   2
   1   2  -8 587.660 614.290   2
   1   2  -7 2921.77 809.511   2
   1   2  -6 59847.1 3479.59   2
   1   2  -5 89694.4 3903.75   2
   1   2  -4 31471.1 1921.78   2
   1   2  -3 459760. 9789.23   2
   1   2  -2 466345. 11406.2   3
   1   2  -2 470292. 9141.55   2
   1   2  -1 49157.6 2786.71   3
   1   2   0 4475.76 883.286   3
   1   2   1 33793.1 2580.14   3
   1   2   2 180079. 6605.38   3
  -1  -2  -2 144580. 3991.79   2
  -1  -2  -3 55532.3 2496.69   2
   1   2   3 50763.8 3470.88   3
  -1  -2  -4 7866.49 1082.95   2
  -1  -2  -5 1872.85 586.451   2
  -1  -2  -6 1651.22 609.382   2
  -1  -2  -7 8961.11 1518.91   2
  -1  -2  -8 3787.04 1071.89   2
   1   2   8 3081.80 664.690  33
   1   2   8 3406.18 696.268  19
  -1  -2  -8 4266.33 692.394  26
   1   2   9 2296.67 577.988  33
  -1  -2  -9 2200.15 527.790  26
   1   2   9 2198.58 626.533  19
   1   2   9 2582.58 644.162   6
   1   2  10 248.147 228.463  19
   1   2  10 304.442 325.260  33
   1   2  10 363.199 276.022   6
   1   2  11 9634.81 1203.75  19
   1   2  11 11588.0 1263.60  33
   1   2  11 10312.3 1200.31   6
   1   2  12 1975.49 493.549  19
   1   2  12 1811.39 451.929   6
   1   2  12 1921.07 392.974  32
   1   2  13 125.733 120.397  12
  -1  -3  15 7928.60 699.394  20
   1   3 -14 4695.56 732.597   8
  -1  -3  14 4925.48 706.742  20
  -1  -3  13 9993.45 1154.33  20
   1   3 -13 9714.21 1245.21   8
  -1  -3  13 12515.9 1094.34  12
   1   3 -12 2212.46 635.056   8
  -1  -3  12 2466.07 504.139  12
  -1  -3  12 1882.06 550.289  20
  -1  -3  11 687.679 303.670  12
  -1  -3  10 922.586 318.662  12
   1   3 -10 2503.86 952.347   2
   1   3  -9 5819.64 747.911  17
  -1  -3   9 6376.37 771.111  12
   1   3  -9 4433.27 1266.12   2
   1   3  -8 12224.8 1831.14   2
   1   3  -7 4.53201 163.165   2
   1   3  -6 21358.0 2001.80   2
   1   3  -5 2317.03 606.905   2
   1   3  -4 18666.7 1455.49   2
   1   3  -3 13904.1 1699.58   3
   1   3  -3 12287.2 973.554   2
   1   3  -2 71669.1 2048.68   2
   1   3  -2 86142.5 4264.60   3
   1   3  -1 5849.56 1084.95   3
   1   3   0 8095.49 1345.31   3
   1   3   1 94258.9 5026.52   3
   1   3   2 13201.5 1858.95   3
   1   3   3 5945.74 1277.55   3
   1   3   4 147.535 81.8609   6
  -1  -3  -4 296.214 230.520   2
   1   3   5 7817.93 875.227   6
  -1  -3  -5 7127.50 1139.75   2
   1   3   6 1459.43 476.921   6
   1   3   7 26431.8 1923.82   6
   1   3   7 25875.2 1961.91  19
  -1  -3  -7 24042.5 1697.40  13
  -1  -3  -7 30319.1 1863.62  26
  -1  -3  -8 29765.4 1979.56  26
   1   3   8 30082.0 2148.56   6
   1   3   8 28294.3 2200.55  19
  -1  -3  -9 886.712 383.205  26
   1   3   9 1703.16 527.090  33
   1   3   9 1633.48 525.687   6
   1   3   9 1297.48 502.491  19
   1   3  10 7416.84 1088.08  19
   1   3  10 7830.21 1076.28  33
   1   3  10 7516.11 1040.64   6
   1   3  11 7623.31 1005.27  19
   1   3  11 9169.93 1047.54  33
   1   3  11 8008.40 989.310   6
   1   3  12 2496.10 483.124  19
   1   3  12 1828.35 408.811   6
   1   3  13 471.810 146.948  12
  -1  -4  15 1147.72 242.741  20
  -1  -4  14 6956.72 801.437  20
   1   4 -13 6875.79 992.773   8
  -1  -4  13 8236.08 1020.32  20
  -1  -4  12 4911.53 723.901  12
  -1  -4  12 4213.28 775.468  20
  -1  -4  11 668.314 371.468  20
   1   4 -11 849.437 299.991  29
  -1  -4  11 943.849 334.613  12
   1   4 -10 4649.47 754.241  29
  -1  -4  10 4861.67 729.157  12
  -1  -4  10 3830.30 757.052  20
  -1  -4   9 813.889 346.335  20
  -1  -4   9 732.974 289.658  12
   1   4  -8-427.469 359.301   2
   1   4  -7 6712.14 1207.70   2
   1   4  -6 4979.78 963.710   2
   1   4  -6 3851.79 1132.03   3
   1   4  -5 171518. 5719.55   2
   1   4  -5 172838. 7753.49   3
   1   4  -4 10757.3 1742.20   3
   1   4  -3 7578.39 1428.78   3
   1   4  -2 299.655 291.114   3
   1   4  -1 3602.49 967.420   3
   1   4   0 914.356 490.545   3
   1   4   1 39266.1 3429.22   3
   1   4   2 15680.5 2194.62   3
   1   4   3 43325.9 3789.66   3
   1   4   3 56269.8 2416.08   6
   1   4   4 4914.87 715.472   6
   1   4   5 1505.15 436.676   6
   1   4   6 365.235 250.645   6
  -1  -4  -6 311.657 154.903  13
  -1  -4  -7 3774.13 700.447  26
   1   4   7 4181.45 784.811   6
  -1  -4  -7 3923.13 730.355  13
   1   4   8 2409.63 670.187  19
  -1  -4  -8 1945.56 536.346  26
   1   4   8 2309.64 591.054   6
   1   4   9 956.656 407.710   6
   1   4   9 612.499 319.707  19
  -1  -4  -9 618.147 289.745  26
   1   4   9 737.817 332.648  33
   1   4  10 8625.87 1110.56  19
   1   4  10 8869.01 1057.44  33
   1   4  10 8756.22 1060.50   6
   1   4  11 1236.08 356.970  33
   1   4  11 910.088 305.240   6
   1   4  11 670.341 288.342  19
   1   4  12 130.233 99.7896  19
  -1  -5  14 1168.53 313.566  20
  -1  -5  14 827.100 180.163  13
  -1  -5  13 1966.99 487.552  20
  -1  -5  13 2661.88 449.751  13
   1   5 -13 1951.93 500.884   8
  -1  -5  12 87.1578 185.791  20
  -1  -5  11 696.927 397.354  20
  -1  -5  10 29008.4 2108.04  20
  -1  -5   9 3267.21 679.789  20
   1   5  -8 1493.87 809.156   3
   1   5  -8 1806.85 432.526  29
  -1  -5   8 1943.14 487.370  20
   1   5  -7 1445.17 774.434   3
   1   5  -6 15993.4 2503.15   3
   1   5  -5 9186.30 1819.08   3
   1   5  -4 17415.7 2458.12   3
   1   5  -3 1486.09 763.180   3
   1   5  -2 32253.7 3256.85   3
   1   5  -1 27848.3 3028.93   3
   1   5   0 10164.0 1860.41   3
   1   5   1 7933.06 623.392   5
   1   5   1 10921.9 1941.43   3
   1   5   2 10047.7 1865.34   3
   1   5   3 17297.4 2452.17   3
   1   5   4 17553.0 1473.69   6
   1   5   5 9402.43 1109.46   6
  -1  -5  -5 9722.17 1042.37  13
  -1  -5  -6 367.014 255.330  13
   1   5   6 256.785 198.949   6
  -1  -5  -7 17967.0 1575.42  13
  -1  -5  -7 19177.2 1576.21  26
   1   5   7 20377.5 1719.80   6
   1   5   8 23221.9 1980.46  19
   1   5   8 23981.1 1850.57   6
  -1  -5  -8 21669.8 1680.12  26
   1   5   9 4052.79 767.425  19
   1   5   9 4097.11 744.729  33
   1   5   9 4150.94 720.673   6
  -1  -5  -9 3320.64 609.414  26
   1   5  10 924.038 336.253  19
   1   5  10 1160.78 353.163  33
   1   5  11 1313.33 273.794  33
   1   5  11 1059.03 266.409  19
  -1  -6  14 270.525 137.676  20
  -1  -6  13 1223.18 356.804  20
  -1  -6  13 1065.43 256.896  13
  -1  -6  12 9188.96 910.987  13
  -1  -6  12 9242.40 1038.09  20
  -1  -6  11 7416.34 896.051  13
  -1  -6  11 7862.12 1069.05  20
  -1  -6  10 858.699 389.516  20
  -1  -6  10 1076.55 365.087  13
  -1  -6   9 1407.58 496.327  20
  -1  -6   9 1382.98 399.302  13
  -1  -6   8 8363.15 968.143  13
  -1  -6   8 7765.92 1077.22  20
   1   6  -7 36637.7 4157.24   3
  -1  -6   7 35556.4 2019.96  13
  -1  -6   7 35971.3 2289.27  20
  -1  -6   6 33805.5 1916.89  13
   1   6  -6 33662.5 3892.24   3
  -1  -6   6 35000.7 2169.86  20
   1   6  -5 10219.5 2070.43   3
   1   6  -4 2119.42 934.320   3
   1   6  -3 5984.72 1560.32   3
   1   6  -2 2638.88 1045.29   3
   1   6  -1 5317.67 1485.27   3
   1   6   0 22318.4 2967.71   3
   1   6   1 20420.2 2808.98   3
   1   6   2 18499.6 2615.79   3
  -1  -6  -3 9947.09 1020.69  13
   1   6   3 6922.19 1627.56   3
   1   6   3 10260.9 1297.09  24
  -1  -6  -4 1420.72 404.792  13
  -1  -6  -5 59.3602 109.600  13
  -1  -6  -6 3123.61 641.028  26
  -1  -6  -6 3085.91 660.940  13
  -1  -6  -7 13471.8 1285.99  26
  -1  -6  -7 13363.5 1298.75  13
   1   6   8 37639.0 2353.77  19
  -1  -6  -8 34387.9 2017.67  26
   1   6   9 3495.16 615.319  19
  -1  -6  -9 3277.35 556.302  26
   1   6   9 2775.15 512.787  33
   1   6  10 531.196 177.721  33
   1   6  10-75.0280 102.545  19
  -1  -7  13 2334.97 292.980  13
  -1  -7  13 3616.02 492.450  20
  -1  -7  12 9419.95 804.970  13
  -1  -7  12 10309.6 1022.09  20
  -1  -7  11 2960.97 604.429  20
  -1  -7  11 2573.05 474.025  13
  -1  -7  10 419.689 287.880  20
  -1  -7  10 402.497 258.571  13
  -1  -7   9-279.307 194.281  13
  -1  -7   9 85.0428 206.881  20
  -1  -7   8 2775.18 693.562  20
  -1  -7   8 2862.43 609.841  13
  -1  -7   7 17782.1 1460.43  13
  -1  -7   7 16822.3 1623.26  20
   1   7  -6 6243.54 1724.53   3
  -1  -7   6 10078.0 1079.24  13
  -1  -7   6 9158.70 1188.97  20
  -1  -7   5 1558.43 400.348  13
   1   7  -5 2427.36 615.736  11
  -1  -7   5 1515.65 481.998  20
   1   7  -4 18121.6 2928.87   3
   1   7  -4 17918.4 1659.75  11
  -1  -7   4 19044.4 1455.31  13
  -1  -7   3 16772.6 1342.99  13
   1   7  -3 20487.8 3061.05   3
   1   7  -3 16993.5 1590.81  11
  -1  -7   2 11735.1 1110.55  13
   1   7  -2 14656.2 2536.32   3
   1   7  -2 12424.5 1348.45  11
  -1  -7   1 3648.59 604.433  13
   1   7  -1 2859.19 647.068  11
   1   7  -1 3048.26 1094.57   3
   1   7   0 1241.51 721.643   3
   1   7   0 1210.70 463.038  24
  -1  -7   0 1907.25 432.961  13
   1   7   1 8850.66 1265.84  24
   1   7   1 8310.55 1819.45   3
  -1  -7  -1 11450.8 1110.02  13
   1   7   2 49897.8 3004.11  24
  -1  -7  -2 52454.8 2537.81  13
   1   7   3 5283.06 948.039  24
  -1  -7  -3 6232.11 857.797  13
  -1  -7  -4 795.672 314.237  13
  -1  -7  -5 495.983 254.140  13
  -1  -7  -6 194.619 185.113  13
  -1  -7  -6 488.539 199.456  26
   1   7   7 490.763 315.461  19
  -1  -7  -7 1047.93 342.250  13
  -1  -7  -7 514.947 296.595  26
   1   7   8 478.023 228.789  19
  -1  -7  -8 490.285 228.908  26
   1   7   8 314.566 196.844  33
   1   7   9 2065.40 358.118  19
   1   7   9 2105.31 333.530  33
   1   8 -12 7974.63 621.577  31
  -1  -8  12 11940.1 688.608  13
  -1  -8  11 526.270 192.287  13
   1   8 -11 435.027 224.133  11
   1   8 -10 1054.51 396.784  11
  -1  -8  10 1370.18 371.450  13
  -1  -8   9 321.191 195.437  13
   1   8  -9 583.034 283.784  11
   1   8  -8 869.304 457.316  11
  -1  -8   8 1411.13 393.962  13
  -1  -8   7 448.699 213.810  13
   1   8  -7 398.383 333.527  11
  -1  -8   6 781.363 299.089  13
   1   8  -6 821.157 425.922  11
   1   8  -5 12337.3 1422.83  11
  -1  -8   5 13427.1 1274.23  13
   1   8  -4 3386.79 711.521  11
  -1  -8   4 3968.09 690.430  13
   1   8  -3 913.987 347.436  11
  -1  -8   3 855.943 342.123  13
  -1  -8   2 1700.23 460.590  13
  -1  -8   1 692.265 281.082  13
   1   8  -1 474.906 314.323  24
  -1  -8   0 10383.4 1100.05  13
   1   8   0 10205.8 1379.21  24
  -1  -8  -1 4316.06 694.983  13
   1   8   1 3144.67 737.293  24
  -1  -8  -2 6468.62 875.483  13
   1   8   2 5517.89 970.056  24
  -1  -8  -3 464.058 244.601  13
  -1  -8  -4 15.5304 102.485  13
  -1  -8  -5 271.448 252.443  26
  -1  -8  -5 276.075 140.000  13
  -1  -8  -6 2194.65 481.607  26
  -1  -8  -6 1990.72 452.476  13
   1   8   7 2545.52 461.052  19
  -1  -8  -7 2794.85 455.944  26
   1   8   8 52.4736 68.0470  19
  -1  -8  -8 55.4329 83.6107  26
   1   8   8 87.9629 83.7972  33
  -1  -9  11 1023.47 184.931  13
   1   9 -10 946.450 273.107  11
  -1  -9  10 4167.37 484.965  13
  -1  -9   9 1943.08 391.151  13
   1   9  -9 1017.27 314.121  11
  -1  -9   8 450.971 234.786  13
   1   9  -8 51.9274 120.833  11
  -1  -9   7 607.690 272.175  13
   1   9  -7 256.688 195.421  11
   1   9  -6 1208.58 410.262  11
  -1  -9   6 1479.86 402.304  13
   1   9  -5 7763.47 1033.07  11
  -1  -9   5 8105.62 940.977  13
  -1  -9   4 8375.80 965.973  13
  -1  -9   3 521.713 241.635  13
  -1  -9   2 1904.54 471.965  13
   1   9  -2 2963.18 777.590  24
  -1  -9   1 2626.35 534.374  13
   1   9  -1 2663.20 673.876  24
   1   9   0 3620.31 752.481  24
  -1  -9   0 3774.04 630.660  13
  -1  -9  -1 836.264 304.492  13
   1   9   1 1758.66 527.761  24
  -1  -9  -2 2511.19 500.156  13
  -1  -9  -3 5992.77 750.262  13
  -1  -9  -4 1858.13 397.409  13
  -1  -9  -4 2215.73 428.894  26
  -1  -9  -5 7981.13 758.931  26
  -1  -9  -5 7809.08 766.694  13
  -1  -9  -6 180.438 123.774  13
  -1  -9  -6 244.888 148.718  26
   1   9   6 383.483 159.949  19
  -1  -9  -7 202.184 103.556  26
  -1 -10   9 426.090 130.771  13
  -1 -10   8 631.629 191.826  13
  -1 -10   7 6923.34 686.855  13
  -1 -10   6 12707.2 1001.16  13
   1  10  -5 5582.58 889.964  24
  -1 -10   5 5152.83 659.100  13
   1  10  -4 487.867 291.436  24
  -1 -10   4 231.395 179.659  13
   1  10  -3 575.236 339.537  24
  -1 -10   3 416.694 170.846  13
  -1 -10   2 263.302 131.193  13
   1  10  -2 331.417 287.299  24
  -1 -10   1 6966.67 787.187  13
   1  10  -1 7460.46 950.029  24
  -1 -10   0 2825.48 498.406  13
  -1 -10  -1 453.987 219.473  13
  -1 -10  -2 3265.87 486.294  13
  -1 -10  -2 3199.88 469.267  26
  -1 -10  -3 1564.01 320.278  13
  -1 -10  -3 1213.76 274.214  26
  -1 -10  -4 1493.36 278.028  13
  -1 -10  -4 1138.51 241.590  26
  -1 -10  -5 107.931 48.1493  26
  -1 -11   7 1761.89 227.813  13
  -1 -11   6 1321.82 222.399  13
   1  11  -5 327.746 145.389  24
  -1 -11   5 244.413 116.878  13
   1  11  -4 912.247 276.253  24
  -1 -11   4 2385.78 357.080  13
   1  11  -3 639.662 220.816  24
  -1 -11   3 1676.22 303.383  13
  -1 -11   2 1485.09 293.065  13
  -1 -11   1 475.345 161.315  13
  -1 -11   0 270.384 109.449  13
  -1 -11  -1 8650.26 617.159  13
   1  11   1 4508.40 472.441  14
  -1 -11  -2 589.344 142.643  13
   2 -12  -2 3363.76 342.668  34
   2 -12  -1 3266.81 342.748  34
   2 -12   0 838.455 170.294  13
   2 -12   0 718.499 156.800  34
   2 -12   1 1104.64 216.565   9
   2 -12   1 1024.33 196.470  13
   2 -12   2 3967.83 418.709   9
   2 -12   2 4268.96 410.039  13
   2 -12   3 7061.84 530.277  13
   2 -12   3 5736.17 511.293   9
   2 -12   4 600.001 151.088   9
   2 -12   4 682.996 159.233  13
   2 -12   5 64.7279 61.1863   9
   2 -12   5 53.9175 67.4624  13
   2 -11  -5 1726.46 279.144  34
   2 -11  -4 1236.20 276.133  34
   2 -11  -3 8489.82 769.358  34
   2 -11  -3 8038.87 602.575  13
   2 -11  -2 4132.47 477.905  13
   2 -11  -1 1873.78 374.510   9
   2 -11  -1 1383.61 250.986  28
   2 -11  -1 1595.44 319.496  13
   2 -11   0 12856.5 1006.56   9
   2 -11   0 12456.7 842.304  28
   2 -11   0 11458.5 891.576  13
   2 -11   1 107.851 136.151   9
   2 -11   1-29.0757 72.0478  13
   2 -11   1-124.493 121.509  34
   2 -11   2 9732.33 935.438   9
   2 -11   2 10153.0 875.612  13
   2 -11   3 3496.21 577.872   9
   2 -11   3 4616.65 581.510  13
   2 -11   4 1116.44 319.437   9
   2 -11   4 1277.22 307.258  13
   2 -11   5 328.791 179.095   9
   2 -11   5 26.3656 72.4531  13
   2 -11   6 4673.91 611.015   9
   2 -11   6 5235.65 563.662  13
   2 -11   7 5231.63 584.966   9
   2 -11   7 8718.04 665.451  13
   2 -11   8 869.059 209.392   9
   2 -11   8 1785.30 253.716  13
  -2  10   7 377.658 172.466  19
   2 -10  -7 325.435 122.900  34
   2 -10  -6 86.9740 104.114  34
   2 -10  -5 2297.59 349.544  13
   2 -10  -4 3676.68 482.910  13
   2 -10  -3-95.4815 239.721  28
   2 -10  -3 326.106 150.712  13
   2 -10  -2 1520.36 381.388   9
   2 -10  -2 1586.25 417.280  28
   2 -10  -2 1207.31 299.244  13
   2 -10  -1 1393.93 378.537   9
   2 -10  -1 1836.11 432.681  28
   2 -10  -1 1263.48 341.736  13
   2 -10   0 10089.9 905.513  28
   2 -10   0 9999.52 943.000  13
   2 -10   0 8816.41 997.658   9
   2 -10   1 34628.9 2102.23   9
   2 -10   1 34502.2 1741.68  28
   2 -10   1 31612.4 1803.69  13
   2 -10   2 3810.33 728.705   9
   2 -10   2 3531.97 587.571  13
   2 -10   3 268.621 159.168  13
   2 -10   3 384.606 265.319   9
   2 -10   4 1724.92 506.188   9
   2 -10   4 2610.90 507.289  13
   2 -10   5 3042.48 504.326  27
   2 -10   5 2449.23 504.714  13
   2 -10   6 716.891 283.339  13
   2 -10   7 2174.12 439.405  13
   2 -10   8 2777.25 466.710  13
   2 -10   9 1963.21 327.615  13
   2 -10  10 11521.2 654.258  13
  -2   9   9 1126.23 250.817  19
   2  -9  -9 669.317 186.526  22
  -2   9   8 1592.61 375.278  19
   2  -9  -8 1378.00 231.202  34
   2  -9  -7 214.444 137.595  34
   2  -9  -6 7373.17 695.926  13
   2  -9  -5 7376.14 756.625  13
   2  -9  -4 952.673 282.772  28
   2  -9  -4 1694.75 379.351  13
   2  -9  -3 11701.3 1027.05  13
   2  -9  -3 12677.2 1122.21  28
   2  -9  -3 11708.5 1139.22   9
   2  -9  -2 22536.1 1488.52  13
   2  -9  -2 26521.3 1746.22   9
   2  -9  -2 25084.3 1607.39  28
   2  -9  -1 3569.85 662.144   9
   2  -9  -1 4328.37 641.541  13
   2  -9  -1 3123.55 517.961  28
   2  -9   0 11996.5 1231.17   9
   2  -9   0 10516.7 1012.41  13
   2  -9   1 299.748 240.493   9
   2  -9   1 206.473 163.304  13
   2  -9   2 1692.42 520.916   9
   2  -9   2 1472.03 438.032  27
   2  -9   2 1846.51 436.017  13
   2  -9   3 1971.58 461.920  27
   2  -9   3 2037.01 470.932  13
   2  -9   4 2992.26 593.790  27
   2  -9   4 2927.72 566.543  13
   2  -9   5 2462.08 533.776  13
   2  -9   5 3464.99 624.279  27
   2  -9   6 697.818 294.426  13
   2  -9   6 676.658 275.375  27
   2  -9   7 1718.42 423.260  27
   2  -9   7 2149.23 472.280  13
   2  -9   8 2698.57 519.152  13
   2  -9   8 2099.49 409.220  27
   2  -9   9 9212.58 886.486  13
   2  -9  10 3335.05 478.822  13
   2  -9  11 3073.87 365.106  13
  -2   8  10 2364.11 405.257  19
   2  -8 -10 2307.98 366.048  22
  -2   8   9 119.269 207.277  19
   2  -8  -8 85.7902 92.7762  34
  -2   8   8 370.670 200.237  19
   2  -8  -7 4877.78 605.404  13
   2  -8  -6 16542.7 1202.78  13
   2  -8  -6 16811.8 1242.70  26
   2  -8  -5 5971.76 719.433  13
   2  -8  -5 5456.35 751.266  28
   2  -8  -4 16949.7 1404.39   9
   2  -8  -4 17084.6 1345.81  28
   2  -8  -4 14752.4 1182.97  13
   2  -8  -3 2601.36 489.426  13
   2  -8  -3 2753.77 566.761   9
   2  -8  -3 3590.70 625.233  28
   2  -8  -2 19873.7 1402.20  28
   2  -8  -2 16241.0 2351.96   4
   2  -8  -2 22207.5 1627.64   9
   2  -8  -2 19825.4 1373.05  13
   2  -8  -1 6830.06 899.917   9
   2  -8  -1 5727.78 719.621  13
   2  -8   0 3318.78 555.666  13
   2  -8   0 3430.65 643.717  27
   2  -8   0 3172.75 650.859   9
   2  -8   1 470.786 324.574   9
   2  -8   1 593.932 307.621   1
   2  -8   1 658.529 321.095  27
   2  -8   1 822.266 279.131  13
   2  -8   2 8690.19 1587.83   1
   2  -8   2 8842.97 1006.53  27
   2  -8   2 7774.57 876.115  13
   2  -8   3 6880.51 913.506  27
   2  -8   3 5834.71 777.816  13
   2  -8   4 2403.43 555.212  27
   2  -8   4 2089.80 509.909  13
   2  -8   5 1408.28 431.082  27
   2  -8   5 1275.13 390.175  13
   2  -8   6 551.831 231.891  27
   2  -8   6 37.1515 145.765  13
   2  -8   7 3749.22 686.834  13
   2  -8   8 33015.7 2008.83  13
   2  -8   9 559.771 246.924  13
   2  -8  10 921.460 264.677  27
   2  -8  10 1615.10 382.697  13
   2  -8  11 1209.85 291.439  13
   2  -8  12 1341.61 240.981  13
  -2   7  11 1538.29 347.395  19
   2  -7 -11 1407.22 288.755  22
  -2   7  10 394.094 231.745  19
  -2   7   9 560.745 301.017  19
   2  -7  -8 992.589 294.837  34
  -2   7   8 825.421 383.603  19
   2  -7  -7 4160.00 609.239  13
   2  -7  -7 3827.15 623.508  26
   2  -7  -6 2658.00 490.506  13
   2  -7  -6 1686.32 419.882  26
   2  -7  -5 1188.18 400.047  28
   2  -7  -5 719.458 295.984  13
   2  -7  -5 844.920 239.671  26
   2  -7  -4 64915.3 2861.84   9
   2  -7  -4 56224.5 4752.35   4
   2  -7  -4 58925.8 2466.73  13
   2  -7  -4 64618.8 2688.22  28
   2  -7  -3 15263.1 2324.32   4
   2  -7  -3 16573.7 1335.89   9
   2  -7  -3 14174.6 1133.09  28
   2  -7  -2 7251.41 876.471   9
   2  -7  -2 6124.70 1408.72   4
   2  -7  -1 11788.0 1822.81   4
   2  -7  -1 13051.0 1785.39   1
   2  -7   0 1903.63 684.445   1
   2  -7   0 1056.66 522.492   4
   2  -7   1 19906.0 2266.46   1
   2  -7   2 11626.7 1729.92   1
  -2   7  -2 10208.1 1846.93   2
   2  -7   3 15950.4 2038.21   1
  -2   7  -3 13866.1 2298.27   2
   2  -7   4 306.208 161.855  21
   2  -7   4 484.695 219.212  13
   2  -7   5 5474.43 679.425  21
  -2   7  -5 5381.80 1422.20   2
   2  -7   5 4530.98 693.926  13
   2  -7   5 5405.67 780.412  20
   2  -7   6 27686.1 1834.27  13
  -2   7  -6 32837.9 3616.40   2
   2  -7   6 31242.7 1997.64  20
   2  -7   7 5447.11 826.970  20
   2  -7   8 1668.15 465.867  20
   2  -7   9 46.4468 181.082  20
   2  -7  10 665.425 279.478  20
   2  -7  11 2801.51 507.734  13
   2  -7  11 3785.33 528.394  20
   2  -7  12 2259.05 385.869  13
   2  -6 -12 5088.32 521.404  17
  -2   6  12 5126.71 620.358  19
   2  -6 -12 4859.92 491.633  22
  -2   6  11 385.040 234.673  19
  -2   6  10 1419.70 482.430  19
  -2   6   9 203.295 208.568  19
  -2   6   9 276.252 184.838   6
  -2   6   8 5909.69 824.615   6
   2  -6  -7 2415.43 542.187  26
  -2   6   7 3177.76 613.066   6
   2  -6  -6 1163.19 696.061   4
   2  -6  -6 1097.71 301.854  28
  -2   6   6 2534.99 523.528   6
   2  -6  -6 1737.44 424.094  26
   2  -6  -5 1565.80 472.186   9
   2  -6  -5 2755.91 571.098  28
   2  -6  -5 1002.27 649.254   4
   2  -6  -4 1808.24 764.055   4
   2  -6  -3 910.207 546.458   4
   2  -6  -2 292.903 322.605   4
   2  -6  -1 1867.51 710.237   4
   2  -6  -1 1961.83 649.709   1
   2  -6   0 15967.7 1883.48   4
   2  -6   0 14380.5 1710.29   1
   2  -6   1 44249.3 3083.23   1
   2  -6   1 51432.3 3219.49   4
  -2   6  -2 7962.76 1596.82   2
   2  -6   2 8597.90 1315.29   1
   2  -6   3 4831.68 979.362   1
  -2   6  -3 3398.49 1031.85   2
  -2   6  -4 2964.40 1066.16   2
  -2   6  -5 1634.68 725.886   2
  -2   6  -6 27192.0 3206.91   2
   2  -6   6 24269.4 1627.94  20
  -2   6  -7 9011.21 1902.70   2
   2  -6   7 11458.9 1100.24  12
   2  -6   7 11162.1 1132.75  20
   2  -6   8 1146.90 400.683  20
   2  -6   8 774.440 346.038  12
   2  -6   9 1167.85 382.542  20
   2  -6   9 930.646 332.883  12
   2  -6  10 2550.35 533.307  20
   2  -6  11 1452.70 364.304  16
   2  -6  11 1241.30 352.205  20
   2  -6  12 703.803 235.424  16
   2  -6  13 353.980 145.629  13
  -2   5  13 966.378 254.477  19
  -2   5  12 70.6629 124.314  19
   2  -5 -12 8.41983 105.825  22
  -2   5  11 684.651 385.076  19
  -2   5  11 905.863 290.734   6
  -2   5  10 1073.96 494.169  19
  -2   5  10 1360.68 395.229   6
  -2   5   9 37953.1 2762.66  19
  -2   5   9 38035.2 2224.17   6
  -2   5   8 14261.2 1647.27  19
  -2   5   8 13869.7 1311.42   6
   2  -5  -7 828.587 577.748   4
   2  -5  -7 878.194 292.601  26
  -2   5   7 1042.68 343.237   6
   2  -5  -6 3482.63 561.899  28
   2  -5  -6 3369.77 1123.82   4
  -2   5   6 4209.72 644.732   6
   2  -5  -5 6138.73 1383.72   4
  -2   5   5 7746.85 824.058   6
   2  -5  -4 12426.2 1927.92   4
  -2   5   4 19561.0 1224.72   6
   2  -5  -3 413.945 252.686   4
   2  -5  -2 3938.32 961.230   4
   2  -5  -1 13199.2 1655.87   4
   2  -5  -1 13651.6 1500.55   1
   2  -5   0 82241.3 4132.68   4
   2  -5   0 75335.5 3688.87   1
   2  -5   1 11938.0 1434.62   4
   2  -5   1 14246.0 1538.37   1
   2  -5   2 6035.76 887.983   4
   2  -5   2 6350.62 1017.11   1
  -2   5  -3 16078.7 2244.31   2
  -2   5  -4 1908.61 844.682   2
  -2   5  -5 33854.1 3309.54   2
  -2   5  -6 3481.60 1128.17   2
   2  -5   7 27.4995 98.8208  12
  -2   5  -7 30.5243 252.866   2
   2  -5   7 17.9638 102.116  32
  -2   5  -8 4435.67 1322.56   2
   2  -5   8 6875.21 897.528  32
   2  -5   8 6322.48 827.836  12
   2  -5   8 5529.29 794.531  20
   2  -5   9 7399.76 919.144  12
   2  -5   9 7606.87 940.237  20
   2  -5  10 2620.37 557.525  20
   2  -5  10 2995.97 596.716  12
   2  -5  11 963.770 316.752  20
   2  -5  11 1430.01 403.754  12
   2  -5  12 6220.81 732.072  12
   2  -5  13 1195.39 274.608  16
  -2   4  13 1887.34 454.906  19
   2  -4 -13 2216.16 373.118  17
  -2   4  12 1049.69 451.959  19
  -2   4  12 1223.73 322.289   6
   2  -4 -12 622.659 276.126  22
  -2   4  11 1025.94 420.623  19
  -2   4  11 1126.45 373.241   6
  -2   4  10 2267.54 671.881  19
  -2   4  10 1983.25 510.299   6
  -2   4   9 2258.96 676.562  19
  -2   4   9 2700.77 573.759   6
  -2   4   8 271.305 151.787  19
   2  -4  -8 54.5662 201.233   4
   2  -4  -7 36604.7 3537.28   4
  -2   4   7 35782.0 2008.15   6
   2  -4  -6 24889.7 2769.14   4
  -2   4   6 21137.8 1416.08   6
   2  -4  -5 2216.03 824.169   4
  -2   4   5 3362.86 491.482   6
   2  -4  -4 7210.50 1317.57   4
   2  -4  -3 2342.06 722.157   4
   2  -4  -2 7483.76 1180.08   4
   2  -4  -1 54116.7 3134.50   4
   2  -4   0 76242.5 3619.76   4
   2  -4   1 156098. 5281.42   4
   2  -4   2 1538.43 432.043   4
   2  -4   3 1823.39 435.110   4
  -2   4  -3 2572.98 894.616   2
  -2   4  -4 411.235 389.254   2
  -2   4  -5 3246.49 955.791   2
  -2   4  -6 3361.70 1034.19   2
  -2   4  -7 21229.7 2706.77   2
   2  -4   8 9409.15 1022.85  32
  -2   4  -8 9041.52 1821.20   2
   2  -4   8 8236.73 914.397  12
   2  -4   9 4242.76 663.159  20
   2  -4   9 5175.73 789.063  32
   2  -4   9 4849.67 747.955  12
   2  -4  10 1705.50 453.831  20
   2  -4  10 1279.70 377.992  12
   2  -4  10 1706.02 472.596  32
   2  -4  11 191.174 171.130  20
   2  -4  11 39.5172 127.192  12
   2  -4  12 2526.14 486.385  12
   2  -4  13 5997.67 653.717  12
  -2   3  13 2648.71 622.287  19
   2  -3 -13 2298.39 445.387  17
  -2   3  13 2055.77 382.191   6
  -2   3  12 516.129 390.826  19
  -2   3  12 106.881 152.743   6
   2  -3 -12 410.629 243.282  22
  -2   3  11 9674.09 1373.67  19
  -2   3  11 9669.22 1099.47   6
  -2   3  10 204.069 320.780  19
  -2   3  10 816.832 377.832   6
   2  -3  -9 178.702 256.256   8
  -2   3   9 489.599 277.220  19
  -2   3   9 467.251 228.317   6
  -2   3   8 1712.95 527.906  19
   2  -3  -8 1040.95 467.318   8
   2  -3  -8 988.606 553.163   4
   2  -3  -7 7454.11 1486.94   4
   2  -3  -7 10991.3 1357.03   8
   2  -3  -6 3889.72 1039.11   4
   2  -3  -6 3840.72 728.496   8
   2  -3  -5 3064.35 843.296   4
   2  -3  -5 3549.91 609.042   8
   2  -3  -4 2362.80 689.200   4
   2  -3  -3 10127.0 1315.98   4
   2  -3  -2 108619. 4446.00   4
   2  -3  -1 15677.6 1476.35   4
   2  -3   0 95650.5 3850.11   4
   2  -3   1 5660.46 804.281   4
   2  -3   2 52890.8 2520.06   4
  -2   3  -3 17555.3 1905.90   2
   2  -3   3 22173.9 1512.19   4
  -2   3  -4 2981.54 798.704   2
  -2   3  -5 3118.97 914.036   2
  -2   3  -6 2548.73 830.531   2
  -2   3  -7 9950.35 1774.60   2
   2  -3   8 3645.76 599.207  12
   2  -3   8 2916.31 549.520  32
  -2   3  -8 2338.43 996.447   2
   2  -3   9 610.071 285.769  32
   2  -3   9 555.944 260.350  12
   2  -3  10 148.601 177.734  20
   2  -3  10 326.843 262.813  32
   2  -3  10 417.989 240.642  12
   2  -3  11 1116.38 327.927  20
   2  -3  11 1844.32 463.660  12
   2  -3  11 1984.52 469.355  32
   2  -3  12 3764.03 600.237  32
   2  -3  12 3373.43 579.720  12
   2  -3  13 397.452 201.134  12
   2  -3  14 275.683 150.028  16
   2  -2 -14 834.183 224.750  17
  -2   2  13 3696.14 751.560  19
   2  -2 -13 3956.18 637.775  17
  -2   2  13 2830.22 505.023   6
   2  -2 -12 3901.99 760.535  17
  -2   2  12 3229.02 609.831   6
  -2   2  12 3688.75 838.111  19
  -2   2  11 216.514 244.494  19
   2  -2 -11 279.004 307.349   8
  -2   2  10 2821.56 755.399  19
   2  -2 -10 2832.34 790.788   8
   2  -2  -9 2118.62 698.315   8
  -2   2   9 2079.52 547.290  19
   2  -2  -8 22269.6 2386.96   4
   2  -2  -8 22592.5 1979.77   8
   2  -2  -7 61230.9 3084.11   8
   2  -2  -7 65841.3 4032.14   4
   2  -2  -6 27188.2 2397.68   4
   2  -2  -6 26956.7 1788.35   8
   2  -2  -5 10158.3 1365.15   4
   2  -2  -4 412.544 237.469   4
   2  -2  -3 3455.71 708.952   4
   2  -2  -2 11298.0 1207.68   4
   2  -2  -1 489.655 269.215   4
   2  -2   0 34386.4 2014.12   4
   2  -2   1 9011.03 985.083   4
   2  -2   2 1983.21 450.024   4
  -2   2  -2 2640.04 691.866   2
  -2   2  -3 277.321 253.389   2
  -2   2  -4 360.208 349.868   2
  -2   2  -5 40340.2 3007.78   2
  -2   2  -6 31116.3 2857.25   2
  -2   2  -7 20177.2 2431.04   2
   2  -2   8 4869.48 770.661  33
  -2   2  -8 3443.15 1065.41   2
   2  -2   9 1240.50 462.157  33
   2  -2   9 1083.90 364.562  32
   2  -2  10 1263.37 403.613  32
   2  -2  10 1591.06 453.873  12
   2  -2  11 677.770 308.044  32
   2  -2  11 457.214 245.044  12
   2  -2  12 2341.89 482.317  32
   2  -2  12 2286.02 475.115  12
   2  -2  13 254.457 154.626  12
   2  -2  14 1123.84 214.414  12
   2  -1 -13 7158.46 860.046  17
  -2   1  13 5073.99 704.951   6
  -2   1  13 6354.27 993.570  19
   2  -1 -12 7399.18 1003.16  17
  -2   1  12 6712.51 1104.39  19
   2  -1 -12 6671.52 1130.11   8
  -2   1  11 3052.57 796.347  19
   2  -1 -11 3124.49 692.045  17
   2  -1 -11 3203.58 850.522   8
   2  -1 -10 41957.6 2959.43   8
  -2   1  10 41587.8 2810.42  19
   2  -1  -9 28042.3 2265.73   8
  -2   1   9 27358.3 2108.94  19
   2  -1  -8 25333.0 1994.62   8
   2  -1  -7 46907.6 3017.90   4
   2  -1  -7 43144.4 2404.91   8
   2  -1  -6 10747.1 1357.16   4
   2  -1  -6 10158.5 993.577   8
   2  -1  -5 22171.2 1869.52   4
   2  -1  -4 5454.82 880.496   4
   2  -1  -3 9207.80 1085.41   4
   2  -1  -2 10602.0 1090.84   4
   2  -1  -2 9389.95 819.932   3
   2  -1  -1 187257. 5302.51   4
   2  -1  -1 172952. 4483.33   3
   2  -1   0 6983.42 867.806   4
   2  -1   0 6818.94 677.004   3
   2  -1   1 17007.0 1373.78   4
  -2   1  -2 11798.9 1192.24   2
  -2   1  -3 4708.26 821.718   2
  -2   1  -4 62037.1 3320.59   2
  -2   1  -5 10215.8 1454.48   2
  -2   1  -6 13015.9 1783.57   2
  -2   1  -7 4814.46 1140.25   2
   2  -1   8 2963.84 617.645  33
  -2   1  -8 2030.79 794.483   2
   2  -1   9 5804.17 931.971  33
   2  -1  10 2813.11 679.759  33
   2  -1  11 665.717 287.401  32
   2  -1  11 792.264 309.855  12
   2  -1  12 521.107 246.259  32
   2  -1  12 329.262 196.121   6
   2  -1  12 482.517 239.865  12
   2  -1  13 5788.23 580.542  32
   2  -1  13 6262.92 668.042  12
  -2   0  15 3599.31 430.319  20
  -2   0  14 8690.55 787.086   6
   2   0 -13 403.967 196.897  17
   2   0 -13 444.182 274.891   8
  -2   0  12 587.439 432.571  19
   2   0 -12 236.719 227.119   8
   2   0 -12 437.083 292.054  17
  -2   0  11 1422.52 539.046  19
   2   0 -11 2507.89 588.939  17
   2   0 -11 2473.73 803.681   8
  -2   0  10 23691.2 2078.24  19
   2   0 -10 22402.2 2105.37   8
   2   0 -10 25006.7 1859.52  17
  -2   0   9 19578.0 1697.49  19
   2   0  -9 17154.2 1738.60   8
   2   0  -9 18714.8 2689.54   2
   2   0  -8 1630.63 770.210   2
   2   0  -7 14866.2 2054.52   2
   2   0  -6 6897.91 985.019   4
   2   0  -6 10745.0 1591.62   2
   2   0  -5 1008.25 496.637   2
   2   0  -5 829.680 318.908   4
   2   0  -4 9792.40 1090.12   4
   2   0  -3 3648.97 632.345   4
   2   0  -3 3482.62 674.661   3
   2   0  -2 119258. 3986.48   4
   2   0  -2 115580. 4157.55   3
   2   0  -1 989370. 20223.1   3
   2   0  -1 999999. 19695.2   4
   2   0   0 783542. 17016.4   3
   2   0   0 805456. 16325.4   4
  -2   0  -1 1317.11 346.552   2
   2   0   1 1435.68 470.817   3
   2   0   2 32431.8 2469.07   3
  -2   0  -2 35954.3 1945.39   2
  -2   0  -3 39061.0 2246.69   2
  -2   0  -4 2235.38 619.283   2
  -2   0  -5 3198.37 779.097   2
  -2   0  -6 827.424 455.246   2
  -2   0  -7 10095.2 1687.02   2
   2   0   8 9629.41 1158.29  33
   2   0   8 9280.20 845.404   7
  -2   0  -8 7962.24 1534.58   2
   2   0   9 2825.02 665.283  33
   2   0  10 1995.25 589.622  33
   2   0  11 400.711 238.392   6
   2   0  11 810.987 397.308  33
   2   0  11 467.074 269.836  32
   2   0  12 2160.11 435.601   6
   2   0  12 3116.90 524.511  32
   2   0  12 3487.24 581.355  12
   2   0  13 6901.83 566.411  32
   2   0  13 6660.54 655.433  12
  -2  -1  15 12701.1 864.328  20
  -2  -1  14 3346.14 567.155  20
   2   1 -14 3995.35 721.943   8
   2   1 -13 1274.71 474.528   8
   2   1 -12 1249.42 414.062  17
   2   1 -12 1333.69 512.778   8
  -2  -1  11 369.069 269.068  19
   2   1 -11 459.719 274.805  17
   2   1 -11 358.794 176.345   8
  -2  -1  10 15855.6 1624.75  19
   2   1 -10 16651.1 1456.13  17
   2   1 -10 15443.4 1713.05   8
   2   1 -10 16447.9 2524.25   2
  -2  -1   9 439.187 269.306  19
   2   1  -9 465.900 291.418  17
   2   1  -9 770.571 563.912   2
   2   1  -8 7325.35 1500.04   2
   2   1  -7 25464.2 2572.90   2
   2   1  -6 57050.2 3578.00   2
   2   1  -5 4317.98 662.229   4
   2   1  -5 5864.26 989.036   2
   2   1  -4 1052.94 454.611   3
   2   1  -4 594.210 316.246   4
   2   1  -4 868.859 385.819   2
   2   1  -3 1227.11 394.701   4
   2   1  -3 1638.89 538.967   3
   2   1  -2 1746.83 552.670   3
   2   1  -2 1786.78 465.797   4
   2   1  -1 203713. 5806.56   4
   2   1  -1 200990. 6870.09   3
  -2  -1   0 44750.4 1418.37   2
   2   1   0 56949.3 3378.96   3
  -2  -1  -1 204.076 114.674   2
   2   1   1 285.501 299.974   3
  -2  -1  -2 25037.0 1432.05   2
   2   1   2 21981.1 2272.01   3
  -2  -1  -3 2415.49 532.272   2
  -2  -1  -4 24796.5 1909.03   2
  -2  -1  -5 4862.78 929.503   2
   2   1   5 5039.80 547.281   7
   2   1   6 2291.56 398.053   7
  -2  -1  -6 1827.75 630.038   2
   2   1   7 9875.45 1125.89  33
  -2  -1  -7 11084.5 1678.01   2
   2   1   7 12523.3 921.859   7
   2   1   8 11928.7 1361.11  33
   2   1   8 13669.7 1313.41   6
   2   1   9 15349.2 1608.76  33
   2   1   9 17130.6 1513.74   6
   2   1  10 4636.71 876.931  33
   2   1  10 3026.61 628.365   6
   2   1  11 4214.96 771.110  33
   2   1  11 3390.02 607.340   6
   2   1  12 658.492 244.390  12
   2   1  12 424.093 185.393  32
   2   1  12 545.710 211.023   6
   2   1  13 1105.01 242.313  12
  -2  -2  15 6769.26 608.668  20
  -2  -2  14 448.830 254.839  20
   2   2 -14 535.806 313.725   8
   2   2 -14 417.075 213.976  29
  -2  -2  13 2278.47 549.854  20
   2   2 -13 2690.03 686.516   8
   2   2 -12-3.57237 257.434   8
   2   2 -11 5047.60 834.767  17
   2   2 -11 5023.92 1020.51   8
   2   2 -10 1017.29 344.366  17
   2   2  -9 1678.64 451.397  17
   2   2  -9 2356.37 881.785   2
   2   2  -8 23649.1 2613.90   2
   2   2  -7 18734.4 2103.22   2
   2   2  -6 2735.32 685.236   2
   2   2  -5 411.519 160.346   2
   2   2  -5 451.273 375.989   3
   2   2  -4 2613.34 793.290   3
   2   2  -4 4186.41 670.201   2
   2   2  -3 29247.6 2561.28   3
   2   2  -2 1497.71 597.827   3
   2   2  -1 8405.35 1411.85   3
   2   2   0 137.018 324.839   3
   2   2   1 1727.71 715.593   3
   2   2   2 1854.80 753.854   3
   2   2   3 802.935 540.654   3
   2   2   4 895.502 222.432   7
   2   2   4 799.473 275.690   6
   2   2   5 57890.8 2059.13   7
   2   2   5 59487.8 2530.10   6
   2   2   6 75005.2 3070.42   6
  -2  -2  -7 3643.73 603.680  26
   2   2   7 5181.92 792.297   6
  -2  -2  -8 732.817 337.177  26
   2   2   8 842.170 359.866   6
   2   2   8 882.440 373.883  33
   2   2   9 1296.58 483.522  33
   2   2   9 1014.53 394.794   6
   2   2  10-152.726 107.205   6
   2   2  10 119.387 217.036  33
   2   2  11 4807.33 773.850  33
   2   2  11 1887.00 421.876   6
   2   2  12 1347.25 282.825  32
  -2  -3  14 77.8238 135.608  20
   2   3 -14 359.632 222.997   8
   2   3 -14 241.240 115.660  29
   2   3 -13 7592.78 1086.08   8
  -2  -3  13 7212.20 924.487  20
   2   3 -13 8429.16 945.430  29
  -2  -3  12 1226.96 415.189  20
   2   3 -12 1543.00 501.416   8
   2   3 -12 1201.85 432.540  29
  -2  -3  11 1014.16 354.081  20
  -2  -3  10 32.4065 254.430  20
   2   3  -9 8368.20 1916.15   3
  -2  -3   9 9585.97 1089.95  20
   2   3  -8 7685.32 1752.03   3
   2   3  -7 8402.96 1744.53   3
   2   3  -6 3089.40 979.592   3
   2   3  -5 27214.5 2874.86   3
   2   3  -4 71355.9 4610.21   3
   2   3  -3 61450.2 4240.82   3
   2   3  -2 6667.94 1403.67   3
   2   3  -1 6400.58 1374.31   3
   2   3   0 67382.3 4686.95   3
   2   3   1 10579.4 1852.13   3
   2   3   2 2131.07 916.970   3
   2   3   3 9583.33 1920.08   3
   2   3   3 12112.2 1014.63   6
   2   3   4 281.020 189.348   6
   2   3   5 3749.40 637.385   6
   2   3   6 5871.10 837.781   6
  -2  -3  -6 5845.45 782.930  13
  -2  -3  -7 30039.9 1889.54  26
   2   3   7 30138.3 2014.74   6
   2   3   8 8147.84 1040.46   6
  -2  -3  -8 7563.85 921.708  26
   2   3   8 7331.05 1088.54  33
  -2  -3  -9 508.279 379.741  26
   2   3   9 627.297 293.141   6
   2   3   9-70.3834 224.008  33
   2   3  10 5448.04 740.318   6
   2   3  10 6077.48 922.154  33
   2   3  11 5488.05 747.144  33
   2   3  11 3132.56 478.369   6
   2   3  12 170.647 112.361  12
   2   3  12 175.496 86.1251  32
  -2  -4  14 3723.97 537.671  20
  -2  -4  13 339.535 226.208  20
   2   4 -13 376.165 307.414   8
   2   4 -13 95.9112 108.164  29
  -2  -4  12 1148.09 392.480  20
   2   4 -12 430.365 253.574  29
  -2  -4  11 1511.05 419.136  20
   2   4 -11 1237.26 421.644  29
   2   4 -10 5008.20 845.962  29
  -2  -4  10 4457.46 785.712  20
   2   4  -9 17095.1 1530.04  29
  -2  -4   9 16443.8 1449.87  20
   2   4  -8 9399.20 2035.53   3
   2   4  -8 12458.4 1256.14  29
  -2  -4   8 11467.4 1152.62  20
   2   4  -7 895.997 597.153   3
   2   4  -6 24964.5 3123.08   3
   2   4  -5 129438. 7120.42   3
   2   4  -4 27037.0 3098.87   3
   2   4  -3 5128.75 1357.16   3
   2   4  -2 71475.0 5078.63   3
   2   4  -2 61150.9 2159.84   5
   2   4  -1 64878.7 4893.86   3
   2   4  -1 53553.9 1947.16   5
   2   4   0 4986.02 1368.31   3
   2   4   0 6690.28 606.343   5
   2   4   1 871.203 599.935   3
   2   4   1 541.346 186.140   5
   2   4   2 1397.11 299.604   5
   2   4   2 1690.22 808.033   3
   2   4   3 9705.52 761.006   5
   2   4   3 7504.34 1764.97   3
   2   4   4 13224.9 1214.78   6
   2   4   4 13273.7 898.059   5
  -2  -4  -5 3094.36 559.050  13
   2   4   5 2952.58 590.144   6
  -2  -4  -6 6756.76 884.147  13
   2   4   6 7105.30 944.100   6
  -2  -4  -7 2824.77 597.820  26
   2   4   7 3454.82 661.349   6
  -2  -4  -8 563.931 271.901  26
   2   4   8 595.941 301.121   6
   2   4   9 867.000 389.907  33
  -2  -4  -9 1174.10 345.123  26
   2   4   9 466.636 235.849   6
   2   4  10 1360.69 422.667  33
   2   4  11 227.780 134.893  33
  -2  -5  14 6116.60 597.979  20
  -2  -5  13 2142.67 455.259  20
   2   5 -13 1777.28 483.419   8
  -2  -5  12-128.821 160.825  20
   2   5 -12 155.630 113.749  29
  -2  -5  11 2156.39 533.391  20
   2   5 -11 2569.34 559.697  29
  -2  -5  10 6716.30 767.153  13
   2   5 -10 5607.21 866.702  29
  -2  -5  10 5494.69 888.566  20
  -2  -5   9 1674.83 497.683  20
   2   5  -9 1424.30 463.873  29
  -2  -5   9 1433.55 359.192  13
   2   5  -8 1801.55 931.600   3
  -2  -5   8 3189.71 656.304  20
   2   5  -8 3434.71 659.302  29
  -2  -5   7 790.419 312.145  20
   2   5  -7 450.164 482.236   3
   2   5  -7 461.215 244.835  29
   2   5  -6 7209.22 1788.54   3
   2   5  -6 6710.42 921.502  29
   2   5  -5 18163.2 2832.55   3
   2   5  -4 1525.21 812.668   3
   2   5  -3 7921.23 1849.52   3
   2   5  -2 27336.8 3430.21   3
   2   5  -1 37583.8 4064.67   3
   2   5   0 3268.86 474.582   5
   2   5   0 6450.87 1679.99   3
   2   5   1 829.130 244.466   5
   2   5   1 860.840 625.844   3
   2   5   2 5444.34 1528.84   3
   2   5   2 5234.47 597.781   5
   2   5   3 9444.70 2031.95   3
  -2  -5  -3 12161.5 1084.40  13
   2   5   3 10875.1 1391.03  24
   2   5   3 12112.7 885.303   5
  -2  -5  -4 27758.9 1757.64  13
  -2  -5  -5 33986.7 2027.54  13
  -2  -5  -6 9612.14 1093.84  13
  -2  -5  -7 5727.50 818.496  26
  -2  -5  -8 3602.18 612.592  26
   2   5   8 2935.89 662.988  33
   2   5   9 474.336 222.741  33
  -2  -5  -9 774.034 253.804  26
   2   5  10 57.9708 88.2350  33
   2   6 -13 673.332 200.189  23
  -2  -6  13 701.034 230.272  20
  -2  -6  12 1687.07 428.344  20
  -2  -6  11 2794.89 591.865  20
   2   6 -10 2459.90 546.299  29
  -2  -6  10 1422.60 348.788  13
  -2  -6  10 2072.96 526.879  20
  -2  -6   9 2191.19 567.461  20
  -2  -6   9 1425.28 359.705  13
   2   6  -9 1773.53 490.522  29
  -2  -6   8 37105.1 1950.23  13
   2   6  -8 36475.5 2312.53  29
  -2  -6   8 39057.5 2368.49  20
  -2  -6   7 17082.0 1282.16  13
   2   6  -7 15431.4 1518.84  29
  -2  -6   7 17598.0 1540.51  20
   2   6  -6 6556.37 1815.41   3
  -2  -6   6 6702.28 788.049  13
  -2  -6   6 8529.84 1026.31  20
  -2  -6   5 1245.12 365.850  13
   2   6  -5 1183.01 767.587   3
  -2  -6   5 1257.99 406.215  20
   2   6  -4 833.580 629.687   3
  -2  -6   4 1293.28 334.482  13
   2   6  -4 1931.07 574.141  11
   2   6  -3 4093.23 1401.33   3
   2   6  -3 2910.59 664.267  11
   2   6  -2 13531.9 2565.25   3
   2   6  -2 11703.1 1360.31  11
  -2  -6   1 9570.28 917.642  13
   2   6  -1 7917.91 1133.38  11
   2   6  -1 9772.39 2189.27   3
   2   6   0 1689.96 616.014  24
   2   6   0 860.089 679.077   3
  -2  -6   0 1078.56 319.219  13
  -2  -6  -1 2971.94 521.910  13
   2   6   1 3070.93 757.337  24
   2   6   1 3366.64 1240.55   3
   2   6   2 74.3386 229.695   3
  -2  -6  -2 814.762 291.871  13
   2   6   2 225.389 227.624  24
  -2  -6  -3 1856.46 450.307  13
   2   6   3 1837.17 603.638  24
  -2  -6  -4 1121.22 367.638  13
  -2  -6  -5 1080.88 377.017  13
  -2  -6  -6 2942.46 594.132  26
  -2  -6  -6 3939.32 679.864  13
  -2  -6  -7 1179.77 377.029  26
   2   6   8 318.439 182.242  33
  -2  -6  -8-65.1425 127.895  26
   2   6   9 204.689 171.078  33
   2   7 -12 136.484 124.418  31
   2   7 -12 113.225 155.861  11
  -2  -7  11 2580.60 494.011  20
  -2  -7  10 223.061 138.808  13
  -2  -7  10-11.8345 196.758  20
  -2  -7   9 275.342 180.318  13
  -2  -7   9 490.533 235.588  20
  -2  -7   8 19223.5 1350.04  13
  -2  -7   8 20401.5 1680.19  20
   2   7  -7 36642.7 2637.25  11
  -2  -7   7 29678.4 1750.30  13
   2   7  -6 3216.08 792.153  11
  -2  -7   6 2760.58 510.090  13
  -2  -7   5 3371.66 553.391  13
   2   7  -5 3054.62 746.254  11
  -2  -7   4 6547.18 794.463  13
   2   7  -4 5954.23 1064.07  11
  -2  -7   3 11875.7 1077.48  13
   2   7  -3 10271.5 1375.34  11
  -2  -7   2 8392.12 907.500  13
   2   7  -2 7805.62 1174.76  11
  -2  -7   1 1961.36 429.172  13
   2   7  -1 2324.54 733.149  24
  -2  -7   0 1491.59 386.037  13
   2   7   0 2199.69 681.903  24
  -2  -7  -1 8008.62 913.035  13
   2   7   1 9249.74 1367.51  24
  -2  -7  -2 36457.3 2053.46  13
   2   7   2 39939.0 2837.61  24
  -2  -7  -3 6189.18 819.132  13
   2   7   4 881.687 373.123  14
  -2  -7  -4 945.761 321.385  13
  -2  -7  -5 4497.69 681.795  13
  -2  -7  -6 5191.20 687.168  13
  -2  -7  -6 4725.44 669.536  26
  -2  -7  -7 1621.38 346.002  26
   2   7   8 255.907 132.232  33
  -2  -7  -8 110.614 86.9240  26
   2   8 -12 2501.96 321.591  23
   2   8 -11 214.183 161.847  11
   2   8 -11 149.441 112.373  31
   2   8 -10 3941.88 660.475  11
   2   8 -10 2799.35 440.540  31
  -2  -8   9 5102.47 562.090  13
   2   8  -9 4695.19 783.837  11
   2   8  -9 3245.55 524.677  31
  -2  -8   8 1032.62 268.664  13
   2   8  -8 923.927 401.974  11
  -2  -8   7 638.637 237.571  13
   2   8  -7 192.188 261.521  11
  -2  -8   6 1746.04 396.743  13
   2   8  -6 1429.35 476.957  11
  -2  -8   5 1584.10 372.859  13
   2   8  -5 1733.20 580.450  11
  -2  -8   4 2625.19 496.986  13
   2   8  -4 2753.92 688.223  11
  -2  -8   3 12699.2 1120.58  13
   2   8  -3 12581.2 1489.88  11
  -2  -8   2 5591.01 741.061  13
   2   8  -2 5522.18 1092.61  24
  -2  -8   1 1407.75 382.230  13
   2   8  -1 1116.91 533.466  24
  -2  -8   0 1330.72 370.431  13
   2   8   0 1333.10 547.073  24
   2   8   1 6089.21 1052.13  24
  -2  -8  -1 6073.35 778.266  13
  -2  -8  -2 24833.2 1603.40  13
  -2  -8  -3 5152.10 690.354  13
  -2  -8  -4 2075.09 425.337  13
  -2  -8  -5 9729.87 897.680  26
  -2  -8  -5 10031.1 867.891  13
  -2  -8  -6 560.706 201.192  26
   2   8   7 72.9389 83.5193  33
  -2  -8  -7 110.641 69.4682  26
   2   9 -10 1208.44 259.527  23
   2   9 -10 1501.84 290.885  11
   2   9  -9 1892.25 398.066  11
   2   9  -8 1571.07 426.269  11
  -2  -9   8 1398.10 261.548  13
  -2  -9   7 1508.49 298.987  13
   2   9  -7 1148.34 333.965  11
   2   9  -6 576.760 239.868  11
  -2  -9   6 495.930 189.180  13
  -2  -9   5 1827.80 363.918  13
  -2  -9   4 2371.07 434.043  13
   2   9  -4 2189.99 676.506  24
  -2  -9   3 1904.17 390.067  13
   2   9  -3 1969.29 606.949  24
   2   9  -2 287.609 255.552  24
  -2  -9   2 489.368 255.460  13
  -2  -9   1 12162.8 1014.47  13
   2   9  -1 13622.2 1495.63  24
  -2  -9   0 1590.05 345.397  13
   2   9   0 1239.23 466.340  24
  -2  -9  -1 1665.21 362.684  13
  -2  -9  -2 4256.11 546.263  13
  -2  -9  -3 2601.41 408.981  13
  -2  -9  -3 2027.44 406.688  26
   2   9   3 1379.84 301.395  14
  -2  -9  -4 6124.35 619.804  26
  -2  -9  -4 7415.37 626.241  13
  -2  -9  -5 1660.52 277.999  26
   2  10  -8 323.584 177.790  24
   2  10  -7 677.418 269.574  24
  -2 -10   6 609.447 156.129  13
   2  10  -6 999.967 328.315  24
  -2 -10   5 3233.76 376.458  13
   2  10  -5 4149.12 679.748  24
  -2 -10   4 759.477 199.023  13
   2  10  -4 447.279 249.222  24
  -2 -10   3 3238.19 414.455  13
   2  10  -3 3173.72 607.161  24
   2  10  -2 3611.58 643.118  24
  -2 -10   2 4394.61 484.692  13
  -2 -10   1 667.702 191.943  13
   2  10  -1 1097.94 340.940  24
  -2 -10   0-1.37072 71.4997  13
   2  10   1-0.46151 117.459  14
  -2 -10  -1-36.8070 57.7413  13
   2  10   2 795.583 192.933  14
  -2 -10  -2 950.147 181.774  13
  -2 -10  -2 1008.27 226.667  26
  -2 -10  -3 2714.97 304.209  26
   2  11  -4 1388.57 255.472  14
   2  11  -3 2462.64 343.068  14
   2  11  -2 1923.32 305.367  14
   3 -12  -2 4101.69 352.975  34
   3 -12  -1 1903.40 236.969  34
   3 -12   1 255.630 113.051   9
   3 -12   1-29.8183 76.6888  28
   3 -12   2 299.543 138.917   9
   3 -12   3 679.422 179.697   9
   3 -12   4 1000.80 202.122   9
   3 -12   5 2512.63 291.404   9
   3 -11  -5 2341.59 326.077  34
   3 -11  -4 5821.62 579.571  34
   3 -11  -3 12466.3 921.644  34
   3 -11  -2 2378.20 414.993  34
   3 -11  -2 2764.46 403.059  28
   3 -11  -1 86.6528 90.9245  34
   3 -11  -1 226.358 137.810   9
   3 -11  -1 327.874 244.554  28
   3 -11   0 1358.73 325.024   9
   3 -11   0 1161.03 284.774  34
   3 -11   0 1606.03 372.063  28
   3 -11   1 3610.38 558.079   9
   3 -11   1 3113.04 445.471  28
   3 -11   2 3364.91 544.523   9
   3 -11   2 2993.59 423.687  28
   3 -11   3 3136.97 526.072   9
   3 -11   3 2762.63 396.473  28
   3 -11   4 1333.47 342.258   9
   3 -11   5 2012.96 387.605   9
   3 -11   6 4425.87 545.109   9
   3 -11   7 1063.40 236.888   9
   3 -11   8 372.299 107.004   9
  -3  10   7 233.352 129.774  19
   3 -10  -7 18.4648 85.6902  34
  -3  10   6-58.4734 163.293  19
   3 -10  -6 184.365 148.802  34
   3 -10  -5 342.577 191.323  34
   3 -10  -4 1824.45 410.523  34
   3 -10  -3 5208.01 728.717   9
   3 -10  -3 4954.67 713.994  34
   3 -10  -3 5264.67 682.894  28
   3 -10  -2 1221.20 366.928   9
   3 -10  -2 498.329 159.209  34
   3 -10  -2 1530.75 430.109  28
   3 -10  -1 11637.2 1103.60   9
   3 -10  -1 11067.1 1005.97  28
   3 -10  -1 9802.88 1004.27  34
   3 -10   0 5607.55 727.071  34
   3 -10   0 6298.50 842.953   9
   3 -10   0 5807.25 716.819  28
   3 -10   1 252.304 184.657   9
   3 -10   1 236.204 194.628  34
   3 -10   2 367.930 235.801   9
   3 -10   3 1368.64 451.291   9
   3 -10   3 1613.24 388.133  27
   3 -10   3 1183.21 296.156  13
   3 -10   4 7247.22 952.621   9
   3 -10   4 8316.90 788.370  13
   3 -10   4 9883.96 988.072  27
   3 -10   5 12024.1 1209.95   9
   3 -10   5 15176.1 1185.91  27
   3 -10   5 12729.2 970.082  13
   3 -10   6 3410.08 615.102   9
   3 -10   6 3871.09 501.501  13
   3 -10   6 4639.83 612.441  27
   3 -10   7 891.065 244.863  27
   3 -10   7 870.129 218.556  13
   3 -10   8 567.825 154.635  13
   3 -10   8 316.544 134.103  27
   3 -10   9 1038.71 228.674   9
   3  -9  -9 2865.36 338.927  22
   3  -9  -8 1862.02 281.458  34
  -3   9   8 1975.51 364.711  19
   3  -9  -8 1694.75 327.536  22
  -3   9   7 3598.33 585.523  19
   3  -9  -7 4159.59 539.616  34
   3  -9  -7 4055.97 578.409  22
   3  -9  -6 6328.01 763.405  22
   3  -9  -6 7071.75 815.612  34
   3  -9  -5 4080.82 615.397  28
   3  -9  -5 6187.51 821.084  34
   3  -9  -5 5614.38 728.249  22
   3  -9  -4 6454.38 822.098  28
   3  -9  -4 6031.95 845.910  34
   3  -9  -3 849.614 294.853   9
   3  -9  -3 1050.53 402.432  28
   3  -9  -2 15848.8 1271.50  28
   3  -9  -2 15852.2 1363.20   9
   3  -9  -1 2836.58 568.804   9
   3  -9   0 1598.26 446.206   9
   3  -9   1 272.446 251.994   9
   3  -9   1 785.544 274.154  34
   3  -9   1 367.570 233.422  27
   3  -9   2 1486.19 529.072   9
   3  -9   2 1568.63 480.679  27
   3  -9   3 12379.8 1271.63  27
   3  -9   4 2087.13 528.101  27
   3  -9   4 2140.49 445.736  13
   3  -9   5 3730.55 581.851  13
   3  -9   5 3172.41 629.964  27
   3  -9   6-51.5411 142.345  27
   3  -9   6 359.198 188.630  13
   3  -9   7 1480.98 366.147  13
   3  -9   7 1275.10 383.396  27
   3  -9   8 1218.54 344.492  27
   3  -9   8 1002.66 282.321  13
   3  -9   9 2988.32 400.820  13
   3  -9   9 2315.40 383.378  27
   3  -9  10 3250.13 322.834  13
   3  -9  10 1088.99 202.749  27
  -3   8  10 2245.07 320.960  19
   3  -8 -10 3331.70 419.205  22
  -3   8   9 665.052 235.958  19
   3  -8  -9 761.359 245.110  22
  -3   8   8 2442.45 512.720  19
   3  -8  -8 3361.19 493.991  34
   3  -8  -8 3089.04 565.844  22
  -3   8   7 464.899 295.990  19
   3  -8  -7 581.551 256.657  34
   3  -8  -6 431.041 222.511  34
   3  -8  -5 1065.64 356.616  34
   3  -8  -5 2294.55 591.888  28
   3  -8  -4 18189.1 1481.88   9
   3  -8  -4 18345.0 1417.44  28
   3  -8  -3 15773.7 1379.01   9
   3  -8  -3 14267.7 1222.99  28
   3  -8  -2 31185.0 1991.84   9
   3  -8  -1 2038.45 518.908   9
   3  -8   0 694.556 347.151   9
   3  -8   0 420.027 216.121  27
   3  -8   1 851.855 377.437   9
  -3   8  -1 318.258 463.593   2
   3  -8   1 869.916 337.856  27
   3  -8   1 369.130 177.140  34
   3  -8   2 1355.15 444.624  27
   3  -8   3 16250.1 1506.71  27
   3  -8   4 11411.0 1277.35  27
   3  -8   4 12558.9 1140.88  21
   3  -8   5 310.261 243.974  27
   3  -8   5 867.772 297.478  21
   3  -8   5 740.155 273.515  13
   3  -8   6 1710.76 509.280  27
   3  -8   6 1567.90 401.736  13
   3  -8   6 1782.47 409.420  21
   3  -8   7 9266.85 968.023  13
   3  -8   8 7387.32 834.431  13
   3  -8   9 1622.64 404.044  27
   3  -8   9 1625.71 352.606  13
   3  -8  10 1053.17 291.491  27
   3  -8  10 2125.33 352.528  13
   3  -8  11 6408.75 459.014  13
   3  -8  11 2027.52 297.357  27
  -3   7  11 3346.41 415.621  19
   3  -7 -11 5402.70 543.958  22
  -3   7  10 329.761 225.665  19
   3  -7 -10 349.181 220.516  22
  -3   7   9 859.862 308.151  19
  -3   7   8 2666.95 636.720  19
   3  -7  -8 2657.57 495.262  34
   3  -7  -7 2870.82 561.156  34
   3  -7  -6 7923.91 963.221  34
   3  -7  -6 5988.53 793.454  28
   3  -7  -5 36232.3 2023.26  28
   3  -7  -4 5703.55 818.216   9
   3  -7  -4 4226.68 1281.50   4
   3  -7  -4 4746.98 697.670  28
   3  -7  -3 76427.3 2732.32  15
   3  -7  -3 77704.6 3205.33   9
   3  -7  -3 73281.8 2937.45  28
   3  -7  -2 6266.33 838.808   9
   3  -7  -2 6872.55 716.942  15
   3  -7  -2 5236.10 1322.04   4
   3  -7  -1 2491.28 869.643   4
   3  -7  -1 2579.12 526.004   9
   3  -7  -1 2794.74 576.027  27
   3  -7   0 2650.16 565.818   9
   3  -7   0 2763.85 856.877   4
   3  -7   0 2359.61 510.606  27
   3  -7   1 12289.7 1199.23  27
   3  -7   1 10977.4 1013.34  21
  -3   7  -2 16902.0 2695.79   2
   3  -7   2 19941.2 1580.70  27
   3  -7   2 19266.9 1381.44  21
  -3   7  -3 4009.49 1256.24   2
   3  -7   3 6442.85 774.903  16
   3  -7   3 6739.01 935.521  27
   3  -7   3 6687.41 794.848  21
  -3   7  -4 837.854 635.352   2
   3  -7   4 387.429 227.717  16
   3  -7   4 140.177 132.237  21
   3  -7   5 7210.11 940.851  16
   3  -7   5 10346.5 1026.28  13
   3  -7   5 10054.9 990.313  21
   3  -7   6 4669.38 724.012  16
   3  -7   6 6144.22 801.178  13
   3  -7   6 6340.94 782.801  21
   3  -7   7 4650.37 780.905  16
   3  -7   7 4983.86 731.389  13
   3  -7   7 5226.73 691.423  21
   3  -7   8 11320.9 1121.06  16
   3  -7   8 11869.1 1117.36  13
   3  -7   8 14682.7 1067.60  21
   3  -7   9 3659.82 597.450  13
   3  -7   9 3628.80 601.922  16
   3  -7  10 2552.55 450.672  16
   3  -7  10 2662.76 471.194  13
   3  -7  11 1700.71 309.965  16
   3  -7  11 3192.86 419.832  13
  -3   6  12 2553.59 351.479  19
   3  -6 -12 3281.26 379.975  22
  -3   6  11 564.437 224.503  19
   3  -6 -11 501.919 237.621  22
  -3   6  10 8070.65 1010.16  19
   3  -6 -10 9035.37 1007.25  22
  -3   6   9 19856.0 1741.35  19
  -3   6   8 7564.67 1086.53  19
   3  -6  -8 9471.01 964.132  34
   3  -6  -7 93.7907 209.594  34
   3  -6  -6 3160.04 593.882  28
   3  -6  -6 3826.27 658.635  34
   3  -6  -5 2573.21 562.261   9
   3  -6  -5 2899.56 564.307  28
   3  -6  -4 97100.0 6124.16   4
   3  -6  -4 103653. 3692.96   9
   3  -6  -4 99832.8 3292.02  15
   3  -6  -4 102937. 3457.72  28
   3  -6  -3 21425.6 2659.58   4
   3  -6  -2 1009.27 564.277   4
   3  -6  -1 1516.41 650.799   4
   3  -6   0 217.666 278.833   4
   3  -6   1-310.214 290.305   4
  -3   6  -2 3259.18 1134.99   2
  -3   6  -3 248.933 389.969   2
  -3   6  -4 10643.2 2026.66   2
   3  -6   4 10233.9 968.320  21
   3  -6   5 68910.2 2975.33  16
   3  -6   5 71378.0 2828.20  21
  -3   6  -5 69073.3 5388.48   2
  -3   6  -6 7616.16 1844.76   2
   3  -6   6 5038.68 856.242  16
   3  -6   6 6294.03 804.170  21
   3  -6   7 2901.21 655.348  16
   3  -6   7 3051.03 568.074  21
   3  -6   8 381.863 360.741  16
   3  -6   8 914.280 286.736  21
   3  -6   9 1681.69 492.829  16
   3  -6  10 7441.20 910.809  16
   3  -6  11 1863.45 403.358  16
   3  -6  12 215.527 89.2393  16
   3  -6  12 284.886 135.781  13
   3  -5 -13 1250.24 228.467  17
  -3   5  12 308.378 178.314  19
   3  -5 -12 41.5780 142.794  17
   3  -5 -12-43.0612 112.483  22
  -3   5  11 594.231 286.150  19
   3  -5 -11 750.987 313.977  22
  -3   5  10 10252.7 1246.96  19
  -3   5   9 24571.6 2025.73  19
  -3   5   8 8766.62 1186.17  19
   3  -5  -8 11379.4 1063.03  34
  -3   5   7 6117.68 953.135  19
   3  -5  -7 6679.18 824.040  34
   3  -5  -7 5249.98 1388.31   4
   3  -5  -6 3599.95 596.523  34
   3  -5  -6 3957.61 1191.80   4
   3  -5  -6 4152.38 649.545  28
   3  -5  -5 14767.6 2238.39   4
   3  -5  -4 28419.4 3011.83   4
   3  -5  -3 30.0758 319.238   4
   3  -5  -2-75.8493 197.804   4
   3  -5  -1 11722.4 1676.89   4
   3  -5   0 22402.6 2244.25   4
   3  -5   1 5086.51 1005.80   4
   3  -5   2 1973.34 606.675   4
  -3   5  -3 7527.06 1657.23   2
  -3   5  -4 21001.0 2747.56   2
  -3   5  -5 8701.06 1790.04   2
   3  -5   6 12343.5 1142.13  32
  -3   5  -6 12437.0 2189.73   2
   3  -5   6 9895.33 1013.59  21
   3  -5   7 335.286 247.833  32
   3  -5   7 512.730 263.467  12
   3  -5   7 169.520 206.769  21
   3  -5   8 11696.5 1107.19  21
   3  -5   8 13361.4 1293.31  32
   3  -5   8 12113.7 1106.91  12
   3  -5   9 7778.41 861.398  12
   3  -5   9 6513.24 772.852  21
   3  -5  10 1793.37 436.262  12
   3  -5  11 542.060 266.754  16
   3  -5  12 1536.74 344.420  16
  -3   4  13 95.0665 72.0884  19
   3  -4 -13-101.820 119.232  17
  -3   4  12 9038.27 1008.06  19
   3  -4 -12 11584.6 1119.96  17
   3  -4 -12 9184.65 879.079  22
  -3   4  11 3537.08 730.756  19
   3  -4 -11 3709.71 669.648  22
  -3   4  10 5008.02 929.233  19
  -3   4   9 1161.28 447.294  19
  -3   4   8-204.283 213.316  19
   3  -4  -8 1208.03 643.107   4
   3  -4  -7 3230.15 1007.85   4
   3  -4  -7 2965.48 513.775  34
   3  -4  -6 4071.29 1105.38   4
   3  -4  -5 29052.7 2923.75   4
   3  -4  -4 15754.1 2047.58   4
   3  -4  -3 17732.2 2080.40   4
   3  -4  -2 23848.5 2338.90   4
   3  -4  -1 20727.4 2103.57   4
   3  -4   0 29545.8 2439.26   4
   3  -4   1 391.314 309.822   4
   3  -4   2 19307.6 1839.54   4
  -3   4  -3 25795.6 2810.95   2
   3  -4   3 29579.9 2240.08   4
  -3   4  -4 7740.11 1533.27   2
  -3   4  -5 1973.25 822.253   2
  -3   4  -6 876.018 727.912   2
   3  -4   6 1437.60 371.369  32
  -3   4  -7 221.331 354.360   2
   3  -4   7 357.486 199.099  12
   3  -4   7 348.715 247.183  32
   3  -4   8 1206.14 428.015  32
   3  -4   8 1180.08 347.025  12
   3  -4   9 3266.49 633.193  32
   3  -4   9 3289.22 574.414  12
   3  -4   9 2246.79 477.663  21
   3  -4  10-75.1420 178.883  32
   3  -4  10-88.8636 192.196  12
   3  -4  11 4613.09 599.563  12
   3  -4  12 3693.92 467.426  12
   3  -4  12 3036.10 531.028  16
   3  -4  13 33.0023 94.5236  16
   3  -3 -14 230.383 100.479  17
  -3   3  13 122.224 166.922  19
   3  -3 -13 190.123 205.522  17
  -3   3  12 17570.0 1537.41  19
   3  -3 -12 22118.7 1681.20  17
   3  -3 -12 17966.0 1253.72  22
  -3   3  11 2902.71 689.337  19
   3  -3 -11 2019.44 525.036  22
  -3   3  10 56.0805 171.306  19
   3  -3 -10 308.195 259.849  22
  -3   3   9 340.573 306.801  19
   3  -3  -9 552.797 368.613   8
   3  -3  -8 1849.14 748.918   4
  -3   3   8 1395.76 445.687  19
   3  -3  -8 2297.59 656.625   8
   3  -3  -7 5997.00 972.460   8
   3  -3  -7 5891.94 1326.01   4
   3  -3  -6 737.068 437.061   4
   3  -3  -6 426.985 341.589   8
   3  -3  -5 624.306 448.714   4
   3  -3  -5 1206.42 381.747   8
   3  -3  -4 13148.8 1748.02   4
   3  -3  -3 22757.9 2191.60   4
   3  -3  -2 118338. 5176.54   4
   3  -3  -1 1432.34 508.222   4
   3  -3   0 863.425 480.479   4
   3  -3   1 4540.82 890.262   4
  -3   3  -2 76852.9 4497.40   2
   3  -3   2 91620.4 4223.93   4
  -3   3  -3 4899.49 1164.67   2
   3  -3   3 5338.98 926.487   4
  -3   3  -4 3860.87 1020.80   2
  -3   3  -5 4082.65 1106.99   2
  -3   3  -6 6008.55 1409.12   2
   3  -3   7 5446.71 784.909  32
   3  -3   7 4633.97 637.495  12
   3  -3   8 782.526 315.036  32
   3  -3   8 692.809 292.860  12
   3  -3   9 2098.64 530.055  32
   3  -3   9 2112.09 470.343  12
   3  -3  10 4475.00 729.687  32
   3  -3  10 4284.75 643.135  12
   3  -3  11 2338.39 450.539  12
   3  -3  11 1405.58 324.819   7
   3  -3  11 2217.75 477.023  32
   3  -3  12 3387.06 451.309  12
   3  -3  13 122.941 125.265  16
  -3   2  14 503.216 174.566  20
   3  -2 -14 843.832 235.151  17
   3  -2 -13 8155.43 923.733  17
  -3   2  12 7511.65 1043.20  19
   3  -2 -12 8685.21 1089.67  17
  -3   2  11 4895.61 876.680  19
   3  -2 -11 5879.76 973.718  17
   3  -2 -11 5073.28 1010.32   8
   3  -2 -11 5345.66 750.240  22
  -3   2  10 3018.58 675.671  19
   3  -2 -10 4036.61 909.651   8
   3  -2 -10 3251.56 626.263  22
  -3   2   9 2830.45 651.991  19
   3  -2  -9 2838.80 742.078   8
   3  -2  -9 1477.95 412.510  22
   3  -2  -8 728.493 450.033   4
   3  -2  -8 1200.99 501.144   8
   3  -2  -7 2653.59 810.013   4
   3  -2  -7 2238.70 570.937   8
   3  -2  -6 14342.2 1848.25   4
   3  -2  -6 13289.3 1277.48   8
   3  -2  -5 18121.8 1340.05   8
   3  -2  -5 19729.3 2049.19   4
   3  -2  -4 94357.7 4550.57   4
   3  -2  -3 4806.43 936.939   4
   3  -2  -2 25341.5 2131.39   4
   3  -2  -1 9867.22 1307.31   4
   3  -2   0 1582.80 517.203   4
   3  -2   1 5445.38 966.390   4
  -3   2  -2 20174.6 2008.85   2
   3  -2   2 23825.1 2028.48   4
  -3   2  -3-214.465 251.325   2
  -3   2  -4 22184.3 2232.52   2
  -3   2  -5 6903.43 1365.37   2
  -3   2  -6 1018.89 565.117   2
  -3   2  -7 704.119 484.768   2
   3  -2   7 1618.03 423.737  33
   3  -2   8 496.111 316.781  33
   3  -2   8 684.060 268.483  12
   3  -2   9 3808.57 704.332  32
   3  -2   9 4309.11 661.033  12
   3  -2  10 5624.32 690.595   7
   3  -2  10 7203.19 845.905  12
   3  -2  10 8376.55 1006.87  32
   3  -2  11 4625.12 723.787  32
   3  -2  11 3988.13 584.553  12
   3  -2  12 1543.93 364.468  32
   3  -2  12 1136.33 270.994  12
   3  -2  13 173.719 123.323  16
  -3   1  14 5223.53 539.418  20
   3  -1 -13 238.832 159.582  17
  -3   1  12 6089.49 949.211  19
   3  -1 -12 6387.82 961.892  17
   3  -1 -12 6336.32 1077.63   8
  -3   1  11 19256.5 1787.14  19
   3  -1 -11 18918.4 1966.48   8
   3  -1 -11 18936.5 1713.51  17
  -3   1  10 15019.8 1525.36  19
   3  -1 -10 16505.7 1576.93  17
   3  -1 -10 16704.1 1829.65   8
  -3   1   9 15364.0 1454.22  19
   3  -1  -9 16858.3 1757.02   8
   3  -1  -8 5159.81 919.645   8
   3  -1  -7 1045.55 472.618   4
   3  -1  -7 388.069 214.897   8
   3  -1  -6 7622.80 1195.26   4
   3  -1  -6 6669.71 868.874   8
   3  -1  -5 27358.7 2267.32   4
   3  -1  -4 29847.9 2329.13   4
   3  -1  -3 56425.0 3165.69   4
   3  -1  -3 49696.6 2639.65   3
   3  -1  -2 9708.04 1256.30   4
   3  -1  -2 9518.70 1054.59   3
   3  -1  -1 2217.13 639.701   4
   3  -1  -1 2150.47 480.066   3
   3  -1   0 854.562 381.854   4
   3  -1   0 948.541 345.949   3
   3  -1   1 1422.02 508.569   4
  -3   1  -1 1318.64 443.949   2
  -3   1  -2 2964.99 684.980   2
  -3   1  -3 35211.2 2489.38   2
  -3   1  -4 76717.4 4090.16   2
  -3   1  -5 14757.3 1822.36   2
  -3   1  -6 2785.22 844.874   2
   3  -1   7 1606.86 468.016  33
  -3   1  -7 1285.94 603.486   2
   3  -1   8 4452.74 795.374  33
   3  -1   8 3637.29 587.049   7
   3  -1   9 5917.36 949.352  33
   3  -1   9 5337.48 687.043   7
   3  -1  10 1611.77 486.399  32
   3  -1  10 1866.93 419.494  12
   3  -1  11 296.150 211.928  32
   3  -1  11 224.700 191.873  12
   3  -1  12-98.0200 121.573  32
   3  -1  12 345.824 189.789  12
  -3   0  14 462.492 191.518  20
   3   0 -14 382.482 208.630  29
   3   0 -13 1219.90 384.675  17
   3   0 -13 600.497 278.539   8
   3   0 -12 2001.77 550.466  17
   3   0 -12 2110.90 622.417   8
  -3   0  11 6746.96 1042.14  19
   3   0 -11 6072.50 964.005  17
   3   0 -11 5586.96 1064.13   8
  -3   0  10 9695.96 1195.31  19
   3   0 -10 10455.2 1423.29   8
   3   0 -10 8856.72 1153.70  17
  -3   0   9 505.768 265.682  19
   3   0  -9 281.878 169.495  17
   3   0  -9 326.910 299.447   8
   3   0  -8 278.016 215.163  17
   3   0  -8 422.597 250.999   8
   3   0  -7 501.092 448.797   3
   3   0  -6 35603.5 2538.28   4
   3   0  -6 28508.6 2612.64   3
   3   0  -5 62328.0 3333.08   4
   3   0  -5 52083.9 3429.45   3
   3   0  -4 31076.7 2290.07   4
   3   0  -4 26446.2 2294.74   3
   3   0  -3 1508.72 536.995   3
   3   0  -3 1698.13 506.228   4
   3   0  -2 5454.47 988.769   3
   3   0  -2 5059.51 909.164   4
   3   0  -1 30001.6 2426.80   3
   3   0  -1 31575.6 2332.25   4
   3   0   0 58027.9 3461.61   3
   3   0   0 63936.3 3422.77   4
  -3   0  -1 1551.46 431.723   2
   3   0   1 1765.91 605.398   3
  -3   0  -2 1914.34 513.425   2
   3   0   2 2844.98 411.461   7
  -3   0  -3 66563.2 3291.11   2
   3   0   3 64738.1 2306.96   7
  -3   0  -4 9919.27 1308.33   2
   3   0   4 9147.20 826.168   7
   3   0   5 613.245 268.099   7
   3   0   6 1684.55 423.779  33
   3   0   6 1281.80 351.779   7
   3   0   7 658.970 312.894  33
   3   0   7 567.652 234.490   7
   3   0   8 5786.09 923.034  33
   3   0   8 6174.64 739.073   7
   3   0   9 1868.77 540.148  33
   3   0   9 1344.94 333.264   7
   3   0  10 394.823 290.773  33
   3   0  11-40.2150 103.465  32
   3   0  11 65.1916 130.260  12
   3   0  12 565.402 212.222  32
   3   0  12 674.592 183.428  12
  -3  -1  14 707.804 222.436  20
   3   1 -14 1069.95 332.350  29
  -3  -1  13 212.436 165.870  20
   3   1 -13 359.518 204.557  31
   3   1 -13 439.692 286.294   8
  -3  -1  12 2115.48 492.233  20
   3   1 -12 3296.81 691.547  17
   3   1 -12 2377.60 661.625   8
   3   1 -11 3287.38 700.358  17
   3   1 -11 3007.48 774.519   8
   3   1 -10 28517.1 2053.71  17
   3   1 -10 28495.0 2331.44   8
   3   1  -9 1661.58 475.798  17
   3   1  -8 708.591 486.517   3
   3   1  -8 469.858 226.089  17
   3   1  -7 5304.86 1248.22   3
   3   1  -6 19201.9 2322.21   3
   3   1  -5 15987.0 2037.89   3
   3   1  -5 20523.4 1849.09   4
   3   1  -4 3495.53 981.355   3
   3   1  -4 4040.17 833.190   4
   3   1  -3 44917.5 3367.73   3
   3   1  -3 44177.9 2814.00   4
   3   1  -2 8795.93 1466.14   3
   3   1  -2 9154.69 1264.46   4
   3   1  -1 62617.4 4088.11   3
   3   1   0 4199.40 1040.39   3
   3   1   1 20877.9 1134.71   7
   3   1   1 17825.8 2181.11   3
   3   1   2 6495.03 640.171   7
   3   1   2 5184.87 1184.89   3
   3   1   3 12804.6 960.989   7
   3   1   4 6888.66 734.243   7
   3   1   5 1536.17 372.281   7
   3   1   6 528.041 227.524   7
   3   1   6 378.542 188.070  33
   3   1   7 9991.28 920.372   7
   3   1   7 7958.76 1066.43  33
   3   1   8 38752.6 1827.37   7
   3   1   8 35404.6 2384.90  33
   3   1   9 22559.0 1849.01  33
   3   1  10 2426.33 598.530  33
   3   1  11 3047.72 438.001  12
   3   1  11 3548.77 559.042  32
   3   1  12 178.726 102.933  32
  -3  -2  14 401.902 166.100  20
   3   2 -14-19.5883 92.3248  31
   3   2 -14 281.726 181.055  29
   3   2 -13 6948.10 1016.92   8
   3   2 -13 7625.11 947.818  29
  -3  -2  13 5725.03 719.859  20
   3   2 -12 9846.18 1195.05  29
   3   2 -12 8226.70 1209.32   8
  -3  -2  12 7445.96 900.073  20
   3   2 -11 5393.16 988.399   8
  -3  -2  11 5052.56 760.572  20
  -3  -2  10 2354.51 508.928  20
   3   2 -10 2589.76 610.132  17
   3   2  -9 2983.34 1061.64   3
   3   2  -9 3574.04 750.581  17
   3   2  -8 52.0944 154.031   3
   3   2  -8 514.210 295.715  17
   3   2  -7 21332.2 2714.79   3
   3   2  -6 39301.3 3654.52   3
   3   2  -5 2738.57 910.712   3
   3   2  -4 5945.54 1332.15   3
   3   2  -4 6090.71 617.389   5
   3   2  -3 2459.36 920.017   3
   3   2  -3 3166.32 439.131   5
   3   2  -2 29074.3 3036.52   3
   3   2  -2 27215.6 1343.00   5
   3   2  -1 6960.91 640.951   5
   3   2  -1 5929.83 1395.20   3
   3   2   0 11610.8 1973.73   3
   3   2   1 134576. 3721.14   7
   3   2   1 122787. 6889.25   3
   3   2   2 58307.5 2194.86   7
   3   2   2 49335.9 4209.71   3
   3   2   3 8065.59 782.165   7
   3   2   4 309.014 141.589   7
   3   2   5 19.4478 130.697   7
   3   2   6 321.589 218.321   7
   3   2   7 4384.09 808.823  33
   3   2   8 7624.83 1075.66  33
   3   2   9 376.721 266.290  33
   3   2  10 3530.10 647.914  33
   3   2  11 2186.93 393.423  32
   3   2  11 1806.62 291.076  12
   3   3 -14 196.631 108.091  29
   3   3 -14 48.7446 109.543  31
   3   3 -13 7478.88 904.671  29
   3   3 -13 7088.05 983.453   8
  -3  -3  13 6481.38 722.653  20
   3   3 -12 5303.49 946.385   8
   3   3 -12 5674.26 878.759  29
  -3  -3  12 5025.67 705.212  20
  -3  -3  11 880.999 321.488  20
   3   3 -11 532.647 283.371  29
  -3  -3  10 880.949 314.287  20
   3   3 -10 1225.29 468.565  29
   3   3  -9 7961.93 1080.86  29
   3   3  -8 210.410 334.065   3
   3   3  -8 429.141 281.974  29
   3   3  -7 1978.90 882.040   3
   3   3  -7 1611.16 463.321  29
   3   3  -6 5007.64 1362.76   3
   3   3  -5 2876.93 1102.39   3
   3   3  -4 36619.4 3716.53   3
   3   3  -3 8289.64 1752.72   3
   3   3  -3 7454.41 737.568   5
   3   3  -2 6013.15 651.924   5
   3   3  -2 6993.66 1610.05   3
   3   3  -1 968.582 258.709   5
   3   3  -1 874.697 589.578   3
   3   3   0 1237.11 309.323   5
   3   3   0 1402.48 781.471   3
   3   3   1 20288.6 2906.58   3
   3   3   1 18719.3 1190.22   5
   3   3   2 2251.68 947.948   3
   3   3   3 539.205 624.735   3
   3   3   4 2745.14 628.572  14
  -3  -3  -5 2812.64 540.671  13
   3   3   5 4098.68 739.428  14
  -3  -3  -6 5944.06 765.261  26
   3   3   7 2573.30 674.610  33
   3   3   8 1394.35 454.321  33
   3   3   9 4393.07 745.177  33
   3   3  10 1198.79 337.258  33
   3   3  11 2793.79 344.136  32
   3   4 -14 3004.28 424.593  31
  -3  -4  13 2913.26 424.813  20
   3   4 -13 3138.05 575.800  31
   3   4 -13 2616.73 576.868   8
   3   4 -13 3171.94 527.455  29
   3   4 -12 3806.97 676.148  29
   3   4 -12 3766.58 755.012   8
   3   4 -12 3548.09 516.030  23
  -3  -4  12 3920.81 590.329  20
   3   4 -11 5149.02 841.827  29
  -3  -4  11 5147.72 721.917  20
  -3  -4  10 411.243 287.067  20
   3   4 -10 235.163 252.526  29
  -3  -4   9 2290.86 484.945  20
   3   4  -9 2998.44 672.148  29
   3   4  -8 293.740 187.644  29
   3   4  -7 7961.54 1919.00   3
   3   4  -7 8788.22 1135.36  29
   3   4  -6 30693.5 2092.28  29
   3   4  -6 27112.6 3515.97   3
   3   4  -5 7297.28 1807.08   3
   3   4  -5 8716.86 1061.64  29
   3   4  -4 5740.83 1578.18   3
   3   4  -3-474.240 490.646   3
   3   4  -2 13247.4 2445.87   3
   3   4  -2 12128.6 1006.89   5
   3   4  -1 415.298 651.658   3
   3   4  -1 365.323 192.219   5
   3   4   0 29141.5 3732.59   3
   3   4   0 29082.3 1574.34   5
   3   4   1 11404.2 2278.44   3
   3   4   1 12391.2 1011.11   5
   3   4   2 7987.62 1878.00   3
   3   4   2 9314.35 1290.01  24
   3   4   2 8960.85 857.080   5
   3   4   3 3003.93 676.867  14
   3   4   3 3498.10 1262.89   3
   3   4   3 3955.79 560.966   5
   3   4   4 8309.11 1117.80  14
  -3  -4  -4 9884.98 965.231  13
   3   4   4 11981.6 983.502   5
   3   4   5 3680.37 727.343  14
  -3  -4  -5 2997.92 544.454  13
   3   4   5 3770.54 527.576   5
  -3  -4  -6 138.646 150.015  26
  -3  -4  -7 604.273 244.017  26
   3   4   8 1621.91 421.243  33
  -3  -4  -8 888.554 244.584  26
   3   4   9 5578.00 733.242  33
   3   4  10 627.289 223.266  33
   3   5 -13 208.652 196.240  31
   3   5 -12 901.395 430.316   8
   3   5 -12 886.556 304.954  29
   3   5 -12 954.608 289.855  23
   3   5 -12 850.083 341.483  31
  -3  -5  12 1129.76 273.908  20
   3   5 -11 10077.0 1102.84  29
  -3  -5  11 9123.95 908.128  20
   3   5 -10 5689.96 886.248  29
  -3  -5  10 5229.25 733.649  20
  -3  -5   9 697.391 314.659  20
   3   5  -9 612.899 354.612  29
   3   5  -8 6605.22 1028.26  29
   3   5  -7 24447.9 1987.56  29
   3   5  -6 1378.47 1050.87   3
   3   5  -6 1680.39 498.196  31
   3   5  -6 3502.93 753.808  29
   3   5  -5 7707.31 1934.22   3
   3   5  -5 6816.94 924.745  31
   3   5  -5 8555.07 1212.60  11
   3   5  -4 171.581 363.476   3
   3   5  -4 274.068 317.792  11
   3   5  -4 421.491 316.580  31
   3   5  -3 14278.4 2669.04   3
   3   5  -3 14036.6 1513.47  11
   3   5  -2 7309.25 1076.51  11
   3   5  -2 6347.75 761.594  23
   3   5  -2 7884.57 1993.71   3
   3   5  -1 13419.0 2611.29   3
   3   5  -1 14822.0 1669.36  24
   3   5  -1 11668.1 1028.84   5
   3   5  -1 11533.9 1374.44  11
   3   5   0 640.061 370.480  24
   3   5   0 17.5176 200.622   3
   3   5   0 456.649 202.236   5
   3   5   1 504.221 287.545  24
   3   5   1 631.173 573.977   3
   3   5   1 906.862 292.747   5
   3   5   2 11076.8 963.828   5
   3   5   2 10283.6 1452.83  24
   3   5   3 5206.31 644.788   5
  -3  -5  -3 4149.73 605.316  13
   3   5   3 4014.40 823.728  14
   3   5   4 27797.1 2057.61  14
  -3  -5  -4 27218.9 1677.94  13
   3   5   4 30440.9 1543.28   5
   3   5   5 2624.54 634.002  14
  -3  -5  -5 4636.40 684.101  13
  -3  -5  -6 178.202 189.020  26
   3   5   7 15367.1 1383.58  33
  -3  -5  -7 14823.6 1101.97  26
   3   5   8 5794.68 743.262  33
  -3  -5  -8 3955.63 459.338  26
   3   5   9 721.974 242.996  33
   3   6 -13 1970.66 325.539  31
   3   6 -13 573.175 181.448  11
   3   6 -12 4380.57 648.624  11
   3   6 -12 6404.34 728.340  31
   3   6 -12 5908.02 600.000  23
   3   6 -11 310.376 256.156  31
   3   6 -10 813.299 317.094  31
   3   6  -9 791.945 359.877  31
   3   6  -8 38450.6 2330.63  31
   3   6  -7 5149.24 996.354  11
   3   6  -7 3398.21 682.224  31
   3   6  -6 29771.0 1995.14  31
   3   6  -6 30945.3 2394.64  11
   3   6  -5 300.558 171.554  31
   3   6  -5 383.558 289.759  11
   3   6  -4 304.844 287.302  11
   3   6  -3 3094.21 556.397  23
   3   6  -3 3647.12 817.323  11
   3   6  -2 1157.63 438.817  11
   3   6  -1 4006.58 908.348  24
   3   6   0 1607.24 634.620  24
   3   6   1 23920.2 2234.83  24
  -3  -6  -2 6234.46 738.109  13
   3   6   2 6439.91 1164.05  24
  -3  -6  -3 3447.35 541.387  13
   3   6   3 2979.42 706.874  14
  -3  -6  -4 85.4182 113.996  13
   3   6   4 58.9711 170.958  14
  -3  -6  -6 9318.11 866.297  26
   3   6   7 15366.8 1158.97  33
  -3  -6  -7 16615.2 995.548  26
   3   6   8 3987.79 473.821  33
   3   7 -12 3428.08 379.604  23
   3   7 -12 1487.62 301.613  11
   3   7 -11 515.058 215.165  31
   3   7 -11 465.602 197.347  23
   3   7 -11 619.938 243.287  11
   3   7 -10 2134.39 432.916  31
   3   7 -10 2879.91 498.157  23
   3   7 -10 3407.95 636.022  11
   3   7  -9 1599.03 487.795  11
   3   7  -9 776.635 325.128  31
   3   7  -8 5419.21 926.954  11
   3   7  -8 4025.40 658.194  31
   3   7  -7 11790.6 1413.09  11
   3   7  -7 9563.09 1012.43  31
   3   7  -6 732.799 373.619  11
   3   7  -5 3031.89 743.691  11
   3   7  -5 2413.04 540.477  23
   3   7  -4 6213.87 824.031  23
   3   7  -4 8087.21 1192.11  11
   3   7  -3 4224.27 885.236  11
   3   7  -2 4798.18 1013.15  24
   3   7  -1 1274.31 557.421  24
   3   7   0 2535.24 739.016  24
  -3  -7  -1 7418.80 755.749  13
   3   7   1 7582.16 1226.34  24
  -3  -7  -2 33895.5 1695.33  13
   3   7   2 31548.4 2155.07  14
   3   7   3 9497.89 1080.72  14
  -3  -7  -3 9737.92 848.768  13
   3   7   4 772.634 288.058  14
  -3  -7  -4 433.809 178.407  13
  -3  -7  -5 447.728 224.922  26
   3   7   6 193.566 139.183  33
  -3  -7  -6 285.194 152.313  26
   3   7   7 691.462 174.687  33
   3   8 -11 547.574 147.467  23
   3   8 -10 8604.42 680.715  23
   3   8 -10 6724.66 723.117  11
   3   8  -9 4018.14 532.657  23
   3   8  -9 5955.89 772.803  11
   3   8  -8 1989.67 400.675  23
   3   8  -8 2342.59 514.795  11
   3   8  -7 48.2755 151.503  11
   3   8  -7 71.1477 146.756  23
   3   8  -6 2581.10 444.424  23
   3   8  -6 3319.59 692.465  11
   3   8  -5 2497.65 443.539  23
   3   8  -5 3341.57 716.150  11
   3   8  -4 444.673 336.101  24
   3   8  -3 1937.28 595.539  24
   3   8  -2 407.471 334.906  24
   3   8  -1 3282.77 793.828  24
  -3  -8   0 2190.10 355.214  13
   3   8   0 2264.19 648.344  24
   3   8   1 3678.88 678.172  14
  -3  -8  -1 5019.04 535.268  13
  -3  -8  -2 835.060 214.787  13
   3   8   2 505.671 241.482  14
  -3  -8  -3 109.083 82.6899  13
   3   8   3-114.527 152.052  14
  -3  -8  -4 72.0995 93.0024  26
   3   8   5 231.074 105.790  33
  -3  -8  -5 271.468 122.134  26
   3   9  -9 108.157 115.490  24
   3   9  -8 29.7406 96.5387  24
   3   9  -8 151.200 101.793  23
   3   9  -7 531.401 266.925  24
   3   9  -7 203.030 123.705  23
   3   9  -6 2703.00 422.459  14
   3   9  -6 4467.95 731.701  24
   3   9  -5 5462.16 846.276  24
   3   9  -4 1264.91 435.207  24
   3   9  -3 828.864 343.466  24
   3   9  -2 473.442 281.385  24
   3   9  -1 2220.04 490.420  14
   3   9  -1 2207.54 526.783  24
   3   9   0 2745.82 497.978  14
   3   9   1 427.863 206.243  14
   3   9   2 794.054 217.795  14
  -3  -9  -2 1166.04 257.549  26
  -3  -9  -3 1551.44 245.392  26
   3  10  -5 1288.91 276.259  24
   3  10  -4 127.957 101.698  14
   3  10  -4 205.099 116.580  24
   3  10  -3 292.669 149.246  14
   3  10  -2 918.133 239.667  14
   3  10  -1 1924.18 301.518  14
   4 -12   0 72.8458 61.6147  28
   4 -12   1 4056.16 381.923   9
   4 -12   1 4187.31 337.483  28
   4 -12   2 5035.53 418.127   9
   4 -12   3 840.667 159.849   9
   4 -11  -5 407.558 123.270  34
   4 -11  -4 5090.85 485.329  34
   4 -11  -3 7252.28 628.216  34
   4 -11  -2 689.787 211.471  28
   4 -11  -2 858.934 233.003  34
   4 -11  -1 60.3660 108.561   9
   4 -11  -1 446.971 243.316  28
   4 -11  -1 150.873 115.505  34
   4 -11   0 4594.90 550.042   9
   4 -11   0 3217.18 378.393  34
   4 -11   0 4606.46 536.356  28
   4 -11   1 4013.64 529.302   9
   4 -11   1 3860.68 465.539  28
   4 -11   2 4478.94 554.946   9
   4 -11   2 4208.44 503.912  28
   4 -11   3 261.292 143.400   9
   4 -11   4 1169.60 264.910   9
   4 -11   5 1802.77 293.811   9
   4 -11   6 3107.47 337.086   9
   4 -10  -7 1.06809 56.2152  34
   4 -10  -6 1136.22 252.238  34
   4 -10  -5 2815.80 434.340  34
   4 -10  -4 3027.42 458.233  28
   4 -10  -4 3617.39 547.305  34
   4 -10  -3 381.798 210.931  34
   4 -10  -3 713.279 323.375  28
   4 -10  -2 571.577 212.422   9
   4 -10  -2 711.849 259.319  34
   4 -10  -2 988.787 363.416  28
   4 -10  -1 2682.45 493.986   9
   4 -10  -1 1922.18 411.545  34
   4 -10  -1 2136.58 419.497  28
   4 -10   0 8329.43 889.167   9
   4 -10   0 6701.47 731.789  34
   4 -10   0 7753.75 796.725  28
   4 -10   1 13701.5 1169.16   9
   4 -10   2 0.63577 141.541   9
   4 -10   3 1613.09 392.018   9
   4 -10   3 2652.76 526.835  27
   4 -10   4 4157.91 627.177   9
   4 -10   4 5744.23 735.984  27
   4 -10   5 851.721 283.636   9
   4 -10   5 966.959 289.618  27
   4 -10   6 941.701 285.218   9
   4 -10   6 1456.79 340.583  27
   4 -10   7 61.8612 82.7907   9
   4 -10   7 165.918 94.6259  27
   4 -10   8 2500.79 292.263  27
   4  -9  -8 147.410 71.0923  34
   4  -9  -8 282.563 131.484  22
   4  -9  -7 3517.84 476.188  22
   4  -9  -7 4211.64 515.972  34
   4  -9  -6 5586.32 687.142  34
   4  -9  -6 4790.87 601.655  22
   4  -9  -5 3843.23 557.084  28
   4  -9  -5 4350.05 641.573  34
   4  -9  -5 3182.95 503.827  22
   4  -9  -4 213.835 169.024  34
   4  -9  -4 790.734 350.580  28
   4  -9  -3 779.292 294.097   9
   4  -9  -3 879.801 320.950  34
   4  -9  -3 1210.39 396.402  28
   4  -9  -2 5024.22 712.611   9
   4  -9  -2 4452.01 699.696  34
   4  -9  -2 4204.10 611.729  28
   4  -9  -1 4766.83 721.334  34
   4  -9  -1 4794.82 722.002   9
   4  -9  -1 6074.51 669.754  15
   4  -9   0 2058.17 490.377   9
   4  -9   0 2331.54 403.794  15
   4  -9   0 1502.44 382.546  34
   4  -9   1 5674.79 676.163  15
   4  -9   1 5631.59 796.872   9
   4  -9   1 6372.76 909.425  27
   4  -9   1 3972.55 590.163  34
   4  -9   2 1121.18 368.119   9
   4  -9   2 1133.59 300.691  15
   4  -9   2 1635.67 450.123  27
   4  -9   3 3419.26 513.150  15
   4  -9   3 3517.73 685.625   9
   4  -9   3 5140.56 810.621  27
   4  -9   4 1622.72 454.250   9
   4  -9   4 2160.24 527.677  27
   4  -9   5 529.288 259.622   9
   4  -9   5 282.948 179.897  27
   4  -9   6 190.914 171.875   9
   4  -9   6 384.113 218.904  27
   4  -9   7 723.726 262.705   9
   4  -9   7 1316.99 355.695  27
   4  -9   8 1417.26 282.653   9
   4  -9   8 2947.16 454.024  27
   4  -9   9 516.897 159.404  27
   4  -8 -10 375.688 132.303  22
   4  -8  -9 181.571 144.540  22
   4  -8  -8 854.254 248.616  34
   4  -8  -8 706.843 256.756  22
   4  -8  -7 6475.36 764.281  34
   4  -8  -7 6476.20 826.478  22
   4  -8  -6 22239.0 1541.89  34
   4  -8  -6 20005.2 1529.94  22
   4  -8  -5 591.247 279.824  34
   4  -8  -5 683.878 302.651  28
   4  -8  -5 651.643 311.215  22
   4  -8  -4 9931.83 1052.94   9
   4  -8  -4 10137.4 1050.60  22
   4  -8  -4 10990.1 1050.84  28
   4  -8  -4 10689.4 1137.06  34
   4  -8  -3 625.054 270.534   9
   4  -8  -3 476.532 262.915  34
   4  -8  -3-74.2855 284.441  28
   4  -8  -3 750.819 271.550  15
   4  -8  -2 585.659 264.619   9
   4  -8  -2 459.789 221.421  15
   4  -8  -2 417.883 231.985  34
   4  -8  -1 3719.66 644.341  34
   4  -8  -1 4794.82 656.589  15
   4  -8  -1 3888.81 663.840   9
   4  -8   0 876.679 322.831   9
   4  -8   0 1160.76 347.007  34
   4  -8   0 1539.16 397.198  15
   4  -8   0 1525.16 477.075  27
   4  -8   1 489.411 231.443  34
   4  -8   1 496.483 274.879   9
   4  -8   1 486.024 217.863  15
   4  -8   1 547.982 284.532  27
   4  -8   2 10002.7 1146.44   9
   4  -8   2 12746.3 1316.71  27
   4  -8   3 3205.94 671.086   9
   4  -8   3 4106.03 776.870  27
   4  -8   3 3578.67 652.048  21
   4  -8   4 360.930 240.678  16
   4  -8   4 171.028 209.868  27
   4  -8   4 244.967 215.881  21
   4  -8   5 175.242 164.265  16
   4  -8   5 166.470 209.045  27
   4  -8   5 246.935 211.455  21
   4  -8   6 2112.91 470.877  16
   4  -8   6 1977.32 543.601  27
   4  -8   6 2042.80 463.588  21
   4  -8   7 25826.1 1562.13  16
   4  -8   7 22429.8 1698.24  27
   4  -8   8 734.824 256.427  16
   4  -8   8 581.646 251.941  27
   4  -8   9 95.3073 101.005  16
   4  -8   9 216.969 168.067  27
   4  -8  10 708.846 187.992  27
   4  -7 -11 3738.03 387.840  17
   4  -7 -11 4789.71 444.418  22
   4  -7 -10 1119.06 304.145  22
   4  -7  -9 1742.73 409.566  22
   4  -7  -9 1682.56 302.858  34
   4  -7  -8 1838.08 384.956  34
   4  -7  -8 1987.32 503.344  22
   4  -7  -7 2244.90 486.500  34
   4  -7  -7 2505.87 564.085  22
   4  -7  -6 1204.54 373.384  34
   4  -7  -6 790.006 251.003  28
   4  -7  -6 1223.62 421.149  22
   4  -7  -5 41975.0 2322.48  34
   4  -7  -5 38261.1 2043.04  28
   4  -7  -5 40169.3 2357.06  22
   4  -7  -4 3477.72 581.769  15
   4  -7  -4 3285.50 620.508   9
   4  -7  -4 3817.78 679.333  34
   4  -7  -4 3155.88 550.653  28
   4  -7  -4 3721.67 671.137  22
   4  -7  -3 9020.96 994.521   9
   4  -7  -3 9124.22 936.343  15
   4  -7  -3 6952.43 895.723  34
   4  -7  -3 9895.91 1041.69  22
   4  -7  -2 6807.67 855.937  34
   4  -7  -2 7395.04 1614.67   4
   4  -7  -2 7360.98 907.299   9
   4  -7  -2 6960.30 821.557  15
   4  -7  -1 1666.88 429.156   9
   4  -7  -1 1146.51 612.422   4
   4  -7  -1 1893.08 416.958  15
   4  -7  -1 1724.91 427.830  34
   4  -7  -1 2180.35 515.986  27
   4  -7   0 9523.57 1061.41   9
   4  -7   0 8108.29 906.675  34
   4  -7   0 11421.0 1211.23  27
   4  -7   0 11317.7 1043.75  30
   4  -7   0 11798.3 1107.57  21
   4  -7   1 9072.14 1038.87   9
  -4   7  -1 6366.16 1712.24   2
   4  -7   1 11329.9 1000.30  30
   4  -7   1 10591.6 1173.90  27
   4  -7   1 10843.2 1072.48  21
   4  -7   1 7798.66 838.326  34
   4  -7   2 4661.51 754.440   9
   4  -7   2 4202.83 720.164  16
   4  -7   2 4491.00 605.475  30
   4  -7   2 4870.00 825.536  27
   4  -7   2 4903.63 735.705  21
   4  -7   3 539.080 308.568  16
   4  -7   3 232.686 206.537  27
   4  -7   3 312.097 169.622  21
   4  -7   4 860.085 410.668  16
   4  -7   4 632.673 327.994  21
   4  -7   5 10956.6 1180.04  16
   4  -7   5 11951.0 1131.75  21
   4  -7   6 6898.97 944.601  16
   4  -7   6 8191.55 900.217  21
   4  -7   7 569.895 306.796  16
   4  -7   7 632.187 278.729  21
   4  -7   8 709.483 299.769  16
   4  -7   8 1397.32 333.590  21
   4  -7   9 1250.06 347.024  16
   4  -7   9 1704.33 307.938  21
   4  -7  10 1961.04 356.869  16
   4  -7  11 676.067 171.940  27
   4  -6 -12 681.302 174.582  17
   4  -6 -11 256.751 159.998  17
   4  -6 -11 412.796 183.467  22
   4  -6 -10 169.074 178.752  22
   4  -6  -9 4438.22 574.067  34
   4  -6  -9 3651.56 684.196  22
   4  -6  -8 3767.65 608.345  34
   4  -6  -8 3017.64 675.733  22
   4  -6  -7 8310.16 965.588  34
   4  -6  -7 7822.71 1064.77  22
   4  -6  -6 1639.77 445.333  28
   4  -6  -6 1347.54 434.104  34
   4  -6  -6 588.527 302.101  22
   4  -6  -5 8054.72 963.620  34
   4  -6  -5 8531.97 937.192  28
   4  -6  -5 7515.95 998.429  22
   4  -6  -4 7377.67 873.751   9
   4  -6  -4 8534.25 902.602  15
   4  -6  -4 6858.92 866.136  34
   4  -6  -4 5686.52 1489.46   4
   4  -6  -4 6656.61 777.169  28
   4  -6  -4 7564.75 967.672  22
   4  -6  -3 1153.84 314.630   9
   4  -6  -3 1744.71 930.208   4
   4  -6  -3 979.480 319.220  15
   4  -6  -3 1255.11 328.766  34
   4  -6  -3 961.036 357.652  22
   4  -6  -2 46.9680 106.890   9
   4  -6  -2-67.1449 218.123   4
   4  -6  -2 184.214 242.543  34
   4  -6  -2 303.490 136.616  15
   4  -6  -2 205.096 198.883  30
   4  -6  -2 266.812 171.281  27
   4  -6  -2-130.547 164.028  22
   4  -6  -1 2910.25 901.833   4
   4  -6  -1 2668.31 521.704   9
   4  -6  -1 1833.42 401.279  34
   4  -6  -1 2293.12 455.669  30
   4  -6  -1 2478.13 540.347  27
   4  -6  -1 2403.47 458.149  21
   4  -6   0 28585.0 2873.30   4
   4  -6   0 28827.7 1740.88   9
   4  -6   0 30148.7 1673.48  34
   4  -6   0 33017.2 1960.32  27
   4  -6   0 30902.1 1671.38  30
   4  -6   0 32768.8 1778.86  21
   4  -6   0 35322.7 1874.45  10
   4  -6   1 10845.1 1069.38  16
   4  -6   1 10460.9 941.009  30
   4  -6   1 11213.1 1144.88  27
   4  -6   1 10765.6 1002.80  21
   4  -6   1 11293.0 1035.34  10
   4  -6   2 1137.03 343.009  10
   4  -6   2 1380.83 442.070  16
   4  -6   2 1238.44 326.265  30
   4  -6   2 1418.65 421.654  27
   4  -6   2 1236.05 364.307  21
  -4   6  -2 2496.42 1060.35   2
   4  -6   3 752.041 283.841  10
  -4   6  -3 1278.20 781.500   2
   4  -6   3 758.725 389.599  16
   4  -6   3 728.635 270.656  30
   4  -6   3 830.395 305.307  21
   4  -6   4 11372.7 1207.23  16
   4  -6   4 10395.5 1084.64  21
   4  -6   4 10891.3 1021.80  10
   4  -6   5 26818.7 1951.16  16
   4  -6   5 26052.1 1740.31  21
   4  -6   6 18161.7 1621.26  16
   4  -6   6 20901.2 1526.39  21
   4  -6   7 245.244 292.251  16
   4  -6   7 250.827 195.856  21
   4  -6   8 401.255 303.150  16
   4  -6   8 510.467 247.746  21
   4  -6   9 1416.13 436.160  16
   4  -6   9 1630.21 345.013  21
   4  -6  10 1062.67 306.545  16
   4  -6  11 226.885 148.181  16
   4  -5 -12 186.232 147.797  17
   4  -5 -12 119.034 122.327  22
   4  -5 -11 1522.42 405.003  17
   4  -5 -11 1248.63 343.662  22
   4  -5 -10 15816.1 1338.02  22
   4  -5  -9 39067.6 2303.73  22
   4  -5  -8 670.842 305.419  34
   4  -5  -8 672.523 369.532  22
   4  -5  -7 15859.7 1348.07  34
   4  -5  -7 15674.2 1496.60  22
   4  -5  -6 4725.14 724.906  34
   4  -5  -6 4201.69 1221.35   4
   4  -5  -6 4782.37 675.196  28
   4  -5  -6 3452.20 670.601  22
   4  -5  -5 17519.3 2509.54   4
   4  -5  -5 20887.7 1481.67  15
   4  -5  -5 23660.9 1575.70  34
   4  -5  -5 21614.2 1416.69  28
   4  -5  -5 21934.5 1643.43  22
   4  -5  -4 1686.61 386.230   9
   4  -5  -4 1371.78 360.437  15
   4  -5  -4 1535.17 425.462  34
   4  -5  -4 1594.26 785.383   4
   4  -5  -4 810.715 195.120  28
   4  -5  -4 1468.65 395.655  22
   4  -5  -3 226.877 338.905   4
   4  -5  -2 4081.44 1096.54   4
   4  -5  -1 15596.0 2095.95   4
   4  -5   0 9390.14 1613.49   4
   4  -5   1 3677.97 997.300   4
   4  -5   2 5022.66 1088.61   4
  -4   5  -2 5317.34 1444.68   2
  -4   5  -3 2257.26 876.012   2
   4  -5   3 2270.51 461.586  10
   4  -5   3 2773.06 564.235  16
   4  -5   3 1794.22 444.000  21
  -4   5  -4 5420.77 1429.63   2
   4  -5   4 6012.24 870.290  16
   4  -5   4 4803.26 725.107  21
   4  -5   4 4899.51 634.496  10
  -4   5  -5 42643.1 4106.24   2
   4  -5   5 41420.7 2468.53  16
   4  -5   5 46261.1 2301.94  32
   4  -5   5 42264.0 2264.36  21
   4  -5   6 3644.48 652.646  32
   4  -5   6 3437.56 643.560  21
   4  -5   6 3314.68 711.471  16
   4  -5   7 1863.55 577.149  16
   4  -5   7 3216.35 649.430  32
   4  -5   7 2527.14 541.128  21
   4  -5   8 3464.75 750.932  16
   4  -5   8 3545.70 616.219  21
   4  -5   9 1171.34 411.564  16
   4  -5   9 1674.83 397.946  21
   4  -5  10 1266.44 386.125  16
   4  -5  10 719.245 233.770   7
   4  -5  10 1158.57 266.101  21
   4  -5  11 132.723 156.277  16
   4  -4 -13 83.7773 90.4807  17
   4  -4 -12 930.674 302.087  17
   4  -4 -12 732.506 238.358  22
   4  -4 -11 384.868 257.702  17
   4  -4 -11 558.727 257.929  22
   4  -4 -10 5730.66 838.300  22
   4  -4  -9 3860.37 722.062  22
   4  -4  -8 733.969 292.122  34
   4  -4  -8 446.654 274.886  22
   4  -4  -7 68432.9 4899.77   4
   4  -4  -7 78740.3 3027.22  34
   4  -4  -7 69704.4 3205.15  22
   4  -4  -6 4234.18 639.717  34
   4  -4  -6 2426.88 891.629   4
   4  -4  -6 3363.79 651.079  22
   4  -4  -5 1494.97 693.282   4
   4  -4  -5 1590.33 419.301  34
   4  -4  -5 1675.58 413.742  15
   4  -4  -5 1401.81 413.785  22
   4  -4  -4 761.132 499.331   4
   4  -4  -3 1694.55 717.786   4
   4  -4  -2 4014.42 1021.82   4
   4  -4  -1 66009.7 4278.56   4
   4  -4   0 45969.0 3470.43   4
   4  -4   1 4271.69 1017.80   4
   4  -4   2 6502.74 1268.04   4
  -4   4  -2 4826.13 1341.38   2
  -4   4  -3 14353.2 2238.14   2
   4  -4   4 2854.72 510.151  10
  -4   4  -4 2656.79 901.037   2
   4  -4   4 2827.15 509.094  32
   4  -4   4 2670.78 606.451  16
   4  -4   5 471.132 136.308  10
  -4   4  -5 829.453 576.742   2
   4  -4   5 965.534 317.572  32
   4  -4   5 505.601 332.299  16
   4  -4   6 7886.05 1119.54  16
   4  -4   6 7625.86 911.313  32
   4  -4   7 6926.85 1079.18  16
   4  -4   7 7152.44 920.197  32
   4  -4   8 5054.15 792.788  32
   4  -4   8 4045.38 823.394  16
   4  -4   8 3747.09 652.838  21
   4  -4   9 1926.92 491.767  32
   4  -4   9 1320.66 372.498   7
   4  -4   9 1917.87 567.723  16
   4  -4   9 1451.54 396.642  21
   4  -4  10 188.391 219.253  16
   4  -4  10 296.729 185.342   7
   4  -4  10 91.8901 118.228  21
   4  -4  11 333.151 218.188  16
   4  -4  12 1137.44 234.699  16
   4  -3 -13 644.392 238.172  17
   4  -3 -12 3211.41 587.106  17
   4  -3 -12 3436.79 469.740  22
   4  -3 -11 1765.18 490.831  17
   4  -3 -11 2207.85 465.186  22
   4  -3 -10 2591.67 634.331  17
   4  -3 -10 2637.21 542.571  22
   4  -3  -9 7692.05 991.055  22
   4  -3  -8 7353.89 976.241  22
   4  -3  -7 3611.05 1031.03   4
   4  -3  -7 3538.98 586.366  34
   4  -3  -7 3594.48 672.936  22
   4  -3  -6 5212.62 1227.08   4
   4  -3  -6 6730.11 784.456  34
   4  -3  -6 7124.16 886.330  22
   4  -3  -5 997.084 515.248   4
   4  -3  -4 1995.79 728.327   4
   4  -3  -3 39602.7 3225.17   4
   4  -3  -2 7058.22 1323.32   4
   4  -3  -1 2646.37 790.646   4
   4  -3   0 7429.10 676.450   7
   4  -3   0 7820.09 1376.52   4
   4  -3   1 20902.7 2249.24   4
  -4   3  -2 1756.62 753.506   2
   4  -3   2 2261.67 761.049   4
  -4   3  -3 15094.9 2084.73   2
   4  -3   4 512.353 291.154  18
   4  -3   4 889.089 413.240  16
  -4   3  -4 682.049 481.136   2
   4  -3   5 1816.51 409.916  10
   4  -3   5 3677.99 641.179  18
  -4   3  -5 2009.79 797.908   2
   4  -3   5 1680.19 422.110  32
  -4   3  -6 4287.16 1161.21   2
   4  -3   6 3813.74 673.347  32
   4  -3   7 3874.44 708.495  32
   4  -3   8 1539.05 445.858  32
   4  -3   8 1030.64 349.558   7
   4  -3   9 598.365 288.931  32
   4  -3   9 526.577 212.347   7
   4  -3  10 63.2819 260.753  16
   4  -3  10 232.734 208.256  32
   4  -3  10 82.3917 111.779   7
   4  -3  10-58.9716 104.737  21
   4  -3  11 3008.29 507.868  16
   4  -3  11 2413.33 320.069  21
   4  -2 -14 271.901 114.020  29
   4  -2 -13 4658.67 648.923  17
   4  -2 -12 591.736 288.581  17
   4  -2 -11 1165.38 392.182  17
   4  -2 -11 1471.66 375.378  22
   4  -2 -10 6836.33 1122.91   8
   4  -2 -10 5377.13 879.854  17
   4  -2 -10 5441.66 771.930  22
   4  -2  -9 11083.8 1246.45  17
   4  -2  -9 11637.4 1446.21   8
   4  -2  -9 11033.5 1137.64  22
   4  -2  -8 25785.5 1818.48  17
   4  -2  -8 28300.5 1825.33  22
   4  -2  -8 28255.2 2192.88   8
   4  -2  -7 14007.1 1943.49   4
   4  -2  -7 14005.4 1423.52   8
   4  -2  -7 15617.1 1195.60  34
   4  -2  -7 14246.9 1259.17  22
   4  -2  -6 1172.75 563.571   4
   4  -2  -5 1737.89 698.463   4
   4  -2  -4 419.524 350.966   4
   4  -2  -3 11571.5 1685.00   4
   4  -2  -2 12278.6 1718.32   4
   4  -2  -1 25849.7 2502.63   4
   4  -2   0 14925.0 1000.76   7
   4  -2   0 16404.0 1981.21   4
   4  -2   1 1987.22 762.534   4
   4  -2   1 3122.10 470.326   7
  -4   2  -1 2772.94 808.295   2
  -4   2  -2 393.638 318.604   2
   4  -2   2 521.105 242.471   7
  -4   2  -3 1668.90 633.946   2
  -4   2  -4 9754.52 1572.18   2
   4  -2   5 5323.06 753.514  10
   4  -2   5 3905.95 634.365  18
   4  -2   6 11632.0 1092.95   7
   4  -2   6 10569.4 1078.01  33
   4  -2   7 9821.99 1106.69  33
   4  -2   7 8410.69 935.216   7
   4  -2   7 8396.67 1016.16  32
   4  -2   8 43.3613 160.879  32
   4  -2   8 232.754 207.554   7
   4  -2   9 282.291 215.608  32
   4  -2   9 272.019 185.322   7
   4  -2  10-63.2773 93.3761   7
   4  -2  10-118.382 106.030  32
   4  -2  11 989.857 285.680  32
   4  -2  11 628.718 214.763  16
   4  -2  11 406.905 153.966  21
   4  -1 -14 3522.62 461.029  29
   4  -1 -12 51.8860 191.685  17
   4  -1 -12 339.548 339.258   8
   4  -1 -11 15198.4 1452.62  17
   4  -1 -11 13785.3 1539.60   8
   4  -1 -10 42040.6 2505.35  17
   4  -1 -10 41666.4 2805.22   8
   4  -1  -9 8074.01 1042.89  17
   4  -1  -9 7898.66 1195.64   8
   4  -1  -9 7498.83 892.835  22
   4  -1  -8 2070.81 511.629  17
   4  -1  -8 2465.25 633.490   8
   4  -1  -8 1860.21 477.930  22
   4  -1  -7 3778.27 641.500  17
   4  -1  -7 4574.64 1041.96   4
   4  -1  -7 3987.46 736.742   8
   4  -1  -7 4855.10 708.485  22
   4  -1  -6 3108.38 862.513   4
   4  -1  -5 13999.3 1846.46   4
   4  -1  -4 1785.51 676.305   4
   4  -1  -3 8356.69 1405.10   4
   4  -1  -2 8169.10 1390.01   4
   4  -1  -1 16790.7 1060.01   7
   4  -1  -1 14610.0 1864.19   4
   4  -1   0 32648.8 1583.79   7
   4  -1   0 30139.6 2773.44   4
   4  -1   1 8329.88 786.972   7
   4  -1   2 569.437 245.048   7
   4  -1   3 23292.3 1459.96   7
   4  -1   4 24965.3 1555.06   7
   4  -1   4 26799.4 1837.58  14
   4  -1   5 5585.18 711.391  18
   4  -1   5 7233.76 847.747  33
   4  -1   5 7983.29 886.967   7
   4  -1   5 7990.53 1018.61  14
   4  -1   6 492.951 245.195  33
   4  -1   6 252.038 254.440  14
   4  -1   6 755.084 282.448   7
   4  -1   7 5818.75 842.080  33
   4  -1   7 6187.22 776.949   7
   4  -1   8 149.042 147.446  33
   4  -1   8 68.2846 122.942   7
   4  -1   9 6290.12 838.418  32
   4  -1   9 4925.91 612.627   7
   4  -1  10 572.223 248.293  16
   4  -1  10 717.186 282.622  32
   4  -1  11 197.935 123.211  16
   4  -1  11 366.343 172.395  32
   4  -1  11 116.856 89.5788  21
   4   0 -14 1445.94 314.852  29
   4   0 -13 1038.05 344.926  29
   4   0 -12 3864.29 704.905  17
   4   0 -12 3283.99 686.478   8
   4   0 -11 14247.4 1393.59  17
   4   0 -11 13922.8 1529.76   8
   4   0 -11 11337.9 1136.12  31
   4   0 -10 18750.5 1632.43  17
   4   0 -10 18703.6 1849.26   8
   4   0 -10 15893.7 1471.74  31
   4   0  -9 7430.79 994.783  17
   4   0  -9 7858.44 1152.64   8
   4   0  -9 6353.18 940.863  31
   4   0  -8 1243.82 395.697  17
   4   0  -8 1016.90 440.134  31
   4   0  -8 621.075 332.113   8
   4   0  -7 4287.91 675.855  17
   4   0  -7 5266.48 829.994   8
   4   0  -7 3211.52 666.073  31
   4   0  -7 3759.75 598.391  23
   4   0  -7 4256.82 639.092  22
   4   0  -6 8064.88 1361.49   4
   4   0  -5 3914.14 1007.13   4
   4   0  -4 19845.8 2205.94   4
   4   0  -3 18906.0 1119.14   5
   4   0  -3 18623.2 2082.46   4
   4   0  -2 156857. 6682.35   4
   4   0  -1 217095. 5405.19   7
   4   0   0 29035.2 1533.86   7
   4   0   0 23216.6 2310.41   3
   4   0   1 379.086 190.013   7
   4   0   2 1231.66 337.691   7
   4   0   3 846.584 278.576   7
   4   0   4 2336.95 568.886  14
   4   0   4 2049.14 458.812   7
   4   0   5 1044.42 310.450  33
   4   0   5 792.139 320.862  14
   4   0   5 1717.73 415.425   7
   4   0   6 1473.86 382.477   7
   4   0   6 773.205 214.081  33
   4   0   6 1786.19 505.565  14
   4   0   7 6198.62 901.594  33
   4   0   7 6936.64 812.392   7
   4   0   8 2053.45 416.042   7
   4   0   8 1826.97 505.393  33
   4   0   9 780.001 320.451  33
   4   0   9 275.836 211.983  32
   4   0   9 82.8351 174.601  16
   4   0   9 758.862 211.922   7
   4   0  10 2392.27 452.251  32
   4   0  11 295.785 132.178  32
   4   1 -14 1443.46 304.750  29
   4   1 -13 315.522 212.296   8
   4   1 -13 441.214 214.802  29
   4   1 -12 1235.97 393.178   8
   4   1 -12 1795.76 420.196  31
   4   1 -12 1293.44 431.660  29
   4   1 -11 32.2773 208.226   8
   4   1 -11 180.066 174.349  31
   4   1 -11 343.406 279.529  29
   4   1 -10 1270.16 421.807  17
   4   1 -10 1537.73 548.467   8
   4   1 -10 761.521 373.414  31
   4   1  -9 1287.55 454.670  17
   4   1  -9 1366.39 481.932   8
   4   1  -9 805.210 344.078  23
   4   1  -9 1022.56 477.967  31
   4   1  -8 6331.41 898.575  17
   4   1  -8 6700.66 980.293   8
   4   1  -8 5060.91 883.032  31
   4   1  -8 5035.33 744.056  23
   4   1  -7 23403.3 1670.46  17
   4   1  -7 28821.4 1776.39  23
   4   1  -7 26927.7 2032.65  31
   4   1  -7 26547.0 1839.90  29
   4   1  -6 2684.09 537.713  17
   4   1  -6 3706.44 656.851  29
   4   1  -6 4303.47 758.396  31
   4   1  -6 4220.86 650.683  23
   4   1  -5 6519.12 1261.47   4
   4   1  -4 1156.14 568.619   3
   4   1  -4 1124.99 303.608   5
   4   1  -3 3034.60 474.970   5
   4   1  -3 2716.94 916.677   3
   4   1  -2 49852.3 4058.73   3
   4   1  -2 55247.4 2228.74   5
   4   1  -1 47733.1 3945.65   3
   4   1   0 700.799 475.006   3
   4   1   1 1289.09 352.237   7
   4   1   1 1338.72 641.828   3
   4   1   2 344.389 193.341   7
   4   1   3 10556.1 978.449   7
   4   1   3 11116.1 1226.68  14
   4   1   4 1726.39 496.265  14
   4   1   4 2801.14 508.624   7
   4   1   5 1107.56 382.436  33
   4   1   5 793.796 320.974  14
   4   1   5 1245.17 356.928   7
   4   1   6 5427.96 807.819  33
   4   1   6 5332.28 811.880  14
   4   1   6 7073.01 831.306   7
   4   1   7 11755.8 1257.36  33
   4   1   7 11712.9 1024.07   7
   4   1   8 2830.73 632.576  33
   4   1   9 1841.95 453.502  33
   4   1  10 1573.22 338.332  32
   4   1  11 128.019 80.3572  32
   4   2 -14 1113.45 263.333  29
   4   2 -13 70.1697 164.738  31
   4   2 -13 422.362 233.745  29
   4   2 -12 495.579 299.321   8
   4   2 -12 659.591 321.487  31
   4   2 -12 386.584 259.291  29
   4   2 -11 1566.92 508.970   8
   4   2 -11 1170.34 464.897  31
   4   2 -11 1502.77 444.934  29
   4   2 -10 653.204 421.170   8
   4   2 -10 451.275 371.878  31
   4   2 -10 926.123 377.000  29
   4   2 -10 269.036 197.599  23
   4   2  -9 5654.09 988.986  31
   4   2  -9 7247.63 1063.47  29
   4   2  -9 6103.06 836.648  23
   4   2  -8 6192.48 1011.40  31
   4   2  -8 7631.27 1047.97  29
   4   2  -8 6455.60 897.843  23
   4   2  -7 2748.08 629.100  31
   4   2  -7 3075.31 650.022  29
   4   2  -7 2943.45 610.383  23
   4   2  -6-256.127 349.923   3
   4   2  -6 478.372 310.141  29
   4   2  -6 458.498 357.076  31
   4   2  -6 193.322 242.042  23
   4   2  -5 1414.79 731.216   3
   4   2  -5 2484.18 609.593  31
   4   2  -5 1670.47 459.021  29
   4   2  -5 1932.03 513.451  23
   4   2  -4 1187.09 346.082   5
   4   2  -4 668.283 517.996   3
   4   2  -3 7955.36 833.311   5
   4   2  -3 6695.08 1634.24   3
   4   2  -2 7889.82 831.020   5
   4   2  -2 6822.42 1615.74   3
   4   2  -1 306.041 181.093   5
   4   2  -1-254.329 338.405   3
   4   2   0 3977.96 1221.80   3
   4   2   1 4465.07 826.004  14
   4   2   1 2735.08 1008.98   3
   4   2   2 369.572 293.001  14
   4   2   3 673.455 361.828  14
   4   2   4 7685.97 1088.67  14
   4   2   5 20808.8 1672.12  33
   4   2   5 26983.3 2013.79  14
   4   2   6 8516.19 1054.73  33
   4   2   6 9025.68 1056.22  14
   4   2   7 963.595 369.968  33
   4   2   7 1417.04 332.485   5
   4   2   8 685.700 293.172  33
   4   2   9 232.801 169.871  33
   4   2  10 484.934 154.404  32
   4   3 -13 3182.66 476.909  31
   4   3 -13 5135.97 653.092  29
   4   3 -12 1960.15 475.861   8
   4   3 -12 2555.44 540.522  29
   4   3 -12 1917.58 458.056  31
   4   3 -11 354.664 248.174   8
   4   3 -11 126.137 216.298  31
   4   3 -11 158.847 210.738  29
   4   3 -11-26.1677 144.287  23
   4   3 -10 2648.48 721.958  31
   4   3 -10 3743.77 746.074  29
   4   3 -10 3583.85 627.994  23
   4   3  -9 2891.51 725.228  31
   4   3  -9 4989.61 869.972  29
   4   3  -9 4593.00 752.217  23
   4   3  -8 5698.81 995.289  31
   4   3  -8 5800.14 929.655  29
   4   3  -8 6110.35 882.579  23
   4   3  -7 6530.27 1066.03  31
   4   3  -7 7105.80 1017.79  29
   4   3  -7 3951.53 747.113  23
   4   3  -6-337.832 403.511   3
   4   3  -6 254.122 319.820  31
   4   3  -6 635.102 330.535  29
   4   3  -6 1217.01 419.657  23
   4   3  -5 483.334 467.792   3
   4   3  -5 1105.93 427.084  29
   4   3  -5 907.261 378.256  31
   4   3  -5 649.323 333.263  23
   4   3  -5 1228.22 414.928  11
   4   3  -4 28337.0 2043.95  31
   4   3  -4 25404.5 1880.90  29
   4   3  -4 25205.5 3331.68   3
   4   3  -4 26789.1 1769.76  23
   4   3  -4 23203.9 1802.04  11
   4   3  -3 308.740 275.474  14
   4   3  -3 923.179 428.221  31
   4   3  -3 577.321 303.416  23
   4   3  -3 996.803 321.811   5
   4   3  -3 646.752 275.516  11
   4   3  -3 1012.02 681.450   3
   4   3  -2 144.818 201.282  14
   4   3  -2 154.920 248.785  31
   4   3  -2 310.053 257.868  23
   4   3  -2 204.701 136.728   5
   4   3  -2-119.280 182.369  11
   4   3  -2 252.161 222.508   3
   4   3  -1 12832.3 1403.81  14
   4   3  -1 17764.9 1476.16  31
   4   3  -1 13897.9 2496.58   3
   4   3  -1 14031.9 1466.41  24
   4   3  -1 15798.1 1294.44  23
   4   3  -1 18052.6 1322.87   5
   4   3   0 3860.81 725.791  31
   4   3   0 3109.73 719.037  14
   4   3   0 3546.37 720.497  24
   4   3   0 4179.49 639.916   5
   4   3   0 4173.52 657.789  23
   4   3   0 2175.70 976.677   3
   4   3   1 2965.29 615.751  31
   4   3   1 3677.50 779.677  14
   4   3   1 3052.01 728.868  24
   4   3   1 3586.44 594.624   5
   4   3   1 2669.23 1074.93   3
   4   3   2 3983.08 853.839  14
   4   3   2 3763.78 1252.53   3
   4   3   2 4303.29 645.687   5
   4   3   3 86.0330 145.077   5
   4   3   3 572.105 455.364  14
   4   3   4 1257.64 533.812  14
   4   3   4 1348.67 334.476   5
   4   3   5 3858.83 754.791  14
   4   3   5 4153.33 613.341   5
   4   3   6 1451.84 401.513  33
   4   3   6 1488.27 413.617  14
   4   3   6 2133.65 415.619   5
   4   3   7 1289.45 405.950  33
   4   3   8 992.284 316.477  33
   4   3   9 227.511 162.106  33
   4   4 -13 555.061 206.304  31
   4   4 -13 162.854 102.351  11
   4   4 -12 549.170 249.032  31
   4   4 -12 333.660 196.752  29
   4   4 -12 215.667 157.560  23
   4   4 -11 3119.82 610.570   8
   4   4 -11 2913.94 621.203  31
   4   4 -11 3689.78 681.032  29
   4   4 -11 2610.77 480.908  23
   4   4 -10 7447.21 1078.78  31
   4   4 -10 8506.36 1081.40  29
   4   4 -10 8792.82 983.861  23
   4   4  -9 5857.04 975.601  31
   4   4  -9 7461.36 1072.64  29
   4   4  -9 7254.62 927.065  23
   4   4  -8 0.95441 302.943  31
   4   4  -8 141.696 273.351  29
   4   4  -8 12.8549 252.933  23
   4   4  -7 353.776 226.790  31
   4   4  -7 893.795 448.019  29
   4   4  -7 213.250 299.618  23
   4   4  -6 858.115 440.169  31
   4   4  -6 229.246 273.146  29
   4   4  -6 394.292 345.502  23
   4   4  -6 870.571 440.205  11
   4   4  -5 8221.05 1146.39  31
   4   4  -5 7518.92 996.607  23
   4   4  -5 7210.50 1060.34  11
   4   4  -4 1154.46 464.040  31
   4   4  -4 1139.79 408.300  14
   4   4  -4 908.602 425.026  23
   4   4  -4 924.763 419.898  11
   4   4  -4 985.088 693.179   3
   4   4  -3 1342.71 468.149  31
   4   4  -3 581.160 347.652  23
   4   4  -3 617.420 287.211  11
   4   4  -3 1202.78 768.313   3
   4   4  -2 59143.2 2867.21  31
   4   4  -2 49945.7 4997.51   3
   4   4  -2 50429.0 3083.11  24
   4   4  -2 46896.8 2462.99  23
   4   4  -2 53812.0 2494.20   5
   4   4  -2 50655.5 2920.38  11
   4   4  -1 2396.79 543.205  31
   4   4  -1 2171.83 620.602  14
   4   4  -1 2739.87 708.288  24
   4   4  -1 2720.37 542.564  23
   4   4  -1 3635.17 623.076   5
   4   4  -1 1618.97 901.713   3
   4   4   0 2217.05 638.854  14
   4   4   0 1928.55 455.405  31
   4   4   0 1643.16 577.654  24
   4   4   0 1912.94 459.575   5
   4   4   1 490.462 290.053  14
   4   4   1-18.5310 172.998  24
   4   4   1 354.062 229.869   5
   4   4   2 978.736 505.613  14
   4   4   2 985.184 324.703   5
   4   4   3 582.101 314.512  14
   4   4   3 1335.05 369.758   5
   4   4   4 9616.53 1184.86  14
   4   4   4 8252.34 833.371   5
   4   4   5 4239.42 708.624  14
   4   4   5 4393.62 557.158   5
   4   4   6 297.471 213.913  33
   4   4   7 415.226 219.606  33
   4   4   8 568.218 202.822  33
   4   5 -12 368.651 193.191  31
   4   5 -12 137.418 108.592  23
   4   5 -12 454.839 169.823  11
   4   5 -11 1460.05 387.482  31
   4   5 -11 1298.54 340.034  23
   4   5 -11 1720.66 418.685  11
   4   5 -10 2272.18 523.191  31
   4   5 -10 2334.01 487.666  23
   4   5 -10 2366.85 545.174  11
   4   5  -9 1060.20 413.595  31
   4   5  -9 892.750 354.517  23
   4   5  -9 859.092 411.938  11
   4   5  -8 419.580 309.910  31
   4   5  -8 481.588 300.874  23
   4   5  -8 690.547 366.338  11
   4   5  -7 4018.09 781.249  31
   4   5  -7 2763.45 615.581  23
   4   5  -7 4244.91 856.747  11
   4   5  -6 1239.75 463.977  31
   4   5  -6 850.474 369.007  23
   4   5  -6 987.170 414.841  11
   4   5  -5 2111.04 575.648  31
   4   5  -5 1830.76 511.349  14
   4   5  -5 1677.24 504.452  23
   4   5  -5 1973.20 575.590  11
   4   5  -4 2209.15 541.493  31
   4   5  -4 1301.21 445.282  23
   4   5  -4 2567.39 667.115  11
   4   5  -3 13758.7 1332.87  31
   4   5  -3 12784.2 1588.00  24
   4   5  -3 11323.8 1155.55  23
   4   5  -3 13485.2 1516.78  11
   4   5  -2 7448.53 921.169  31
   4   5  -2 7881.37 1231.27  24
   4   5  -2 5774.54 777.210  23
   4   5  -1 7271.06 1153.04  14
   4   5  -1 8835.57 1307.64  24
   4   5   0 2674.62 714.470  14
   4   5   0 2546.89 697.013  24
   4   5   0 2434.08 499.609   5
   4   5   1 819.165 423.952  14
   4   5   1 310.769 257.612  24
   4   5   1 572.115 253.992   5
   4   5   2 11633.2 1393.07  14
   4   5   2 10783.6 980.290   5
   4   5   3 7830.79 1080.10  14
   4   5   3 8048.23 797.857   5
   4   5   4 1665.06 509.910  14
   4   5   4 2373.30 396.748   5
   4   5   5 333.435 203.627  14
  -4  -5  -5 42.3946 110.727  26
   4   5   6 1837.75 382.885  33
   4   5   7 209.022 109.982  33
   4   6 -11 2100.67 372.497  31
   4   6 -11 2246.99 356.418  23
   4   6 -11 1695.54 352.237  11
   4   6 -10-18.2101 116.033  31
   4   6 -10 186.715 158.926  23
   4   6 -10 237.930 192.377  11
   4   6  -9 3365.43 586.276  31
   4   6  -9 3789.84 597.477  23
   4   6  -9 4144.26 700.618  11
   4   6  -8 2180.25 501.291  31
   4   6  -8 2382.17 548.836  23
   4   6  -8 2903.85 628.590  11
   4   6  -7 1124.60 398.018  31
   4   6  -7 1128.14 384.134  23
   4   6  -7 1309.20 453.633  11
   4   6  -6 270.255 232.714  31
   4   6  -6 273.384 199.779  23
   4   6  -6 380.928 266.607  11
   4   6  -5 4029.56 669.785  31
   4   6  -5 2368.62 540.127  14
   4   6  -5 2642.57 567.729  23
   4   6  -5 3443.18 737.035  11
   4   6  -4 2739.61 540.548  31
   4   6  -4 1936.88 539.509  14
   4   6  -4 3033.26 768.346  24
   4   6  -4 2071.11 507.725  23
   4   6  -4 2796.83 679.161  11
   4   6  -3 4134.70 809.260  14
   4   6  -3 6224.57 1079.40  24
   4   6  -3 5292.30 749.004  23
   4   6  -2 3176.16 759.779  14
   4   6  -2 4639.67 943.613  24
   4   6  -1 298.244 257.756  14
   4   6  -1 470.919 304.242  24
   4   6   0 866.456 449.151  14
   4   6   0 571.596 376.100  24
   4   6   1 1748.64 523.554  14
   4   6   2 1241.70 419.962  14
   4   6   3 5202.13 778.307  14
   4   6   4 528.336 204.984  14
  -4  -6  -4 468.355 208.044  26
   4   6   5 540.711 218.903  33
  -4  -6  -5 752.726 201.401  26
   4   6   6 825.066 195.575  33
   4   7 -10 684.956 201.615  24
   4   7 -10 1122.92 271.230  11
   4   7 -10 1112.53 207.716  31
   4   7  -9 11963.8 872.276  23
   4   7  -9 13480.2 1084.68  11
   4   7  -8 11711.3 877.901  31
   4   7  -8 14390.2 1011.59  23
   4   7  -8 13973.4 1204.77  11
   4   7  -7 5168.63 587.253  31
   4   7  -7 4214.12 591.822  23
   4   7  -7 4721.66 731.482  11
   4   7  -6 296.884 226.801  24
   4   7  -6 179.986 208.564  23
   4   7  -6 158.248 186.502  11
   4   7  -5 486.384 243.125  14
   4   7  -5 345.352 271.296  24
   4   7  -5 468.967 218.478  23
   4   7  -4 2564.62 575.307  14
   4   7  -4 3811.80 784.816  24
   4   7  -4 2871.34 449.511  23
   4   7  -3 2496.45 599.338  14
   4   7  -3 3001.53 708.420  24
   4   7  -2 625.420 311.912  14
   4   7  -2 805.888 385.849  24
   4   7  -1 1215.35 421.388  14
   4   7  -1 1004.23 401.373  24
   4   7   0 2389.25 571.704  14
   4   7   1 21454.6 1591.69  14
   4   7   2 1240.54 381.504  14
   4   7   3 4131.26 540.903  14
   4   7   4 112.329 108.347  33
  -4  -7  -4 269.065 115.324  26
   4   8  -8 1169.71 287.251  24
   4   8  -8 1715.67 255.015  23
   4   8  -7-12.4471 120.298  24
   4   8  -7 33.1373 92.8054  23
   4   8  -6 797.494 289.966  24
   4   8  -6 795.985 190.179  23
   4   8  -5 1868.38 356.041  14
   4   8  -5 2747.56 547.900  24
   4   8  -4 2258.82 507.415  24
   4   8  -4 1942.45 402.297  14
   4   8  -3 192.466 137.275  14
   4   8  -3 248.802 167.730  24
   4   8  -2 585.104 235.134  14
   4   8  -2 767.534 301.120  24
   4   8  -1 4420.33 621.766  14
   4   8   0 75.9397 143.448  14
   4   8   1 12791.0 938.645  14
   4   8   2 6015.62 523.387  14
  -4  -8  -2 6618.85 507.050  26
   4   9  -5 620.051 196.719  24
   4   9  -3 843.644 202.558  14
   4   9  -2 1267.40 235.004  14
   5 -11  -3 3568.67 325.577  34
   5 -11  -2 325.768 117.718  28
   5 -11  -2 464.309 132.940  34
   5 -11  -1 685.490 190.001  28
   5 -11   0 1483.39 275.458  28
   5 -11   1 3173.89 348.013   9
   5 -11   1 3762.44 407.664  28
   5 -11   2 1215.13 199.664   9
   5 -11   2 1997.86 287.100  28
   5 -11   3-106.221 130.617  28
   5 -11   4 261.740 75.6968  28
   5 -10  -6 185.377 94.7514  34
   5 -10  -5 1279.12 252.583  34
   5 -10  -4 2953.11 417.293  34
   5 -10  -3 2836.23 419.644  34
   5 -10  -3 2829.94 401.951  28
   5 -10  -2 2780.00 428.236  34
   5 -10  -2 4447.94 543.702  28
   5 -10  -1 4367.01 529.705   9
   5 -10  -1 3675.74 470.665  34
   5 -10  -1 4507.07 539.107  28
   5 -10   0 342.013 140.307   9
   5 -10   0 314.850 114.745  28
   5 -10   0 716.176 198.412  34
   5 -10   1 1096.40 218.008  15
   5 -10   1 679.043 215.053   9
   5 -10   2 219.485 125.400   9
   5 -10   3 1837.01 310.638   9
   5 -10   4 4895.43 467.074   9
   5 -10   4 12100.7 898.595  27
   5 -10   5 2397.88 375.275  27
   5 -10   6 1623.27 271.650  27
   5  -9  -7 2919.64 354.300  34
   5  -9  -7 2695.82 332.357  22
   5  -9  -6 3021.74 427.781  34
   5  -9  -6 2549.38 362.189  22
   5  -9  -5 3205.54 491.732  34
   5  -9  -5 2434.86 366.899  22
   5  -9  -4 1942.84 383.840  28
   5  -9  -4 2261.13 452.385  34
   5  -9  -3 1570.83 398.690  28
   5  -9  -3 604.334 239.429  34
   5  -9  -2 5411.51 650.063   9
   5  -9  -2 4625.08 646.578  34
   5  -9  -2 5257.28 631.476  28
   5  -9  -1 979.962 281.547   9
   5  -9  -1 827.581 220.762  28
   5  -9  -1 872.538 275.249  34
   5  -9  -1 1235.59 311.244  15
   5  -9   0 1193.24 317.557   9
   5  -9   0 1249.07 323.771  34
   5  -9   0 2026.67 386.240  15
   5  -9   1 1367.51 329.660   9
   5  -9   1 1857.70 381.285  15
   5  -9   2 1757.21 378.045   9
   5  -9   2 2198.58 429.579  15
   5  -9   2 2985.44 573.191  27
   5  -9   3 1608.67 344.913   9
   5  -9   3 1949.74 386.749  15
   5  -9   3 2579.79 513.826  27
   5  -9   4 2183.09 382.266  15
   5  -9   4 1442.44 314.954   9
   5  -9   5 56.9122 76.0247  15
   5  -9   5 335.974 172.481  27
   5  -9   6 10.0748 56.3989  15
   5  -9   6 188.357 108.856  27
   5  -9   7 314.529 82.8708  15
   5  -9   7 811.757 216.442  27
   5  -8  -9 847.276 186.252  22
   5  -8  -8 743.050 235.526  22
   5  -8  -8 755.242 199.428  34
   5  -8  -7 2453.30 410.518  34
   5  -8  -7 1943.75 397.668  22
   5  -8  -6 12.6349 124.971  34
   5  -8  -6 242.951 185.170  22
   5  -8  -5 3200.68 567.859  34
   5  -8  -5 2544.19 444.278  28
   5  -8  -5 3206.49 567.816  22
   5  -8  -4 11661.0 1015.13  28
   5  -8  -4 10815.8 1083.70  34
   5  -8  -4 10541.2 993.609  22
   5  -8  -3 1999.90 410.933  15
   5  -8  -3 1146.89 373.477  34
   5  -8  -3 1146.98 288.396  28
   5  -8  -2 7720.11 825.359   9
   5  -8  -2 6751.64 848.181  34
   5  -8  -2 8276.19 857.518  15
   5  -8  -2 6884.26 792.420  28
   5  -8  -1 404.484 198.990   9
   5  -8  -1 341.242 239.141  34
   5  -8  -1 657.778 266.105  15
   5  -8   0 3204.74 525.935   9
   5  -8   0 2513.14 471.239  34
   5  -8   0 2782.82 526.673  15
   5  -8   0 2878.14 566.943  27
   5  -8   1 1370.41 346.983   9
   5  -8   1 2209.41 469.385  15
   5  -8   1 2652.74 563.446  27
   5  -8   2 5971.43 741.651   9
   5  -8   2 9330.32 1064.75  27
   5  -8   3 13472.6 1302.66  27
   5  -8   3 13506.3 1180.77  21
   5  -8   4 388.138 213.136  27
   5  -8   4 577.051 278.554  21
   5  -8   5 402.236 233.132  27
   5  -8   5 474.994 206.625  21
   5  -8   6 800.804 296.466  27
   5  -8   6 1322.91 305.664  21
   5  -8   7 293.863 136.634   7
   5  -8   7 680.567 244.610  27
   5  -8   8 116.459 117.387  27
   5  -7 -10 452.800 162.224  22
   5  -7  -9 2737.13 356.740  17
   5  -7  -9 3651.69 383.607  34
   5  -7  -9 4236.64 559.441  22
   5  -7  -8 4962.18 552.628  17
   5  -7  -8 6288.35 649.464  34
   5  -7  -8 6113.46 760.611  22
   5  -7  -7 738.301 260.439  34
   5  -7  -7 1165.10 401.703  22
   5  -7  -6 517.295 235.776  34
   5  -7  -6 205.655 288.770  22
   5  -7  -5 27463.2 1785.61  34
   5  -7  -5 25709.9 1515.27  28
   5  -7  -5 25109.4 1761.47  22
   5  -7  -4 30019.1 1918.00  34
   5  -7  -4 36584.3 1964.90  15
   5  -7  -4 34617.7 1793.96  28
   5  -7  -4 32374.8 1991.09  22
   5  -7  -3 5758.52 813.152  34
   5  -7  -3 9283.12 945.491  15
   5  -7  -3 8073.59 830.627  28
   5  -7  -3 7597.61 902.608  22
   5  -7  -2 6874.87 780.580   9
   5  -7  -2 6598.16 853.270  34
   5  -7  -2 6939.72 837.338  22
   5  -7  -2 8017.98 879.885  15
   5  -7  -1 2592.98 511.015  34
   5  -7  -1 2996.52 565.436  15
   5  -7  -1 3897.05 665.619  27
   5  -7   0 3326.36 546.483  34
   5  -7   0 2526.30 530.514  15
   5  -7   0 3405.49 629.343  27
   5  -7   0 3508.12 593.293  30
   5  -7   0 3367.99 614.182  21
   5  -7   1 6715.72 795.143  30
   5  -7   1 5951.96 864.484  27
   5  -7   1 5749.68 780.108  21
   5  -7   2 4498.58 632.953  30
   5  -7   2 4046.09 742.203  27
   5  -7   2 4830.92 718.685  21
   5  -7   3 2439.93 556.226  16
   5  -7   3 2474.55 446.411  30
   5  -7   3 2014.96 536.875  27
   5  -7   3 2286.63 506.762  21
   5  -7   4 3734.86 689.774  16
   5  -7   4 3382.06 498.771  30
   5  -7   4 3770.19 721.990  27
   5  -7   4 3705.60 639.082  21
   5  -7   5 3412.56 665.718  16
   5  -7   5 2986.20 641.347  27
   5  -7   5 3629.00 621.803  21
   5  -7   6 352.006 254.772  16
   5  -7   6 645.694 309.630  27
   5  -7   6 862.058 299.344  21
   5  -7   7 318.246 220.023  16
   5  -7   7 519.155 203.622   7
   5  -7   7 566.130 273.539  27
   5  -7   7 984.911 283.945  21
   5  -7   8-77.4425 170.641  16
   5  -7   8 196.324 131.457   7
   5  -7   8 369.400 184.867  27
   5  -7   8 66.7454 93.3137  21
   5  -7   9 2505.87 365.287  16
   5  -7   9 1900.94 323.742  27
   5  -6 -11 388.689 154.014  22
   5  -6 -10 5880.91 573.501  17
   5  -6 -10 6714.90 691.608  22
   5  -6  -9 13120.7 999.743  17
   5  -6  -9 14147.5 914.290  34
   5  -6  -9 14480.3 1186.63  22
   5  -6  -8 257.692 154.325  17
   5  -6  -8 111.534 130.002  34
   5  -6  -7-29.9370 211.780  34
   5  -6  -7 75.4516 148.252  22
   5  -6  -6 6036.73 811.114  34
   5  -6  -6 4488.74 587.062  28
   5  -6  -6 4802.40 802.024  22
   5  -6  -5 24328.7 1690.13  34
   5  -6  -5 21703.7 1383.03  28
   5  -6  -5 22079.6 1703.67  22
   5  -6  -4 40174.5 2215.60  34
   5  -6  -4 43668.6 2208.93  15
   5  -6  -4 41334.5 1957.47  28
   5  -6  -4 42134.6 2359.68  22
   5  -6  -3 1460.03 418.828  34
   5  -6  -3 1578.08 406.670  15
   5  -6  -3 1865.25 482.829  22
   5  -6  -2 566.655 277.384  30
   5  -6  -2 232.538 133.718  34
   5  -6  -2 658.700 237.866  15
   5  -6  -2 362.925 251.527  22
   5  -6  -1 2971.33 572.544  10
   5  -6  -1 2277.00 466.253  34
   5  -6  -1 1970.80 459.048  15
   5  -6  -1 2855.39 543.076  30
   5  -6  -1 2797.96 556.754  27
   5  -6  -1 2050.70 446.207  21
   5  -6   0-10.5573 206.535  10
   5  -6   0 1.92847 165.565  34
   5  -6   0 153.226 158.023  30
   5  -6   0-65.9812 172.092  27
   5  -6   0-1.95928 119.640  21
   5  -6   1 2401.25 501.308  10
   5  -6   1 2687.18 489.001  34
   5  -6   1 2345.38 484.054  30
   5  -6   1 2666.75 582.571  27
   5  -6   1 2381.16 496.712  21
   5  -6   2 5177.58 820.143  16
   5  -6   2 4736.18 667.904  30
   5  -6   2 4732.99 801.920  27
   5  -6   2 4001.84 658.176  21
   5  -6   2 4384.19 715.534  10
   5  -6   3 3849.12 715.272  16
   5  -6   3 4180.96 610.286  30
   5  -6   3 3467.87 688.971  27
   5  -6   3 4861.33 735.531  21
   5  -6   3 3776.23 636.354  10
   5  -6   4 29648.9 2064.49  16
   5  -6   4 28424.2 1617.45  30
   5  -6   4 28297.2 1830.41  21
   5  -6   4 32234.1 1730.83  10
   5  -6   5 6817.65 991.327  16
   5  -6   5 5703.42 662.917  30
   5  -6   5 6403.05 846.924  21
   5  -6   5 7921.75 779.108  10
   5  -6   6 5539.65 887.835  16
   5  -6   6 4564.69 675.729  21
   5  -6   7-79.3767 214.883  16
   5  -6   7 27.1519 131.701   7
   5  -6   7 7.55321 108.411  21
   5  -6   8-79.0824 208.991  16
   5  -6   8 169.323 125.766   7
   5  -6   8 244.491 168.079  21
   5  -6   9 4353.85 575.506  16
   5  -6   9 5062.00 475.127  21
   5  -6  10 2525.13 328.147  16
   5  -5 -11 4774.34 539.549  17
   5  -5 -11 4657.83 530.081  22
   5  -5 -10 19473.4 1265.16  17
   5  -5 -10 19977.4 1333.08  22
   5  -5  -9 4740.67 667.601  17
   5  -5  -9 4082.02 529.272  34
   5  -5  -9 4356.73 699.662  22
   5  -5  -8 1389.02 355.024  17
   5  -5  -8 1508.69 398.529  34
   5  -5  -8 1180.69 401.567  22
   5  -5  -7 4877.71 671.809  17
   5  -5  -7 5588.71 764.171  34
   5  -5  -7 4164.50 762.734  22
   5  -5  -6 10561.2 1080.09  34
   5  -5  -6 9264.17 1127.36  22
   5  -5  -5 8177.59 960.471  34
   5  -5  -5 9508.14 1025.59  15
   5  -5  -5 9721.12 1129.22  22
   5  -5  -4 94.7448 139.119  34
   5  -5  -4 665.357 290.572  15
   5  -5  -4-235.628 303.712  25
   5  -5  -4 379.700 298.673  22
   5  -5  -3 474.531 218.031  10
   5  -5  -3 81.2766 211.561   4
   5  -5  -3-52.5554 268.521  34
   5  -5  -3 13.6745 118.899  15
   5  -5  -3 262.803 188.850  30
   5  -5  -3-90.0834 183.591  25
   5  -5  -3 275.178 189.868  22
   5  -5  -2 12961.3 1162.07  15
   5  -5  -2 11190.8 1070.36  34
   5  -5  -2 12384.7 1098.66  30
   5  -5  -2 14240.5 1125.22  25
   5  -5  -2 13446.0 1234.77  22
   5  -5  -2 12778.7 1107.61  10
   5  -5  -2 12426.5 2001.67   4
   5  -5  -1 3460.71 579.084  10
   5  -5  -1 3280.01 481.932  18
   5  -5  -1 2240.49 836.517   4
   5  -5  -1 2839.68 514.626  34
   5  -5  -1 2769.97 509.256  30
   5  -5  -1 3363.11 590.122  22
   5  -5  -1 3376.50 544.325  21
   5  -5   0 2212.48 472.842  10
   5  -5   0 1798.49 375.965  18
   5  -5   0 2477.04 878.227   4
   5  -5   0 1843.08 410.524  34
   5  -5   0 2298.08 478.288  30
   5  -5   0 1982.23 451.383  27
   5  -5   0 1985.58 428.193  21
   5  -5   1 1608.55 412.123  10
   5  -5   1 1121.70 339.064  18
   5  -5   1 1105.55 571.980   4
   5  -5   1 1727.87 489.649  16
   5  -5   1 1089.30 339.817  34
   5  -5   1 1572.10 443.388  30
   5  -5   1 1394.84 393.440  27
   5  -5   1 1567.04 414.993  21
  -5   5  -1 1899.31 863.432   2
   5  -5   2 1834.04 459.768  10
   5  -5   2 1013.19 397.755  18
   5  -5   2 1487.84 445.007  16
   5  -5   2 1877.51 396.138   7
   5  -5   2 1675.15 449.153  27
   5  -5   2 2271.75 506.305  21
   5  -5   3 6008.73 928.544  16
   5  -5   3 5615.77 806.126  21
   5  -5   3 5241.80 732.547  10
   5  -5   4 11924.7 1325.93  16
   5  -5   4 11161.3 1156.80  21
   5  -5   4 12949.5 1087.21  10
   5  -5   5 10927.8 1260.26  16
   5  -5   5 9617.16 1066.10  21
   5  -5   5 10512.6 924.400  10
   5  -5   6 186.981 240.763  16
   5  -5   6 365.279 206.624   7
   5  -5   6 282.842 161.601  21
   5  -5   7 2042.68 555.264  16
   5  -5   7 1863.77 419.745   7
   5  -5   7 2650.91 535.324  21
   5  -5   8 2256.87 564.071  16
   5  -5   8 2299.21 429.938   7
   5  -5   8 2614.50 476.784  21
   5  -5   9 2649.92 491.123  16
   5  -5   9 2464.13 386.052   7
   5  -5   9 2140.67 346.971  21
   5  -5  10 187.362 129.977  16
   5  -5  10 58.6183 68.1529  27
   5  -4 -12 2784.31 382.275  17
   5  -4 -11 4006.39 564.680  17
   5  -4 -11 3565.79 508.629  22
   5  -4 -10 4830.77 683.724  17
   5  -4 -10 5412.85 710.717  22
   5  -4  -9 2321.34 493.535  17
   5  -4  -9 2303.79 544.755  22
   5  -4  -8 1120.91 376.088  17
   5  -4  -8 1558.80 388.473  34
   5  -4  -8 1726.40 485.910  22
   5  -4  -7 1976.52 453.599  17
   5  -4  -7 2625.91 569.566  34
   5  -4  -7 3026.80 639.696  22
   5  -4  -6 5442.76 752.459  34
   5  -4  -6 4851.63 813.461  22
   5  -4  -5 17075.5 1364.28  34
   5  -4  -5 18082.2 1432.64  15
   5  -4  -5 19106.5 1542.35  22
   5  -4  -4 403.642 159.882  10
   5  -4  -4 890.243 551.722   4
   5  -4  -4 246.152 175.410  34
   5  -4  -4 392.738 147.640  15
   5  -4  -4 970.512 322.420  30
   5  -4  -4 314.958 273.307  22
   5  -4  -3 15503.2 1252.00  34
   5  -4  -3 17999.3 1355.89  15
   5  -4  -3 16420.5 1225.88  30
   5  -4  -3 16034.0 1270.45  25
   5  -4  -3 17372.9 1415.24  22
   5  -4  -3 18465.8 1273.35  10
   5  -4  -3 14170.7 2153.03   4
   5  -4  -2 1776.06 396.854  10
   5  -4  -2 1474.33 364.114  18
   5  -4  -2 839.265 545.597   4
   5  -4  -2 1469.28 390.063  34
   5  -4  -2 1456.25 383.682  15
   5  -4  -2 1693.45 434.563  30
   5  -4  -2 1223.32 399.682  25
   5  -4  -2 1814.16 466.180  22
   5  -4  -1 14.1167 202.560  10
   5  -4  -1-60.4023 163.151  18
   5  -4  -1 103.998 250.789   4
   5  -4  -1 380.826 252.983  34
   5  -4  -1 155.975 185.054  30
   5  -4  -1 602.363 299.002  25
   5  -4  -1 451.775 269.802  22
   5  -4  -1 484.815 193.898  21
   5  -4   0 6989.28 784.313  18
   5  -4   0 6976.82 1545.71   4
  -5   4   0 5693.02 1430.29   2
   5  -4   0 9167.49 1009.97  16
   5  -4   0 7068.71 785.300  34
   5  -4   0 8650.98 897.939  25
   5  -4   0 6850.37 772.211  21
   5  -4   0 8617.01 905.609  10
   5  -4   1 484.168 231.990  10
   5  -4   1 586.448 306.189  18
   5  -4   1 1211.11 616.976   4
   5  -4   1 716.474 329.688  16
   5  -4   1 512.384 239.709   7
   5  -4   1 246.848 242.421  25
   5  -4   1 453.277 196.913  34
   5  -4   1 449.729 266.067  21
  -5   4  -1 101.762 235.145   2
   5  -4   2 49949.6 2304.28  18
   5  -4   2 57963.8 2818.71  16
  -5   4  -2 45843.8 3989.99   2
   5  -4   2 50932.6 2266.37   7
   5  -4   2 57580.7 2449.94  25
   5  -4   2 48488.7 2427.07  21
   5  -4   2 54554.0 2523.67  10
   5  -4   3 1464.03 413.811  10
   5  -4   3 1164.46 343.156  18
   5  -4   3 1805.18 511.383  16
   5  -4   3 1286.03 368.725   7
   5  -4   3 1434.29 396.114  21
   5  -4   4 13231.8 1220.52  18
   5  -4   4 12942.3 1398.42  16
   5  -4   4 11150.1 1064.46   7
   5  -4   4 10773.3 1144.38  21
   5  -4   4 11370.3 1097.09  10
   5  -4   5-51.0360 188.385  10
   5  -4   5-241.416 330.995  16
   5  -4   5 23.0638 103.732  32
   5  -4   5 10.8041 109.908   7
   5  -4   5 75.8065 229.752  21
   5  -4   6-121.521 259.011  16
   5  -4   6 104.582 161.860  32
   5  -4   6 356.387 217.868   7
   5  -4   6-107.404 172.916  21
   5  -4   7 10.4785 239.523  16
   5  -4   7 222.208 196.338  32
   5  -4   7 318.846 178.759   7
   5  -4   7 232.896 177.251  21
   5  -4   8 2412.87 575.467  16
   5  -4   8 2525.23 450.138   7
   5  -4   8 2606.16 491.091  21
   5  -4   9 36.8140 132.604  16
   5  -4   9-79.4373 94.8945   7
   5  -4   9-22.6886 113.554  21
   5  -4  10 1108.16 274.502  16
   5  -4  10 657.738 151.496  21
   5  -3 -13 1123.97 198.003  25
   5  -3 -12 3979.48 530.837  17
   5  -3 -12 1404.54 276.275  29
   5  -3 -11 3051.66 538.204  17
   5  -3 -11 3095.74 478.379  22
   5  -3 -10 7615.17 888.961  17
   5  -3 -10 6865.92 831.620  22
   5  -3  -9 7583.77 912.787  17
   5  -3  -9 7595.72 928.654  22
   5  -3  -8 12651.3 1195.25  17
   5  -3  -8 14778.1 1354.18  22
   5  -3  -7 878.224 314.565  17
   5  -3  -7 1166.64 396.292  34
   5  -3  -7 1776.52 498.304  22
   5  -3  -6 684.540 278.025  34
   5  -3  -6 417.800 298.271  22
   5  -3  -5 6093.28 1374.70   4
   5  -3  -5 7360.84 861.942  34
   5  -3  -5 8723.97 957.911  15
   5  -3  -5 9329.19 900.464  30
   5  -3  -5 7492.99 950.936  22
   5  -3  -4 6843.41 1445.45   4
   5  -3  -4 8669.46 924.324  34
   5  -3  -4 9016.94 875.128  30
   5  -3  -4 10419.8 1018.36  15
   5  -3  -4 9080.11 1029.81  22
   5  -3  -4 10166.9 856.147  10
   5  -3  -3 31656.3 1780.08  15
   5  -3  -3 28164.1 1542.44  18
   5  -3  -3 28445.5 1665.87  34
   5  -3  -3 27975.5 1578.71  30
   5  -3  -3 28968.4 1768.49  25
   5  -3  -3 28508.7 1826.25  22
   5  -3  -3 28889.7 1599.53  10
   5  -3  -3 25958.1 2886.42   4
   5  -3  -2 7788.63 782.220  18
   5  -3  -2 7242.17 1532.63   4
   5  -3  -2 7410.82 813.651  34
   5  -3  -2 6848.46 794.456  15
   5  -3  -2 7097.70 786.602  30
   5  -3  -2 7214.67 831.867  25
   5  -3  -2 7966.74 932.951  22
   5  -3  -2 8113.90 841.960  10
   5  -3  -1 3161.86 543.745  10
   5  -3  -1 2471.36 462.835  18
   5  -3  -1 2962.66 989.430   4
   5  -3  -1 2799.01 532.419  31
   5  -3  -1 3016.59 500.137  34
   5  -3  -1 3356.07 587.030  25
   5  -3   0 3181.75 574.317  10
   5  -3   0 2161.16 467.890  18
   5  -3   0 1284.91 666.608   4
   5  -3   0 2087.61 475.407  16
   5  -3   0 2357.68 446.350  34
   5  -3   0 1870.63 408.695   7
   5  -3   0 3384.98 605.995  25
   5  -3   0 1771.91 379.852  21
   5  -3   1 18902.2 1327.19  18
   5  -3   1 20819.8 1563.54  16
   5  -3   1 19286.2 1262.92  34
   5  -3   1 20011.3 1317.38   7
   5  -3   1 22167.5 1491.95  25
   5  -3   1 15542.8 1223.68  21
   5  -3   1 20883.9 1491.89  10
   5  -3   2 23901.7 1568.04  18
   5  -3   2 26640.8 1849.18  16
   5  -3   2 25942.4 1572.45   7
   5  -3   2 28078.6 1733.04  25
   5  -3   2 26899.6 1741.21  10
   5  -3   3 16004.0 1283.86  18
   5  -3   3 18156.3 1566.71  16
   5  -3   3 17858.9 1336.52   7
   5  -3   3 14500.4 1303.04  25
   5  -3   3 19133.4 1438.85  10
   5  -3   4 1090.23 367.773  10
   5  -3   4 688.462 251.625  18
   5  -3   4 1222.61 467.882  16
   5  -3   4 1513.12 412.501   7
   5  -3   5 838.533 352.848  10
   5  -3   5 452.870 279.275  16
   5  -3   5 920.944 345.064  32
   5  -3   5 779.465 328.164   7
   5  -3   6 2618.54 458.863  10
   5  -3   6 2016.13 592.439  16
   5  -3   6 2515.88 491.558  32
   5  -3   6 2859.80 546.465   7
   5  -3   7 2029.63 545.674  16
   5  -3   7 1908.64 438.644  32
   5  -3   7 2009.51 443.183   7
   5  -3   8 277.905 242.295  16
   5  -3   8 393.492 219.927  32
   5  -3   8 454.320 168.662   7
   5  -3   8 224.741 194.728  21
   5  -3   9 140.828 155.863  16
   5  -3   9 121.511 142.942  32
   5  -3   9 135.890 124.551   7
   5  -3   9 34.6468 81.8700  21
   5  -3  10 1126.63 240.226  16
   5  -3  10 1025.62 212.783  21
   5  -2 -12 3749.20 502.538  29
   5  -2 -11 706.271 294.409  17
   5  -2 -11 355.276 155.923  29
   5  -2 -11 1140.21 304.469  22
   5  -2 -10 5113.44 753.273  17
   5  -2 -10 5576.55 719.090  22
   5  -2  -9 14156.4 1280.84  17
   5  -2  -9 13457.8 1223.31  22
   5  -2  -8 1569.45 417.845  17
   5  -2  -8 1733.31 421.968  34
   5  -2  -8 1693.39 456.428  22
   5  -2  -7 4273.00 655.158  17
   5  -2  -7 5332.46 765.843  34
   5  -2  -7 5083.00 807.312  22
   5  -2  -6 7186.90 880.529  34
   5  -2  -6 6292.63 884.291  22
   5  -2  -5 27815.3 1662.46  34
   5  -2  -5 28220.9 1677.95  15
   5  -2  -5 24926.7 1716.42  31
   5  -2  -5 28433.4 1640.00  23
   5  -2  -5 27425.4 1792.98  22
   5  -2  -5 22380.4 2606.43   4
   5  -2  -4 25894.2 1575.18  34
   5  -2  -4 27632.9 1615.11  15
   5  -2  -4 26297.5 1746.05  31
   5  -2  -4 24800.3 1435.43  30
   5  -2  -4 26161.0 1586.80  23
   5  -2  -4 26116.7 1756.15  22
   5  -2  -4 23877.8 2713.41   4
   5  -2  -3 918.827 276.570  10
   5  -2  -3 453.778 395.654   4
   5  -2  -3 1328.17 377.393  34
   5  -2  -3 1200.80 354.558  15
   5  -2  -3 993.249 345.053  31
   5  -2  -3 969.834 318.665  30
   5  -2  -3 326.431 206.233  25
   5  -2  -3 705.929 330.406  23
   5  -2  -3 997.185 387.834  22
   5  -2  -2-220.587 149.046  10
   5  -2  -2 172.599 181.536  34
   5  -2  -2-130.387 257.407   4
   5  -2  -2-45.5986 164.949  31
   5  -2  -2-207.698 316.598  25
   5  -2  -2 152.023 211.605  23
   5  -2  -1 5259.43 1305.55   4
   5  -2  -1 6072.88 713.711  34
   5  -2  -1 6379.11 842.871  14
   5  -2  -1 6232.41 827.419  31
   5  -2  -1 6537.25 720.844   7
   5  -2  -1 6833.45 825.270  25
   5  -2  -1 5936.27 750.797  10
   5  -2   0 21709.3 1525.39  10
   5  -2   0 21038.7 1411.06  18
   5  -2   0 22105.1 1530.22  16
   5  -2   0 21739.0 1394.15   7
   5  -2   0 21479.3 1365.42  34
   5  -2   0 23645.4 1667.54  14
   5  -2   0 21536.5 1613.21  31
   5  -2   0 23994.5 1574.53  25
   5  -2   1 2867.92 552.009  10
   5  -2   1 2492.18 512.019  18
   5  -2   1 2475.69 546.079  16
   5  -2   1 2753.25 584.044  14
   5  -2   1 2999.25 532.576   7
   5  -2   1 2635.23 586.453  25
   5  -2   2 8224.40 983.086  10
   5  -2   2 8383.85 921.760  18
   5  -2   2 7905.34 949.697  16
   5  -2   2 9420.55 1119.30  14
   5  -2   2 7660.10 848.160   7
   5  -2   2 7864.37 977.481  25
   5  -2   3 3293.98 646.376  10
   5  -2   3 3076.28 567.624  18
   5  -2   3 3056.62 638.403  16
   5  -2   3 3661.93 726.331  14
   5  -2   3 2949.46 529.577   7
   5  -2   3 2629.82 645.089  25
   5  -2   4 2756.49 605.716  10
   5  -2   4 2473.83 517.210  18
   5  -2   4 2232.53 541.733  16
   5  -2   4 3242.28 716.705  14
   5  -2   4 3463.72 596.098   7
   5  -2   5 752.386 305.300  10
   5  -2   5 874.382 384.130  16
   5  -2   5 489.457 266.826  32
   5  -2   5 739.239 303.811   7
   5  -2   6 495.375 266.048  10
   5  -2   6 216.334 262.172  16
   5  -2   6 387.922 198.798   7
   5  -2   6 341.906 208.609  32
   5  -2   7 909.494 346.074  16
   5  -2   7 663.802 296.658  32
   5  -2   7 711.327 260.311   7
   5  -2   8 947.100 345.840  16
   5  -2   8 1836.52 424.047  32
   5  -2   8 1849.41 377.971   7
   5  -2   9 1041.38 253.300  16
   5  -2   9 1793.50 361.157  32
   5  -2   9 1455.81 283.671   7
   5  -2   9 731.438 228.538  21
   5  -2  10 999.379 206.008  21
   5  -1 -13-23.2869 89.5451  29
   5  -1 -13-319.792 180.028  25
   5  -1 -12 12385.7 994.327  29
   5  -1 -11 4260.95 651.600  29
   5  -1 -10 7041.59 907.473  17
   5  -1 -10 6524.32 859.876  29
   5  -1 -10 7608.97 812.198  22
   5  -1  -9 3766.54 678.853  17
   5  -1  -9 3098.05 598.051  29
   5  -1  -9 5178.14 719.919  22
   5  -1  -8 2874.01 574.904  17
   5  -1  -8 5167.62 751.056  34
   5  -1  -8 3361.09 678.357  31
   5  -1  -8 2989.25 590.358  29
   5  -1  -8 3985.79 682.905  22
   5  -1  -7 457.510 186.986  17
   5  -1  -7 524.846 259.201  31
   5  -1  -7 965.795 351.606  34
   5  -1  -7 548.098 272.766  29
   5  -1  -7 619.991 363.993  22
   5  -1  -6 8208.77 1511.99   4
   5  -1  -6 10618.1 1018.24  34
   5  -1  -6 9001.04 962.436  23
   5  -1  -6 9319.54 1041.17  22
   5  -1  -6 9520.66 1145.70  31
   5  -1  -5 10202.7 1004.46  34
   5  -1  -5 10301.0 1194.82  31
   5  -1  -5 10035.0 1021.50  23
   5  -1  -5 10892.1 1118.93  22
   5  -1  -5 8872.98 1613.35   4
   5  -1  -4 11226.5 1024.15  34
   5  -1  -4 10888.1 1202.92  31
   5  -1  -4 10378.3 1072.59  25
   5  -1  -4 11032.6 1066.51  23
   5  -1  -4 11610.8 1170.75  22
   5  -1  -4 9471.48 1670.66   4
   5  -1  -3 2004.51 438.539  10
   5  -1  -3 1342.31 398.867  34
   5  -1  -3 2166.26 852.358   4
   5  -1  -3 2104.77 522.716  31
   5  -1  -3 1055.77 358.199  25
   5  -1  -3 2116.15 472.562  23
   5  -1  -2 604.940 330.406  34
   5  -1  -2 541.581 206.242  10
   5  -1  -2 82.3638 271.098  14
   5  -1  -2 783.535 366.492  31
   5  -1  -2 557.767 336.811  25
   5  -1  -2 710.985 365.687  23
   5  -1  -2 1187.51 607.207   4
   5  -1  -1 4954.38 707.860  10
   5  -1  -1 6301.31 777.617  34
   5  -1  -1 5489.23 805.847  14
   5  -1  -1 5798.94 855.813  31
   5  -1  -1 5798.79 786.989  25
   5  -1  -1 4934.32 726.806  23
   5  -1   0 10469.5 1074.73  10
   5  -1   0 10667.7 1174.75  14
   5  -1   0 11817.8 1239.63  31
   5  -1   0 11712.5 1039.13   7
   5  -1   0 9697.42 1018.50  25
   5  -1   1 1360.86 353.500  10
   5  -1   1 617.941 283.871  18
   5  -1   1 1105.96 417.184  14
   5  -1   1 1109.60 320.983   7
   5  -1   1 1265.25 462.788  25
   5  -1   2 5026.76 803.789  10
   5  -1   2 5243.41 747.815  18
   5  -1   2 5675.75 925.586  14
   5  -1   2 5049.01 698.589   7
   5  -1   2 5204.47 838.562  25
   5  -1   3 21798.6 1677.25  10
   5  -1   3 23297.6 1547.95  18
   5  -1   3 24151.7 1874.11  14
   5  -1   3 24898.5 1607.56   7
   5  -1   4 11898.8 1228.69  10
   5  -1   4 12998.7 1129.08  18
   5  -1   4 14335.9 1445.14  14
   5  -1   4 13224.4 1168.44   7
   5  -1   5 3652.97 679.899  10
   5  -1   5 4611.63 826.243  14
   5  -1   5 2920.91 544.837  32
   5  -1   5 3875.49 640.086   7
   5  -1   6 354.765 222.872  10
   5  -1   6 125.247 253.251  16
   5  -1   6 263.712 180.021  32
   5  -1   6 256.210 241.791   7
   5  -1   7 571.272 223.624  16
   5  -1   7 715.061 224.187  32
   5  -1   7 779.803 267.498   7
   5  -1   8 3833.97 566.535  32
   5  -1   8 4516.12 545.550   7
   5  -1   9 1416.60 310.288  32
   5  -1  10 469.987 132.775  21
   5   0 -13 1464.22 285.640  29
   5   0 -13 957.787 184.811  25
   5   0 -12 2018.50 414.806  29
   5   0 -11 3806.84 570.729  31
   5   0 -11 5607.88 771.899  29
   5   0 -10 674.863 343.051  31
   5   0 -10 1417.67 445.871  29
   5   0  -9 508.573 328.247  31
   5   0  -9 240.975 220.663  29
   5   0  -8 206.342 261.030  31
   5   0  -8 142.455 136.199  29
   5   0  -8 386.011 321.953  23
   5   0  -7 4448.34 848.072  31
   5   0  -7 4551.27 752.354  29
   5   0  -7 5237.93 765.336  23
   5   0  -6 19903.2 1771.41  31
   5   0  -6 16779.5 1392.91  29
   5   0  -6 21582.3 1598.55  23
   5   0  -5 35783.1 2406.47  31
   5   0  -5 30274.6 1901.07  25
   5   0  -5 35469.7 2097.13  23
   5   0  -4 414.796 375.929  31
   5   0  -4 199.205 189.241  25
   5   0  -4 868.538 391.720  23
   5   0  -3 2009.25 419.841  10
   5   0  -3 4092.37 675.295  34
   5   0  -3 2011.67 594.868  31
   5   0  -3 2215.34 506.977  25
   5   0  -3 2097.92 483.865  23
   5   0  -3 2765.29 478.282   5
   5   0  -2 2977.55 544.171  10
   5   0  -2 2223.40 510.096  14
   5   0  -2 3279.31 703.468  31
   5   0  -2 2972.46 572.483  25
   5   0  -2 2364.62 583.097  23
   5   0  -2 2722.17 471.077   5
   5   0  -1 35886.5 2229.96  14
   5   0  -1 39231.2 2388.09  31
   5   0  -1 36231.0 1996.00  25
   5   0  -1 37372.1 2106.70  23
   5   0   0 2536.12 658.377  31
   5   0   0 2792.43 622.625  14
   5   0   0 1898.26 479.288  25
   5   0   0 3001.34 637.921  23
   5   0   1 125.382 148.645  18
   5   0   1 136.065 196.273  14
   5   0   1 329.111 204.104   7
   5   0   1 596.220 437.605  25
   5   0   2 6587.41 817.512  18
   5   0   2 6483.38 986.802  14
   5   0   2 6237.40 799.497   7
   5   0   2 5059.22 796.593  25
   5   0   3 8614.97 930.689  18
   5   0   3 8723.32 1160.72  14
   5   0   3 9073.35 972.079   7
   5   0   4 1813.55 429.374  18
   5   0   4 1765.72 535.505  14
   5   0   4 1617.23 426.637   7
   5   0   5 1422.37 427.909  10
   5   0   5 2492.66 623.711  14
   5   0   5 1932.27 459.141   7
   5   0   6 42.9448 149.978  10
   5   0   6 111.697 124.926   7
   5   0   7 1748.49 422.741  32
   5   0   8 729.733 257.689  32
   5   0   9 319.831 146.134  32
   5   1 -13 1363.02 289.661  29
   5   1 -12 1502.52 299.638  31
   5   1 -12 2393.71 458.460  29
   5   1 -12 1510.95 266.323  25
   5   1 -11 4606.37 660.222  31
   5   1 -11 5495.58 763.909  29
   5   1 -11 3769.61 511.142  25
   5   1 -10 4631.07 782.417  31
   5   1 -10 3952.20 703.187  29
   5   1  -9 679.904 370.989  31
   5   1  -9 686.108 333.444  29
   5   1  -9 609.412 271.035  23
   5   1  -8 5404.12 948.967  31
   5   1  -8 6794.85 945.835  29
   5   1  -8 8008.45 959.124  23
   5   1  -7 1184.08 407.709  29
   5   1  -7 1923.08 592.679  31
   5   1  -7 636.850 226.074  25
   5   1  -7 1959.43 507.443  23
   5   1  -6 5156.04 930.368  31
   5   1  -6 5010.81 773.633  29
   5   1  -6 3965.51 644.859  25
   5   1  -6 5421.36 847.336  23
   5   1  -5 789.189 422.097  31
   5   1  -5 308.707 286.736  29
   5   1  -5-386.987 326.090  25
   5   1  -5 293.895 352.980  23
   5   1  -4 5228.15 939.687  31
   5   1  -4 5410.80 718.130  25
   5   1  -4 4742.78 773.928  23
   5   1  -4 5458.62 694.630   5
   5   1  -3 18717.1 1553.03  14
   5   1  -3 22441.4 1860.76  31
   5   1  -3 21817.6 1448.32  25
   5   1  -3 20249.2 1606.55  23
   5   1  -3 19561.1 1400.90   5
   5   1  -2 18645.3 1611.29  14
   5   1  -2 22185.5 1814.82  31
   5   1  -2 20483.9 1473.08  25
   5   1  -2 20949.4 1565.82  23
   5   1  -2 19115.0 1409.44   5
   5   1  -1 19384.1 1701.18  14
   5   1  -1 21354.4 1818.56  31
   5   1  -1 18293.4 1380.08  25
   5   1  -1 19717.0 1432.85   5
   5   1  -1 20378.9 1599.23  23
   5   1   0 2603.86 657.334  14
   5   1   0 2038.04 583.764  31
   5   1   0 2209.30 560.473  25
   5   1   0 2074.25 520.901  23
   5   1   1 1635.86 506.778  14
   5   1   1 1268.03 420.676  25
   5   1   2 12044.9 1096.23  18
   5   1   2 11479.8 1370.16  14
   5   1   3 9855.59 944.310  18
   5   1   3 8759.36 1243.89  14
   5   1   4 763.032 425.370  14
   5   1   5 1920.56 571.881  14
   5   1   6 6932.73 852.338  10
   5   1   6 8158.46 831.644  33
   5   1   6 8617.68 1000.42  14
   5   1   7 9084.27 807.696  33
   5   1   7 7616.93 699.914   5
   5   1   8 7415.38 659.697  32
   5   1   9 1728.07 245.845  32
   5   2 -12 3654.67 495.305  31
   5   2 -12 5087.00 629.764  29
   5   2 -11 123.663 197.080  31
   5   2 -11 288.254 182.462  29
   5   2 -10 590.078 322.341  31
   5   2 -10 421.769 282.525  29
   5   2 -10 376.418 184.478  25
   5   2 -10 569.497 204.359  23
   5   2  -9 307.489 322.856  31
   5   2  -9 346.113 251.878  29
   5   2  -9 178.104 145.694  25
   5   2  -9 638.769 308.778  23
   5   2  -8 1373.87 542.385  31
   5   2  -8 1639.59 499.856  29
   5   2  -8 1527.69 371.493  25
   5   2  -8 2019.49 515.831  23
   5   2  -7 35066.1 2485.70  31
   5   2  -7 33664.3 2196.62  29
   5   2  -7 39794.8 1904.70  25
   5   2  -7 31375.2 2082.11  23
   5   2  -6 1145.00 513.547  31
   5   2  -6 1154.83 419.544  29
   5   2  -6 1294.32 405.297  25
   5   2  -6 1169.40 425.100  23
   5   2  -5 831.179 488.000  31
   5   2  -5 590.059 256.555  29
   5   2  -5 577.943 273.600  25
   5   2  -5 601.321 351.326  23
   5   2  -4 2251.82 684.177  31
   5   2  -4 2262.55 504.062  25
   5   2  -4 2146.83 565.833  23
   5   2  -3 4780.75 812.455  14
   5   2  -3 4608.78 866.645  31
   5   2  -3 5942.63 746.312  25
   5   2  -3 4461.12 773.680  23
   5   2  -3 5030.03 734.652   5
   5   2  -2 6237.70 978.389  31
   5   2  -2 5022.89 898.077  14
   5   2  -2 4874.41 699.761  25
   5   2  -2 5245.51 796.766  23
   5   2  -2 5623.34 767.952   5
   5   2  -1 777.374 457.322  14
   5   2  -1 178.332 194.469  31
   5   2  -1 908.380 376.848  25
   5   2  -1 254.182 227.941  23
   5   2  -1 248.652 188.755   5
   5   2   0 11171.5 1366.74  14
   5   2   0 11150.8 1263.26  31
   5   2   0 7610.03 911.256  25
   5   2   0 10665.4 1098.01  23
   5   2   0 11233.1 1095.28   5
   5   2   1 38131.6 2581.94  14
   5   2   1 38693.6 2098.20   5
   5   2   2 11078.1 1012.14  18
   5   2   2 12340.5 1437.66  14
   5   2   2 11717.9 1095.75   5
   5   2   3 81.9179 292.120  14
   5   2   3 246.684 175.370   5
   5   2   4 170.595 271.713  14
   5   2   4 202.299 147.326   5
   5   2   5 150.454 200.015  14
   5   2   5-42.1731 93.9040   5
   5   2   6 765.287 246.556  10
   5   2   6 897.573 262.179  33
   5   2   6 1286.28 360.786  14
   5   2   6 723.415 223.523   5
   5   2   7 8087.53 681.239  33
   5   2   7 5972.78 596.803  32
   5   2   8 726.691 178.364  32
   5   3 -12 1487.39 304.112  31
   5   3 -11 121.409 158.003  31
   5   3 -11-4.12469 120.287  29
   5   3 -11 387.499 170.716  23
   5   3 -10 4623.93 748.637  31
   5   3 -10 5238.67 766.571  29
   5   3 -10 4926.63 620.435  23
   5   3  -9 852.170 377.856  31
   5   3  -9 1022.47 368.884  29
   5   3  -9 824.664 326.718  23
   5   3  -9 362.695 206.647  11
   5   3  -8 936.089 432.206  31
   5   3  -8 936.154 361.488  29
   5   3  -8 720.191 361.905  23
   5   3  -8 1076.00 332.643  11
   5   3  -7 741.925 338.229  31
   5   3  -7 557.297 312.134  29
   5   3  -7-170.250 298.245  23
   5   3  -7 607.713 279.124  11
   5   3  -6 1731.24 605.510  31
   5   3  -6 1443.05 506.003  23
   5   3  -5 15170.6 1570.81  31
   5   3  -5 12418.7 1332.94  23
   5   3  -4 3626.73 709.291  14
   5   3  -4 3270.23 725.851  31
   5   3  -4 3346.86 725.239  23
   5   3  -3 797.808 371.398  14
   5   3  -3 998.927 420.627  31
   5   3  -3 624.301 351.361  23
   5   3  -3 962.781 314.646   5
   5   3  -2 1952.11 541.096  31
   5   3  -2 1329.29 476.472  14
   5   3  -2 2061.36 463.936  25
   5   3  -2 1662.67 492.584  23
   5   3  -2 1674.71 441.857   5
   5   3  -1 1548.93 500.380  31
   5   3  -1 1504.96 517.166  14
   5   3  -1 1238.05 357.444  25
   5   3  -1 1461.54 454.284  23
   5   3  -1 1990.69 486.110   5
   5   3   0 5353.90 824.194  31
   5   3   0 4551.68 887.349  14
   5   3   0 4882.20 719.470  23
   5   3   0 5004.01 727.497   5
   5   3   1 2963.19 762.343  14
   5   3   1 3746.57 617.563   5
   5   3   2 68.7590 270.136  14
   5   3   2 270.681 176.106   5
   5   3   3 244.495 269.745  14
   5   3   3 446.030 227.627   5
   5   3   4 4310.09 774.772  14
   5   3   4 4371.86 578.227   5
   5   3   5 781.116 235.674  33
   5   3   5 925.634 306.852  14
   5   3   5 625.622 217.289   5
   5   3   6 121.152 94.1056  10
   5   3   6 576.663 188.673  33
   5   3   7 444.761 130.625  32
   5   4 -12 868.972 196.940  31
   5   4 -11 722.049 258.004  31
   5   4 -11 384.593 192.227  23
   5   4 -10 373.398 252.663  31
   5   4 -10-10.0843 144.771  23
   5   4 -10 36.8879 86.2347  11
   5   4  -9 1219.57 416.886  31
   5   4  -9 1048.78 333.776  23
   5   4  -9 284.816 175.228  11
   5   4  -8 753.611 349.250  31
   5   4  -8 555.810 321.227  23
   5   4  -8 846.581 291.064  11
   5   4  -7 3933.87 782.769  31
   5   4  -7 3177.53 632.860  23
   5   4  -7 3538.35 644.407  11
   5   4  -6 11332.8 1289.72  31
   5   4  -6 10596.0 1164.80  23
   5   4  -6 10507.0 1128.54  11
   5   4  -5 4174.73 772.073  31
   5   4  -5 3215.87 655.994  23
   5   4  -5 3149.09 627.227  11
   5   4  -4 585.177 372.405  31
   5   4  -4 692.579 353.850  14
   5   4  -4 400.966 301.797  23
   5   4  -3 5468.62 867.550  31
   5   4  -3 4750.69 873.475  14
   5   4  -3 4590.17 841.417  24
   5   4  -3 6314.91 851.935  23
   5   4  -2 408.301 260.635  31
   5   4  -2 485.522 348.871  14
   5   4  -2 418.413 263.270  24
   5   4  -2 311.384 250.887  23
   5   4  -1 4373.32 728.294  31
   5   4  -1 3802.28 788.801  14
   5   4  -1 3437.05 705.409  24
   5   4  -1 4126.50 669.106  23
   5   4  -1 4273.96 668.002   5
   5   4   0 10824.9 1358.03  14
   5   4   0 10131.2 1003.90   5
   5   4   1 419.653 274.555  14
   5   4   1 254.571 159.578   5
   5   4   2 947.395 433.317  14
   5   4   2 1173.73 310.792   5
   5   4   3 1928.60 499.802  14
   5   4   3 2127.69 395.861   5
   5   4   4 389.049 223.886  14
   5   4   4 388.567 159.189   5
   5   4   5 23.9803 107.483  14
   5   4   6 114.672 98.3861  10
   5   5 -11 2569.99 347.576  31
   5   5 -10 1187.84 297.953  31
   5   5 -10 1157.33 273.959  23
   5   5  -9 230.124 195.420  31
   5   5  -9-248.956 223.184  23
   5   5  -9 45.1432 87.8416  11
   5   5  -8 176.177 139.298  31
   5   5  -8 45.2556 180.895  23
   5   5  -8 561.993 230.246  11
   5   5  -7 1845.66 469.500  31
   5   5  -7 1781.32 456.266  23
   5   5  -7 2939.61 552.340  11
   5   5  -6 5290.07 749.640  31
   5   5  -6 3883.86 666.884  24
   5   5  -6 3995.25 665.477  23
   5   5  -5 47.7938 162.531  31
   5   5  -5-239.515 235.607  24
   5   5  -5 420.540 219.598  23
   5   5  -4 987.205 354.848  31
   5   5  -4 1120.29 397.716  14
   5   5  -4 1340.77 428.841  24
   5   5  -4 1326.92 413.340  23
   5   5  -3 3609.26 605.033  31
   5   5  -3 3076.05 666.899  14
   5   5  -3 3248.45 653.469  24
   5   5  -3 3255.64 581.455  23
   5   5  -2 8087.99 1104.73  14
   5   5  -2 11693.9 1014.84  31
   5   5  -2 8180.42 1042.69  24
   5   5  -2 11135.4 947.199  23
   5   5  -1 788.636 371.240  14
   5   5   0 1051.89 438.948  14
   5   5   1 2132.82 566.697  14
   5   5   2 3846.40 669.127  14
   5   5   3 2634.30 481.960  14
   5   5   4 1612.83 322.449  14
   5   5   5 559.461 156.622  10
   5   6  -9 1458.11 265.952  31
   5   6  -9 1949.82 314.831  23
   5   6  -8 5808.05 574.945  31
   5   6  -8 6432.06 615.090  23
   5   6  -7 2362.04 385.193  31
   5   6  -7 1663.86 336.200  24
   5   6  -7 2958.70 439.140  23
   5   6  -6 3304.39 466.419  31
   5   6  -6 2844.08 485.217  24
   5   6  -6 2962.25 455.621  23
   5   6  -5 945.787 283.046  14
   5   6  -5 1126.44 267.990  31
   5   6  -5 985.841 328.130  24
   5   6  -5 832.792 282.660  23
   5   6  -4 6061.77 741.190  14
   5   6  -4 5959.19 775.309  24
   5   6  -4 5836.78 635.568  23
   5   6  -3 1664.05 420.511  14
   5   6  -3 1397.07 384.655  24
   5   6  -3 1392.54 298.486  23
   5   6  -2 1616.22 452.643  14
   5   6  -2 1204.48 363.453  24
   5   6  -1 752.116 321.528  14
   5   6   0 3232.66 574.929  14
   5   6   1 3308.68 548.131  14
   5   6   2 1055.54 271.992  14
  -5  -6  -2 778.593 173.476  26
   5   6   3 225.748 121.065  14
   5   7  -7 439.524 140.229  23
   5   7  -6 289.755 87.6301  24
   5   7  -6 554.092 161.648  23
   5   7  -5 784.417 223.240  24
   5   7  -4 2039.51 337.002  14
   5   7  -4 2519.22 405.231  24
   5   7  -3 1726.82 341.370  14
   5   7  -2 414.170 199.313  14
   5   7  -1 597.437 206.182  14
   5   7   0 4140.60 481.644  14
   5   7   1 2485.99 328.004  14
   6 -10  -3 111.175 63.4312  34
   6 -10  -2 576.854 141.036  34
   6 -10  -2 521.728 115.995  28
   6 -10  -1 3442.71 347.216  28
   6 -10   0 7144.58 518.153  28
   6 -10   1 1767.95 250.139  28
   6 -10   2-50.2932 115.213  28
   6 -10   3 197.756 57.7834  28
   6  -9  -6 3159.21 327.030  34
   6  -9  -5 600.308 168.635  34
   6  -9  -4 510.273 182.060  34
   6  -9  -3 1884.88 336.528  34
   6  -9  -3 1622.16 256.386  28
   6  -9  -2 6293.22 609.642  34
   6  -9  -2 7111.20 592.113  28
   6  -9  -1 596.721 185.532  34
   6  -9  -1 593.342 181.840  28
   6  -9  -1 465.625 170.211  15
   6  -9   0 1628.79 301.426  15
   6  -9   0 925.395 183.612  28
   6  -9   1 885.844 220.616  15
   6  -9   2 1125.59 245.582  15
   6  -9   3 1494.95 270.237  15
   6  -9   4 1262.39 229.446  15
   6  -9   5 83.5708 63.1094  15
   6  -8  -7 5786.17 513.227  22
   6  -8  -7 6629.28 523.076  34
   6  -8  -6 1618.93 314.793  34
   6  -8  -6 1126.71 259.459  22
   6  -8  -5 2629.07 427.497  34
   6  -8  -5 2223.35 377.965  22
   6  -8  -4 457.524 202.458  34
   6  -8  -4 396.496 137.208  28
   6  -8  -3 384.912 193.013  34
   6  -8  -3 571.199 236.361  28
   6  -8  -2 2543.28 458.466  15
   6  -8  -2 2019.64 344.328  28
   6  -8  -2 1475.10 370.447  34
   6  -8  -1 1370.73 343.384  15
   6  -8  -1 1409.33 335.048  34
   6  -8  -1 861.947 170.575  28
   6  -8   0 587.505 205.835  34
   6  -8   0 494.810 211.815  15
   6  -8   1 7280.94 781.385  15
   6  -8   2 1923.10 412.959  15
   6  -8   2 2309.42 430.003  27
   6  -8   3 665.800 255.439  15
   6  -8   3 1078.77 293.445  27
   6  -8   4 165.397 97.1195  15
   6  -8   4-25.4505 72.0310  27
   6  -8   5 212.430 129.725  15
   6  -8   5 405.692 177.818  27
   6  -8   6 3309.74 361.233  15
   6  -8   6 3739.16 391.371  27
   6  -7  -9 1366.40 233.848  22
   6  -7  -8 715.980 183.954  34
   6  -7  -8 788.972 235.409  22
   6  -7  -7 887.602 241.945  34
   6  -7  -7 743.873 269.107  22
   6  -7  -6 1662.32 365.110  34
   6  -7  -6 1436.72 355.559  22
   6  -7  -5 8231.89 838.619  34
   6  -7  -5 7760.63 850.268  22
   6  -7  -4 1409.21 385.523  34
   6  -7  -4 1781.98 422.676  22
   6  -7  -3 4363.81 646.051  34
   6  -7  -3 5670.81 710.643  15
   6  -7  -2 350.576 184.004  34
   6  -7  -2 338.357 199.703  15
   6  -7  -2-25.5003 199.940  28
   6  -7  -1 887.019 291.650  34
   6  -7  -1 1261.35 359.314  15
   6  -7   0 4253.36 669.086  15
   6  -7   0 4143.62 566.796  34
   6  -7   0 5821.05 752.003  30
   6  -7   1 3599.69 598.706  15
   6  -7   1 4481.47 615.971  30
   6  -7   1 4226.05 614.433  27
   6  -7   1 4844.27 645.808  21
   6  -7   2 452.873 207.519  30
   6  -7   2 541.242 214.068  27
   6  -7   2 341.035 198.652  21
   6  -7   3 493.596 206.383  30
   6  -7   3 35.0601 123.640  27
   6  -7   3 430.218 217.301  21
   6  -7   4 3846.71 457.538  30
   6  -7   4 3027.54 492.275  27
   6  -7   4 4067.40 562.474  21
   6  -7   5 2593.38 427.494  27
   6  -7   5 5217.73 590.820  21
   6  -7   6-124.801 101.065  27
   6  -7   6 73.1819 81.6734  21
   6  -7   7 367.983 129.918  21
   6  -6  -9 1206.95 200.979  34
   6  -6  -9 964.583 265.738  22
   6  -6  -8 1060.05 268.289  34
   6  -6  -8 483.521 153.184  25
   6  -6  -8 724.133 283.946  22
   6  -6  -7 488.038 223.426  34
   6  -6  -7 388.565 202.208  25
   6  -6  -7 483.155 269.145  22
   6  -6  -6 2270.46 483.597  34
   6  -6  -6 1784.48 351.635  25
   6  -6  -6 1511.54 418.788  22
   6  -6  -5 538.070 234.311  34
   6  -6  -5 254.261 195.163  25
   6  -6  -5 647.097 328.878  22
   6  -6  -4 93.1962 169.328  34
   6  -6  -4 121.393 190.427  15
   6  -6  -4 340.693 272.197  22
   6  -6  -3 254.806 197.141  34
   6  -6  -3 493.626 217.135  15
   6  -6  -3 753.594 335.406  22
   6  -6  -2 2719.44 515.453  34
   6  -6  -2 3012.29 541.990  15
   6  -6  -2 3182.69 556.433  30
   6  -6  -1 14070.8 1161.99  34
   6  -6  -1 16199.8 1305.46  15
   6  -6  -1 18390.2 1344.81  30
   6  -6  -1 18355.4 1380.68  10
   6  -6   0 11388.6 995.092  34
   6  -6   0 12217.0 1136.40  15
   6  -6   0 13856.6 1160.60  30
   6  -6   0 13931.6 1094.00  21
   6  -6   0 13913.2 1192.38  10
   6  -6   1 784.313 340.671  10
   6  -6   1 732.723 285.242  30
   6  -6   1 1015.15 322.298  21
   6  -6   2-91.3239 151.338  10
   6  -6   2 104.954 134.093  30
   6  -6   2 270.554 168.241  27
   6  -6   2 93.5708 116.746  21
   6  -6   3 152.230 183.910  10
   6  -6   3 201.319 166.210  30
   6  -6   3 337.864 196.362  27
   6  -6   3 196.682 163.411  21
   6  -6   4 4583.85 544.579   7
   6  -6   4 6449.92 686.890  30
   6  -6   4 4485.45 624.313  27
   6  -6   4 7732.42 813.366  21
   6  -6   4 8907.80 836.363  10
   6  -6   5 7151.53 666.099   7
   6  -6   5 8718.34 700.978  30
   6  -6   5 5394.27 652.351  27
   6  -6   5 10465.9 918.991  21
   6  -6   6 1101.14 258.953   7
   6  -6   6 704.892 215.298  27
   6  -6   6 1463.18 329.576  21
   6  -6   7 166.470 94.6845  27
   6  -6   7 158.540 102.448  21
   6  -5 -10 9533.99 622.469  25
   6  -5 -10 13136.2 834.232  22
   6  -5  -9 13028.5 783.883  34
   6  -5  -9 12339.4 971.849  22
   6  -5  -8 198.131 176.057  34
   6  -5  -8 140.048 158.233  25
   6  -5  -8 131.300 161.368  22
   6  -5  -7 2588.70 479.647  25
   6  -5  -7 1934.95 496.577  22
   6  -5  -6 4889.79 700.316  34
   6  -5  -6 3881.03 593.319  25
   6  -5  -6 4327.97 723.694  22
   6  -5  -5 7228.76 871.359  34
   6  -5  -5 6582.31 795.369  25
   6  -5  -5 6277.42 888.254  22
   6  -5  -4 769.415 283.147  34
   6  -5  -4 1661.39 431.510  15
   6  -5  -4 1329.68 379.000  25
   6  -5  -4 1183.36 402.423  22
   6  -5  -3-4.69676 167.261  10
   6  -5  -3 8.96439 148.771  34
   6  -5  -3 63.5689 109.914  15
   6  -5  -3-148.754 149.897  30
   6  -5  -3 421.633 260.196  25
   6  -5  -3 451.892 262.313  22
   6  -5  -2 6495.65 684.559  18
   6  -5  -2 6263.65 793.942  34
   6  -5  -2 7226.34 869.877  15
   6  -5  -2 7384.93 858.724  30
   6  -5  -2 7818.66 847.419  25
   6  -5  -2 7422.47 868.341  10
   6  -5  -1 5855.94 688.204  18
   6  -5  -1 5152.94 705.027  34
   6  -5  -1 6727.33 835.766  15
   6  -5  -1 6798.31 835.092  30
   6  -5  -1 6505.15 752.835  25
   6  -5  -1 7057.62 724.804  21
   6  -5  -1 7288.93 860.363  10
   6  -5   0 2952.76 562.224  10
   6  -5   0 2065.98 430.766  18
   6  -5   0 2566.85 480.740  34
   6  -5   0 3371.56 581.755  30
   6  -5   0 3907.55 597.656  25
   6  -5   0 3139.71 518.186  21
   6  -5   1 322.325 237.165  10
   6  -5   1 322.709 238.864  18
   6  -5   1 145.503 191.875  30
   6  -5   1 751.701 276.644  34
   6  -5   1-17.0587 167.328  25
   6  -5   1 280.823 213.082  21
   6  -5   2 1674.72 408.257  10
   6  -5   2 1054.53 337.733  30
   6  -5   2 1341.50 377.390  21
   6  -5   3 3902.33 551.656   7
   6  -5   3 5823.64 740.300  30
   6  -5   3 5187.14 723.503  21
   6  -5   3 5881.28 748.701  10
   6  -5   4 9977.49 1079.02  16
   6  -5   4 8762.24 875.681  30
   6  -5   4 9312.70 961.729  21
   6  -5   4 9288.50 881.838  10
   6  -5   5 3087.38 568.350  16
   6  -5   5 3526.51 509.825  30
   6  -5   5 2689.68 444.849   7
   6  -5   5 3642.09 578.388  21
   6  -5   5 3695.59 490.014  10
   6  -5   6 289.455 188.231  16
   6  -5   6 561.613 187.482  30
   6  -5   6 343.216 141.847   7
   6  -5   6 459.289 194.005  21
   6  -5   7 2609.01 435.482  16
   6  -5   7 3512.06 462.324  21
   6  -5   8 168.373 98.2470  21
   6  -4 -11 4761.59 419.229  25
   6  -4 -10 5547.41 576.976  25
   6  -4  -9 13.0827 150.143  25
   6  -4  -9 531.595 283.741  22
   6  -4  -8 9202.15 826.798  34
   6  -4  -8 7564.34 876.569  22
   6  -4  -7 8071.43 855.909  34
   6  -4  -7 5194.37 734.890  25
   6  -4  -7 6368.55 870.040  22
   6  -4  -6 1421.56 413.805  34
   6  -4  -6 499.466 230.850  25
   6  -4  -6 1329.79 448.861  22
   6  -4  -5 2448.24 530.526  34
   6  -4  -5 1946.54 466.296  25
   6  -4  -5 2360.30 558.708  22
   6  -4  -4 3314.20 505.879  10
   6  -4  -4 3434.24 606.899  15
   6  -4  -4 3087.27 578.434  34
   6  -4  -4 3536.05 563.618  30
   6  -4  -4 2993.30 594.053  25
   6  -4  -4 3331.39 682.154  22
   6  -4  -3 1690.73 383.857  10
   6  -4  -3 1755.00 369.772  18
   6  -4  -3 1553.61 422.288  34
   6  -4  -3 1884.15 423.303  15
   6  -4  -3 1767.94 429.808  30
   6  -4  -3 2119.21 506.151  25
   6  -4  -2 23227.7 1430.86  18
   6  -4  -2 22358.8 1513.00  34
   6  -4  -2 22305.2 1515.80  30
   6  -4  -2 25098.3 1641.96  25
   6  -4  -2 23303.2 1579.17  15
   6  -4  -2 24835.8 1574.91  10
   6  -4  -1 23221.1 1478.15  18
   6  -4  -1 21941.9 1480.52  34
   6  -4  -1 22971.1 1583.96  15
   6  -4  -1 22273.0 1542.11  30
   6  -4  -1 25382.1 1618.22  25
   6  -4  -1 26727.4 1683.44  10
   6  -4   0 412.290 200.008  10
   6  -4   0 625.433 262.351  18
   6  -4   0 657.738 308.004  34
   6  -4   0 827.359 279.187  30
   6  -4   0 810.861 338.144  25
   6  -4   0 214.656 112.477  21
   6  -4   1 1153.19 373.969  10
   6  -4   1 976.015 337.490  18
   6  -4   1 1707.19 431.281  34
   6  -4   1 1102.13 352.388  30
   6  -4   1 1528.61 358.705   7
   6  -4   1 924.253 325.574  25
   6  -4   1 1180.95 359.785  21
   6  -4   2 3768.65 618.649  10
   6  -4   2 2401.14 538.443  18
   6  -4   2 3031.01 510.342   7
   6  -4   2 3614.41 592.784  21
   6  -4   3-117.395 221.723  10
   6  -4   3-6.95824 191.481  16
   6  -4   3 247.790 146.456   7
   6  -4   3 50.8339 193.706  21
   6  -4   4 456.400 213.900  10
   6  -4   4 704.310 333.643  16
   6  -4   4 517.015 230.050   7
   6  -4   4 601.186 266.541  21
   6  -4   5 1154.57 296.297  10
   6  -4   5 439.506 300.128  16
   6  -4   5 1014.12 293.079   7
   6  -4   5 975.040 300.077  21
   6  -4   6 5226.31 688.274  16
   6  -4   6 5822.54 636.136   7
   6  -4   6 6250.69 732.825  21
   6  -4   6 6998.10 601.896  10
   6  -4   7 2312.80 402.256  16
   6  -4   7 3025.53 406.005   7
   6  -4   7 2164.90 313.787  30
   6  -4   7 2800.38 433.094  21
   6  -4   8 373.037 147.643  21
   6  -3 -11 2.21819 109.047  25
   6  -3 -10 670.964 226.171  25
   6  -3  -9 2106.72 424.767  25
   6  -3  -9 3865.68 598.232  22
   6  -3  -8 5287.21 751.317  22
   6  -3  -8 6022.05 736.686  34
   6  -3  -7 8169.15 885.069  34
   6  -3  -7 5953.36 805.872  25
   6  -3  -7 7311.46 949.304  22
   6  -3  -6 1116.70 381.153  34
   6  -3  -6 899.127 337.418  25
   6  -3  -6 1619.29 483.041  22
   6  -3  -5 73.7428 143.094  18
   6  -3  -5-59.0611 139.344  34
   6  -3  -5-465.764 345.747  25
   6  -3  -5 367.660 361.737  22
   6  -3  -4 2762.50 467.228  10
   6  -3  -4 2754.15 492.715  18
   6  -3  -4 2667.27 565.478  34
   6  -3  -4 2840.46 518.641  15
   6  -3  -4 2902.64 517.345  30
   6  -3  -4 2499.40 563.888  25
   6  -3  -3 14016.8 1158.15  18
   6  -3  -3 13645.5 1196.99  34
   6  -3  -3 15237.9 1207.64  15
   6  -3  -3 13421.4 1133.53  30
   6  -3  -3 14583.8 1299.35  25
   6  -3  -3 14594.4 1158.94  10
   6  -3  -2-50.7630 193.199  10
   6  -3  -2 296.373 212.863  18
   6  -3  -2 90.0683 149.132  34
   6  -3  -2 215.468 147.980  15
   6  -3  -2 154.338 160.474  30
   6  -3  -2 568.734 381.647  25
   6  -3  -1 1991.25 471.122  10
   6  -3  -1 1947.38 438.235  18
   6  -3  -1 2271.97 483.866  34
   6  -3  -1 1459.55 362.263  15
   6  -3  -1 2109.95 474.794  30
   6  -3  -1 1689.23 396.473  25
   6  -3   0 378.706 246.016  10
   6  -3   0 283.383 196.916  18
   6  -3   1 8484.02 944.334  18
   6  -3   1 9021.91 881.697   7
   6  -3   1 9542.37 1032.85  25
   6  -3   1 7134.44 825.892  21
   6  -3   1 9640.90 1048.66  10
   6  -3   2 2995.00 598.772  10
   6  -3   2 3272.38 569.323  18
   6  -3   2 3376.31 537.484   7
   6  -3   2 2651.42 622.593  25
   6  -3   2 2188.64 488.562  21
   6  -3   3 517.054 242.463  10
   6  -3   3 360.233 220.185  18
   6  -3   3 831.876 296.197  16
   6  -3   3 677.328 236.556   7
   6  -3   3 332.796 234.644  21
   6  -3   4 289.582 179.318  10
   6  -3   4 358.659 234.602  16
   6  -3   4 839.076 273.417   7
   6  -3   4 326.842 179.805  21
   6  -3   5 1088.40 294.237  10
   6  -3   5 463.596 235.356  16
   6  -3   5 1011.30 279.409   7
   6  -3   5 1063.12 321.574  21
   6  -3   6 1730.49 377.209  16
   6  -3   6 3579.06 484.827   7
   6  -3   6 2143.90 425.544  21
   6  -3   6 3508.81 432.381  10
   6  -3   7 696.531 212.286  16
   6  -3   7 1291.89 269.086   7
   6  -3   7 836.742 248.437  21
   6  -3   8 376.212 144.821  21
   6  -2 -11 141.296 123.944  25
   6  -2 -10 1841.49 370.067  25
   6  -2  -9 3928.67 587.222  25
   6  -2  -8 8055.10 954.362  25
   6  -2  -7 2021.60 520.904  34
   6  -2  -7 598.514 287.226  25
   6  -2  -6 1350.83 459.347  34
   6  -2  -6 893.660 292.498  31
   6  -2  -6 555.107 307.676  25
   6  -2  -5 359.973 170.038  31
   6  -2  -5-31.5031 249.603  25
   6  -2  -4 314.976 172.984  10
   6  -2  -4 636.753 364.408  34
   6  -2  -4 531.543 312.829  31
   6  -2  -4 307.759 178.707  30
   6  -2  -4 652.699 331.767  25
   6  -2  -3 1237.76 340.505  10
   6  -2  -3 977.700 323.689  18
   6  -2  -3 1376.91 416.721  31
   6  -2  -3 1162.46 343.362  30
   6  -2  -3 1654.93 489.602  25
   6  -2  -2 425.918 259.642  10
   6  -2  -2 583.095 284.444  18
   6  -2  -2 1415.37 480.151  34
   6  -2  -2 869.896 382.111  31
   6  -2  -2 385.353 285.648  30
   6  -2  -2 969.876 400.325  25
   6  -2  -1 29971.6 1841.79  18
   6  -2  -1 34422.7 2134.23  14
   6  -2  -1 33799.9 1987.74  25
   6  -2  -1 33625.8 1990.01  10
   6  -2   0 10121.5 1036.81  18
   6  -2   0 11257.6 1220.90  14
   6  -2   0 9560.54 1090.52  25
   6  -2   0 10567.0 1119.97  10
   6  -2   1 8596.28 973.936  18
   6  -2   1 9594.37 1209.50  14
   6  -2   1 9696.16 1065.00  25
   6  -2   1 6688.67 793.830  21
   6  -2   1 9796.75 1113.14  10
   6  -2   2 3839.64 633.053  18
   6  -2   2 4955.44 675.224   7
   6  -2   2 2827.28 552.977  21
   6  -2   2 4075.13 718.765  10
   6  -2   3 3374.90 604.232  18
   6  -2   3 4366.89 634.915   7
   6  -2   3 2946.27 534.408  21
   6  -2   3 3890.19 694.816  10
   6  -2   4 3407.64 549.408   7
   6  -2   4 3957.21 635.388  10
   6  -2   5 4903.40 623.499   7
   6  -2   5 3792.99 607.854  21
   6  -2   5 5253.29 657.651  10
   6  -2   6 2273.20 362.683  10
   6  -2   6 2965.18 444.075   7
   6  -2   6 2010.01 419.676  21
   6  -2   7 291.679 168.604  21
   6  -2   8-16.7349 60.2907  21
   6  -1 -11 30127.8 1328.17  25
   6  -1 -10 3074.10 476.778  25
   6  -1  -9 710.785 292.757  25
   6  -1  -8 1275.11 392.499  31
   6  -1  -8 1047.45 354.440  25
   6  -1  -7 1611.26 463.758  31
   6  -1  -7 823.798 317.692  25
   6  -1  -7 2109.82 459.959  23
   6  -1  -6 1179.62 398.374  31
   6  -1  -6 1029.73 331.305  25
   6  -1  -6 1179.34 345.381  23
   6  -1  -5 2648.75 611.541  31
   6  -1  -5 2234.48 518.424  25
   6  -1  -5 3215.86 631.128  23
   6  -1  -4 4171.94 764.955  31
   6  -1  -4 4251.16 691.488  25
   6  -1  -4 4022.62 713.880  23
   6  -1  -3 171.165 186.478  10
   6  -1  -3 176.420 185.398  31
   6  -1  -3 347.862 171.218  30
   6  -1  -3 578.799 345.904  25
   6  -1  -2 9504.29 1088.42  14
   6  -1  -2 8739.17 1087.80  31
   6  -1  -2 8843.63 981.769  25
   6  -1  -2 8611.89 977.202  10
   6  -1  -1 6806.09 884.408  18
   6  -1  -1 7972.83 1047.20  14
   6  -1  -1 7573.19 968.069  25
   6  -1  -1 9097.89 889.559   5
   6  -1  -1 7179.74 922.699  10
   6  -1   0 33997.1 2116.87  10
   6  -1   0 35658.7 2017.40  18
   6  -1   0 37488.6 2360.55  14
   6  -1   0 35818.5 2068.96  25
   6  -1   1 1550.86 443.135  10
   6  -1   1 1443.99 401.615  18
   6  -1   1 1410.22 511.726  14
   6  -1   1 766.580 313.785  25
   6  -1   2 1462.08 446.082  10
   6  -1   2 1529.62 417.449  18
   6  -1   2 1662.88 519.316  14
   6  -1   3 14562.8 1128.36  18
   6  -1   3 16567.5 1513.35  14
   6  -1   3 14842.4 1334.19  10
   6  -1   4 11922.9 957.227  18
   6  -1   4 8630.93 996.995  10
   6  -1   5 798.404 301.084  10
   6  -1   6-160.819 121.816  10
   6  -1   7 317.297 140.038  21
   6   0 -11 4716.03 452.012  25
   6   0 -10 6063.54 624.187  31
   6   0 -10 7113.50 684.960  29
   6   0 -10 7763.85 697.213  25
   6   0  -9 1760.60 389.643  31
   6   0  -9 1703.19 364.819  29
   6   0  -9 1615.43 368.963  25
   6   0  -8 969.899 391.038  31
   6   0  -8 1034.56 313.209  29
   6   0  -8 875.165 314.245  25
   6   0  -8 851.155 298.532  23
   6   0  -7 955.479 426.861  31
   6   0  -7 1066.54 363.723  25
   6   0  -7 1604.77 423.874  23
   6   0  -6 1470.66 493.830  31
   6   0  -6 1118.58 385.467  25
   6   0  -6 1762.81 481.546  23
   6   0  -5 429.843 310.061  31
   6   0  -5 161.782 250.438  25
   6   0  -5 96.4722 243.765  23
   6   0  -4 1306.81 499.262  31
   6   0  -4 1503.31 453.347  25
   6   0  -4 1302.17 421.793  23
   6   0  -3 68366.7 2992.84  14
   6   0  -3 74225.1 3443.66  31
   6   0  -3 71753.7 2922.60  25
   6   0  -3 70303.8 3130.02  23
   6   0  -3 66095.6 2767.02  10
   6   0  -2 19923.9 1511.23  10
   6   0  -2 21556.0 1689.40  14
   6   0  -2 22203.2 1822.93  31
   6   0  -2 19654.8 1487.46  25
   6   0  -2 21598.8 1410.84   5
   6   0  -1 29151.1 1924.19  10
   6   0  -1 29592.0 1866.57  18
   6   0  -1 32345.5 2162.86  14
   6   0  -1 33964.1 2226.70  31
   6   0  -1 30668.7 1855.42  25
   6   0  -1 29874.4 1732.80   5
   6   0   0 100.753 189.161  10
   6   0   0 203.858 213.266  18
   6   0   0 301.382 238.086  14
   6   0   0 357.272 300.154  25
   6   0   0 129.239 155.847   5
   6   0   1 590.725 334.685  10
   6   0   1 964.217 371.242  18
   6   0   1 860.877 444.432  14
   6   0   1 1277.35 546.255  25
   6   0   1 780.377 264.981   5
   6   0   2-122.770 146.288  10
   6   0   2 148.682 177.211  18
   6   0   2 127.988 168.799   5
   6   0   3 897.927 363.214  10
   6   0   3 644.971 253.867  18
   6   0   3 1170.91 473.775  14
   6   0   4 2347.67 496.290  10
   6   0   4 1829.79 504.382  14
   6   0   5 513.756 237.115  10
   6   0   5 443.063 180.892   5
   6   0   6 781.949 217.988  10
   6   0   6 1029.30 240.409   5
   6   0   7 420.480 146.949  21
   6   1 -11 286.944 121.116  31
   6   1 -10 22.5948 130.245  31
   6   1 -10 154.675 142.294  25
   6   1  -9 1655.97 406.691  31
   6   1  -9 1648.50 334.977  25
   6   1  -9 1865.44 369.970  23
   6   1  -8 8956.69 813.179  25
   6   1  -8 10593.4 987.003  23
   6   1  -7 1437.85 465.385  31
   6   1  -7 2057.98 421.455  25
   6   1  -7 2017.66 463.567  23
   6   1  -6 382.534 280.144  31
   6   1  -6 805.093 325.247  25
   6   1  -6 569.350 349.074  23
   6   1  -5 1166.56 472.265  31
   6   1  -5 2195.33 498.092  25
   6   1  -5 1554.14 463.856  23
   6   1  -4 423.765 260.006  31
   6   1  -4 317.027 238.149  25
   6   1  -4 1014.24 441.537  23
   6   1  -3 2218.87 462.718  10
   6   1  -3 2246.69 538.789  14
   6   1  -3 2732.80 641.904  31
   6   1  -3 1907.81 483.771  25
   6   1  -3 2009.64 531.141  23
   6   1  -3 2905.59 501.883   5
   6   1  -2 41809.5 2249.64  10
   6   1  -2 41393.7 2454.47  14
   6   1  -2 47072.0 2686.49  31
   6   1  -2 46052.2 2193.02  25
   6   1  -2 47097.0 2450.01  23
   6   1  -2 46099.3 2181.95   5
   6   1  -1 183.219 190.677  10
   6   1  -1 535.565 346.308  31
   6   1  -1 535.408 346.242  14
   6   1  -1 468.193 330.347  25
   6   1  -1 284.818 183.750   5
   6   1   0-24.8331 225.011  10
   6   1   0 196.677 145.741  18
   6   1   0-223.306 296.174  14
   6   1   0-15.1580 248.424  25
   6   1   0 86.1148 156.084   5
   6   1   1 311.027 203.299  10
   6   1   1 267.378 186.776  18
   6   1   1 79.2523 248.348  14
   6   1   1 273.594 196.139   5
   6   1   2 1584.52 445.741  10
   6   1   2 1943.72 404.725  18
   6   1   2 2006.42 533.993  14
   6   1   2 2187.12 443.252   5
   6   1   3 1698.30 474.622  10
   6   1   3 1746.09 311.738  18
   6   1   3 1938.25 512.712  14
   6   1   3 1837.62 384.145   5
   6   1   4 662.200 293.833  10
   6   1   4 461.662 240.127  14
   6   1   4 584.404 203.898   5
   6   1   5 1488.53 333.885  10
   6   1   5 2094.00 339.392   5
   6   1   6 2850.63 330.374  10
   6   2 -10 211.502 148.536  31
   6   2 -10 261.598 124.985  23
   6   2  -9 3000.64 530.171  31
   6   2  -9 3269.74 465.076  23
   6   2  -8 2902.13 574.184  31
   6   2  -8 3590.17 433.603  25
   6   2  -8 3774.53 576.406  23
   6   2  -7 285.936 278.360  31
   6   2  -7 507.206 175.738  25
   6   2  -7 121.887 162.508  23
   6   2  -6 1757.12 531.531  31
   6   2  -6 1565.98 358.324  25
   6   2  -6 2027.99 492.293  23
   6   2  -5 950.577 443.955  31
   6   2  -5 1210.78 330.774  25
   6   2  -5 1116.35 421.326  23
   6   2  -4 1391.50 496.144  31
   6   2  -4 1872.45 436.783  25
   6   2  -4 1639.69 471.485  23
   6   2  -3 5280.62 701.720  10
   6   2  -3 6478.87 894.961  14
   6   2  -3 8721.68 1071.18  31
   6   2  -3 7935.21 845.192  25
   6   2  -3 7368.66 926.835  23
   6   2  -2-163.808 195.027  10
   6   2  -2 545.998 305.304  14
   6   2  -2 429.493 274.956  31
   6   2  -2 22.5950 172.058  25
   6   2  -2 212.688 253.773  23
   6   2  -2 174.251 136.215   5
   6   2  -1 280.652 201.383  10
   6   2  -1 370.473 249.803  18
   6   2  -1 125.942 264.841  14
   6   2  -1 363.350 174.523   5
   6   2   0 284.408 240.275  10
   6   2   0 232.714 174.547  18
   6   2   0 326.979 289.657  14
   6   2   0 241.480 179.084   5
   6   2   1-121.964 246.961  10
   6   2   1 218.570 203.827  18
   6   2   1 45.1678 254.558  14
   6   2   1 173.563 166.630   5
   6   2   2 1471.61 429.320  10
   6   2   2 1744.10 498.711  14
   6   2   2 1405.91 325.116   5
   6   2   3 1177.30 334.465  10
   6   2   3 1677.98 448.266  14
   6   2   3 1515.76 318.896   5
   6   2   4 3602.59 518.543  10
   6   2   4 4159.36 603.325  14
   6   2   4 4246.33 480.870   5
   6   2   5 4866.94 493.889  10
   6   3 -10 2631.18 381.020  31
   6   3 -10 1960.41 272.551  23
   6   3  -9 825.634 260.954  31
   6   3  -9 1879.71 343.877  23
   6   3  -8 5508.76 698.489  31
   6   3  -8 5892.42 675.113  23
   6   3  -7 1255.50 385.738  31
   6   3  -7 1393.67 386.539  23
   6   3  -6 292.885 260.744  31
   6   3  -6 166.102 272.818  23
   6   3  -5 3523.93 672.288  31
   6   3  -5 3632.03 649.054  23
   6   3  -4 1251.60 357.678  14
   6   3  -4 1047.13 384.071  31
   6   3  -4 1900.40 462.294  23
   6   3  -3 492.761 191.566  10
   6   3  -3 271.648 236.083  14
   6   3  -3 712.233 314.116  31
   6   3  -3 304.020 282.969  23
   6   3  -2 3048.38 512.295  10
   6   3  -2 2526.46 566.580  14
   6   3  -1 4679.81 679.451  10
   6   3  -1 5631.49 644.179  18
   6   3  -1 5181.28 791.624  14
   6   3   0 1522.31 383.251  10
   6   3   0 1898.24 347.909  18
   6   3   0 1761.20 497.196  14
   6   3   0 2497.48 435.772   5
   6   3   1-43.7480 170.028  10
   6   3   1 226.327 215.953  14
   6   3   1 370.125 175.612   5
   6   3   2 2794.11 491.970  10
   6   3   2 3653.64 621.151  14
   6   3   2 3283.20 447.273   5
   6   3   3 1208.74 297.040  10
   6   3   3 1218.90 339.548  14
   6   3   3 1265.54 251.628   5
   6   3   4 3040.81 400.886  10
   6   3   4 2250.05 353.383  14
   6   4  -9 169.811 103.492  31
   6   4  -9 297.388 158.412  23
   6   4  -8-88.2055 101.457  31
   6   4  -8 175.516 155.870  23
   6   4  -7 125.490 125.637  31
   6   4  -7 247.578 173.922  23
   6   4  -6 768.394 260.724  31
   6   4  -6 530.487 247.056  23
   6   4  -5 3650.56 536.336  31
   6   4  -5 2588.55 455.087  23
   6   4  -4 516.721 206.437  14
   6   4  -4 226.391 145.958  31
   6   4  -4 382.450 223.975  23
   6   4  -3 2210.39 442.877  14
   6   4  -2 2084.06 363.563  10
   6   4  -2 2579.41 388.492  18
   6   4  -2 2086.83 443.129  14
   6   4  -1 551.261 214.583  10
   6   4  -1 718.031 189.805  18
   6   4  -1 406.930 232.075  14
   6   4   0 817.180 262.159  10
   6   4   0 529.495 273.931  14
   6   4   1 413.076 188.279  10
   6   4   1 323.943 205.679  14
   6   4   2 337.322 162.398  10
   6   4   2 496.105 211.511  14
   6   4   3 1409.56 261.082  10
   6   4   3 1060.51 228.497  14
   6   5  -8 1471.18 228.665  23
   6   5  -7 268.475 124.736  31
   6   5  -7 276.309 143.432  23
   6   5  -6 283.020 128.556  31
   6   5  -6 222.580 148.995  23
   6   5  -5 729.824 225.351  23
   6   5  -3 2635.45 304.364  18
   6   5  -3 3592.48 446.921  14
   6   5  -2 3342.93 468.936  14
   6   5  -1 274.108 123.883  10
   6   5  -1 509.755 202.184  14
   6   5   0 137.962 90.5528  10
   6   5   0 751.323 230.057  14
   6   5   1 1942.27 264.067  10
   6   5   1 2724.98 362.589  14
   7  -8  -5 2386.17 273.048  34
   7  -8  -4 565.863 161.401  34
   7  -8  -3 3070.15 358.280  34
   7  -8  -2 1223.18 233.840  34
   7  -8  -1-69.0777 92.6662  15
   7  -8   0 123.585 83.9525  15
   7  -8   1 2350.39 317.047  15
   7  -8   2 3202.52 348.109  15
   7  -8   3 2607.76 277.989  15
   7  -7  -6 6991.70 522.945  34
   7  -7  -5 24350.9 1134.94  34
   7  -7  -4 2175.95 351.821  34
   7  -7  -3 1568.94 324.811  34
   7  -7  -2 572.395 228.533  34
   7  -7  -2 296.888 123.651  15
   7  -7  -1 1958.54 340.780  34
   7  -7  -1 861.937 242.654  15
   7  -7   0 2882.00 410.165  15
   7  -7   1 2626.68 389.170  15
   7  -7   2 286.929 132.021  15
   7  -7   3 513.176 162.996  15
   7  -7   4 775.608 171.406  15
   7  -6  -7 2645.86 338.318  34
   7  -6  -6 9482.30 710.783  34
   7  -6  -5 20882.9 1152.32  34
   7  -6  -4 8885.50 782.828  34
   7  -6  -3 188.995 196.453  34
   7  -6  -2 1314.99 355.049  34
   7  -6  -2 735.119 232.996  15
   7  -6  -1 1126.95 325.851  34
   7  -6  -1 213.596 153.051  15
   7  -6  -1 1118.76 306.875  30
   7  -6   0 354.639 173.236  15
   7  -6   0 641.000 216.172  30
   7  -6   1 3851.71 502.219  15
   7  -6   1 4246.89 522.714  30
   7  -6   2 357.906 167.855  15
   7  -6   2 312.034 147.892  30
   7  -6   3 4288.00 484.504  15
   7  -6   3 4969.88 483.947  21
   7  -6   4 5180.44 429.591  30
   7  -6   4 5047.11 453.684  21
   7  -5  -8 51.6626 73.8924  25
   7  -5  -7 577.228 192.589  25
   7  -5  -6 5819.94 630.682  34
   7  -5  -6 3781.21 455.976  25
   7  -5  -5 2338.50 421.195  34
   7  -5  -5 545.373 188.791  25
   7  -5  -4 946.631 326.835  34
   7  -5  -4 123.702 154.300  25
   7  -5  -3 2299.14 461.798  34
   7  -5  -3 2280.68 387.137  15
   7  -5  -3 2069.90 410.255  25
   7  -5  -2 3400.43 554.655  34
   7  -5  -2 3027.93 460.308  15
   7  -5  -2 3527.06 526.131  30
   7  -5  -2 3419.82 496.113  25
   7  -5  -1 1214.22 339.650  10
   7  -5  -1 708.117 226.482  15
   7  -5  -1 1210.89 328.905  30
   7  -5  -1 747.126 232.575  25
   7  -5   0 953.905 290.715  10
   7  -5   0 917.154 258.037  15
   7  -5   0 529.274 209.482  30
   7  -5   1 2300.96 398.877  15
   7  -5   1 2527.11 429.434  30
   7  -5   1 2885.95 393.149  21
   7  -5   1 3351.85 508.452  10
   7  -5   2 2748.63 432.813  10
   7  -5   2 1741.80 329.364  15
   7  -5   2 2266.91 396.725  30
   7  -5   2 1859.29 318.231  21
   7  -5   3 4782.36 536.918  30
   7  -5   3 4005.09 451.065  21
   7  -5   3 5534.37 563.849  10
   7  -5   4 3154.57 387.521  30
   7  -5   4 2866.92 362.512  21
   7  -5   5 241.524 90.9797  15
   7  -5   5 421.047 126.874  30
   7  -5   5 550.601 137.128  21
   7  -4  -9 341.223 123.723  25
   7  -4  -8 315.768 170.086  25
   7  -4  -7 1339.32 311.534  25
   7  -4  -6 7129.03 725.940  25
   7  -4  -5 5297.32 648.622  34
   7  -4  -5 3693.18 557.041  25
   7  -4  -4 10065.2 730.905  18
   7  -4  -4 8288.65 815.834  25
   7  -4  -3 1699.75 352.952  10
   7  -4  -3 991.955 268.894  18
   7  -4  -3 1262.17 287.463  15
   7  -4  -3 1359.38 324.280  30
   7  -4  -3 1201.11 335.615  25
   7  -4  -2 470.889 222.987  10
   7  -4  -2 298.870 173.994  18
   7  -4  -2 573.996 200.633  15
   7  -4  -2 862.116 287.026  30
   7  -4  -2 1115.67 405.696  25
   7  -4  -1 2501.56 447.117  10
   7  -4  -1 2559.09 416.474  18
   7  -4  -1 2527.87 402.230  15
   7  -4  -1 3122.35 495.900  30
   7  -4  -1 2939.73 512.767  25
   7  -4   0 2001.08 400.487  10
   7  -4   0 1765.03 353.339  18
   7  -4   0 2057.30 370.419  15
   7  -4   0 2186.54 430.643  30
   7  -4   0 2438.25 449.326  25
   7  -4   1 3277.46 456.327  15
   7  -4   1 4492.92 602.875  30
   7  -4   1 5065.48 638.635  10
   7  -4   2 6346.47 601.598  15
   7  -4   2 9355.89 844.087  30
   7  -4   2 7138.21 637.259  21
   7  -4   2 9826.02 859.107  10
   7  -4   3 799.632 241.343  10
   7  -4   3 445.544 156.408  15
   7  -4   3 1068.64 275.414  30
   7  -4   3 731.005 209.189  21
   7  -4   4 1365.74 258.648  10
   7  -4   4 904.741 242.659  30
   7  -4   4 707.051 196.377  21
   7  -4   5 1125.98 223.665  30
   7  -4   5 729.108 169.031  21
   7  -3  -9 682.948 183.758  25
   7  -3  -8 2006.10 353.231  25
   7  -3  -7 1479.97 354.972  25
   7  -3  -6 513.328 259.079  25
   7  -3  -5 1060.68 240.326  18
   7  -3  -5 1939.19 438.087  25
   7  -3  -4 10204.9 823.926  18
   7  -3  -4 8518.54 854.496  25
   7  -3  -4 9325.25 742.490  10
   7  -3  -3 3856.28 530.193  18
   7  -3  -3 4024.35 533.851  30
   7  -3  -3 3729.30 603.171  25
   7  -3  -3 3863.21 512.330  10
   7  -3  -2 7157.13 743.123  18
   7  -3  -2 7463.01 760.270  30
   7  -3  -2 8037.83 879.831  25
   7  -3  -2 8063.24 803.721  10
   7  -3  -1 635.282 236.288  10
   7  -3  -1 508.317 227.318  18
   7  -3  -1 603.189 216.073  30
   7  -3  -1 1048.82 382.981  25
   7  -3   0 2643.47 481.803  10
   7  -3   0 2312.42 436.071  18
   7  -3   0 2502.91 453.876  30
   7  -3   0 2258.78 495.567  25
   7  -3   1 4438.02 591.283  18
   7  -3   1 5052.27 655.546  30
   7  -3   1 5190.74 675.791  10
   7  -3   2 1052.15 295.412  10
   7  -3   2 704.926 253.657  30
   7  -3   2 1065.99 231.091   5
   7  -3   3 509.471 209.551  10
   7  -3   3 661.871 238.166  30
   7  -3   3 624.283 178.213   5
   7  -3   3 413.794 141.507  21
   7  -3   4 2108.90 331.109  10
   7  -3   4 1590.50 315.614  30
   7  -3   5 74.5819 77.2146  10
   7  -3   5 217.268 107.888  30
   7  -3   5 177.321 88.9276  21
   7  -2  -9 592.085 180.979  25
   7  -2  -8 2155.56 366.752  25
   7  -2  -7 285.399 230.543  25
   7  -2  -6 15873.7 937.968  18
   7  -2  -6 16366.4 1141.78  25
   7  -2  -5 14425.1 992.446  18
   7  -2  -5 12471.4 1052.43  25
   7  -2  -4 1163.11 312.875  18
   7  -2  -4 692.535 207.075  25
   7  -2  -3 1498.84 309.872  10
   7  -2  -3 1304.85 321.647  18
   7  -2  -3 1235.38 278.058  30
   7  -2  -3 1770.27 431.120  25
   7  -2  -2-235.939 191.637  10
   7  -2  -2 85.7462 124.248  18
   7  -2  -2 223.636 153.987  30
   7  -2  -1 58.1790 160.159  10
   7  -2  -1-12.0454 133.378  18
   7  -2  -1 277.208 192.395  30
   7  -2  -1-17.3773 181.684  25
   7  -2   0 2425.04 469.207  10
   7  -2   0 2238.53 446.140  18
   7  -2   0 1986.69 408.162  30
   7  -2   0 2570.78 535.610  25
   7  -2   1 5590.28 657.204  18
   7  -2   1 4897.74 640.678  30
   7  -2   1 4475.51 506.674   5
   7  -2   1 5812.56 704.769  10
   7  -2   2-196.416 187.036  10
   7  -2   2-111.760 118.219  30
   7  -2   2-220.647 119.053   5
   7  -2   3 1743.50 345.302  10
   7  -2   3 1351.74 270.174   5
   7  -2   3 647.832 180.672  21
   7  -2   4 930.647 217.266  10
   7  -2   4 1022.17 243.005  30
   7  -2   5 123.500 76.9571  30
   7  -1  -9 935.697 206.548  25
   7  -1  -8 779.585 232.011  25
   7  -1  -7 522.304 165.296  18
   7  -1  -7 333.705 169.815  31
   7  -1  -7 844.826 292.348  25
   7  -1  -6 1052.41 266.196  18
   7  -1  -6 913.049 298.433  31
   7  -1  -6 1026.24 287.104  25
   7  -1  -5 5551.43 637.501  18
   7  -1  -5 5489.56 633.124  25
   7  -1  -4 1922.29 395.097  18
   7  -1  -4 1729.45 379.844  25
   7  -1  -3 894.059 231.281  10
   7  -1  -3 1534.40 375.789  18
   7  -1  -3 2063.39 514.562  25
   7  -1  -2 86.0855 138.562  10
   7  -1  -2 338.886 179.069  18
   7  -1  -2-1.64551 77.8936  30
   7  -1  -1 513.750 222.856  10
   7  -1  -1 294.167 159.833  18
   7  -1  -1 128.118 91.0243  30
   7  -1   0 516.212 236.296  10
   7  -1   0 253.876 165.475  18
   7  -1   0 573.854 227.269  30
   7  -1   0 179.507 110.318   5
   7  -1   1 305.874 227.978  10
   7  -1   1 214.601 154.407  18
   7  -1   1 386.360 156.771   5
   7  -1   2 5132.39 547.180  18
   7  -1   2 4980.49 530.085   5
   7  -1   2 5291.93 636.310  10
   7  -1   3 2026.65 356.999  10
   7  -1   4 3526.74 400.627  10
   7  -1   5 384.370 117.408  30
   7   0  -9 649.345 153.118  25
   7   0  -8 1068.76 189.865  18
   7   0  -8 1171.78 240.377  31
   7   0  -8 1136.92 227.802  25
   7   0  -7 6738.01 587.016  18
   7   0  -7 5149.76 595.520  31
   7   0  -6 8082.39 724.379  18
   7   0  -6 7468.07 778.230  31
   7   0  -6 9032.26 765.754  25
   7   0  -5 943.178 290.372  18
   7   0  -5 1332.43 366.281  31
   7   0  -5 1252.84 358.623  25
   7   0  -4 836.843 277.872  18
   7   0  -4 1221.10 351.572  25
   7   0  -3 1709.44 329.605  10
   7   0  -3 2547.46 454.718  18
   7   0  -3 2596.04 476.342  25
   7   0  -2 36821.3 1753.20  18
   7   0  -2 33476.8 1668.97  25
   7   0  -2 31579.1 1589.15  10
   7   0  -1-79.3257 156.740  10
   7   0  -1-115.011 140.279  18
   7   0  -1-25.4919 78.8030   5
   7   0   0 175.358 170.385  10
   7   0   0 372.609 169.106  18
   7   0   0 106.893 102.073  30
   7   0   0 510.106 155.671   5
   7   0   1 2295.05 426.762  10
   7   0   1 2138.54 348.179  18
   7   0   1 2428.44 362.502   5
   7   0   2 4046.12 420.437  18
   7   0   2 3594.53 420.572   5
   7   0   2 3467.90 487.368  10
   7   0   3 1215.28 266.015  10
   7   0   4 56.7157 57.6922  10
   7   1  -8 1256.09 205.443  18
   7   1  -8 1753.32 293.255  31
   7   1  -7 653.540 190.564  18
   7   1  -7 526.070 174.913  31
   7   1  -7 981.981 222.548  25
   7   1  -6-161.208 137.492  18
   7   1  -6 81.3033 149.742  31
   7   1  -5 438.990 195.761  18
   7   1  -5 354.955 209.465  31
   7   1  -5 483.395 200.946  25
   7   1  -4 7539.53 735.048  18
   7   1  -4 9228.92 721.016  25
   7   1  -3 16434.7 1101.53  18
   7   1  -3 18486.7 1058.52  25
   7   1  -2 4606.54 549.784  18
   7   1  -2 3541.52 513.422  14
   7   1  -2 3430.05 454.589  10
   7   1  -1 2684.79 417.708  18
   7   1  -1 2950.43 500.669  14
   7   1  -1 3023.64 454.196  10
   7   1   0 909.074 255.627  10
   7   1   0 1418.49 272.650  18
   7   1   0 1031.47 291.170  14
   7   1   0 1067.42 228.380   5
   7   1   1 2293.29 289.973  18
   7   1   1 2597.10 403.050  10
   7   1   2 2167.65 262.290  30
   7   1   2 4802.43 503.619  10
   7   1   3 919.955 199.172  10
   7   2  -8 2691.34 314.594  31
   7   2  -7 2888.47 341.097  18
   7   2  -7 3471.40 424.438  31
   7   2  -6 1284.07 258.630  18
   7   2  -6 2340.66 375.096  31
   7   2  -5 5430.91 546.488  18
   7   2  -4 785.641 226.049  18
   7   2  -3 6509.77 596.349  18
   7   2  -2 706.101 187.205  10
   7   2  -2 1170.70 247.417  18
   7   2  -2 932.035 236.808  14
   7   2  -1 948.827 208.072  10
   7   2  -1 760.972 182.494  18
   7   2  -1 631.775 215.769  14
   7   2   0 7533.41 470.097  18
   7   2   0 8862.37 747.363  14
   7   2   1 4648.09 451.490  10
   7   2   2 354.034 116.911  10
   7   3  -6 485.008 135.230  18
   7   3  -5 4684.59 418.948  18
   7   3  -4 406.750 131.999  18
   7   3  -3 444.801 132.706  18
   7   3  -2 150.056 81.3156  18
   8  -4  -4 335.060 121.510  25
   8  -3  -5-170.369 120.594  25
   8  -3  -4 3653.52 370.685  25
   8  -3  -3 2952.39 310.633  18
   8  -3  -2 3280.49 339.658  18
   8  -3  -1 1673.60 246.638  10
   8  -3   0 1075.39 200.274  10
   8  -2  -5-188.891 95.5837  25
   8  -2  -4 207.653 73.7241  18
   8  -2  -4 542.953 165.332  25
   8  -2  -3-205.948 107.678  18
   8  -2  -2 1708.39 237.936  18
   8  -2  -1 5206.66 409.837  18
   8  -2  -1 2349.26 266.283  10
   8  -1  -4 142.724 73.6141  18
   8  -1  -3 494.892 121.715  18
   8  -1  -2 2729.45 282.717  18
   8  -1  -1 6860.12 430.770  18
   0   0   0    0.00    0.00   0
TITL DDQ_kinoksalin_100K in P-1
REM P-1 (#2 in standard setting)
CELL 1.54184   6.509501  10.024444  12.196808  96.7525  98.8830 104.1993
ZERR   11.00   0.000419   0.000601   0.000906   0.0055   0.0058   0.0054
LATT  1
SFAC C H N O Cl
UNIT 11.00 11.00 11.00 11.00 11.00
TREF
HKLF 4
END
;
loop_
_symmetry_equiv_pos_as_xyz
'x, y, z'
'-x, -y, -z'
loop_
_atom_site_label
_atom_site_fract_x
_atom_site_fract_y
_atom_site_fract_z
_atom_site_U_iso_or_equiv
_atom_site_adp_type
_atom_site_calc_flag
_atom_site_refinement_flags
_atom_site_occupancy
_atom_site_disorder_assembly
_atom_site_disorder_group
_atom_site_type_symbol
Cl1A 0.1887(6) 0.6149(3) 0.8222(4) 0.0231(8) Uani d PU 0.722(9) A 1 Cl
Cl2A 0.2523(5) 0.8365(4) 1.0391(2) 0.0242(8) Uani d PU 0.722(9) A 1 Cl
O1A 0.3425(16) 0.7279(11) 1.2478(8) 0.025(2) Uani d PU 0.722(9) A 1 O
O2A 0.2431(17) 0.3477(10) 0.8744(8) 0.023(2) Uani d PU 0.722(9) A 1 O
N1A 0.386(2) 0.4285(16) 1.3637(12) 0.032(4) Uani d PDU 0.722(9) A 1 N
N2A 0.291(3) 0.1478(16) 1.0988(15) 0.040(5) Uani d PDU 0.722(9) A 1 N
C1A 0.320(2) 0.6444(14) 1.1600(12) 0.020(3) Uani d PU 0.722(9) A 1 C
C2A 0.327(2) 0.4998(12) 1.1663(10) 0.022(2) Uani d PDU 0.722(9) A 1 C
C3A 0.300(2) 0.4001(13) 1.0715(11) 0.022(3) Uiso d PDU 0.722(9) A 1 C
C4A 0.264(2) 0.4351(13) 0.9579(12) 0.017(2) Uani d PU 0.722(9) A 1 C
C5A 0.246(2) 0.5751(14) 0.9543(12) 0.019(3) Uiso d PU 0.722(9) A 1 C
C6A 0.2741(17) 0.6712(12) 1.0484(9) 0.014(2) Uiso d PU 0.722(9) A 1 C
C7A 0.356(2) 0.4611(14) 1.2762(10) 0.023(3) Uani d PDU 0.722(9) A 1 C
C8A 0.2945(19) 0.2585(14) 1.0840(10) 0.021(3) Uiso d PDU 0.722(9) A 1 C
Cl1B 0.3641(16) 0.4175(11) 1.3225(12) 0.032(3) Uani d PDU 0.278(9) A 2 Cl
Cl2B 0.2942(15) 0.1966(14) 1.1055(8) 0.031(2) Uani d PDU 0.278(9) A 2 Cl
O1B 0.264(4) 0.317(2) 0.896(2) 0.009(5) Uani d PU 0.278(9) A 2 O
O2B 0.359(4) 0.696(3) 1.274(2) 0.019(6) Uani d PU 0.278(9) A 2 O
N1B 0.158(5) 0.602(4) 0.782(2) 0.022(9) Uani d PDU 0.278(9) A 2 N
N2B 0.244(5) 0.885(3) 1.060(3) 0.025(8) Uani d PDU 0.278(9) A 2 N
C1B 0.284(6) 0.408(4) 0.984(2) 0.012(8) Uiso d PDU 0.278(9) A 2 C
C2B 0.274(5) 0.550(3) 0.982(2) 0.018(6) Uani d PDU 0.278(9) A 2 C
C3B 0.291(4) 0.639(2) 1.080(2) 0.016(5) Uiso d PDU 0.278(9) A 2 C
C4B 0.336(7) 0.614(4) 1.183(4) 0.02 Uiso d PU 0.278(9) A 2 C
C5B 0.340(6) 0.463(3) 1.1913(17) 0.02 Uiso d PDU 0.278(9) A 2 C
C6B 0.308(5) 0.369(2) 1.096(2) 0.020(7) Uiso d PDU 0.278(9) A 2 C
C7B 0.198(4) 0.575(3) 0.870(2) 0.014(5) Uiso d PDU 0.278(9) A 2 C
C8B 0.258(4) 0.774(2) 1.069(2) 0.011(5) Uiso d PDU 0.278(9) A 2 C
N3 0.0622(13) 0.9732(8) 0.7053(6) 0.0318(17) Uani d . 1 . . N
N4 -0.2933(13) 0.9150(9) 0.5315(7) 0.0339(18) Uani d . 1 . . N
C9 -0.0803(18) 1.0449(11) 0.7067(9) 0.042(2) Uani d . 1 . . C
H9 -0.0614 1.1168 0.7661 0.05 Uiso calc R 1 . . H
C10 -0.2620(17) 1.0149(10) 0.6196(9) 0.037(2) Uani d . 1 . . C
H10 -0.3628 1.0661 0.6235 0.045 Uiso calc R 1 . . H
C11 -0.1419(15) 0.8413(9) 0.5309(8) 0.0296(19) Uani d . 1 . . C
C12 -0.1698(17) 0.7370(10) 0.4350(8) 0.036(2) Uani d . 1 . . C
H12 -0.2891 0.7182 0.3771 0.043 Uiso calc R 1 . . H
C13 -0.0166(18) 0.6660(10) 0.4309(8) 0.038(2) Uani d . 1 . . C
H13 -0.0343 0.597 0.3695 0.046 Uiso calc R 1 . . H
C14 0.1660(17) 0.6934(10) 0.5155(9) 0.038(2) Uani d . 1 . . C
H14 0.2684 0.6442 0.5086 0.046 Uiso calc R 1 . . H
C15 0.1971(15) 0.7939(10) 0.6107(9) 0.034(2) Uani d . 1 . . C
H15 0.3166 0.8112 0.6682 0.04 Uiso calc R 1 . . H
C16 0.0419(15) 0.8670(9) 0.6157(7) 0.0277(18) Uani d . 1 . . C
C17 0.2517(18) 1.0074(12) 0.7949(8) 0.044(3) Uani d . 1 . . C
H17A 0.3388 0.9449 0.781 0.066 Uiso calc R 1 . . H
H17B 0.2068 0.9982 0.8656 0.066 Uiso calc R 1 . . H
H17C 0.3343 1.1016 0.7971 0.066 Uiso calc R 1 . . H
loop_
_atom_site_aniso_label
_atom_site_aniso_U_11
_atom_site_aniso_U_22
_atom_site_aniso_U_33
_atom_site_aniso_U_12
_atom_site_aniso_U_13
_atom_site_aniso_U_23
Cl1A 0.0290(16) 0.0217(15) 0.0201(19) 0.0085(11) 0.0066(14) 0.0033(15)
Cl2A 0.0353(16) 0.0186(17) 0.0235(15) 0.0129(12) 0.0097(11) 0.0044(13)
O1A 0.037(5) 0.022(4) 0.017(4) 0.015(4) 0.002(3) -0.002(4)
O2A 0.038(5) 0.016(4) 0.019(4) 0.015(4) 0.008(3) 0.004(4)
N1A 0.032(4) 0.032(4) 0.032(4) 0.0088(15) 0.0059(13) 0.0051(12)
N2A 0.041(5) 0.040(5) 0.040(5) 0.0110(16) 0.0078(14) 0.0065(13)
C1A 0.017(5) 0.022(7) 0.025(7) 0.014(4) 0.005(5) -0.002(4)
C2A 0.025(5) 0.022(6) 0.025(6) 0.016(4) 0.007(4) 0.007(4)
C4A 0.019(6) 0.018(6) 0.020(6) 0.013(4) 0.008(4) 0.005(5)
C7A 0.024(6) 0.026(6) 0.025(7) 0.010(5) 0.011(5) 0.009(5)
Cl1B 0.035(4) 0.031(5) 0.027(6) 0.010(3) 0.004(4) -0.001(4)
Cl2B 0.032(4) 0.026(5) 0.036(4) 0.008(4) 0.010(3) 0.006(4)
O1B 0.009(6) 0.009(6) 0.009(6) 0.0026(17) 0.0016(14) 0.0014(13)
O2B 0.019(6) 0.019(6) 0.019(6) 0.005(2) 0.0036(16) 0.0030(14)
N1B 0.022(9) 0.022(9) 0.022(9) 0.006(3) 0.004(2) 0.0036(18)
N2B 0.025(8) 0.025(8) 0.024(8) 0.007(2) 0.0048(18) 0.0040(17)
C2B 0.015(11) 0.025(12) 0.015(11) 0.010(9) 0.003(9) -0.002(10)
N3 0.040(4) 0.029(4) 0.026(4) 0.007(3) 0.013(3) 0.003(3)
N4 0.031(4) 0.035(4) 0.036(4) 0.005(3) 0.013(3) 0.006(3)
C9 0.055(7) 0.033(5) 0.040(6) 0.012(5) 0.023(5) 0.003(4)
C10 0.047(6) 0.032(5) 0.038(5) 0.014(4) 0.020(5) 0.003(4)
C11 0.036(5) 0.027(4) 0.029(4) 0.009(4) 0.014(4) 0.006(4)
C12 0.043(5) 0.027(5) 0.031(5) -0.002(4) 0.007(4) 0.001(4)
C13 0.055(6) 0.033(5) 0.028(5) 0.012(5) 0.016(4) -0.004(4)
C14 0.044(6) 0.031(5) 0.047(6) 0.015(4) 0.018(5) 0.013(4)
C15 0.028(5) 0.031(5) 0.041(5) 0.005(4) 0.007(4) 0.006(4)
C16 0.039(5) 0.024(4) 0.020(4) 0.005(4) 0.012(4) 0.005(3)
C17 0.052(6) 0.053(7) 0.023(5) 0.007(5) 0.012(4) 0.001(4)
loop_
_atom_type_symbol
_atom_type_description
_atom_type_scat_dispersion_real
_atom_type_scat_dispersion_imag
_atom_type_scat_source
C C 0.0181 0.0091 'International Tables Vol C Tables 4.2.6.8 and 6.1.1.4'
H H 0 0 'International Tables Vol C Tables 4.2.6.8 and 6.1.1.4'
N N 0.0311 0.018 'International Tables Vol C Tables 4.2.6.8 and 6.1.1.4'
O O 0.0492 0.0322 'International Tables Vol C Tables 4.2.6.8 and 6.1.1.4'
Cl Cl 0.3639 0.7018 'International Tables Vol C Tables 4.2.6.8 and 6.1.1.4'
loop_
_geom_angle_atom_site_label_1
_geom_angle_atom_site_label_2
_geom_angle_atom_site_label_3
_geom_angle
O1A C1A C6A 126.2(11)
O1A C1A C2A 120.0(12)
C6A C1A C2A 113.7(11)
C3A C2A C7A 119.6(11)
C3A C2A C1A 123.2(11)
C7A C2A C1A 117.2(11)
C2A C3A C8A 120.0(12)
C2A C3A C4A 121.0(11)
C8A C3A C4A 118.9(10)
O2A C4A C5A 124.4(14)
O2A C4A C3A 121.1(12)
C5A C4A C3A 114.5(11)
C6A C5A C4A 123.3(13)
C6A C5A Cl1A 121.5(10)
C4A C5A Cl1A 115.2(10)
C5A C6A C1A 124.2(11)
C5A C6A Cl2A 121.4(10)
C1A C6A Cl2A 114.5(8)
N1A C7A C2A 177.7(15)
N2A C8A C3A 177.0(15)
O1B C1B C2B 125(2)
O1B C1B C6B 121(3)
C2B C1B C6B 115(3)
C3B C2B C1B 121(3)
C3B C2B C7B 125(3)
C1B C2B C7B 113(2)
C4B C3B C2B 127(3)
C4B C3B C8B 116(3)
C2B C3B C8B 117(3)
O2B C4B C3B 128(4)
O2B C4B C5B 117(3)
C3B C4B C5B 115(3)
C6B C5B C4B 120(2)
C6B C5B Cl1B 122(2)
C4B C5B Cl1B 117(2)
C5B C6B C1B 122(2)
C5B C6B Cl2B 120(2)
C1B C6B Cl2B 118(2)
N1B C7B C2B 174(3)
N2B C8B C3B 175(3)
C9 N3 C16 121.0(9)
C9 N3 C17 120.2(9)
C16 N3 C17 118.6(8)
C10 N4 C11 116.7(9)
N3 C9 C10 120.9(9)
N3 C9 H9 119.6
C10 C9 H9 119.6
N4 C10 C9 121.7(9)
N4 C10 H10 119.2
C9 C10 H10 119.2
N4 C11 C16 123.8(8)
N4 C11 C12 117.2(9)
C16 C11 C12 118.9(8)
C13 C12 C11 118.2(9)
C13 C12 H12 120.9
C11 C12 H12 120.9
C12 C13 C14 122.3(9)
C12 C13 H13 118.9
C14 C13 H13 118.9
C15 C14 C13 120.9(9)
C15 C14 H14 119.5
C13 C14 H14 119.5
C16 C15 C14 117.2(9)
C16 C15 H15 121.4
C14 C15 H15 121.4
C15 C16 N3 121.7(9)
C15 C16 C11 122.5(8)
N3 C16 C11 115.8(8)
N3 C17 H17A 109.5
N3 C17 H17B 109.5
H17A C17 H17B 109.5
N3 C17 H17C 109.5
H17A C17 H17C 109.5
H17B C17 H17C 109.5
loop_
_geom_bond_atom_site_label_1
_geom_bond_atom_site_label_2
_geom_bond_distance
Cl1A C5A 1.713(14)
Cl2A C6A 1.712(12)
O1A C1A 1.244(16)
O2A C4A 1.230(15)
N1A C7A 1.153(14)
N2A C8A 1.139(14)
C1A C6A 1.420(16)
C1A C2A 1.471(16)
C2A C3A 1.396(16)
C2A C7A 1.437(13)
C3A C8A 1.438(14)
C3A C4A 1.467(18)
C4A C5A 1.442(17)
C5A C6A 1.367(16)
Cl1B C5B 1.711(18)
Cl2B C6B 1.728(18)
O1B C1B 1.30(4)
O2B C4B 1.27(5)
N1B C7B 1.152(19)
N2B C8B 1.151(19)
C1B C2B 1.44(4)
C1B C6B 1.460(18)
C2B C3B 1.374(18)
C2B C7B 1.449(19)
C3B C4B 1.32(4)
C3B C8B 1.445(18)
C4B C5B 1.53(5)
C5B C6B 1.361(18)
N3 C9 1.306(13)
N3 C16 1.399(11)
N3 C17 1.457(13)
N4 C10 1.333(12)
N4 C11 1.370(12)
C9 C10 1.408(16)
C9 H9 0.93
C10 H10 0.93
C11 C16 1.404(13)
C11 C12 1.431(13)
C12 C13 1.363(15)
C12 H12 0.93
C13 C14 1.396(15)
C13 H13 0.93
C14 C15 1.398(14)
C14 H14 0.93
C15 C16 1.390(13)
C15 H15 0.93
C17 H17A 0.96
C17 H17B 0.96
C17 H17C 0.96
loop_
_geom_torsion_atom_site_label_1
_geom_torsion_atom_site_label_2
_geom_torsion_atom_site_label_3
_geom_torsion_atom_site_label_4
_geom_torsion
O1A C1A C2A C3A 179.1(12)
C6A C1A C2A C3A 2.7(18)
O1A C1A C2A C7A 1.0(18)
C6A C1A C2A C7A -175.4(11)
C7A C2A C3A C8A 2.2(18)
C1A C2A C3A C8A -175.8(11)
C7A C2A C3A C4A 178.4(11)
C1A C2A C3A C4A 0.3(19)
C2A C3A C4A O2A 179.0(12)
C8A C3A C4A O2A -4.8(18)
C2A C3A C4A C5A -3.5(17)
C8A C3A C4A C5A 172.6(11)
O2A C4A C5A C6A -178.7(12)
C3A C4A C5A C6A 4.0(18)
O2A C4A C5A Cl1A 0.8(18)
C3A C4A C5A Cl1A -176.5(9)
C4A C5A C6A C1A -1(2)
Cl1A C5A C6A C1A 179.5(10)
C4A C5A C6A Cl2A 179.7(10)
Cl1A C5A C6A Cl2A 0.2(16)
O1A C1A C6A C5A -178.5(13)
C2A C1A C6A C5A -2.3(18)
O1A C1A C6A Cl2A 0.8(18)
C2A C1A C6A Cl2A 177.0(9)
C3A C2A C7A N1A 6E1(4)
C1A C2A C7A N1A -13E1(4)
C2A C3A C8A N2A 0E1(3)
C4A C3A C8A N2A -17E1(3)
O1B C1B C2B C3B 178(3)
C6B C1B C2B C3B 1(5)
O1B C1B C2B C7B 11(5)
C6B C1B C2B C7B -166(3)
C1B C2B C3B C4B 6(5)
C7B C2B C3B C4B 172(4)
C1B C2B C3B C8B -174(3)
C7B C2B C3B C8B -8(4)
C2B C3B C4B O2B 178(4)
C8B C3B C4B O2B -2(6)
C2B C3B C4B C5B -8(6)
C8B C3B C4B C5B 172(3)
O2B C4B C5B C6B 178(3)
C3B C4B C5B C6B 3(5)
O2B C4B C5B Cl1B 2(5)
C3B C4B C5B Cl1B -172(3)
C4B C5B C6B C1B 4(5)
Cl1B C5B C6B C1B 179(3)
C4B C5B C6B Cl2B -176(3)
Cl1B C5B C6B Cl2B -1(4)
O1B C1B C6B C5B 177(3)
C2B C1B C6B C5B -6(5)
O1B C1B C6B Cl2B -4(4)
C2B C1B C6B Cl2B 174(2)
C3B C2B C7B N1B 8E1(3)
C1B C2B C7B N1B -11E1(3)
C4B C3B C8B N2B 10E1(4)
C2B C3B C8B N2B -8E1(4)
C16 N3 C9 C10 1.7(14)
C17 N3 C9 C10 178.8(9)
C11 N4 C10 C9 1.1(14)
N3 C9 C10 N4 -1.5(16)
C10 N4 C11 C16 -1.1(13)
C10 N4 C11 C12 -177.9(9)
N4 C11 C12 C13 177.6(9)
C16 C11 C12 C13 0.7(13)
C11 C12 C13 C14 -1.1(15)
C12 C13 C14 C15 1.6(16)
C13 C14 C15 C16 -1.5(14)
C14 C15 C16 N3 -177.6(8)
C14 C15 C16 C11 1.2(14)
C9 N3 C16 C15 177.2(9)
C17 N3 C16 C15 0.1(13)
C9 N3 C16 C11 -1.6(12)
C17 N3 C16 C11 -178.7(8)
N4 C11 C16 C15 -177.5(9)
C12 C11 C16 C15 -0.7(13)
N4 C11 C16 N3 1.3(13)
C12 C11 C16 N3 178.0(8)
