#------------------------------------------------------------------------------
#$Date: 2019-11-17 08:56:24 +0200 (Sun, 17 Nov 2019) $
#$Revision: 228974 $
#$URL: file:///home/coder/svn-repositories/cod/cif/7/23/08/7230873.cif $
#------------------------------------------------------------------------------
#
# This file is available in the Crystallography Open Database (COD),
# http://www.crystallography.net/
#
# All data on this site have been placed in the public domain by the
# contributors.
#
data_7230873
loop_
_publ_author_name
'Tran, Thao T.'
'Quintero, Michael A.'
'Arpino, Kathryn E.'
'Kelly, Zachary A.'
'Panella, Jessica R.'
'Wang, Xiaoping'
'McQueen, Tyrel M.'
_publ_section_title
;
 Chemically controlled crystal growth of (CH3NH3)2AgInBr6
;
_journal_issue                   39
_journal_name_full               CrystEngComm
_journal_page_first              5929
_journal_paper_doi               10.1039/C8CE00702K
_journal_volume                  20
_journal_year                    2018
_chemical_formula_sum            'C2 H12 Ag Br6 In N2'
_chemical_formula_weight         766.29
_space_group_crystal_system      trigonal
_space_group_IT_number           147
_space_group_name_Hall           '-P 3'
_space_group_name_H-M_alt        'P -3'
_symmetry_space_group_name_Hall  '-P 3'
_symmetry_space_group_name_H-M   'P -3'
_atom_sites_solution_hydrogens   difmap
_audit_creation_method           SHELXL-2014/7
_audit_update_record
;
2018-01-10 deposited with the CCDC.
2018-01-12 downloaded from the CCDC.
;
_cell_angle_alpha                90
_cell_angle_beta                 90
_cell_angle_gamma                120
_cell_formula_units_Z            1
_cell_length_a                   7.6324(4)
_cell_length_b                   7.6324
_cell_length_c                   7.0554(6)
_cell_measurement_reflns_used    10839
_cell_measurement_temperature    95(2)
_cell_measurement_theta_max      79.10
_cell_measurement_theta_min      6.88
_cell_volume                     355.94(4)
_computing_cell_refinement       Mantidplot
_computing_data_collection       'SNS PyDas'
_computing_data_reduction        Mantidplot
_computing_structure_refinement  'SHELXL-2014/7 (Sheldrick, 2014)'
_diffrn_ambient_temperature      95(2)
_diffrn_measured_fraction_theta_full 1.000
_diffrn_measured_fraction_theta_max 0.885
_diffrn_measurement_device_type  TOPAZ
_diffrn_measurement_method       'time-of-flight Laue'
_diffrn_radiation_type           neutron
_diffrn_radiation_wavelength     0.6
_diffrn_radiation_wavelength_details 'Based on neutron time of flight'
_diffrn_reflns_av_unetI/netI     0.0484
_diffrn_reflns_Laue_measured_fraction_full 1.000
_diffrn_reflns_Laue_measured_fraction_max 0.885
_diffrn_reflns_limit_h_max       13
_diffrn_reflns_limit_h_min       -13
_diffrn_reflns_limit_k_max       13
_diffrn_reflns_limit_k_min       -13
_diffrn_reflns_limit_l_max       12
_diffrn_reflns_limit_l_min       -12
_diffrn_reflns_number            1241
_diffrn_reflns_point_group_measured_fraction_full 1.000
_diffrn_reflns_point_group_measured_fraction_max 0.885
_diffrn_reflns_theta_full        25.242
_diffrn_reflns_theta_max         78.437
_diffrn_reflns_theta_min         7.385
_diffrn_source                   'The ORNL Spallation Neutron Scource'
_exptl_absorpt_coefficient_mu    0.2032
_exptl_absorpt_correction_T_max  0.8858
_exptl_absorpt_correction_T_min  0.6423
_exptl_absorpt_correction_type   sphere
_exptl_absorpt_process_details
; 
C. W. Dwiggins, Jr., Acta Cryst. A31, 395 (1975).
;
_exptl_crystal_colour            colorless
_exptl_crystal_density_diffrn    3.575
_exptl_crystal_description       block
_exptl_crystal_F_000             344
_exptl_crystal_size_max          1.760
_exptl_crystal_size_mid          0.750
_exptl_crystal_size_min          0.350
_refine_diff_density_max         0.705
_refine_diff_density_min         -0.903
_refine_diff_density_rms         0.155
_refine_ls_extinction_coef       0.31(2)
_refine_ls_extinction_expression Fc^*^=kFc[1+0.001xFc^2^\l^3^/sin(2\q)]^-1/4^
_refine_ls_extinction_method     'SHELXL-2014/7 (Sheldrick 2014'
_refine_ls_goodness_of_fit_ref   1.105
_refine_ls_hydrogen_treatment    refall
_refine_ls_matrix_type           full
_refine_ls_number_parameters     42
_refine_ls_number_reflns         1241
_refine_ls_number_restraints     0
_refine_ls_restrained_S_all      1.105
_refine_ls_R_factor_all          0.0352
_refine_ls_R_factor_gt           0.0348
_refine_ls_shift/su_max          0.000
_refine_ls_shift/su_mean         0.000
_refine_ls_structure_factor_coef Fsqd
_refine_ls_weighting_details
'w=1/[\s^2^(Fo^2^)+(0.0282P)^2^+0.2085P] where P=(Fo^2^+2Fc^2^)/3'
_refine_ls_weighting_scheme      calc
_refine_ls_wR_factor_gt          0.0660
_refine_ls_wR_factor_ref         0.0662
_reflns_Friedel_coverage         0.000
_reflns_number_gt                1229
_reflns_number_total             1241
_reflns_threshold_expression     'I > 2\s(I)'
_cod_data_source_file            c8ce00702k2.cif
_cod_data_source_block           neutron95K
_cod_depositor_comments
'Adding full bibliography for 7230872--7230875.cif.'
_cod_original_cell_volume        355.94(5)
_cod_database_code               7230873
_shelx_shelxl_version_number     2014/7
_shelx_space_group_comment
;
The symmetry employed for this shelxl refinement is uniquely defined
by the following loop, which should always be used as a source of
symmetry information in preference to the above space-group names.
They are only intended as comments.
;
_shelx_estimated_absorpt_t_min   0.954
_shelx_estimated_absorpt_t_max   0.991
_exptl_absorpt_special_details
; 
Neutron linear absorption coefficient is wavelength dependent.
For each peak, the absorption coefficient mu is calculated as:
          mu = 0.9110 + 2.0150/1.7982 * wavelength  [cm^-1^]
where 
 0.9110 cm^-1 is the absorption coefficient for total scattering;
 2.0150 cm^-1 is the absorption coefficient for true absorption at 1.7982 A.
 
The value of 0.2032 (mm^-1^) shown in _exptl_absorpt_coefficient_mu 
is the sample absorption coefficient for neutron wavelength at 1.0 \%A.
;
_shelx_res_file
;

    shelx.res created by SHELXL-2014/7


REM neutron structure in P-3
TITL C2 H12 Ag1 Br6 In1 N2
CELL 0.71073   7.6324  7.6324   7.0554  90.0000  90.0000 120.0000
ZERR    1.00   0.0004  0.0000   0.0006   0.0000   0.0000   0.0000
LATT 1
SYMM   -y, x-y, z
SYMM   -x+y, -x, z
NEUT
SFAC H C N BR AG IN
UNIT 12 2 2 6 1 1
L.S. 9
MERG 0
FMAP -2
PLAN 5
WPDB -2

REM Instructions for potential hydrogen bonds
EQIV $1 y+1, -x+y+1, -z+1
HTAB N1 Br1_$1
EQIV $2 -x+y+1, -x+1, z+1
HTAB N1 Br1_$2
HTAB C1 Br1

BOND $H
CONF
LIST 4
TEMP -178
ACTA
CONF
size 1.76 0.75 0.35
WGHT    0.028200    0.208500
EXTI    0.308869
BASF   0.25768   0.27086   0.19939
FVAR      30.03307
IN1   6    0.000000    0.000000    0.000000    10.16667    0.00720    0.00720 =
         0.00306    0.00000    0.00000    0.00360
AG1   5    0.000000    0.000000    0.500000    10.16667    0.02461    0.02461 =
         0.00412    0.00000    0.00000    0.01231
BR1   4    0.323417    0.135526    0.222638    11.00000    0.00863    0.01819 =
         0.01072   -0.00223   -0.00479    0.00510
N1    3    0.666667    0.333333    0.843330    10.33333    0.03193    0.03193 =
         0.00957    0.00000    0.00000    0.01596
H1    1    0.779469    0.465796    0.894230    11.00000    0.08198    0.07855 =
         0.05799   -0.04421   -0.03736    0.03552
C1    2    0.666667    0.333333    0.638573    10.33333    0.03210    0.03210 =
         0.00949    0.00000    0.00000    0.01605
H2    1    0.545957    0.191858    0.590379    11.00000    0.08288    0.07177 =
         0.05832   -0.03881   -0.03369    0.02096

HKLF 5

REM  C2 H12 Ag1 Br6 In1 N2
REM R1 =  0.0348 for    1229 Fo > 4sig(Fo)  and  0.0352 for all    1241 data
REM     42 parameters refined using      0 restraints

END

WGHT      0.0280      0.2094

REM Highest difference peak  0.705,  deepest hole -0.903,  1-sigma level  0.155
Q1    1   0.6769  0.3880  0.9364  11.00000  0.05   -0.90
Q2    1   0.8542  0.4197  0.8435  11.00000  0.05   -0.65
Q3    1   0.5035  0.0720  0.5556  11.00000  0.05    0.61
Q4    1   0.4348  0.0821  0.1267  11.00000  0.05   -0.61
Q5    1   0.2299  0.1106  0.1275  11.00000  0.05   -0.60
;
_shelx_res_checksum              15956
_shelx_hkl_file
;
   0  -1   0  259090    7670  -2
   0   1   0  259090    7670  -3
  -1   1   0  259090    7670  -4
   0   1   0  259090    7670   1
   1  -2   0   60610    3180  -2
   1   1   0   60610    3180  -3
  -1   2   0   60610    3180  -4
  -1   2   0   60610    3180   1
   0  -2   0  283740    4700  -2
   0   2   0  283740    4700  -3
  -2   2   0  283740    4700  -4
   0   2   0  283740    4700   1
   2  -3   0   42830    1100  -2
   2   1   0   42830    1100  -3
  -1   3   0   42830    1100  -4
  -2   3   0   42830    1100   1
   1  -3   0   35140     980  -2
   1   2   0   35140     980  -3
  -2   3   0   35140     980  -4
  -1   3   0   35140     980   1
   0  -3   0  897990   33440  -2
   0   3   0  897990   33440  -3
  -3   3   0  897990   33440  -4
   0   3   0  897990   33440   1
   3  -4   0  167530    3050  -2
   3   1   0  167530    3050  -3
  -1   4   0  167530    3050  -4
  -3   4   0  167530    3050   1
   2  -4   0 3227520  320000  -2
   2   2   0 3227520  320000  -3
  -2   4   0 3227520  320000  -4
  -2   4   0 3227520  320000   1
   1  -4   0  171360    2170  -2
   1   3   0  171360    2170  -3
  -3   4   0  171360    2170  -4
  -1   4   0  171360    2170   1
   0  -4   0  466240   14570  -2
   0   4   0  466240   14570  -3
  -4   4   0  466240   14570  -4
   0   4   0  466240   14570   1
   4  -5   0  682010   11090  -2
   4   1   0  682010   11090  -3
  -1   5   0  682010   11090  -4
  -4   5   0  682010   11090   1
   3  -5   0   51050    1660  -2
   3   2   0   51050    1660  -3
  -2   5   0   51050    1660  -4
  -3   5   0   51050    1660   1
   2  -5   0   51460    2350  -2
   2   3   0   51460    2350  -3
  -3   5   0   51460    2350  -4
  -2   5   0   51460    2350   1
   1  -5   0  679820    9880  -2
   1   4   0  679820    9880  -3
  -4   5   0  679820    9880  -4
  -1   5   0  679820    9880   1
   0  -5   0   53320    2050  -2
   0   5   0   53320    2050  -3
  -5   5   0   53320    2050  -4
   0   5   0   53320    2050   1
   5  -6   0  153810    3380  -2
   5   1   0  153810    3380  -3
  -1   6   0  153810    3380  -4
  -5   6   0  153810    3380   1
   4  -6   0  266750    4980  -2
   4   2   0  266750    4980  -3
  -2   6   0  266750    4980  -4
  -4   6   0  266750    4980   1
   3  -6   0  347840    6000  -2
   3   3   0  347840    6000  -3
  -3   6   0  347840    6000  -4
  -3   6   0  347840    6000   1
   2  -6   0  266100    4330  -2
   2   4   0  266100    4330  -3
  -4   6   0  266100    4330  -4
  -2   6   0  266100    4330   1
   1  -6   0  150400    2300  -2
   1   5   0  150400    2300  -3
  -5   6   0  150400    2300  -4
  -1   6   0  150400    2300   1
   0  -6   0 1610030   35830  -2
   0   6   0 1610030   35830  -3
  -6   6   0 1610030   35830  -4
   0   6   0 1610030   35830   1
   6  -7   0  297180    4450  -2
   6   1   0  297180    4450  -3
  -1   7   0  297180    4450  -4
  -6   7   0  297180    4450   1
   5  -7   0  467810    5370  -2
   5   2   0  467810    5370  -3
  -2   7   0  467810    5370  -4
  -5   7   0  467810    5370   1
   4  -7   0   89240    2370  -2
   4   3   0   89240    2370  -3
  -3   7   0   89240    2370  -4
  -4   7   0   89240    2370   1
   3  -7   0   87730    3090  -2
   3   4   0   87730    3090  -3
  -4   7   0   87730    3090  -4
  -3   7   0   87730    3090   1
   2  -7   0  444320    4900  -2
   2   5   0  444320    4900  -3
  -5   7   0  444320    4900  -4
  -2   7   0  444320    4900   1
   1  -7   0  275060    4610  -2
   1   6   0  275060    4610  -3
  -6   7   0  275060    4610  -4
  -1   7   0  275060    4610   1
   0  -7   0   20630    3090  -2
   0   7   0   20630    3090  -3
  -7   7   0   20630    3090  -4
   0   7   0   20630    3090   1
   7  -8   0   51420    3800  -2
   7   1   0   51420    3800  -3
  -1   8   0   51420    3800  -4
  -7   8   0   51420    3800   1
   6  -8   0   51620    3020  -2
   6   2   0   51620    3020  -3
  -2   8   0   51620    3020  -4
  -6   8   0   51620    3020   1
   5  -8   0  312740    4860  -2
   5   3   0  312740    4860  -3
  -3   8   0  312740    4860  -4
  -5   8   0  312740    4860   1
   4  -8   0 1318940   14780  -2
   4   4   0 1318940   14780  -3
  -4   8   0 1318940   14780  -4
  -4   8   0 1318940   14780   1
   3  -8   0  351010    5870  -2
   3   5   0  351010    5870  -3
  -5   8   0  351010    5870  -4
  -3   8   0  351010    5870   1
   2  -8   0   50590    3120  -2
   2   6   0   50590    3120  -3
  -6   8   0   50590    3120  -4
  -2   8   0   50590    3120   1
   1  -8   0   44930    3060  -2
   1   7   0   44930    3060  -3
  -7   8   0   44930    3060  -4
  -1   8   0   44930    3060   1
   0  -8   0   69010    4360  -2
   0   8   0   69010    4360  -3
  -8   8   0   69010    4360  -4
   0   8   0   69010    4360   1
   8  -9   0   89070    5020  -2
   8   1   0   89070    5020  -3
  -1   9   0   89070    5020  -4
  -8   9   0   89070    5020   1
   7  -9   0   35840    4290  -2
   7   2   0   35840    4290  -3
  -2   9   0   35840    4290  -4
  -7   9   0   35840    4290   1
   6  -9   0  213770    5850  -2
   6   3   0  213770    5850  -3
  -3   9   0  213770    5850  -4
  -6   9   0  213770    5850   1
   5  -9   0   95020    4130  -2
   5   4   0   95020    4130  -3
  -4   9   0   95020    4130  -4
  -5   9   0   95020    4130   1
   4  -9   0  109600    3680  -2
   4   5   0  109600    3680  -3
  -5   9   0  109600    3680  -4
  -4   9   0  109600    3680   1
   3  -9   0  214630    7700  -2
   3   6   0  214630    7700  -3
  -6   9   0  214630    7700  -4
  -3   9   0  214630    7700   1
   2  -9   0   30500    3680  -2
   2   7   0   30500    3680  -3
  -7   9   0   30500    3680  -4
  -2   9   0   30500    3680   1
   1  -9   0   89700    4390  -2
   1   8   0   89700    4390  -3
  -8   9   0   89700    4390  -4
  -1   9   0   89700    4390   1
   0  -9   0  455240    9260  -2
   0   9   0  455240    9260  -3
  -9   9   0  455240    9260  -4
   0   9   0  455240    9260   1
   9 -10   0  211670    8860  -2
   9   1   0  211670    8860  -3
  -1  10   0  211670    8860  -4
  -9  10   0  211670    8860   1
   8 -10   0  515630   10270  -2
   8   2   0  515630   10270  -3
  -2  10   0  515630   10270  -4
  -8  10   0  515630   10270   1
   7 -10   0  185790    5830  -2
   7   3   0  185790    5830  -3
  -3  10   0  185790    5830  -4
  -7  10   0  185790    5830   1
   6 -10   0   61860    5180  -2
   6   4   0   61860    5180  -3
  -4  10   0   61860    5180  -4
  -6  10   0   61860    5180   1
   5 -10   0   41160    6710  -2
   5   5   0   41160    6710  -3
  -5  10   0   41160    6710  -4
  -5  10   0   41160    6710   1
   4 -10   0   70350    4790  -2
   4   6   0   70350    4790  -3
  -6  10   0   70350    4790  -4
  -4  10   0   70350    4790   1
   3 -10   0  161670    4890  -2
   3   7   0  161670    4890  -3
  -7  10   0  161670    4890  -4
  -3  10   0  161670    4890   1
   2 -10   0  514250    8150  -2
   2   8   0  514250    8150  -3
  -8  10   0  514250    8150  -4
  -2  10   0  514250    8150   1
   1 -10   0  250330    6860  -2
   1   9   0  250330    6860  -3
  -9  10   0  250330    6860  -4
  -1  10   0  250330    6860   1
  10 -11   0   72900   20170  -2
  10   1   0   72900   20170  -3
  -1  11   0   72900   20170  -4
 -10  11   0   72900   20170   1
   8 -11   0  141980    6830  -2
   8   3   0  141980    6830  -3
  -3  11   0  141980    6830  -4
  -8  11   0  141980    6830   1
   7 -11   0  376540    8550  -2
   7   4   0  376540    8550  -3
  -4  11   0  376540    8550  -4
  -7  11   0  376540    8550   1
   5 -11   0   29100   14630  -2
   5   6   0   29100   14630  -3
  -6  11   0   29100   14630  -4
  -5  11   0   29100   14630   1
   4 -11   0  352100   10330  -2
   4   7   0  352100   10330  -3
  -7  11   0  352100   10330  -4
  -4  11   0  352100   10330   1
   3 -11   0  132150    5800  -2
   3   8   0  132150    5800  -3
  -8  11   0  132150    5800  -4
  -3  11   0  132150    5800   1
   1 -11   0   64880   10540  -2
   1  10   0   64880   10540  -3
 -10  11   0   64880   10540  -4
  -1  11   0   64880   10540   1
   8 -12   0   51730   20460  -2
   8   4   0   51730   20460  -3
  -4  12   0   51730   20460  -4
  -8  12   0   51730   20460   1
   7 -12   0  168640    7410  -2
   7   5   0  168640    7410  -3
  -5  12   0  168640    7410  -4
  -7  12   0  168640    7410   1
   6 -12   0  231620    8110  -2
   6   6   0  231620    8110  -3
  -6  12   0  231620    8110  -4
  -6  12   0  231620    8110   1
   5 -12   0  186940    7830  -2
   5   7   0  186940    7830  -3
  -7  12   0  186940    7830  -4
  -5  12   0  186940    7830   1
   8 -13   0   93750   11960  -2
   8   5   0   93750   11960  -3
  -5  13   0   93750   11960  -4
  -8  13   0   93750   11960   1
   5 -13   0  116060   14050  -2
   5   8   0  116060   14050  -3
  -8  13   0  116060   14050  -4
  -5  13   0  116060   14050   1
   0   0   1   33450   14460  -2
   0   0  -1   33450   14460  -3
   0   0  -1   33450   14460  -4
   0   0   1   33450   14460   1
   1  -1   1   31370    1930  -2
   1   0  -1   31370    1930  -3
   0   1  -1   31370    1930  -4
  -1   1   1   31370    1930   1
   0  -1   1   26800    1790  -2
   0   1  -1   26800    1790  -3
  -1   1  -1   26800    1790  -4
   0   1   1   26800    1790   1
  -1  -1   1   79100    1750  -2
  -1   2  -1   79100    1750  -3
  -2   1  -1   79100    1750  -4
   1   1   1   79100    1750   1
   3  -2   1  164280    2750  -2
   3  -1  -1  164280    2750  -3
   1   2  -1  164280    2750  -4
  -3   2   1  164280    2750   1
   2  -2   1 1383060  153300  -2
   2   0  -1 1383060  153300  -3
   0   2  -1 1383060  153300  -4
  -2   2   1 1383060  153300   1
   1  -2   1   70900    1190  -2
   1   1  -1   70900    1190  -3
  -1   2  -1   70900    1190  -4
  -1   2   1   70900    1190   1
   0  -2   1 1607020   70320  -2
   0   2  -1 1607020   70320  -3
  -2   2  -1 1607020   70320  -4
   0   2   1 1607020   70320   1
  -1  -2   1  155660    2320  -2
  -1   3  -1  155660    2320  -3
  -3   2  -1  155660    2320  -4
   1   2   1  155660    2320   1
  -2  -2   1   29190    2300  -2
  -2   4  -1   29190    2300  -3
  -4   2  -1   29190    2300  -4
   2   2   1   29190    2300   1
   5  -3   1  366150   11760  -2
   5  -2  -1  366150   11760  -3
   2   3  -1  366150   11760  -4
  -5   3   1  366150   11760   1
   4  -3   1  231840    5070  -2
   4  -1  -1  231840    5070  -3
   1   3  -1  231840    5070  -4
  -4   3   1  231840    5070   1
   3  -3   1   30830    1650  -2
   3   0  -1   30830    1650  -3
   0   3  -1   30830    1650  -4
  -3   3   1   30830    1650   1
   2  -3   1  181440    2750  -2
   2   1  -1  181440    2750  -3
  -1   3  -1  181440    2750  -4
  -2   3   1  181440    2750   1
   1  -3   1  187930    3440  -2
   1   2  -1  187930    3440  -3
  -2   3  -1  187930    3440  -4
  -1   3   1  187930    3440   1
   0  -3   1   30290    1250  -2
   0   3  -1   30290    1250  -3
  -3   3  -1   30290    1250  -4
   0   3   1   30290    1250   1
  -1  -3   1  222780    5890  -2
  -1   4  -1  222780    5890  -3
  -4   3  -1  222780    5890  -4
   1   3   1  222780    5890   1
  -2  -3   1  384060    8560  -2
  -2   5  -1  384060    8560  -3
  -5   3  -1  384060    8560  -4
   2   3   1  384060    8560   1
  -3  -3   1  266890    5680  -2
  -3   6  -1  266890    5680  -3
  -6   3  -1  266890    5680  -4
   3   3   1  266890    5680   1
   7  -4   1  104280    6700  -2
   7  -3  -1  104280    6700  -3
   3   4  -1  104280    6700  -4
  -7   4   1  104280    6700   1
   6  -4   1 1135670   22230  -2
   6  -2  -1 1135670   22230  -3
   2   4  -1 1135670   22230  -4
  -6   4   1 1135670   22230   1
   5  -4   1  167150    2270  -2
   5  -1  -1  167150    2270  -3
   1   4  -1  167150    2270  -4
  -5   4   1  167150    2270   1
   4  -4   1 1778410   66000  -2
   4   0  -1 1778410   66000  -3
   0   4  -1 1778410   66000  -4
  -4   4   1 1778410   66000   1
   3  -4   1  233490    4620  -2
   3   1  -1  233490    4620  -3
  -1   4  -1  233490    4620  -4
  -3   4   1  233490    4620   1
   2  -4   1   27240    2960  -2
   2   2  -1   27240    2960  -3
  -2   4  -1   27240    2960  -4
  -2   4   1   27240    2960   1
   1  -4   1  250390    4340  -2
   1   3  -1  250390    4340  -3
  -3   4  -1  250390    4340  -4
  -1   4   1  250390    4340   1
   0  -4   1 1789330   89980  -2
   0   4  -1 1789330   89980  -3
  -4   4  -1 1789330   89980  -4
   0   4   1 1789330   89980   1
  -1  -4   1  179660    3900  -2
  -1   5  -1  179660    3900  -3
  -5   4  -1  179660    3900  -4
   1   4   1  179660    3900   1
  -2  -4   1 1114850   28480  -2
  -2   6  -1 1114850   28480  -3
  -6   4  -1 1114850   28480  -4
   2   4   1 1114850   28480   1
  -3  -4   1  107450    5780  -2
  -3   7  -1  107450    5780  -3
  -7   4  -1  107450    5780  -4
   3   4   1  107450    5780   1
  -4  -4   1   34440    3190  -2
  -4   8  -1   34440    3190  -3
  -8   4  -1   34440    3190  -4
   4   4   1   34440    3190   1
   9  -5   1  147610    5420  -2
   9  -4  -1  147610    5420  -3
   4   5  -1  147610    5420  -4
  -9   5   1  147610    5420   1
   8  -5   1   65710    3400  -2
   8  -3  -1   65710    3400  -3
   3   5  -1   65710    3400  -4
  -8   5   1   65710    3400   1
   7  -5   1   70770    3850  -2
   7  -2  -1   70770    3850  -3
   2   5  -1   70770    3850  -4
  -7   5   1   70770    3850   1
   6  -5   1  115900    2690  -2
   6  -1  -1  115900    2690  -3
   1   5  -1  115900    2690  -4
  -6   5   1  115900    2690   1
   5  -5   1  110570    2830  -2
   5   0  -1  110570    2830  -3
   0   5  -1  110570    2830  -4
  -5   5   1  110570    2830   1
   4  -5   1  192100    2130  -2
   4   1  -1  192100    2130  -3
  -1   5  -1  192100    2130  -4
  -4   5   1  192100    2130   1
   3  -5   1  441310    6330  -2
   3   2  -1  441310    6330  -3
  -2   5  -1  441310    6330  -4
  -3   5   1  441310    6330   1
   2  -5   1  439380    7860  -2
   2   3  -1  439380    7860  -3
  -3   5  -1  439380    7860  -4
  -2   5   1  439380    7860   1
   1  -5   1  181550    3790  -2
   1   4  -1  181550    3790  -3
  -4   5  -1  181550    3790  -4
  -1   5   1  181550    3790   1
   0  -5   1  117430    2880  -2
   0   5  -1  117430    2880  -3
  -5   5  -1  117430    2880  -4
   0   5   1  117430    2880   1
  -1  -5   1  110610    5650  -2
  -1   6  -1  110610    5650  -3
  -6   5  -1  110610    5650  -4
   1   5   1  110610    5650   1
  -2  -5   1   61240    3680  -2
  -2   7  -1   61240    3680  -3
  -7   5  -1   61240    3680  -4
   2   5   1   61240    3680   1
  -3  -5   1   69290    3660  -2
  -3   8  -1   69290    3660  -3
  -8   5  -1   69290    3660  -4
   3   5   1   69290    3660   1
  -4  -5   1  153330    6220  -2
  -4   9  -1  153330    6220  -3
  -9   5  -1  153330    6220  -4
   4   5   1  153330    6220   1
  -5  -5   1  293460    7940  -2
  -5  10  -1  293460    7940  -3
 -10   5  -1  293460    7940  -4
   5   5   1  293460    7940   1
  11  -6   1  113560    8360  -2
  11  -5  -1  113560    8360  -3
   5   6  -1  113560    8360  -4
 -11   6   1  113560    8360   1
  10  -6   1  235700    6400  -2
  10  -4  -1  235700    6400  -3
   4   6  -1  235700    6400  -4
 -10   6   1  235700    6400   1
   9  -6   1  137670    7380  -2
   9  -3  -1  137670    7380  -3
   3   6  -1  137670    7380  -4
  -9   6   1  137670    7380   1
   8  -6   1  497030    9310  -2
   8  -2  -1  497030    9310  -3
   2   6  -1  497030    9310  -4
  -8   6   1  497030    9310   1
   7  -6   1   38280    2930  -2
   7  -1  -1   38280    2930  -3
   1   6  -1   38280    2930  -4
  -7   6   1   38280    2930   1
   6  -6   1   28680    2050  -2
   6   0  -1   28680    2050  -3
   0   6  -1   28680    2050  -4
  -6   6   1   28680    2050   1
   5  -6   1  128130    3520  -2
   5   1  -1  128130    3520  -3
  -1   6  -1  128130    3520  -4
  -5   6   1  128130    3520   1
   4  -6   1 1202450   17510  -2
   4   2  -1 1202450   17510  -3
  -2   6  -1 1202450   17510  -4
  -4   6   1 1202450   17510   1
   3  -6   1  268030    5620  -2
   3   3  -1  268030    5620  -3
  -3   6  -1  268030    5620  -4
  -3   6   1  268030    5620   1
   2  -6   1 1187440   21600  -2
   2   4  -1 1187440   21600  -3
  -4   6  -1 1187440   21600  -4
  -2   6   1 1187440   21600   1
   1  -6   1  124620    2910  -2
   1   5  -1  124620    2910  -3
  -5   6  -1  124620    2910  -4
  -1   6   1  124620    2910   1
   0  -6   1   34540    2120  -2
   0   6  -1   34540    2120  -3
  -6   6  -1   34540    2120  -4
   0   6   1   34540    2120   1
  -1  -6   1   49900    3350  -2
  -1   7  -1   49900    3350  -3
  -7   6  -1   49900    3350  -4
   1   6   1   49900    3350   1
  -2  -6   1  507630    9190  -2
  -2   8  -1  507630    9190  -3
  -8   6  -1  507630    9190  -4
   2   6   1  507630    9190   1
  -3  -6   1  143040    5280  -2
  -3   9  -1  143040    5280  -3
  -9   6  -1  143040    5280  -4
   3   6   1  143040    5280   1
  -4  -6   1  252050   10020  -2
  -4  10  -1  252050   10020  -3
 -10   6  -1  252050   10020  -4
   4   6   1  252050   10020   1
  -5  -6   1   76540    7420  -2
  -5  11  -1   76540    7420  -3
 -11   6  -1   76540    7420  -4
   5   6   1   76540    7420   1
  -6  -6   1   85270   13110  -2
  -6  12  -1   85270   13110  -3
 -12   6  -1   85270   13110  -4
   6   6   1   85270   13110   1
  13  -7   1  102770   23150  -2
  13  -6  -1  102770   23150  -3
   6   7  -1  102770   23150  -4
 -13   7   1  102770   23150   1
  11  -7   1   52410   13560  -2
  11  -4  -1   52410   13560  -3
   4   7  -1   52410   13560  -4
 -11   7   1   52410   13560   1
  10  -7   1  123160    6740  -2
  10  -3  -1  123160    6740  -3
   3   7  -1  123160    6740  -4
 -10   7   1  123160    6740   1
   9  -7   1  100100    5130  -2
   9  -2  -1  100100    5130  -3
   2   7  -1  100100    5130  -4
  -9   7   1  100100    5130   1
   8  -7   1  276110    6570  -2
   8  -1  -1  276110    6570  -3
   1   7  -1  276110    6570  -4
  -8   7   1  276110    6570   1
   7  -7   1  147380    4130  -2
   7   0  -1  147380    4130  -3
   0   7  -1  147380    4130  -4
  -7   7   1  147380    4130   1
   6  -7   1   55600    2590  -2
   6   1  -1   55600    2590  -3
  -1   7  -1   55600    2590  -4
  -6   7   1   55600    2590   1
   5  -7   1   52550    2170  -2
   5   2  -1   52550    2170  -3
  -2   7  -1   52550    2170  -4
  -5   7   1   52550    2170   1
   4  -7   1  111970    2610  -2
   4   3  -1  111970    2610  -3
  -3   7  -1  111970    2610  -4
  -4   7   1  111970    2610   1
   3  -7   1  118030    2300  -2
   3   4  -1  118030    2300  -3
  -4   7  -1  118030    2300  -4
  -3   7   1  118030    2300   1
   2  -7   1   62890    2050  -2
   2   5  -1   62890    2050  -3
  -5   7  -1   62890    2050  -4
  -2   7   1   62890    2050   1
   1  -7   1   57510    3070  -2
   1   6  -1   57510    3070  -3
  -6   7  -1   57510    3070  -4
  -1   7   1   57510    3070   1
   0  -7   1  138670    3320  -2
   0   7  -1  138670    3320  -3
  -7   7  -1  138670    3320  -4
   0   7   1  138670    3320   1
  -1  -7   1  265040    5880  -2
  -1   8  -1  265040    5880  -3
  -8   7  -1  265040    5880  -4
   1   7   1  265040    5880   1
  -2  -7   1  118840    5260  -2
  -2   9  -1  118840    5260  -3
  -9   7  -1  118840    5260  -4
   2   7   1  118840    5260   1
  -3  -7   1  100200    7110  -2
  -3  10  -1  100200    7110  -3
 -10   7  -1  100200    7110  -4
   3   7   1  100200    7110   1
  12  -8   1  125390   14050  -2
  12  -4  -1  125390   14050  -3
   4   8  -1  125390   14050  -4
 -12   8   1  125390   14050   1
  10  -8   1   44760    8280  -2
  10  -2  -1   44760    8280  -3
   2   8  -1   44760    8280  -4
 -10   8   1   44760    8280   1
   9  -8   1  101130    5570  -2
   9  -1  -1  101130    5570  -3
   1   8  -1  101130    5570  -4
  -9   8   1  101130    5570   1
   8  -8   1  250260    6640  -2
   8   0  -1  250260    6640  -3
   0   8  -1  250260    6640  -4
  -8   8   1  250260    6640   1
   7  -8   1  260810    4700  -2
   7   1  -1  260810    4700  -3
  -1   8  -1  260810    4700  -4
  -7   8   1  260810    4700   1
   6  -8   1  491760    7130  -2
   6   2  -1  491760    7130  -3
  -2   8  -1  491760    7130  -4
  -6   8   1  491760    7130   1
   5  -8   1   63530    2890  -2
   5   3  -1   63530    2890  -3
  -3   8  -1   63530    2890  -4
  -5   8   1   63530    2890   1
   4  -8   1   35750    2530  -2
   4   4  -1   35750    2530  -3
  -4   8  -1   35750    2530  -4
  -4   8   1   35750    2530   1
   3  -8   1   65960    2580  -2
   3   5  -1   65960    2580  -3
  -5   8  -1   65960    2580  -4
  -3   8   1   65960    2580   1
   2  -8   1  500170    7030  -2
   2   6  -1  500170    7030  -3
  -6   8  -1  500170    7030  -4
  -2   8   1  500170    7030   1
   1  -8   1  257820    6790  -2
   1   7  -1  257820    6790  -3
  -7   8  -1  257820    6790  -4
  -1   8   1  257820    6790   1
   0  -8   1  249600    5540  -2
   0   8  -1  249600    5540  -3
  -8   8  -1  249600    5540  -4
   0   8   1  249600    5540   1
  -1  -8   1   95730    6150  -2
  -1   9  -1   95730    6150  -3
  -9   8  -1   95730    6150  -4
   1   8   1   95730    6150   1
  -2  -8   1   41560    7320  -2
  -2  10  -1   41560    7320  -3
 -10   8  -1   41560    7320  -4
   2   8   1   41560    7320   1
  -4  -8   1   88210   10360  -2
  -4  12  -1   88210   10360  -3
 -12   8  -1   88210   10360  -4
   4   8   1   88210   10360   1
  13  -9   1   83520   22630  -2
  13  -4  -1   83520   22630  -3
   4   9  -1   83520   22630  -4
 -13   9   1   83520   22630   1
  12  -9   1  123480    8590  -2
  12  -3  -1  123480    8590  -3
   3   9  -1  123480    8590  -4
 -12   9   1  123480    8590   1
  11  -9   1  172670    7250  -2
  11  -2  -1  172670    7250  -3
   2   9  -1  172670    7250  -4
 -11   9   1  172670    7250   1
  10  -9   1   35620   11750  -2
  10  -1  -1   35620   11750  -3
   1   9  -1   35620   11750  -4
 -10   9   1   35620   11750   1
   9  -9   1   28880   13450  -2
   9   0  -1   28880   13450  -3
   0   9  -1   28880   13450  -4
  -9   9   1   28880   13450   1
   8  -9   1   94420    4930  -2
   8   1  -1   94420    4930  -3
  -1   9  -1   94420    4930  -4
  -8   9   1   94420    4930   1
   7  -9   1  111840    5730  -2
   7   2  -1  111840    5730  -3
  -2   9  -1  111840    5730  -4
  -7   9   1  111840    5730   1
   6  -9   1  135140    4130  -2
   6   3  -1  135140    4130  -3
  -3   9  -1  135140    4130  -4
  -6   9   1  135140    4130   1
   5  -9   1  151850    4190  -2
   5   4  -1  151850    4190  -3
  -4   9  -1  151850    4190  -4
  -5   9   1  151850    4190   1
   4  -9   1  137030    3620  -2
   4   5  -1  137030    3620  -3
  -5   9  -1  137030    3620  -4
  -4   9   1  137030    3620   1
   3  -9   1  135320    6060  -2
   3   6  -1  135320    6060  -3
  -6   9  -1  135320    6060  -4
  -3   9   1  135320    6060   1
   2  -9   1  100540    4610  -2
   2   7  -1  100540    4610  -3
  -7   9  -1  100540    4610  -4
  -2   9   1  100540    4610   1
   1  -9   1   90080    4290  -2
   1   8  -1   90080    4290  -3
  -8   9  -1   90080    4290  -4
  -1   9   1   90080    4290   1
   0  -9   1   31020   13570  -2
   0   9  -1   31020   13570  -3
  -9   9  -1   31020   13570  -4
   0   9   1   31020   13570   1
  -1  -9   1   44760   10530  -2
  -1  10  -1   44760   10530  -3
 -10   9  -1   44760   10530  -4
   1   9   1   44760   10530   1
  -2  -9   1  179540    7780  -2
  -2  11  -1  179540    7780  -3
 -11   9  -1  179540    7780  -4
   2   9   1  179540    7780   1
  -3  -9   1  132210   11670  -2
  -3  12  -1  132210   11670  -3
 -12   9  -1  132210   11670  -4
   3   9   1  132210   11670   1
  -4  -9   1  112210   14540  -2
  -4  13  -1  112210   14540  -3
 -13   9  -1  112210   14540  -4
   4   9   1  112210   14540   1
  13 -10   1   84490   23270  -2
  13  -3  -1   84490   23270  -3
   3  10  -1   84490   23270  -4
 -13  10   1   84490   23270   1
  11 -10   1  106970    8690  -2
  11  -1  -1  106970    8690  -3
   1  10  -1  106970    8690  -4
 -11  10   1  106970    8690   1
  10 -10   1  171560    8080  -2
  10   0  -1  171560    8080  -3
   0  10  -1  171560    8080  -4
 -10  10   1  171560    8080   1
   9 -10   1   21920   14220  -2
   9   1  -1   21920   14220  -3
  -1  10  -1   21920   14220  -4
  -9  10   1   21920   14220   1
   7 -10   1  104160    4890  -2
   7   3  -1  104160    4890  -3
  -3  10  -1  104160    4890  -4
  -7  10   1  104160    4890   1
   6 -10   1  236250    5790  -2
   6   4  -1  236250    5790  -3
  -4  10  -1  236250    5790  -4
  -6  10   1  236250    5790   1
   5 -10   1  277850    6230  -2
   5   5  -1  277850    6230  -3
  -5  10  -1  277850    6230  -4
  -5  10   1  277850    6230   1
   4 -10   1  235170    5460  -2
   4   6  -1  235170    5460  -3
  -6  10  -1  235170    5460  -4
  -4  10   1  235170    5460   1
   3 -10   1  108830    5400  -2
   3   7  -1  108830    5400  -3
  -7  10  -1  108830    5400  -4
  -3  10   1  108830    5400   1
   2 -10   1   34210   13430  -2
   2   8  -1   34210   13430  -3
  -8  10  -1   34210   13430  -4
  -2  10   1   34210   13430   1
   1 -10   1   33490   16700  -2
   1   9  -1   33490   16700  -3
  -9  10  -1   33490   16700  -4
  -1  10   1   33490   16700   1
   0 -10   1  166460    7400  -2
   0  10  -1  166460    7400  -3
 -10  10  -1  166460    7400  -4
   0  10   1  166460    7400   1
  -1 -10   1  119490    9880  -2
  -1  11  -1  119490    9880  -3
 -11  10  -1  119490    9880  -4
   1  10   1  119490    9880   1
  -3 -10   1  103020   21470  -2
  -3  13  -1  103020   21470  -3
 -13  10  -1  103020   21470  -4
   3  10   1  103020   21470   1
  11 -11   1  104970   10170  -2
  11   0  -1  104970   10170  -3
   0  11  -1  104970   10170  -4
 -11  11   1  104970   10170   1
  10 -11   1  127950   12750  -2
  10   1  -1  127950   12750  -3
  -1  11  -1  127950   12750  -4
 -10  11   1  127950   12750   1
   9 -11   1  172650   10360  -2
   9   2  -1  172650   10360  -3
  -2  11  -1  172650   10360  -4
  -9  11   1  172650   10360   1
   8 -11   1   46300   15880  -2
   8   3  -1   46300   15880  -3
  -3  11  -1   46300   15880  -4
  -8  11   1   46300   15880   1
   7 -11   1   36180   16330  -2
   7   4  -1   36180   16330  -3
  -4  11  -1   36180   16330  -4
  -7  11   1   36180   16330   1
   6 -11   1   97300    5670  -2
   6   5  -1   97300    5670  -3
  -5  11  -1   97300    5670  -4
  -6  11   1   97300    5670   1
   5 -11   1   99770    5350  -2
   5   6  -1   99770    5350  -3
  -6  11  -1   99770    5350  -4
  -5  11   1   99770    5350   1
   4 -11   1   39220    9640  -2
   4   7  -1   39220    9640  -3
  -7  11  -1   39220    9640  -4
  -4  11   1   39220    9640   1
   2 -11   1  175100    9580  -2
   2   9  -1  175100    9580  -3
  -9  11  -1  175100    9580  -4
  -2  11   1  175100    9580   1
   1 -11   1  111610   15540  -2
   1  10  -1  111610   15540  -3
 -10  11  -1  111610   15540  -4
  -1  11   1  111610   15540   1
   0 -11   1   83670   12940  -2
   0  11  -1   83670   12940  -3
 -11  11  -1   83670   12940  -4
   0  11   1   83670   12940   1
   9 -12   1  160270   13000  -2
   9   3  -1  160270   13000  -3
  -3  12  -1  160270   13000  -4
  -9  12   1  160270   13000   1
   8 -12   1  100520    9660  -2
   8   4  -1  100520    9660  -3
  -4  12  -1  100520    9660  -4
  -8  12   1  100520    9660   1
   7 -12   1  118110   19050  -2
   7   5  -1  118110   19050  -3
  -5  12  -1  118110   19050  -4
  -7  12   1  118110   19050   1
   6 -12   1   59060   11560  -2
   6   6  -1   59060   11560  -3
  -6  12  -1   59060   11560  -4
  -6  12   1   59060   11560   1
   5 -12   1   77490   20450  -2
   5   7  -1   77490   20450  -3
  -7  12  -1   77490   20450  -4
  -5  12   1   77490   20450   1
   4 -12   1  120720   12170  -2
   4   8  -1  120720   12170  -3
  -8  12  -1  120720   12170  -4
  -4  12   1  120720   12170   1
   3 -12   1  133090   16090  -2
   3   9  -1  133090   16090  -3
  -9  12  -1  133090   16090  -4
  -3  12   1  133090   16090   1
   9 -13   1   83060   26940  -2
   9   4  -1   83060   26940  -3
  -4  13  -1   83060   26940  -4
  -9  13   1   83060   26940   1
   7 -13   1   89600   15420  -2
   7   6  -1   89600   15420  -3
  -6  13  -1   89600   15420  -4
  -7  13   1   89600   15420   1
   6 -13   1   86510   16590  -2
   6   7  -1   86510   16590  -3
  -7  13  -1   86510   16590  -4
  -6  13   1   86510   16590   1
   0   0   2 1364070  172200  -2
   0   0  -2 1364070  172200  -3
   0   0  -2 1364070  172200  -4
   0   0   2 1364070  172200   1
   1  -1   2  142410    3030  -2
   1   0  -2  142410    3030  -3
   0   1  -2  142410    3030  -4
  -1   1   2  142410    3030   1
   0  -1   2  147160    1670  -2
   0   1  -2  147160    1670  -3
  -1   1  -2  147160    1670  -4
   0   1   2  147160    1670   1
  -1  -1   2   30530    3390  -2
  -1   2  -2   30530    3390  -3
  -2   1  -2   30530    3390  -4
   1   1   2   30530    3390   1
   3  -2   2  175030    5570  -2
   3  -1  -2  175030    5570  -3
   1   2  -2  175030    5570  -4
  -3   2   2  175030    5570   1
   2  -2   2  954690   41920  -2
   2   0  -2  954690   41920  -3
   0   2  -2  954690   41920  -4
  -2   2   2  954690   41920   1
   1  -2   2   30510    1260  -2
   1   1  -2   30510    1260  -3
  -1   2  -2   30510    1260  -4
  -1   2   2   30510    1260   1
   0  -2   2 1089130   42730  -2
   0   2  -2 1089130   42730  -3
  -2   2  -2 1089130   42730  -4
   0   2   2 1089130   42730   1
  -1  -2   2  208140    5340  -2
  -1   3  -2  208140    5340  -3
  -3   2  -2  208140    5340  -4
   1   2   2  208140    5340   1
  -2  -2   2  775180   27890  -2
  -2   4  -2  775180   27890  -3
  -4   2  -2  775180   27890  -4
   2   2   2  775180   27890   1
   5  -3   2  110840    4940  -2
   5  -2  -2  110840    4940  -3
   2   3  -2  110840    4940  -4
  -5   3   2  110840    4940   1
   4  -3   2  121040    2150  -2
   4  -1  -2  121040    2150  -3
   1   3  -2  121040    2150  -4
  -4   3   2  121040    2150   1
   3  -3   2   90320    1760  -2
   3   0  -2   90320    1760  -3
   0   3  -2   90320    1760  -4
  -3   3   2   90320    1760   1
   2  -3   2  218010    5240  -2
   2   1  -2  218010    5240  -3
  -1   3  -2  218010    5240  -4
  -2   3   2  218010    5240   1
   1  -3   2  217200    3280  -2
   1   2  -2  217200    3280  -3
  -2   3  -2  217200    3280  -4
  -1   3   2  217200    3280   1
   0  -3   2   85310    1980  -2
   0   3  -2   85310    1980  -3
  -3   3  -2   85310    1980  -4
   0   3   2   85310    1980   1
  -1  -3   2  134440    2800  -2
  -1   4  -2  134440    2800  -3
  -4   3  -2  134440    2800  -4
   1   3   2  134440    2800   1
  -2  -3   2  126880    2320  -2
  -2   5  -2  126880    2320  -3
  -5   3  -2  126880    2320  -4
   2   3   2  126880    2320   1
  -3  -3   2  304260    6410  -2
  -3   6  -2  304260    6410  -3
  -6   3  -2  304260    6410  -4
   3   3   2  304260    6410   1
   7  -4   2  157820    6340  -2
   7  -3  -2  157820    6340  -3
   3   4  -2  157820    6340  -4
  -7   4   2  157820    6340   1
   6  -4   2  501330   11400  -2
   6  -2  -2  501330   11400  -3
   2   4  -2  501330   11400  -4
  -6   4   2  501330   11400   1
   5  -4   2  355210    5580  -2
   5  -1  -2  355210    5580  -3
   1   4  -2  355210    5580  -4
  -5   4   2  355210    5580   1
   4  -4   2  594480   15460  -2
   4   0  -2  594480   15460  -3
   0   4  -2  594480   15460  -4
  -4   4   2  594480   15460   1
   3  -4   2  139900    2240  -2
   3   1  -2  139900    2240  -3
  -1   4  -2  139900    2240  -4
  -3   4   2  139900    2240   1
   2  -4   2  866690   30340  -2
   2   2  -2  866690   30340  -3
  -2   4  -2  866690   30340  -4
  -2   4   2  866690   30340   1
   1  -4   2  136510    3030  -2
   1   3  -2  136510    3030  -3
  -3   4  -2  136510    3030  -4
  -1   4   2  136510    3030   1
   0  -4   2  573340   15700  -2
   0   4  -2  573340   15700  -3
  -4   4  -2  573340   15700  -4
   0   4   2  573340   15700   1
  -1  -4   2  367330    6360  -2
  -1   5  -2  367330    6360  -3
  -5   4  -2  367330    6360  -4
   1   4   2  367330    6360   1
  -2  -4   2  535040   11670  -2
  -2   6  -2  535040   11670  -3
  -6   4  -2  535040   11670  -4
   2   4   2  535040   11670   1
  -3  -4   2  184640    4820  -2
  -3   7  -2  184640    4820  -3
  -7   4  -2  184640    4820  -4
   3   4   2  184640    4820   1
  -4  -4   2  179380    6540  -2
  -4   8  -2  179380    6540  -3
  -8   4  -2  179380    6540  -4
   4   4   2  179380    6540   1
   9  -5   2   68460    4430  -2
   9  -4  -2   68460    4430  -3
   4   5  -2   68460    4430  -4
  -9   5   2   68460    4430   1
   8  -5   2  275670    5670  -2
   8  -3  -2  275670    5670  -3
   3   5  -2  275670    5670  -4
  -8   5   2  275670    5670   1
   7  -5   2   32820    2490  -2
   7  -2  -2   32820    2490  -3
   2   5  -2   32820    2490  -4
  -7   5   2   32820    2490   1
   6  -5   2  222080    6740  -2
   6  -1  -2  222080    6740  -3
   1   5  -2  222080    6740  -4
  -6   5   2  222080    6740   1
   5  -5   2  156810    4510  -2
   5   0  -2  156810    4510  -3
   0   5  -2  156810    4510  -4
  -5   5   2  156810    4510   1
   4  -5   2  319070    6760  -2
   4   1  -2  319070    6760  -3
  -1   5  -2  319070    6760  -4
  -4   5   2  319070    6760   1
   3  -5   2  118530    2610  -2
   3   2  -2  118530    2610  -3
  -2   5  -2  118530    2610  -4
  -3   5   2  118530    2610   1
   2  -5   2  126700    1700  -2
   2   3  -2  126700    1700  -3
  -3   5  -2  126700    1700  -4
  -2   5   2  126700    1700   1
   1  -5   2  286200    7070  -2
   1   4  -2  286200    7070  -3
  -4   5  -2  286200    7070  -4
  -1   5   2  286200    7070   1
   0  -5   2  169610    3260  -2
   0   5  -2  169610    3260  -3
  -5   5  -2  169610    3260  -4
   0   5   2  169610    3260   1
  -1  -5   2  191100    3960  -2
  -1   6  -2  191100    3960  -3
  -6   5  -2  191100    3960  -4
   1   5   2  191100    3960   1
  -2  -5   2   32060    3570  -2
  -2   7  -2   32060    3570  -3
  -7   5  -2   32060    3570  -4
   2   5   2   32060    3570   1
  -3  -5   2  270130    6010  -2
  -3   8  -2  270130    6010  -3
  -8   5  -2  270130    6010  -4
   3   5   2  270130    6010   1
  -4  -5   2   77520    6560  -2
  -4   9  -2   77520    6560  -3
  -9   5  -2   77520    6560  -4
   4   5   2   77520    6560   1
  -5  -5   2  203020    7500  -2
  -5  10  -2  203020    7500  -3
 -10   5  -2  203020    7500  -4
   5   5   2  203020    7500   1
  11  -6   2  109680    8080  -2
  11  -5  -2  109680    8080  -3
   5   6  -2  109680    8080  -4
 -11   6   2  109680    8080   1
  10  -6   2  201250    6190  -2
  10  -4  -2  201250    6190  -3
   4   6  -2  201250    6190  -4
 -10   6   2  201250    6190   1
   9  -6   2   62000    3780  -2
   9  -3  -2   62000    3780  -3
   3   6  -2   62000    3780  -4
  -9   6   2   62000    3780   1
   8  -6   2  234690    6020  -2
   8  -2  -2  234690    6020  -3
   2   6  -2  234690    6020  -4
  -8   6   2  234690    6020   1
   7  -6   2  176840    4420  -2
   7  -1  -2  176840    4420  -3
   1   6  -2  176840    4420  -4
  -7   6   2  176840    4420   1
   6  -6   2  260790    4710  -2
   6   0  -2  260790    4710  -3
   0   6  -2  260790    4710  -4
  -6   6   2  260790    4710   1
   5  -6   2  167600    4720  -2
   5   1  -2  167600    4720  -3
  -1   6  -2  167600    4720  -4
  -5   6   2  167600    4720   1
   4  -6   2  529450    8960  -2
   4   2  -2  529450    8960  -3
  -2   6  -2  529450    8960  -4
  -4   6   2  529450    8960   1
   3  -6   2  276830    3270  -2
   3   3  -2  276830    3270  -3
  -3   6  -2  276830    3270  -4
  -3   6   2  276830    3270   1
   2  -6   2  569990   11490  -2
   2   4  -2  569990   11490  -3
  -4   6  -2  569990   11490  -4
  -2   6   2  569990   11490   1
   1  -6   2  215840    4530  -2
   1   5  -2  215840    4530  -3
  -5   6  -2  215840    4530  -4
  -1   6   2  215840    4530   1
   0  -6   2  271810    5270  -2
   0   6  -2  271810    5270  -3
  -6   6  -2  271810    5270  -4
   0   6   2  271810    5270   1
  -1  -6   2  176660    4950  -2
  -1   7  -2  176660    4950  -3
  -7   6  -2  176660    4950  -4
   1   6   2  176660    4950   1
  -2  -6   2  220660    7790  -2
  -2   8  -2  220660    7790  -3
  -8   6  -2  220660    7790  -4
   2   6   2  220660    7790   1
  -3  -6   2   64440    5220  -2
  -3   9  -2   64440    5220  -3
  -9   6  -2   64440    5220  -4
   3   6   2   64440    5220   1
  -4  -6   2  195130    7340  -2
  -4  10  -2  195130    7340  -3
 -10   6  -2  195130    7340  -4
   4   6   2  195130    7340   1
  -5  -6   2  115600    7620  -2
  -5  11  -2  115600    7620  -3
 -11   6  -2  115600    7620  -4
   5   6   2  115600    7620   1
  13  -7   2  112000   25010  -2
  13  -6  -2  112000   25010  -3
   6   7  -2  112000   25010  -4
 -13   7   2  112000   25010   1
  12  -7   2  121730    8350  -2
  12  -5  -2  121730    8350  -3
   5   7  -2  121730    8350  -4
 -12   7   2  121730    8350   1
  10  -7   2  216530    6420  -2
  10  -3  -2  216530    6420  -3
   3   7  -2  216530    6420  -4
 -10   7   2  216530    6420   1
   9  -7   2  214190    5850  -2
   9  -2  -2  214190    5850  -3
   2   7  -2  214190    5850  -4
  -9   7   2  214190    5850   1
   8  -7   2  152900    6410  -2
   8  -1  -2  152900    6410  -3
   1   7  -2  152900    6410  -4
  -8   7   2  152900    6410   1
   7  -7   2   36640    2930  -2
   7   0  -2   36640    2930  -3
   0   7  -2   36640    2930  -4
  -7   7   2   36640    2930   1
   6  -7   2  182190    4020  -2
   6   1  -2  182190    4020  -3
  -1   7  -2  182190    4020  -4
  -6   7   2  182190    4020   1
   5  -7   2   25140    2110  -2
   5   2  -2   25140    2110  -3
  -2   7  -2   25140    2110  -4
  -5   7   2   25140    2110   1
   4  -7   2  191140    3020  -2
   4   3  -2  191140    3020  -3
  -3   7  -2  191140    3020  -4
  -4   7   2  191140    3020   1
   3  -7   2  175340    5120  -2
   3   4  -2  175340    5120  -3
  -4   7  -2  175340    5120  -4
  -3   7   2  175340    5120   1
   2  -7   2   27080    1890  -2
   2   5  -2   27080    1890  -3
  -5   7  -2   27080    1890  -4
  -2   7   2   27080    1890   1
   1  -7   2  171740    4390  -2
   1   6  -2  171740    4390  -3
  -6   7  -2  171740    4390  -4
  -1   7   2  171740    4390   1
   0  -7   2   36370    4000  -2
   0   7  -2   36370    4000  -3
  -7   7  -2   36370    4000  -4
   0   7   2   36370    4000   1
  -1  -7   2  146350    4850  -2
  -1   8  -2  146350    4850  -3
  -8   7  -2  146350    4850  -4
   1   7   2  146350    4850   1
  -2  -7   2  198440    6920  -2
  -2   9  -2  198440    6920  -3
  -9   7  -2  198440    6920  -4
   2   7   2  198440    6920   1
  -3  -7   2  207630    7400  -2
  -3  10  -2  207630    7400  -3
 -10   7  -2  207630    7400  -4
   3   7   2  207630    7400   1
  -4  -7   2   36130   16990  -2
  -4  11  -2   36130   16990  -3
 -11   7  -2   36130   16990  -4
   4   7   2   36130   16990   1
  -5  -7   2  121410    9190  -2
  -5  12  -2  121410    9190  -3
 -12   7  -2  121410    9190  -4
   5   7   2  121410    9190   1
  11  -8   2  108780    6400  -2
  11  -3  -2  108780    6400  -3
   3   8  -2  108780    6400  -4
 -11   8   2  108780    6400   1
  10  -8   2   36650   10080  -2
  10  -2  -2   36650   10080  -3
   2   8  -2   36650   10080  -4
 -10   8   2   36650   10080   1
   9  -8   2  113300    6820  -2
   9  -1  -2  113300    6820  -3
   1   8  -2  113300    6820  -4
  -9   8   2  113300    6820   1
   8  -8   2  312210    7040  -2
   8   0  -2  312210    7040  -3
   0   8  -2  312210    7040  -4
  -8   8   2  312210    7040   1
   7  -8   2  181480    4710  -2
   7   1  -2  181480    4710  -3
  -1   8  -2  181480    4710  -4
  -7   8   2  181480    4710   1
   6  -8   2  234100    5120  -2
   6   2  -2  234100    5120  -3
  -2   8  -2  234100    5120  -4
  -6   8   2  234100    5120   1
   5  -8   2  270910    5250  -2
   5   3  -2  270910    5250  -3
  -3   8  -2  270910    5250  -4
  -5   8   2  270910    5250   1
   4  -8   2  167460    3750  -2
   4   4  -2  167460    3750  -3
  -4   8  -2  167460    3750  -4
  -4   8   2  167460    3750   1
   3  -8   2  249170    4150  -2
   3   5  -2  249170    4150  -3
  -5   8  -2  249170    4150  -4
  -3   8   2  249170    4150   1
   2  -8   2  216890    4030  -2
   2   6  -2  216890    4030  -3
  -6   8  -2  216890    4030  -4
  -2   8   2  216890    4030   1
   1  -8   2  188660    4770  -2
   1   7  -2  188660    4770  -3
  -7   8  -2  188660    4770  -4
  -1   8   2  188660    4770   1
   0  -8   2  317230    7420  -2
   0   8  -2  317230    7420  -3
  -8   8  -2  317230    7420  -4
   0   8   2  317230    7420   1
  -1  -8   2  149890    5870  -2
  -1   9  -2  149890    5870  -3
  -9   8  -2  149890    5870  -4
   1   8   2  149890    5870   1
  -2  -8   2   43740    8180  -2
  -2  10  -2   43740    8180  -3
 -10   8  -2   43740    8180  -4
   2   8   2   43740    8180   1
  -3  -8   2   95850    9110  -2
  -3  11  -2   95850    9110  -3
 -11   8  -2   95850    9110  -4
   3   8   2   95850    9110   1
  13  -9   2  121230   14590  -2
  13  -4  -2  121230   14590  -3
   4   9  -2  121230   14590  -4
 -13   9   2  121230   14590   1
  12  -9   2  132170   10910  -2
  12  -3  -2  132170   10910  -3
   3   9  -2  132170   10910  -4
 -12   9   2  132170   10910   1
  10  -9   2  143280    7700  -2
  10  -1  -2  143280    7700  -3
   1   9  -2  143280    7700  -4
 -10   9   2  143280    7700   1
   8  -9   2  156100    4880  -2
   8   1  -2  156100    4880  -3
  -1   9  -2  156100    4880  -4
  -8   9   2  156100    4880   1
   7  -9   2  203480    5150  -2
   7   2  -2  203480    5150  -3
  -2   9  -2  203480    5150  -4
  -7   9   2  203480    5150   1
   6  -9   2   66440    4150  -2
   6   3  -2   66440    4150  -3
  -3   9  -2   66440    4150  -4
  -6   9   2   66440    4150   1
   5  -9   2   74640    5150  -2
   5   4  -2   74640    5150  -3
  -4   9  -2   74640    5150  -4
  -5   9   2   74640    5150   1
   4  -9   2   63820    4980  -2
   4   5  -2   63820    4980  -3
  -5   9  -2   63820    4980  -4
  -4   9   2   63820    4980   1
   3  -9   2   55430    3600  -2
   3   6  -2   55430    3600  -3
  -6   9  -2   55430    3600  -4
  -3   9   2   55430    3600   1
   2  -9   2  223410    4610  -2
   2   7  -2  223410    4610  -3
  -7   9  -2  223410    4610  -4
  -2   9   2  223410    4610   1
   1  -9   2  145560    5260  -2
   1   8  -2  145560    5260  -3
  -8   9  -2  145560    5260  -4
  -1   9   2  145560    5260   1
  -1  -9   2  132230    6760  -2
  -1  10  -2  132230    6760  -3
 -10   9  -2  132230    6760  -4
   1   9   2  132230    6760   1
  -2  -9   2   44480   12720  -2
  -2  11  -2   44480   12720  -3
 -11   9  -2   44480   12720  -4
   2   9   2   44480   12720   1
  -3  -9   2  115430   16350  -2
  -3  12  -2  115430   16350  -3
 -12   9  -2  115430   16350  -4
   3   9   2  115430   16350   1
  -4  -9   2  101750   11290  -2
  -4  13  -2  101750   11290  -3
 -13   9  -2  101750   11290  -4
   4   9   2  101750   11290   1
  12 -10   2  125080   18670  -2
  12  -2  -2  125080   18670  -3
   2  10  -2  125080   18670  -4
 -12  10   2  125080   18670   1
  11 -10   2  123120   13830  -2
  11  -1  -2  123120   13830  -3
   1  10  -2  123120   13830  -4
 -11  10   2  123120   13830   1
   9 -10   2  141040    6050  -2
   9   1  -2  141040    6050  -3
  -1  10  -2  141040    6050  -4
  -9  10   2  141040    6050   1
   8 -10   2   34680   14970  -2
   8   2  -2   34680   14970  -3
  -2  10  -2   34680   14970  -4
  -8  10   2   34680   14970   1
   7 -10   2  173170    5640  -2
   7   3  -2  173170    5640  -3
  -3  10  -2  173170    5640  -4
  -7  10   2  173170    5640   1
   6 -10   2  174510    5310  -2
   6   4  -2  174510    5310  -3
  -4  10  -2  174510    5310  -4
  -6  10   2  174510    5310   1
   5 -10   2  234050    6060  -2
   5   5  -2  234050    6060  -3
  -5  10  -2  234050    6060  -4
  -5  10   2  234050    6060   1
   4 -10   2  198130    5980  -2
   4   6  -2  198130    5980  -3
  -6  10  -2  198130    5980  -4
  -4  10   2  198130    5980   1
   3 -10   2  197790    5990  -2
   3   7  -2  197790    5990  -3
  -7  10  -2  197790    5990  -4
  -3  10   2  197790    5990   1
   2 -10   2   43230    8110  -2
   2   8  -2   43230    8110  -3
  -8  10  -2   43230    8110  -4
  -2  10   2   43230    8110   1
   1 -10   2  134310    6880  -2
   1   9  -2  134310    6880  -3
  -9  10  -2  134310    6880  -4
  -1  10   2  134310    6880   1
  -1 -10   2   98370   10930  -2
  -1  11  -2   98370   10930  -3
 -11  10  -2   98370   10930  -4
   1  10   2   98370   10930   1
  -2 -10   2   99270   11690  -2
  -2  12  -2   99270   11690  -3
 -12  10  -2   99270   11690  -4
   2  10   2   99270   11690   1
  12 -11   2   66020   16220  -2
  12  -1  -2   66020   16220  -3
   1  11  -2   66020   16220  -4
 -12  11   2   66020   16220   1
  11 -11   2  143260   10980  -2
  11   0  -2  143260   10980  -3
   0  11  -2  143260   10980  -4
 -11  11   2  143260   10980   1
  10 -11   2   97520    9700  -2
  10   1  -2   97520    9700  -3
  -1  11  -2   97520    9700  -4
 -10  11   2   97520    9700   1
   8 -11   2  100380    8290  -2
   8   3  -2  100380    8290  -3
  -3  11  -2  100380    8290  -4
  -8  11   2  100380    8290   1
   7 -11   2   29200   19430  -2
   7   4  -2   29200   19430  -3
  -4  11  -2   29200   19430  -4
  -7  11   2   29200   19430   1
   6 -11   2  112510    7150  -2
   6   5  -2  112510    7150  -3
  -5  11  -2  112510    7150  -4
  -6  11   2  112510    7150   1
   5 -11   2  120880    7140  -2
   5   6  -2  120880    7140  -3
  -6  11  -2  120880    7140  -4
  -5  11   2  120880    7140   1
   3 -11   2   96620    5820  -2
   3   8  -2   96620    5820  -3
  -8  11  -2   96620    5820  -4
  -3  11   2   96620    5820   1
   2 -11   2   57730   19640  -2
   2   9  -2   57730   19640  -3
  -9  11  -2   57730   19640  -4
  -2  11   2   57730   19640   1
   1 -11   2   81460   11140  -2
   1  10  -2   81460   11140  -3
 -10  11  -2   81460   11140  -4
  -1  11   2   81460   11140   1
   0 -11   2  143250    9460  -2
   0  11  -2  143250    9460  -3
 -11  11  -2  143250    9460  -4
   0  11   2  143250    9460   1
  -1 -11   2   83510   26300  -2
  -1  12  -2   83510   26300  -3
 -12  11  -2   83510   26300  -4
   1  11   2   83510   26300   1
  10 -12   2  115970   11900  -2
  10   2  -2  115970   11900  -3
  -2  12  -2  115970   11900  -4
 -10  12   2  115970   11900   1
   9 -12   2  115000    9700  -2
   9   3  -2  115000    9700  -3
  -3  12  -2  115000    9700  -4
  -9  12   2  115000    9700   1
   8 -12   2   40110   22690  -2
   8   4  -2   40110   22690  -3
  -4  12  -2   40110   22690  -4
  -8  12   2   40110   22690   1
   7 -12   2  110730    7590  -2
   7   5  -2  110730    7590  -3
  -5  12  -2  110730    7590  -4
  -7  12   2  110730    7590   1
   5 -12   2  117240    7740  -2
   5   7  -2  117240    7740  -3
  -7  12  -2  117240    7740  -4
  -5  12   2  117240    7740   1
   3 -12   2  112340    6560  -2
   3   9  -2  112340    6560  -3
  -9  12  -2  112340    6560  -4
  -3  12   2  112340    6560   1
   2 -12   2  120790    9690  -2
   2  10  -2  120790    9690  -3
 -10  12  -2  120790    9690  -4
  -2  12   2  120790    9690   1
   1 -12   2   96130   16140  -2
   1  11  -2   96130   16140  -3
 -11  12  -2   96130   16140  -4
  -1  12   2   96130   16140   1
   9 -13   2  128990   13880  -2
   9   4  -2  128990   13880  -3
  -4  13  -2  128990   13880  -4
  -9  13   2  128990   13880   1
   8 -13   2   75030   21200  -2
   8   5  -2   75030   21200  -3
  -5  13  -2   75030   21200  -4
  -8  13   2   75030   21200   1
   4 -13   2  114460   22390  -2
   4   9  -2  114460   22390  -3
  -9  13  -2  114460   22390  -4
  -4  13   2  114460   22390   1
   3 -13   2   76740   22260  -2
   3  10  -2   76740   22260  -3
 -10  13  -2   76740   22260  -4
  -3  13   2   76740   22260   1
   0   0   3  422860    7350  -2
   0   0  -3  422860    7350  -3
   0   0  -3  422860    7350  -4
   0   0   3  422860    7350   1
   1  -1   3   58210    2190  -2
   1   0  -3   58210    2190  -3
   0   1  -3   58210    2190  -4
  -1   1   3   58210    2190   1
   0  -1   3   51820    1970  -2
   0   1  -3   51820    1970  -3
  -1   1  -3   51820    1970  -4
   0   1   3   51820    1970   1
  -1  -1   3   40660    1860  -2
  -1   2  -3   40660    1860  -3
  -2   1  -3   40660    1860  -4
   1   1   3   40660    1860   1
   3  -2   3  327860    5050  -2
   3  -1  -3  327860    5050  -3
   1   2  -3  327860    5050  -4
  -3   2   3  327860    5050   1
   2  -2   3  681650   14640  -2
   2   0  -3  681650   14640  -3
   0   2  -3  681650   14640  -4
  -2   2   3  681650   14640   1
   1  -2   3   40070    1420  -2
   1   1  -3   40070    1420  -3
  -1   2  -3   40070    1420  -4
  -1   2   3   40070    1420   1
   0  -2   3  690210   14890  -2
   0   2  -3  690210   14890  -3
  -2   2  -3  690210   14890  -4
   0   2   3  690210   14890   1
  -1  -2   3  349930    8990  -2
  -1   3  -3  349930    8990  -3
  -3   2  -3  349930    8990  -4
   1   2   3  349930    8990   1
  -2  -2   3  507000   12510  -2
  -2   4  -3  507000   12510  -3
  -4   2  -3  507000   12510  -4
   2   2   3  507000   12510   1
   5  -3   3  295330    5960  -2
   5  -2  -3  295330    5960  -3
   2   3  -3  295330    5960  -4
  -5   3   3  295330    5960   1
   4  -3   3  454980    7900  -2
   4  -1  -3  454980    7900  -3
   1   3  -3  454980    7900  -4
  -4   3   3  454980    7900   1
   3  -3   3   31350    2270  -2
   3   0  -3   31350    2270  -3
   0   3  -3   31350    2270  -4
  -3   3   3   31350    2270   1
   2  -3   3  311930    5370  -2
   2   1  -3  311930    5370  -3
  -1   3  -3  311930    5370  -4
  -2   3   3  311930    5370   1
   1  -3   3  297220    5400  -2
   1   2  -3  297220    5400  -3
  -2   3  -3  297220    5400  -4
  -1   3   3  297220    5400   1
   0  -3   3   24350    1790  -2
   0   3  -3   24350    1790  -3
  -3   3  -3   24350    1790  -4
   0   3   3   24350    1790   1
  -1  -3   3  471030   11780  -2
  -1   4  -3  471030   11780  -3
  -4   3  -3  471030   11780  -4
   1   3   3  471030   11780   1
  -2  -3   3  306720    3960  -2
  -2   5  -3  306720    3960  -3
  -5   3  -3  306720    3960  -4
   2   3   3  306720    3960   1
  -3  -3   3  244720    4160  -2
  -3   6  -3  244720    4160  -3
  -6   3  -3  244720    4160  -4
   3   3   3  244720    4160   1
   7  -4   3  176460    4590  -2
   7  -3  -3  176460    4590  -3
   3   4  -3  176460    4590  -4
  -7   4   3  176460    4590   1
   6  -4   3  137810    4370  -2
   6  -2  -3  137810    4370  -3
   2   4  -3  137810    4370  -4
  -6   4   3  137810    4370   1
   5  -4   3  131080    2750  -2
   5  -1  -3  131080    2750  -3
   1   4  -3  131080    2750  -4
  -5   4   3  131080    2750   1
   4  -4   3  177400    3970  -2
   4   0  -3  177400    3970  -3
   0   4  -3  177400    3970  -4
  -4   4   3  177400    3970   1
   3  -4   3  512300    7370  -2
   3   1  -3  512300    7370  -3
  -1   4  -3  512300    7370  -4
  -3   4   3  512300    7370   1
   2  -4   3  492070    9150  -2
   2   2  -3  492070    9150  -3
  -2   4  -3  492070    9150  -4
  -2   4   3  492070    9150   1
   1  -4   3  475830    7620  -2
   1   3  -3  475830    7620  -3
  -3   4  -3  475830    7620  -4
  -1   4   3  475830    7620   1
   0  -4   3  193410    5550  -2
   0   4  -3  193410    5550  -3
  -4   4  -3  193410    5550  -4
   0   4   3  193410    5550   1
  -1  -4   3  137230    3000  -2
  -1   5  -3  137230    3000  -3
  -5   4  -3  137230    3000  -4
   1   4   3  137230    3000   1
  -2  -4   3  124830    4790  -2
  -2   6  -3  124830    4790  -3
  -6   4  -3  124830    4790  -4
   2   4   3  124830    4790   1
  -3  -4   3  195600    4910  -2
  -3   7  -3  195600    4910  -3
  -7   4  -3  195600    4910  -4
   3   4   3  195600    4910   1
  -4  -4   3  115040    4100  -2
  -4   8  -3  115040    4100  -3
  -8   4  -3  115040    4100  -4
   4   4   3  115040    4100   1
   8  -5   3  291330    8420  -2
   8  -3  -3  291330    8420  -3
   3   5  -3  291330    8420  -4
  -8   5   3  291330    8420   1
   7  -5   3   54940    2940  -2
   7  -2  -3   54940    2940  -3
   2   5  -3   54940    2940  -4
  -7   5   3   54940    2940   1
   6  -5   3  344630    7410  -2
   6  -1  -3  344630    7410  -3
   1   5  -3  344630    7410  -4
  -6   5   3  344630    7410   1
   5  -5   3  201030    2880  -2
   5   0  -3  201030    2880  -3
   0   5  -3  201030    2880  -4
  -5   5   3  201030    2880   1
   4  -5   3  132020    2780  -2
   4   1  -3  132020    2780  -3
  -1   5  -3  132020    2780  -4
  -4   5   3  132020    2780   1
   3  -5   3  266370    3300  -2
   3   2  -3  266370    3300  -3
  -2   5  -3  266370    3300  -4
  -3   5   3  266370    3300   1
   2  -5   3  263520    4720  -2
   2   3  -3  263520    4720  -3
  -3   5  -3  263520    4720  -4
  -2   5   3  263520    4720   1
   1  -5   3  122910    3590  -2
   1   4  -3  122910    3590  -3
  -4   5  -3  122910    3590  -4
  -1   5   3  122910    3590   1
   0  -5   3  196060   11150  -2
   0   5  -3  196060   11150  -3
  -5   5  -3  196060   11150  -4
   0   5   3  196060   11150   1
  -1  -5   3  310930    5990  -2
  -1   6  -3  310930    5990  -3
  -6   5  -3  310930    5990  -4
   1   5   3  310930    5990   1
  -2  -5   3   56800    4120  -2
  -2   7  -3   56800    4120  -3
  -7   5  -3   56800    4120  -4
   2   5   3   56800    4120   1
  -3  -5   3  308670    6720  -2
  -3   8  -3  308670    6720  -3
  -8   5  -3  308670    6720  -4
   3   5   3  308670    6720   1
  -5  -5   3  247800   10200  -2
  -5  10  -3  247800   10200  -3
 -10   5  -3  247800   10200  -4
   5   5   3  247800   10200   1
  11  -6   3  105560    9610  -2
  11  -5  -3  105560    9610  -3
   5   6  -3  105560    9610  -4
 -11   6   3  105560    9610   1
  10  -6   3   45330    7000  -2
  10  -4  -3   45330    7000  -3
   4   6  -3   45330    7000  -4
 -10   6   3   45330    7000   1
   9  -6   3   83870    6970  -2
   9  -3  -3   83870    6970  -3
   3   6  -3   83870    6970  -4
  -9   6   3   83870    6970   1
   8  -6   3  132640    5060  -2
   8  -2  -3  132640    5060  -3
   2   6  -3  132640    5060  -4
  -8   6   3  132640    5060   1
   7  -6   3   67530    3820  -2
   7  -1  -3   67530    3820  -3
   1   6  -3   67530    3820  -4
  -7   6   3   67530    3820   1
   6  -6   3  197180    3910  -2
   6   0  -3  197180    3910  -3
   0   6  -3  197180    3910  -4
  -6   6   3  197180    3910   1
   5  -6   3  361080    7330  -2
   5   1  -3  361080    7330  -3
  -1   6  -3  361080    7330  -4
  -5   6   3  361080    7330   1
   4  -6   3  144960    3530  -2
   4   2  -3  144960    3530  -3
  -2   6  -3  144960    3530  -4
  -4   6   3  144960    3530   1
   3  -6   3  239370    3920  -2
   3   3  -3  239370    3920  -3
  -3   6  -3  239370    3920  -4
  -3   6   3  239370    3920   1
   2  -6   3  132400    4170  -2
   2   4  -3  132400    4170  -3
  -4   6  -3  132400    4170  -4
  -2   6   3  132400    4170   1
   1  -6   3  373030    5440  -2
   1   5  -3  373030    5440  -3
  -5   6  -3  373030    5440  -4
  -1   6   3  373030    5440   1
   0  -6   3  219860    4640  -2
   0   6  -3  219860    4640  -3
  -6   6  -3  219860    4640  -4
   0   6   3  219860    4640   1
  -1  -6   3   72760    4690  -2
  -1   7  -3   72760    4690  -3
  -7   6  -3   72760    4690  -4
   1   6   3   72760    4690   1
  -2  -6   3  141310    6850  -2
  -2   8  -3  141310    6850  -3
  -8   6  -3  141310    6850  -4
   2   6   3  141310    6850   1
  -3  -6   3   92310    5980  -2
  -3   9  -3   92310    5980  -3
  -9   6  -3   92310    5980  -4
   3   6   3   92310    5980   1
  -4  -6   3   44330   10110  -2
  -4  10  -3   44330   10110  -3
 -10   6  -3   44330   10110  -4
   4   6   3   44330   10110   1
  -5  -6   3  103230    8770  -2
  -5  11  -3  103230    8770  -3
 -11   6  -3  103230    8770  -4
   5   6   3  103230    8770   1
  12  -7   3  117560    9150  -2
  12  -5  -3  117560    9150  -3
   5   7  -3  117560    9150  -4
 -12   7   3  117560    9150   1
  11  -7   3   42230   19560  -2
  11  -4  -3   42230   19560  -3
   4   7  -3   42230   19560  -4
 -11   7   3   42230   19560   1
  10  -7   3  235320    9830  -2
  10  -3  -3  235320    9830  -3
   3   7  -3  235320    9830  -4
 -10   7   3  235320    9830   1
   9  -7   3   30830    7080  -2
   9  -2  -3   30830    7080  -3
   2   7  -3   30830    7080  -4
  -9   7   3   30830    7080   1
   8  -7   3  239430    5340  -2
   8  -1  -3  239430    5340  -3
   1   7  -3  239430    5340  -4
  -8   7   3  239430    5340   1
   7  -7   3   18180    4910  -2
   7   0  -3   18180    4910  -3
   0   7  -3   18180    4910  -4
  -7   7   3   18180    4910   1
   6  -7   3   64210    2970  -2
   6   1  -3   64210    2970  -3
  -1   7  -3   64210    2970  -4
  -6   7   3   64210    2970   1
   5  -7   3   53840    2380  -2
   5   2  -3   53840    2380  -3
  -2   7  -3   53840    2380  -4
  -5   7   3   53840    2380   1
   4  -7   3  185860    3440  -2
   4   3  -3  185860    3440  -3
  -3   7  -3  185860    3440  -4
  -4   7   3  185860    3440   1
   3  -7   3  160640    3430  -2
   3   4  -3  160640    3430  -3
  -4   7  -3  160640    3430  -4
  -3   7   3  160640    3430   1
   2  -7   3   57590    2160  -2
   2   5  -3   57590    2160  -3
  -5   7  -3   57590    2160  -4
  -2   7   3   57590    2160   1
   1  -7   3   61200    3210  -2
   1   6  -3   61200    3210  -3
  -6   7  -3   61200    3210  -4
  -1   7   3   61200    3210   1
   0  -7   3   23150    4250  -2
   0   7  -3   23150    4250  -3
  -7   7  -3   23150    4250  -4
   0   7   3   23150    4250   1
  -1  -7   3  234100    6880  -2
  -1   8  -3  234100    6880  -3
  -8   7  -3  234100    6880  -4
   1   7   3  234100    6880   1
  -2  -7   3   21920   12210  -2
  -2   9  -3   21920   12210  -3
  -9   7  -3   21920   12210  -4
   2   7   3   21920   12210   1
  -3  -7   3  190610   11220  -2
  -3  10  -3  190610   11220  -3
 -10   7  -3  190610   11220  -4
   3   7   3  190610   11220   1
  -4  -7   3   38760   12180  -2
  -4  11  -3   38760   12180  -3
 -11   7  -3   38760   12180  -4
   4   7   3   38760   12180   1
  -5  -7   3  128900   10100  -2
  -5  12  -3  128900   10100  -3
 -12   7  -3  128900   10100  -4
   5   7   3  128900   10100   1
  10  -8   3   50630   11450  -2
  10  -2  -3   50630   11450  -3
   2   8  -3   50630   11450  -4
 -10   8   3   50630   11450   1
   9  -8   3  201940    6380  -2
   9  -1  -3  201940    6380  -3
   1   8  -3  201940    6380  -4
  -9   8   3  201940    6380   1
   8  -8   3   72360    4380  -2
   8   0  -3   72360    4380  -3
   0   8  -3   72360    4380  -4
  -8   8   3   72360    4380   1
   7  -8   3  196520    5790  -2
   7   1  -3  196520    5790  -3
  -1   8  -3  196520    5790  -4
  -7   8   3  196520    5790   1
   6  -8   3  119650    4070  -2
   6   2  -3  119650    4070  -3
  -2   8  -3  119650    4070  -4
  -6   8   3  119650    4070   1
   5  -8   3  340640    5560  -2
   5   3  -3  340640    5560  -3
  -3   8  -3  340640    5560  -4
  -5   8   3  340640    5560   1
   4  -8   3  114510    3860  -2
   4   4  -3  114510    3860  -3
  -4   8  -3  114510    3860  -4
  -4   8   3  114510    3860   1
   3  -8   3  337110    6800  -2
   3   5  -3  337110    6800  -3
  -5   8  -3  337110    6800  -4
  -3   8   3  337110    6800   1
   2  -8   3  147380    7270  -2
   2   6  -3  147380    7270  -3
  -6   8  -3  147380    7270  -4
  -2   8   3  147380    7270   1
   1  -8   3  226140    6160  -2
   1   7  -3  226140    6160  -3
  -7   8  -3  226140    6160  -4
  -1   8   3  226140    6160   1
   0  -8   3   68280    4270  -2
   0   8  -3   68280    4270  -3
  -8   8  -3   68280    4270  -4
   0   8   3   68280    4270   1
  -1  -8   3  213250    7490  -2
  -1   9  -3  213250    7490  -3
  -9   8  -3  213250    7490  -4
   1   8   3  213250    7490   1
  -2  -8   3   85780   24390  -2
  -2  10  -3   85780   24390  -3
 -10   8  -3   85780   24390  -4
   2   8   3   85780   24390   1
  -3  -8   3   51520   12230  -2
  -3  11  -3   51520   12230  -3
 -11   8  -3   51520   12230  -4
   3   8   3   51520   12230   1
  12  -9   3  138040    8790  -2
  12  -3  -3  138040    8790  -3
   3   9  -3  138040    8790  -4
 -12   9   3  138040    8790   1
  10  -9   3   97130    7310  -2
  10  -1  -3   97130    7310  -3
   1   9  -3   97130    7310  -4
 -10   9   3   97130    7310   1
   9  -9   3   33610   14580  -2
   9   0  -3   33610   14580  -3
   0   9  -3   33610   14580  -4
  -9   9   3   33610   14580   1
   8  -9   3  209530    8640  -2
   8   1  -3  209530    8640  -3
  -1   9  -3  209530    8640  -4
  -8   9   3  209530    8640   1
   7  -9   3   17660   11700  -2
   7   2  -3   17660   11700  -3
  -2   9  -3   17660   11700  -4
  -7   9   3   17660   11700   1
   6  -9   3   89330    4790  -2
   6   3  -3   89330    4790  -3
  -3   9  -3   89330    4790  -4
  -6   9   3   89330    4790   1
   3  -9   3   80430    4310  -2
   3   6  -3   80430    4310  -3
  -6   9  -3   80430    4310  -4
  -3   9   3   80430    4310   1
   2  -9   3   21060   11520  -2
   2   7  -3   21060   11520  -3
  -7   9  -3   21060   11520  -4
  -2   9   3   21060   11520   1
   1  -9   3  159380    7830  -2
   1   8  -3  159380    7830  -3
  -8   9  -3  159380    7830  -4
  -1   9   3  159380    7830   1
   0  -9   3   56780   16400  -2
   0   9  -3   56780   16400  -3
  -9   9  -3   56780   16400  -4
   0   9   3   56780   16400   1
  -1  -9   3   87590    7840  -2
  -1  10  -3   87590    7840  -3
 -10   9  -3   87590    7840  -4
   1   9   3   87590    7840   1
  -3  -9   3  125690   13400  -2
  -3  12  -3  125690   13400  -3
 -12   9  -3  125690   13400  -4
   3   9   3  125690   13400   1
  11 -10   3   70070   19390  -2
  11  -1  -3   70070   19390  -3
   1  10  -3   70070   19390  -4
 -11  10   3   70070   19390   1
   9 -10   3  102100   10080  -2
   9   1  -3  102100   10080  -3
  -1  10  -3  102100   10080  -4
  -9  10   3  102100   10080   1
   8 -10   3   62550   15740  -2
   8   2  -3   62550   15740  -3
  -2  10  -3   62550   15740  -4
  -8  10   3   62550   15740   1
   7 -10   3  225610    7020  -2
   7   3  -3  225610    7020  -3
  -3  10  -3  225610    7020  -4
  -7  10   3  225610    7020   1
   6 -10   3   40840    8920  -2
   6   4  -3   40840    8920  -3
  -4  10  -3   40840    8920  -4
  -6  10   3   40840    8920   1
   5 -10   3  216060    6060  -2
   5   5  -3  216060    6060  -3
  -5  10  -3  216060    6060  -4
  -5  10   3  216060    6060   1
   4 -10   3   30770    9490  -2
   4   6  -3   30770    9490  -3
  -6  10  -3   30770    9490  -4
  -4  10   3   30770    9490   1
   3 -10   3  237370    5780  -2
   3   7  -3  237370    5780  -3
  -7  10  -3  237370    5780  -4
  -3  10   3  237370    5780   1
   2 -10   3   63740   15080  -2
   2   8  -3   63740   15080  -3
  -8  10  -3   63740   15080  -4
  -2  10   3   63740   15080   1
   1 -10   3  107400   12020  -2
   1   9  -3  107400   12020  -3
  -9  10  -3  107400   12020  -4
  -1  10   3  107400   12020   1
  -1 -10   3   84210   12840  -2
  -1  11  -3   84210   12840  -3
 -11  10  -3   84210   12840  -4
   1  10   3   84210   12840   1
  12 -11   3  146580   39960  -2
  12  -1  -3  146580   39960  -3
   1  11  -3  146580   39960  -4
 -12  11   3  146580   39960   1
  10 -11   3  111230   12650  -2
  10   1  -3  111230   12650  -3
  -1  11  -3  111230   12650  -4
 -10  11   3  111230   12650   1
   8 -11   3   42200   17010  -2
   8   3  -3   42200   17010  -3
  -3  11  -3   42200   17010  -4
  -8  11   3   42200   17010   1
   6 -11   3   98500    7270  -2
   6   5  -3   98500    7270  -3
  -5  11  -3   98500    7270  -4
  -6  11   3   98500    7270   1
   5 -11   3   81570    7300  -2
   5   6  -3   81570    7300  -3
  -6  11  -3   81570    7300  -4
  -5  11   3   81570    7300   1
   4 -11   3   47300   15110  -2
   4   7  -3   47300   15110  -3
  -7  11  -3   47300   15110  -4
  -4  11   3   47300   15110   1
   1 -11   3   97100   18370  -2
   1  10  -3   97100   18370  -3
 -10  11  -3   97100   18370  -4
  -1  11   3   97100   18370   1
  -1 -11   3   84950   11020  -2
  -1  12  -3   84950   11020  -3
 -12  11  -3   84950   11020  -4
   1  11   3   84950   11020   1
  11 -12   3  108780   25160  -2
  11   1  -3  108780   25160  -3
  -1  12  -3  108780   25160  -4
 -11  12   3  108780   25160   1
   9 -12   3  110540   15450  -2
   9   3  -3  110540   15450  -3
  -3  12  -3  110540   15450  -4
  -9  12   3  110540   15450   1
   7 -12   3  112830    6980  -2
   7   5  -3  112830    6980  -3
  -5  12  -3  112830    6980  -4
  -7  12   3  112830    6980   1
   5 -12   3  129890   11040  -2
   5   7  -3  129890   11040  -3
  -7  12  -3  129890   11040  -4
  -5  12   3  129890   11040   1
   3 -12   3  124620    8580  -2
   3   9  -3  124620    8580  -3
  -9  12  -3  124620    8580  -4
  -3  12   3  124620    8580   1
   1 -12   3  141190   15490  -2
   1  11  -3  141190   15490  -3
 -11  12  -3  141190   15490  -4
  -1  12   3  141190   15490   1
   7 -13   3  112100   25500  -2
   7   6  -3  112100   25500  -3
  -6  13  -3  112100   25500  -4
  -7  13   3  112100   25500   1
   0   0   4 1112890   46180  -2
   0   0  -4 1112890   46180  -3
   0   0  -4 1112890   46180  -4
   0   0   4 1112890   46180   1
   1  -1   4  310600    4000  -2
   1   0  -4  310600    4000  -3
   0   1  -4  310600    4000  -4
  -1   1   4  310600    4000   1
   0  -1   4  306890    3940  -2
   0   1  -4  306890    3940  -3
  -1   1  -4  306890    3940  -4
   0   1   4  306890    3940   1
  -1  -1   4  244510    4960  -2
  -1   2  -4  244510    4960  -3
  -2   1  -4  244510    4960  -4
   1   1   4  244510    4960   1
   3  -2   4  516080    8740  -2
   3  -1  -4  516080    8740  -3
   1   2  -4  516080    8740  -4
  -3   2   4  516080    8740   1
   2  -2   4  591220    8010  -2
   2   0  -4  591220    8010  -3
   0   2  -4  591220    8010  -4
  -2   2   4  591220    8010   1
   1  -2   4  280320    3760  -2
   1   1  -4  280320    3760  -3
  -1   2  -4  280320    3760  -4
  -1   2   4  280320    3760   1
   0  -2   4  578950   10160  -2
   0   2  -4  578950   10160  -3
  -2   2  -4  578950   10160  -4
   0   2   4  578950   10160   1
  -1  -2   4  518990    5200  -2
  -1   3  -4  518990    5200  -3
  -3   2  -4  518990    5200  -4
   1   2   4  518990    5200   1
  -2  -2   4   44080    2400  -2
  -2   4  -4   44080    2400  -3
  -4   2  -4   44080    2400  -4
   2   2   4   44080    2400   1
   5  -3   4  653520   15320  -2
   5  -2  -4  653520   15320  -3
   2   3  -4  653520   15320  -4
  -5   3   4  653520   15320   1
   4  -3   4  767110   11010  -2
   4  -1  -4  767110   11010  -3
   1   3  -4  767110   11010  -4
  -4   3   4  767110   11010   1
   3  -3   4  557170    9810  -2
   3   0  -4  557170    9810  -3
   0   3  -4  557170    9810  -4
  -3   3   4  557170    9810   1
   2  -3   4  496820    5640  -2
   2   1  -4  496820    5640  -3
  -1   3  -4  496820    5640  -4
  -2   3   4  496820    5640   1
   1  -3   4  515240    4990  -2
   1   2  -4  515240    4990  -3
  -2   3  -4  515240    4990  -4
  -1   3   4  515240    4990   1
   0  -3   4  561380   11990  -2
   0   3  -4  561380   11990  -3
  -3   3  -4  561380   11990  -4
   0   3   4  561380   11990   1
  -1  -3   4  741740    9830  -2
  -1   4  -4  741740    9830  -3
  -4   3  -4  741740    9830  -4
   1   3   4  741740    9830   1
  -2  -3   4  659900   10730  -2
  -2   5  -4  659900   10730  -3
  -5   3  -4  659900   10730  -4
   2   3   4  659900   10730   1
  -3  -3   4  565510   14300  -2
  -3   6  -4  565510   14300  -3
  -6   3  -4  565510   14300  -4
   3   3   4  565510   14300   1
   7  -4   4  119080    5160  -2
   7  -3  -4  119080    5160  -3
   3   4  -4  119080    5160  -4
  -7   4   4  119080    5160   1
   6  -4   4  295890    5240  -2
   6  -2  -4  295890    5240  -3
   2   4  -4  295890    5240  -4
  -6   4   4  295890    5240   1
   5  -4   4  406640    6860  -2
   5  -1  -4  406640    6860  -3
   1   4  -4  406640    6860  -4
  -5   4   4  406640    6860   1
   4  -4   4  637480    6850  -2
   4   0  -4  637480    6850  -3
   0   4  -4  637480    6850  -4
  -4   4   4  637480    6850   1
   3  -4   4  785810    7500  -2
   3   1  -4  785810    7500  -3
  -1   4  -4  785810    7500  -4
  -3   4   4  785810    7500   1
   2  -4   4   32850    1570  -2
   2   2  -4   32850    1570  -3
  -2   4  -4   32850    1570  -4
  -2   4   4   32850    1570   1
   1  -4   4  863360   12490  -2
   1   3  -4  863360   12490  -3
  -3   4  -4  863360   12490  -4
  -1   4   4  863360   12490   1
   0  -4   4  704920   19460  -2
   0   4  -4  704920   19460  -3
  -4   4  -4  704920   19460  -4
   0   4   4  704920   19460   1
  -1  -4   4  442490    7180  -2
  -1   5  -4  442490    7180  -3
  -5   4  -4  442490    7180  -4
   1   4   4  442490    7180   1
  -2  -4   4  283230    7850  -2
  -2   6  -4  283230    7850  -3
  -6   4  -4  283230    7850  -4
   2   4   4  283230    7850   1
  -3  -4   4  110780    6130  -2
  -3   7  -4  110780    6130  -3
  -7   4  -4  110780    6130  -4
   3   4   4  110780    6130   1
  -4  -4   4   68420    4580  -2
  -4   8  -4   68420    4580  -3
  -8   4  -4   68420    4580  -4
   4   4   4   68420    4580   1
   9  -5   4  267750    6970  -2
   9  -4  -4  267750    6970  -3
   4   5  -4  267750    6970  -4
  -9   5   4  267750    6970   1
   8  -5   4  475230   11370  -2
   8  -3  -4  475230   11370  -3
   3   5  -4  475230   11370  -4
  -8   5   4  475230   11370   1
   7  -5   4   24060    2970  -2
   7  -2  -4   24060    2970  -3
   2   5  -4   24060    2970  -4
  -7   5   4   24060    2970   1
   6  -5   4  401030    6130  -2
   6  -1  -4  401030    6130  -3
   1   5  -4  401030    6130  -4
  -6   5   4  401030    6130   1
   5  -5   4  147030    3670  -2
   5   0  -4  147030    3670  -3
   0   5  -4  147030    3670  -4
  -5   5   4  147030    3670   1
   4  -5   4  410970    8580  -2
   4   1  -4  410970    8580  -3
  -1   5  -4  410970    8580  -4
  -4   5   4  410970    8580   1
   3  -5   4  662080    6510  -2
   3   2  -4  662080    6510  -3
  -2   5  -4  662080    6510  -4
  -3   5   4  662080    6510   1
   2  -5   4  710500    7390  -2
   2   3  -4  710500    7390  -3
  -3   5  -4  710500    7390  -4
  -2   5   4  710500    7390   1
   1  -5   4  391830    5600  -2
   1   4  -4  391830    5600  -3
  -4   5  -4  391830    5600  -4
  -1   5   4  391830    5600   1
   0  -5   4  139190    3910  -2
   0   5  -4  139190    3910  -3
  -5   5  -4  139190    3910  -4
   0   5   4  139190    3910   1
  -1  -5   4  455130    7920  -2
  -1   6  -4  455130    7920  -3
  -6   5  -4  455130    7920  -4
   1   5   4  455130    7920   1
  -2  -5   4   20730    3870  -2
  -2   7  -4   20730    3870  -3
  -7   5  -4   20730    3870  -4
   2   5   4   20730    3870   1
  -3  -5   4  424440    9450  -2
  -3   8  -4  424440    9450  -3
  -8   5  -4  424440    9450  -4
   3   5   4  424440    9450   1
  -4  -5   4  248700    7480  -2
  -4   9  -4  248700    7480  -3
  -9   5  -4  248700    7480  -4
   4   5   4  248700    7480   1
  -5  -5   4  197610    7590  -2
  -5  10  -4  197610    7590  -3
 -10   5  -4  197610    7590  -4
   5   5   4  197610    7590   1
  11  -6   4   61820   18630  -2
  11  -5  -4   61820   18630  -3
   5   6  -4   61820   18630  -4
 -11   6   4   61820   18630   1
  10  -6   4  119120    8120  -2
  10  -4  -4  119120    8120  -3
   4   6  -4  119120    8120  -4
 -10   6   4  119120    8120   1
   9  -6   4  133430    5800  -2
   9  -3  -4  133430    5800  -3
   3   6  -4  133430    5800  -4
  -9   6   4  133430    5800   1
   8  -6   4  164590    4410  -2
   8  -2  -4  164590    4410  -3
   2   6  -4  164590    4410  -4
  -8   6   4  164590    4410   1
   7  -6   4  380730   10250  -2
   7  -1  -4  380730   10250  -3
   1   6  -4  380730   10250  -4
  -7   6   4  380730   10250   1
   6  -6   4  180240    3460  -2
   6   0  -4  180240    3460  -3
   0   6  -4  180240    3460  -4
  -6   6   4  180240    3460   1
   5  -6   4  468910    7170  -2
   5   1  -4  468910    7170  -3
  -1   6  -4  468910    7170  -4
  -5   6   4  468910    7170   1
   4  -6   4  306680    4490  -2
   4   2  -4  306680    4490  -3
  -2   6  -4  306680    4490  -4
  -4   6   4  306680    4490   1
   3  -6   4  703440    9070  -2
   3   3  -4  703440    9070  -3
  -3   6  -4  703440    9070  -4
  -3   6   4  703440    9070   1
   2  -6   4  290910    4450  -2
   2   4  -4  290910    4450  -3
  -4   6  -4  290910    4450  -4
  -2   6   4  290910    4450   1
   1  -6   4  437770    9880  -2
   1   5  -4  437770    9880  -3
  -5   6  -4  437770    9880  -4
  -1   6   4  437770    9880   1
   0  -6   4  183150    9370  -2
   0   6  -4  183150    9370  -3
  -6   6  -4  183150    9370  -4
   0   6   4  183150    9370   1
  -1  -6   4  412700    9410  -2
  -1   7  -4  412700    9410  -3
  -7   6  -4  412700    9410  -4
   1   6   4  412700    9410   1
  -2  -6   4  176460    6130  -2
  -2   8  -4  176460    6130  -3
  -8   6  -4  176460    6130  -4
   2   6   4  176460    6130   1
  -3  -6   4  140150    7290  -2
  -3   9  -4  140150    7290  -3
  -9   6  -4  140150    7290  -4
   3   6   4  140150    7290   1
  -4  -6   4  113570    7100  -2
  -4  10  -4  113570    7100  -3
 -10   6  -4  113570    7100  -4
   4   6   4  113570    7100   1
  -5  -6   4   53540   16910  -2
  -5  11  -4   53540   16910  -3
 -11   6  -4   53540   16910  -4
   5   6   4   53540   16910   1
  13  -7   4   64830   24690  -2
  13  -6  -4   64830   24690  -3
   6   7  -4   64830   24690  -4
 -13   7   4   64830   24690   1
  12  -7   4  222640   10670  -2
  12  -5  -4  222640   10670  -3
   5   7  -4  222640   10670  -4
 -12   7   4  222640   10670   1
  10  -7   4  249140   10200  -2
  10  -3  -4  249140   10200  -3
   3   7  -4  249140   10200  -4
 -10   7   4  249140   10200   1
   9  -7   4   56540    6280  -2
   9  -2  -4   56540    6280  -3
   2   7  -4   56540    6280  -4
  -9   7   4   56540    6280   1
   8  -7   4  170070    8810  -2
   8  -1  -4  170070    8810  -3
   1   7  -4  170070    8810  -4
  -8   7   4  170070    8810   1
   7  -7   4  206540    4960  -2
   7   0  -4  206540    4960  -3
   0   7  -4  206540    4960  -4
  -7   7   4  206540    4960   1
   6  -7   4  420900    9550  -2
   6   1  -4  420900    9550  -3
  -1   7  -4  420900    9550  -4
  -6   7   4  420900    9550   1
   5  -7   4   28980    3200  -2
   5   2  -4   28980    3200  -3
  -2   7  -4   28980    3200  -4
  -5   7   4   28980    3200   1
   4  -7   4  116590    3440  -2
   4   3  -4  116590    3440  -3
  -3   7  -4  116590    3440  -4
  -4   7   4  116590    3440   1
   3  -7   4  110290    4710  -2
   3   4  -4  110290    4710  -3
  -4   7  -4  110290    4710  -4
  -3   7   4  110290    4710   1
   2  -7   4   31890    4180  -2
   2   5  -4   31890    4180  -3
  -5   7  -4   31890    4180  -4
  -2   7   4   31890    4180   1
   1  -7   4  363780    7340  -2
   1   6  -4  363780    7340  -3
  -6   7  -4  363780    7340  -4
  -1   7   4  363780    7340   1
   0  -7   4  219310    7490  -2
   0   7  -4  219310    7490  -3
  -7   7  -4  219310    7490  -4
   0   7   4  219310    7490   1
  -1  -7   4  158830    6350  -2
  -1   8  -4  158830    6350  -3
  -8   7  -4  158830    6350  -4
   1   7   4  158830    6350   1
  -2  -7   4   49740    9890  -2
  -2   9  -4   49740    9890  -3
  -9   7  -4   49740    9890  -4
   2   7   4   49740    9890   1
  -3  -7   4  253560   10200  -2
  -3  10  -4  253560   10200  -3
 -10   7  -4  253560   10200  -4
   3   7   4  253560   10200   1
  -5  -7   4  203350   14200  -2
  -5  12  -4  203350   14200  -3
 -12   7  -4  203350   14200  -4
   5   7   4  203350   14200   1
  -6  -7   4  100960   17590  -2
  -6  13  -4  100960   17590  -3
 -13   7  -4  100960   17590  -4
   6   7   4  100960   17590   1
  13  -8   4   89940   24360  -2
  13  -5  -4   89940   24360  -3
   5   8  -4   89940   24360  -4
 -13   8   4   89940   24360   1
  12  -8   4   92910   17650  -2
  12  -4  -4   92910   17650  -3
   4   8  -4   92910   17650  -4
 -12   8   4   92910   17650   1
  11  -8   4  210720    9230  -2
  11  -3  -4  210720    9230  -3
   3   8  -4  210720    9230  -4
 -11   8   4  210720    9230   1
   9  -8   4  134620    8650  -2
   9  -1  -4  134620    8650  -3
   1   8  -4  134620    8650  -4
  -9   8   4  134620    8650   1
   8  -8   4   73130    4510  -2
   8   0  -4   73130    4510  -3
   0   8  -4   73130    4510  -4
  -8   8   4   73130    4510   1
   7  -8   4  188370    6040  -2
   7   1  -4  188370    6040  -3
  -1   8  -4  188370    6040  -4
  -7   8   4  188370    6040   1
   6  -8   4  165700    4150  -2
   6   2  -4  165700    4150  -3
  -2   8  -4  165700    4150  -4
  -6   8   4  165700    4150   1
   5  -8   4  454970    6120  -2
   5   3  -4  454970    6120  -3
  -3   8  -4  454970    6120  -4
  -5   8   4  454970    6120   1
   4  -8   4   80780    3620  -2
   4   4  -4   80780    3620  -3
  -4   8  -4   80780    3620  -4
  -4   8   4   80780    3620   1
   3  -8   4  497470    7800  -2
   3   5  -4  497470    7800  -3
  -5   8  -4  497470    7800  -4
  -3   8   4  497470    7800   1
   2  -8   4  182430    4990  -2
   2   6  -4  182430    4990  -3
  -6   8  -4  182430    4990  -4
  -2   8   4  182430    4990   1
   1  -8   4  195460    5160  -2
   1   7  -4  195460    5160  -3
  -7   8  -4  195460    5160  -4
  -1   8   4  195460    5160   1
   0  -8   4   80780    6760  -2
   0   8  -4   80780    6760  -3
  -8   8  -4   80780    6760  -4
   0   8   4   80780    6760   1
  -1  -8   4  144310    7770  -2
  -1   9  -4  144310    7770  -3
  -9   8  -4  144310    7770  -4
   1   8   4  144310    7770   1
  -3  -8   4  216070   13010  -2
  -3  11  -4  216070   13010  -3
 -11   8  -4  216070   13010  -4
   3   8   4  216070   13010   1
  -4  -8   4  123420   22410  -2
  -4  12  -4  123420   22410  -3
 -12   8  -4  123420   22410  -4
   4   8   4  123420   22410   1
  12  -9   4   98660   14250  -2
  12  -3  -4   98660   14250  -3
   3   9  -4   98660   14250  -4
 -12   9   4   98660   14250   1
  11  -9   4  117840   11020  -2
  11  -2  -4  117840   11020  -3
   2   9  -4  117840   11020  -4
 -11   9   4  117840   11020   1
  10  -9   4  309320   10730  -2
  10  -1  -4  309320   10730  -3
   1   9  -4  309320   10730  -4
 -10   9   4  309320   10730   1
   8  -9   4  125240    5520  -2
   8   1  -4  125240    5520  -3
  -1   9  -4  125240    5520  -4
  -8   9   4  125240    5520   1
   7  -9   4   51320    6160  -2
   7   2  -4   51320    6160  -3
  -2   9  -4   51320    6160  -4
  -7   9   4   51320    6160   1
   6  -9   4  118620    4550  -2
   6   3  -4  118620    4550  -3
  -3   9  -4  118620    4550  -4
  -6   9   4  118620    4550   1
   5  -9   4  242350    6210  -2
   5   4  -4  242350    6210  -3
  -4   9  -4  242350    6210  -4
  -5   9   4  242350    6210   1
   4  -9   4  267810    8890  -2
   4   5  -4  267810    8890  -3
  -5   9  -4  267810    8890  -4
  -4   9   4  267810    8890   1
   3  -9   4  105030    5280  -2
   3   6  -4  105030    5280  -3
  -6   9  -4  105030    5280  -4
  -3   9   4  105030    5280   1
   2  -9   4   28350    9150  -2
   2   7  -4   28350    9150  -3
  -7   9  -4   28350    9150  -4
  -2   9   4   28350    9150   1
   1  -9   4  143150    6540  -2
   1   8  -4  143150    6540  -3
  -8   9  -4  143150    6540  -4
  -1   9   4  143150    6540   1
  -1  -9   4  290760   13170  -2
  -1  10  -4  290760   13170  -3
 -10   9  -4  290760   13170  -4
   1   9   4  290760   13170   1
  -2  -9   4  128760   14190  -2
  -2  11  -4  128760   14190  -3
 -11   9  -4  128760   14190  -4
   2   9   4  128760   14190   1
  11 -10   4   90270   14750  -2
  11  -1  -4   90270   14750  -3
   1  10  -4   90270   14750  -4
 -11  10   4   90270   14750   1
  10 -10   4  129630    7150  -2
  10   0  -4  129630    7150  -3
   0  10  -4  129630    7150  -4
 -10  10   4  129630    7150   1
   9 -10   4  293510    9340  -2
   9   1  -4  293510    9340  -3
  -1  10  -4  293510    9340  -4
  -9  10   4  293510    9340   1
   7 -10   4  253820    6790  -2
   7   3  -4  253820    6790  -3
  -3  10  -4  253820    6790  -4
  -7  10   4  253820    6790   1
   6 -10   4  106850    6150  -2
   6   4  -4  106850    6150  -3
  -4  10  -4  106850    6150  -4
  -6  10   4  106850    6150   1
   5 -10   4  233180    7370  -2
   5   5  -4  233180    7370  -3
  -5  10  -4  233180    7370  -4
  -5  10   4  233180    7370   1
   4 -10   4   96140    5960  -2
   4   6  -4   96140    5960  -3
  -6  10  -4   96140    5960  -4
  -4  10   4   96140    5960   1
   3 -10   4  247470    7590  -2
   3   7  -4  247470    7590  -3
  -7  10  -4  247470    7590  -4
  -3  10   4  247470    7590   1
   2 -10   4   36970   17440  -2
   2   8  -4   36970   17440  -3
  -8  10  -4   36970   17440  -4
  -2  10   4   36970   17440   1
   1 -10   4  305880   12750  -2
   1   9  -4  305880   12750  -3
  -9  10  -4  305880   12750  -4
  -1  10   4  305880   12750   1
   0 -10   4  142500    8870  -2
   0  10  -4  142500    8870  -3
 -10  10  -4  142500    8870  -4
   0  10   4  142500    8870   1
  -1 -10   4   91890   14890  -2
  -1  11  -4   91890   14890  -3
 -11  10  -4   91890   14890  -4
   1  10   4   91890   14890   1
  10 -11   4   97460   12500  -2
  10   1  -4   97460   12500  -3
  -1  11  -4   97460   12500  -4
 -10  11   4   97460   12500   1
   9 -11   4   67670   21830  -2
   9   2  -4   67670   21830  -3
  -2  11  -4   67670   21830  -4
  -9  11   4   67670   21830   1
   8 -11   4  210490   10000  -2
   8   3  -4  210490   10000  -3
  -3  11  -4  210490   10000  -4
  -8  11   4  210490   10000   1
   6 -11   4   45210   13100  -2
   6   5  -4   45210   13100  -3
  -5  11  -4   45210   13100  -4
  -6  11   4   45210   13100   1
   4 -11   4   41050   19230  -2
   4   7  -4   41050   19230  -3
  -7  11  -4   41050   19230  -4
  -4  11   4   41050   19230   1
   3 -11   4  196930    9500  -2
   3   8  -4  196930    9500  -3
  -8  11  -4  196930    9500  -4
  -3  11   4  196930    9500   1
   2 -11   4  104030   13720  -2
   2   9  -4  104030   13720  -3
  -9  11  -4  104030   13720  -4
  -2  11   4  104030   13720   1
   1 -11   4   62140   21430  -2
   1  10  -4   62140   21430  -3
 -10  11  -4   62140   21430  -4
  -1  11   4   62140   21430   1
   9 -12   4   91030   21260  -2
   9   3  -4   91030   21260  -3
  -3  12  -4   91030   21260  -4
  -9  12   4   91030   21260   1
   8 -12   4  101930   23580  -2
   8   4  -4  101930   23580  -3
  -4  12  -4  101930   23580  -4
  -8  12   4  101930   23580   1
   7 -12   4  215600    8520  -2
   7   5  -4  215600    8520  -3
  -5  12  -4  215600    8520  -4
  -7  12   4  215600    8520   1
   5 -12   4  229620   12920  -2
   5   7  -4  229620   12920  -3
  -7  12  -4  229620   12920  -4
  -5  12   4  229620   12920   1
   4 -12   4   93730   13100  -2
   4   8  -4   93730   13100  -3
  -8  12  -4   93730   13100  -4
  -4  12   4   93730   13100   1
   3 -12   4  112350   11830  -2
   3   9  -4  112350   11830  -3
  -9  12  -4  112350   11830  -4
  -3  12   4  112350   11830   1
   6 -13   4   99060   17160  -2
   6   7  -4   99060   17160  -3
  -7  13  -4   99060   17160  -4
  -6  13   4   99060   17160   1
   0   0   5  974270   17630  -2
   0   0  -5  974270   17630  -3
   0   0  -5  974270   17630  -4
   0   0   5  974270   17630   1
   1  -1   5  877040   18030  -2
   1   0  -5  877040   18030  -3
   0   1  -5  877040   18030  -4
  -1   1   5  877040   18030   1
   0  -1   5  856750   13170  -2
   0   1  -5  856750   13170  -3
  -1   1  -5  856750   13170  -4
   0   1   5  856750   13170   1
  -1  -1   5   30020    1490  -2
  -1   2  -5   30020    1490  -3
  -2   1  -5   30020    1490  -4
   1   1   5   30020    1490   1
   3  -2   5  942140   11110  -2
   3  -1  -5  942140   11110  -3
   1   2  -5  942140   11110  -4
  -3   2   5  942140   11110   1
   2  -2   5  411660    8780  -2
   2   0  -5  411660    8780  -3
   0   2  -5  411660    8780  -4
  -2   2   5  411660    8780   1
   1  -2   5   32050    2800  -2
   1   1  -5   32050    2800  -3
  -1   2  -5   32050    2800  -4
  -1   2   5   32050    2800   1
   0  -2   5  446420    5960  -2
   0   2  -5  446420    5960  -3
  -2   2  -5  446420    5960  -4
   0   2   5  446420    5960   1
  -1  -2   5  950750   13380  -2
  -1   3  -5  950750   13380  -3
  -3   2  -5  950750   13380  -4
   1   2   5  950750   13380   1
  -2  -2   5  749890    8790  -2
  -2   4  -5  749890    8790  -3
  -4   2  -5  749890    8790  -4
   2   2   5  749890    8790   1
   5  -3   5  318250    5580  -2
   5  -2  -5  318250    5580  -3
   2   3  -5  318250    5580  -4
  -5   3   5  318250    5580   1
   4  -3   5  811420   15010  -2
   4  -1  -5  811420   15010  -3
   1   3  -5  811420   15010  -4
  -4   3   5  811420   15010   1
   3  -3   5   23870    2220  -2
   3   0  -5   23870    2220  -3
   0   3  -5   23870    2220  -4
  -3   3   5   23870    2220   1
   2  -3   5  949970   16740  -2
   2   1  -5  949970   16740  -3
  -1   3  -5  949970   16740  -4
  -2   3   5  949970   16740   1
   1  -3   5  945430   28440  -2
   1   2  -5  945430   28440  -3
  -2   3  -5  945430   28440  -4
  -1   3   5  945430   28440   1
   0  -3   5   26280    2290  -2
   0   3  -5   26280    2290  -3
  -3   3  -5   26280    2290  -4
   0   3   5   26280    2290   1
  -1  -3   5  866150   18960  -2
  -1   4  -5  866150   18960  -3
  -4   3  -5  866150   18960  -4
   1   3   5  866150   18960   1
  -2  -3   5  329120    6940  -2
  -2   5  -5  329120    6940  -3
  -5   3  -5  329120    6940  -4
   2   3   5  329120    6940   1
  -3  -3   5  221940    4390  -2
  -3   6  -5  221940    4390  -3
  -6   3  -5  221940    4390  -4
   3   3   5  221940    4390   1
   7  -4   5  278550    6400  -2
   7  -3  -5  278550    6400  -3
   3   4  -5  278550    6400  -4
  -7   4   5  278550    6400   1
   6  -4   5  168360    4570  -2
   6  -2  -5  168360    4570  -3
   2   4  -5  168360    4570  -4
  -6   4   5  168360    4570   1
   5  -4   5   43210    2320  -2
   5  -1  -5   43210    2320  -3
   1   4  -5   43210    2320  -4
  -5   4   5   43210    2320   1
   4  -4   5  114700    2500  -2
   4   0  -5  114700    2500  -3
   0   4  -5  114700    2500  -4
  -4   4   5  114700    2500   1
   3  -4   5  969400   12080  -2
   3   1  -5  969400   12080  -3
  -1   4  -5  969400   12080  -4
  -3   4   5  969400   12080   1
   2  -4   5  773740    8610  -2
   2   2  -5  773740    8610  -3
  -2   4  -5  773740    8610  -4
  -2   4   5  773740    8610   1
   1  -4   5  949850   12670  -2
   1   3  -5  949850   12670  -3
  -3   4  -5  949850   12670  -4
  -1   4   5  949850   12670   1
   0  -4   5  105670    6750  -2
   0   4  -5  105670    6750  -3
  -4   4  -5  105670    6750  -4
   0   4   5  105670    6750   1
  -1  -4   5   53350    2470  -2
  -1   5  -5   53350    2470  -3
  -5   4  -5   53350    2470  -4
   1   4   5   53350    2470   1
  -2  -4   5  182640    8480  -2
  -2   6  -5  182640    8480  -3
  -6   4  -5  182640    8480  -4
   2   4   5  182640    8480   1
  -3  -4   5  296990    5800  -2
  -3   7  -5  296990    5800  -3
  -7   4  -5  296990    5800  -4
   3   4   5  296990    5800   1
  -4  -4   5  236240    6630  -2
  -4   8  -5  236240    6630  -3
  -8   4  -5  236240    6630  -4
   4   4   5  236240    6630   1
   9  -5   5  145540    6620  -2
   9  -4  -5  145540    6620  -3
   4   5  -5  145540    6620  -4
  -9   5   5  145540    6620   1
   8  -5   5  354890    9240  -2
   8  -3  -5  354890    9240  -3
   3   5  -5  354890    9240  -4
  -8   5   5  354890    9240   1
   7  -5   5   40370    4420  -2
   7  -2  -5   40370    4420  -3
   2   5  -5   40370    4420  -4
  -7   5   5   40370    4420   1
   6  -5   5  477740    7390  -2
   6  -1  -5  477740    7390  -3
   1   5  -5  477740    7390  -4
  -6   5   5  477740    7390   1
   5  -5   5  345620    6160  -2
   5   0  -5  345620    6160  -3
   0   5  -5  345620    6160  -4
  -5   5   5  345620    6160   1
   4  -5   5   51370    2340  -2
   4   1  -5   51370    2340  -3
  -1   5  -5   51370    2340  -4
  -4   5   5   51370    2340   1
   3  -5   5  360270    6260  -2
   3   2  -5  360270    6260  -3
  -2   5  -5  360270    6260  -4
  -3   5   5  360270    6260   1
   2  -5   5  352480    6000  -2
   2   3  -5  352480    6000  -3
  -3   5  -5  352480    6000  -4
  -2   5   5  352480    6000   1
   1  -5   5   50860    2870  -2
   1   4  -5   50860    2870  -3
  -4   5  -5   50860    2870  -4
  -1   5   5   50860    2870   1
   0  -5   5  363220    8800  -2
   0   5  -5  363220    8800  -3
  -5   5  -5  363220    8800  -4
   0   5   5  363220    8800   1
  -1  -5   5  470750   14660  -2
  -1   6  -5  470750   14660  -3
  -6   5  -5  470750   14660  -4
   1   5   5  470750   14660   1
  -2  -5   5   32920    4470  -2
  -2   7  -5   32920    4470  -3
  -7   5  -5   32920    4470  -4
   2   5   5   32920    4470   1
  -3  -5   5  373930    9880  -2
  -3   8  -5  373930    9880  -3
  -8   5  -5  373930    9880  -4
   3   5   5  373930    9880   1
  -4  -5   5  165560   31580  -2
  -4   9  -5  165560   31580  -3
  -9   5  -5  165560   31580  -4
   4   5   5  165560   31580   1
  -5  -5   5  123390    7680  -2
  -5  10  -5  123390    7680  -3
 -10   5  -5  123390    7680  -4
   5   5   5  123390    7680   1
  11  -6   5  114000   11640  -2
  11  -5  -5  114000   11640  -3
   5   6  -5  114000   11640  -4
 -11   6   5  114000   11640   1
  10  -6   5   63300   11270  -2
  10  -4  -5   63300   11270  -3
   4   6  -5   63300   11270  -4
 -10   6   5   63300   11270   1
   9  -6   5   59790    7410  -2
   9  -3  -5   59790    7410  -3
   3   6  -5   59790    7410  -4
  -9   6   5   59790    7410   1
   8  -6   5   62170    4560  -2
   8  -2  -5   62170    4560  -3
   2   6  -5   62170    4560  -4
  -8   6   5   62170    4560   1
   7  -6   5  259550    6080  -2
   7  -1  -5  259550    6080  -3
   1   6  -5  259550    6080  -4
  -7   6   5  259550    6080   1
   6  -6   5  294520    5660  -2
   6   0  -5  294520    5660  -3
   0   6  -5  294520    5660  -4
  -6   6   5  294520    5660   1
   5  -6   5  542970    8450  -2
   5   1  -5  542970    8450  -3
  -1   6  -5  542970    8450  -4
  -5   6   5  542970    8450   1
   4  -6   5  185580    4680  -2
   4   2  -5  185580    4680  -3
  -2   6  -5  185580    4680  -4
  -4   6   5  185580    4680   1
   3  -6   5  196280    4250  -2
   3   3  -5  196280    4250  -3
  -3   6  -5  196280    4250  -4
  -3   6   5  196280    4250   1
   2  -6   5  186150    4290  -2
   2   4  -5  186150    4290  -3
  -4   6  -5  186150    4290  -4
  -2   6   5  186150    4290   1
   1  -6   5  549920    8020  -2
   1   5  -5  549920    8020  -3
  -5   6  -5  549920    8020  -4
  -1   6   5  549920    8020   1
   0  -6   5  289410    9040  -2
   0   6  -5  289410    9040  -3
  -6   6  -5  289410    9040  -4
   0   6   5  289410    9040   1
  -1  -6   5  252980   11950  -2
  -1   7  -5  252980   11950  -3
  -7   6  -5  252980   11950  -4
   1   6   5  252980   11950   1
  -2  -6   5   68840    5580  -2
  -2   8  -5   68840    5580  -3
  -8   6  -5   68840    5580  -4
   2   6   5   68840    5580   1
  -3  -6   5   67080   16060  -2
  -3   9  -5   67080   16060  -3
  -9   6  -5   67080   16060  -4
   3   6   5   67080   16060   1
  -4  -6   5   92290    9500  -2
  -4  10  -5   92290    9500  -3
 -10   6  -5   92290    9500  -4
   4   6   5   92290    9500   1
  -5  -6   5  113900   14480  -2
  -5  11  -5  113900   14480  -3
 -11   6  -5  113900   14480  -4
   5   6   5  113900   14480   1
  12  -7   5  158460   14840  -2
  12  -5  -5  158460   14840  -3
   5   7  -5  158460   14840  -4
 -12   7   5  158460   14840   1
  11  -7   5   39740   22570  -2
  11  -4  -5   39740   22570  -3
   4   7  -5   39740   22570  -4
 -11   7   5   39740   22570   1
  10  -7   5  302850    8630  -2
  10  -3  -5  302850    8630  -3
   3   7  -5  302850    8630  -4
 -10   7   5  302850    8630   1
   9  -7   5  143550    5820  -2
   9  -2  -5  143550    5820  -3
   2   7  -5  143550    5820  -4
  -9   7   5  143550    5820   1
   8  -7   5  119670    6050  -2
   8  -1  -5  119670    6050  -3
   1   7  -5  119670    6050  -4
  -8   7   5  119670    6050   1
   7  -7   5   51460    4400  -2
   7   0  -5   51460    4400  -3
   0   7  -5   51460    4400  -4
  -7   7   5   51460    4400   1
   6  -7   5  221950    4890  -2
   6   1  -5  221950    4890  -3
  -1   7  -5  221950    4890  -4
  -6   7   5  221950    4890   1
   5  -7   5   45970    3820  -2
   5   2  -5   45970    3820  -3
  -2   7  -5   45970    3820  -4
  -5   7   5   45970    3820   1
   4  -7   5  288480    5370  -2
   4   3  -5  288480    5370  -3
  -3   7  -5  288480    5370  -4
  -4   7   5  288480    5370   1
   3  -7   5  258080    6020  -2
   3   4  -5  258080    6020  -3
  -4   7  -5  258080    6020  -4
  -3   7   5  258080    6020   1
   2  -7   5   48200    4220  -2
   2   5  -5   48200    4220  -3
  -5   7  -5   48200    4220  -4
  -2   7   5   48200    4220   1
   1  -7   5  220700    5780  -2
   1   6  -5  220700    5780  -3
  -6   7  -5  220700    5780  -4
  -1   7   5  220700    5780   1
   0  -7   5   53030    8910  -2
   0   7  -5   53030    8910  -3
  -7   7  -5   53030    8910  -4
   0   7   5   53030    8910   1
  -1  -7   5  127530    9920  -2
  -1   8  -5  127530    9920  -3
  -8   7  -5  127530    9920  -4
   1   7   5  127530    9920   1
  -2  -7   5  136000   13600  -2
  -2   9  -5  136000   13600  -3
  -9   7  -5  136000   13600  -4
   2   7   5  136000   13600   1
  -3  -7   5  276470   13000  -2
  -3  10  -5  276470   13000  -3
 -10   7  -5  276470   13000  -4
   3   7   5  276470   13000   1
  -4  -7   5   65360   13830  -2
  -4  11  -5   65360   13830  -3
 -11   7  -5   65360   13830  -4
   4   7   5   65360   13830   1
  -5  -7   5  167000   24040  -2
  -5  12  -5  167000   24040  -3
 -12   7  -5  167000   24040  -4
   5   7   5  167000   24040   1
  11  -8   5  106290    9880  -2
  11  -3  -5  106290    9880  -3
   3   8  -5  106290    9880  -4
 -11   8   5  106290    9880   1
  10  -8   5  112460    7370  -2
  10  -2  -5  112460    7370  -3
   2   8  -5  112460    7370  -4
 -10   8   5  112460    7370   1
   9  -8   5  316680   12150  -2
   9  -1  -5  316680   12150  -3
   1   8  -5  316680   12150  -4
  -9   8   5  316680   12150   1
   8  -8   5   67390    5150  -2
   8   0  -5   67390    5150  -3
   0   8  -5   67390    5150  -4
  -8   8   5   67390    5150   1
   7  -8   5   89860    4810  -2
   7   1  -5   89860    4810  -3
  -1   8  -5   89860    4810  -4
  -7   8   5   89860    4810   1
   6  -8   5   60870    6830  -2
   6   2  -5   60870    6830  -3
  -2   8  -5   60870    6830  -4
  -6   8   5   60870    6830   1
   5  -8   5  433520    7800  -2
   5   3  -5  433520    7800  -3
  -3   8  -5  433520    7800  -4
  -5   8   5  433520    7800   1
   4  -8   5  239360    8700  -2
   4   4  -5  239360    8700  -3
  -4   8  -5  239360    8700  -4
  -4   8   5  239360    8700   1
   3  -8   5  388560    9730  -2
   3   5  -5  388560    9730  -3
  -5   8  -5  388560    9730  -4
  -3   8   5  388560    9730   1
   2  -8   5   59080    5880  -2
   2   6  -5   59080    5880  -3
  -6   8  -5   59080    5880  -4
  -2   8   5   59080    5880   1
   1  -8   5  109330    5920  -2
   1   7  -5  109330    5920  -3
  -7   8  -5  109330    5920  -4
  -1   8   5  109330    5920   1
   0  -8   5   68030    7750  -2
   0   8  -5   68030    7750  -3
  -8   8  -5   68030    7750  -4
   0   8   5   68030    7750   1
  -1  -8   5  311670   10080  -2
  -1   9  -5  311670   10080  -3
  -9   8  -5  311670   10080  -4
   1   8   5  311670   10080   1
  -2  -8   5  117630   11550  -2
  -2  10  -5  117630   11550  -3
 -10   8  -5  117630   11550  -4
   2   8   5  117630   11550   1
  -3  -8   5   99740   15150  -2
  -3  11  -5   99740   15150  -3
 -11   8  -5   99740   15150  -4
   3   8   5   99740   15150   1
  12  -9   5  114210   19850  -2
  12  -3  -5  114210   19850  -3
   3   9  -5  114210   19850  -4
 -12   9   5  114210   19850   1
  10  -9   5  166470   13880  -2
  10  -1  -5  166470   13880  -3
   1   9  -5  166470   13880  -4
 -10   9   5  166470   13880   1
   9  -9   5  102330    7560  -2
   9   0  -5  102330    7560  -3
   0   9  -5  102330    7560  -4
  -9   9   5  102330    7560   1
   8  -9   5  290960    8810  -2
   8   1  -5  290960    8810  -3
  -1   9  -5  290960    8810  -4
  -8   9   5  290960    8810   1
   7  -9   5  112140    6390  -2
   7   2  -5  112140    6390  -3
  -2   9  -5  112140    6390  -4
  -7   9   5  112140    6390   1
   6  -9   5   76370    5570  -2
   6   3  -5   76370    5570  -3
  -3   9  -5   76370    5570  -4
  -6   9   5   76370    5570   1
   5  -9   5  115910    6440  -2
   5   4  -5  115910    6440  -3
  -4   9  -5  115910    6440  -4
  -5   9   5  115910    6440   1
   4  -9   5  114350    5420  -2
   4   5  -5  114350    5420  -3
  -5   9  -5  114350    5420  -4
  -4   9   5  114350    5420   1
   3  -9   5   71380    6930  -2
   3   6  -5   71380    6930  -3
  -6   9  -5   71380    6930  -4
  -3   9   5   71380    6930   1
   2  -9   5  136080    7570  -2
   2   7  -5  136080    7570  -3
  -7   9  -5  136080    7570  -4
  -2   9   5  136080    7570   1
   1  -9   5  281070    8790  -2
   1   8  -5  281070    8790  -3
  -8   9  -5  281070    8790  -4
  -1   9   5  281070    8790   1
   0  -9   5  106670   15160  -2
   0   9  -5  106670   15160  -3
  -9   9  -5  106670   15160  -4
   0   9   5  106670   15160   1
  -1  -9   5  150620   14250  -2
  -1  10  -5  150620   14250  -3
 -10   9  -5  150620   14250  -4
   1   9   5  150620   14250   1
   9 -10   5  186980    6900  -2
   9   1  -5  186980    6900  -3
  -1  10  -5  186980    6900  -4
  -9  10   5  186980    6900   1
   8 -10   5  108970    8950  -2
   8   2  -5  108970    8950  -3
  -2  10  -5  108970    8950  -4
  -8  10   5  108970    8950   1
   7 -10   5  328290    8380  -2
   7   3  -5  328290    8380  -3
  -3  10  -5  328290    8380  -4
  -7  10   5  328290    8380   1
   6 -10   5   65920    6800  -2
   6   4  -5   65920    6800  -3
  -4  10  -5   65920    6800  -4
  -6  10   5   65920    6800   1
   5 -10   5  114420    6770  -2
   5   5  -5  114420    6770  -3
  -5  10  -5  114420    6770  -4
  -5  10   5  114420    6770   1
   4 -10   5   79590    6850  -2
   4   6  -5   79590    6850  -3
  -6  10  -5   79590    6850  -4
  -4  10   5   79590    6850   1
   3 -10   5  329440    9620  -2
   3   7  -5  329440    9620  -3
  -7  10  -5  329440    9620  -4
  -3  10   5  329440    9620   1
   2 -10   5  102570    9240  -2
   2   8  -5  102570    9240  -3
  -8  10  -5  102570    9240  -4
  -2  10   5  102570    9240   1
   1 -10   5  186020    7790  -2
   1   9  -5  186020    7790  -3
  -9  10  -5  186020    7790  -4
  -1  10   5  186020    7790   1
   8 -11   5  114180   18900  -2
   8   3  -5  114180   18900  -3
  -3  11  -5  114180   18900  -4
  -8  11   5  114180   18900   1
   7 -11   5   55760   12090  -2
   7   4  -5   55760   12090  -3
  -4  11  -5   55760   12090  -4
  -7  11   5   55760   12090   1
   6 -11   5  112400    8900  -2
   6   5  -5  112400    8900  -3
  -5  11  -5  112400    8900  -4
  -6  11   5  112400    8900   1
   5 -11   5  116630   12230  -2
   5   6  -5  116630   12230  -3
  -6  11  -5  116630   12230  -4
  -5  11   5  116630   12230   1
   4 -11   5   67140   19350  -2
   4   7  -5   67140   19350  -3
  -7  11  -5   67140   19350  -4
  -4  11   5   67140   19350   1
   3 -11   5   89440   16490  -2
   3   8  -5   89440   16490  -3
  -8  11  -5   89440   16490  -4
  -3  11   5   89440   16490   1
   9 -12   5  120310   24450  -2
   9   3  -5  120310   24450  -3
  -3  12  -5  120310   24450  -4
  -9  12   5  120310   24450   1
   7 -12   5  198560    9080  -2
   7   5  -5  198560    9080  -3
  -5  12  -5  198560    9080  -4
  -7  12   5  198560    9080   1
   6 -12   5   58210   27510  -2
   6   6  -5   58210   27510  -3
  -6  12  -5   58210   27510  -4
  -6  12   5   58210   27510   1
   5 -12   5  177450    9000  -2
   5   7  -5  177450    9000  -3
  -7  12  -5  177450    9000  -4
  -5  12   5  177450    9000   1
   3 -12   5   80700   26140  -2
   3   9  -5   80700   26140  -3
  -9  12  -5   80700   26140  -4
  -3  12   5   80700   26140   1
   0   0   6  709820   12680  -2
   0   0  -6  709820   12680  -3
   0   0  -6  709820   12680  -4
   0   0   6  709820   12680   1
   1  -1   6  120010    2900  -2
   1   0  -6  120010    2900  -3
   0   1  -6  120010    2900  -4
  -1   1   6  120010    2900   1
   0  -1   6  119900    2420  -2
   0   1  -6  119900    2420  -3
  -1   1  -6  119900    2420  -4
   0   1   6  119900    2420   1
  -1  -1   6 1567920   24300  -2
  -1   2  -6 1567920   24300  -3
  -2   1  -6 1567920   24300  -4
   1   1   6 1567920   24300   1
   3  -2   6   28640    3270  -2
   3  -1  -6   28640    3270  -3
   1   2  -6   28640    3270  -4
  -3   2   6   28640    3270   1
   2  -2   6  729040   11190  -2
   2   0  -6  729040   11190  -3
   0   2  -6  729040   11190  -4
  -2   2   6  729040   11190   1
   1  -2   6 1649420   29430  -2
   1   1  -6 1649420   29430  -3
  -1   2  -6 1649420   29430  -4
  -1   2   6 1649420   29430   1
   0  -2   6  750920    9990  -2
   0   2  -6  750920    9990  -3
  -2   2  -6  750920    9990  -4
   0   2   6  750920    9990   1
  -1  -2   6   27770    2480  -2
  -1   3  -6   27770    2480  -3
  -3   2  -6   27770    2480  -4
   1   2   6   27770    2480   1
  -2  -2   6   96950    3040  -2
  -2   4  -6   96950    3040  -3
  -4   2  -6   96950    3040  -4
   2   2   6   96950    3040   1
   5  -3   6   12120    4660  -2
   5  -2  -6   12120    4660  -3
   2   3  -6   12120    4660  -4
  -5   3   6   12120    4660   1
   4  -3   6  154390    4070  -2
   4  -1  -6  154390    4070  -3
   1   3  -6  154390    4070  -4
  -4   3   6  154390    4070   1
   3  -3   6  811320    9440  -2
   3   0  -6  811320    9440  -3
   0   3  -6  811320    9440  -4
  -3   3   6  811320    9440   1
   2  -3   6   33020    2440  -2
   2   1  -6   33020    2440  -3
  -1   3  -6   33020    2440  -4
  -2   3   6   33020    2440   1
   1  -3   6   22910    2930  -2
   1   2  -6   22910    2930  -3
  -2   3  -6   22910    2930  -4
  -1   3   6   22910    2930   1
   0  -3   6  855890    9880  -2
   0   3  -6  855890    9880  -3
  -3   3  -6  855890    9880  -4
   0   3   6  855890    9880   1
  -1  -3   6  159540    3690  -2
  -1   4  -6  159540    3690  -3
  -4   3  -6  159540    3690  -4
   1   3   6  159540    3690   1
  -3  -3   6  658860    9420  -2
  -3   6  -6  658860    9420  -3
  -6   3  -6  658860    9420  -4
   3   3   6  658860    9420   1
   7  -4   6   61380    4690  -2
   7  -3  -6   61380    4690  -3
   3   4  -6   61380    4690  -4
  -7   4   6   61380    4690   1
   6  -4   6  303890    6830  -2
   6  -2  -6  303890    6830  -3
   2   4  -6  303890    6830  -4
  -6   4   6  303890    6830   1
   5  -4   6  543750   10470  -2
   5  -1  -6  543750   10470  -3
   1   4  -6  543750   10470  -4
  -5   4   6  543750   10470   1
   4  -4   6  511230    6330  -2
   4   0  -6  511230    6330  -3
   0   4  -6  511230    6330  -4
  -4   4   6  511230    6330   1
   3  -4   6  155310    3670  -2
   3   1  -6  155310    3670  -3
  -1   4  -6  155310    3670  -4
  -3   4   6  155310    3670   1
   2  -4   6  109850    3450  -2
   2   2  -6  109850    3450  -3
  -2   4  -6  109850    3450  -4
  -2   4   6  109850    3450   1
   1  -4   6  133450    4010  -2
   1   3  -6  133450    4010  -3
  -3   4  -6  133450    4010  -4
  -1   4   6  133450    4010   1
   0  -4   6  475700    9380  -2
   0   4  -6  475700    9380  -3
  -4   4  -6  475700    9380  -4
   0   4   6  475700    9380   1
  -1  -4   6  555200    8040  -2
  -1   5  -6  555200    8040  -3
  -5   4  -6  555200    8040  -4
   1   4   6  555200    8040   1
  -2  -4   6  318400    7400  -2
  -2   6  -6  318400    7400  -3
  -6   4  -6  318400    7400  -4
   2   4   6  318400    7400   1
  -3  -4   6   88280    6560  -2
  -3   7  -6   88280    6560  -3
  -7   4  -6   88280    6560  -4
   3   4   6   88280    6560   1
  -4  -4   6  152860    5720  -2
  -4   8  -6  152860    5720  -3
  -8   4  -6  152860    5720  -4
   4   4   6  152860    5720   1
   9  -5   6   70130   16080  -2
   9  -4  -6   70130   16080  -3
   4   5  -6   70130   16080  -4
  -9   5   6   70130   16080   1
   8  -5   6  100950    6110  -2
   8  -3  -6  100950    6110  -3
   3   5  -6  100950    6110  -4
  -8   5   6  100950    6110   1
   7  -5   6  374560    9040  -2
   7  -2  -6  374560    9040  -3
   2   5  -6  374560    9040  -4
  -7   5   6  374560    9040   1
   6  -5   6  150410    4450  -2
   6  -1  -6  150410    4450  -3
   1   5  -6  150410    4450  -4
  -6   5   6  150410    4450   1
   5  -5   6   45660    3350  -2
   5   0  -6   45660    3350  -3
   0   5  -6   45660    3350  -4
  -5   5   6   45660    3350   1
   4  -5   6  502660    8090  -2
   4   1  -6  502660    8090  -3
  -1   5  -6  502660    8090  -4
  -4   5   6  502660    8090   1
   3  -5   6   29280    8240  -2
   3   2  -6   29280    8240  -3
  -2   5  -6   29280    8240  -4
  -3   5   6   29280    8240   1
   2  -5   6   12170    7710  -2
   2   3  -6   12170    7710  -3
  -3   5  -6   12170    7710  -4
  -2   5   6   12170    7710   1
   1  -5   6  488970    7370  -2
   1   4  -6  488970    7370  -3
  -4   5  -6  488970    7370  -4
  -1   5   6  488970    7370   1
   0  -5   6   46240    4150  -2
   0   5  -6   46240    4150  -3
  -5   5  -6   46240    4150  -4
   0   5   6   46240    4150   1
  -1  -5   6  154170    4230  -2
  -1   6  -6  154170    4230  -3
  -6   5  -6  154170    4230  -4
   1   5   6  154170    4230   1
  -2  -5   6  363990    9210  -2
  -2   7  -6  363990    9210  -3
  -7   5  -6  363990    9210  -4
   2   5   6  363990    9210   1
  -3  -5   6  107340    5940  -2
  -3   8  -6  107340    5940  -3
  -8   5  -6  107340    5940  -4
   3   5   6  107340    5940   1
  -4  -5   6   54920    8860  -2
  -4   9  -6   54920    8860  -3
  -9   5  -6   54920    8860  -4
   4   5   6   54920    8860   1
  -5  -5   6  385400   16220  -2
  -5  10  -6  385400   16220  -3
 -10   5  -6  385400   16220  -4
   5   5   6  385400   16220   1
  11  -6   6   89710   23180  -2
  11  -5  -6   89710   23180  -3
   5   6  -6   89710   23180  -4
 -11   6   6   89710   23180   1
  10  -6   6   59080   13320  -2
  10  -4  -6   59080   13320  -3
   4   6  -6   59080   13320  -4
 -10   6   6   59080   13320   1
   9  -6   6  386770   12120  -2
   9  -3  -6  386770   12120  -3
   3   6  -6  386770   12120  -4
  -9   6   6  386770   12120   1
   8  -6   6  194120    6320  -2
   8  -2  -6  194120    6320  -3
   2   6  -6  194120    6320  -4
  -8   6   6  194120    6320   1
   7  -6   6   76820    5750  -2
   7  -1  -6   76820    5750  -3
   1   6  -6   76820    5750  -4
  -7   6   6   76820    5750   1
   6  -6   6   87090    4180  -2
   6   0  -6   87090    4180  -3
   0   6  -6   87090    4180  -4
  -6   6   6   87090    4180   1
   5  -6   6  128140    5050  -2
   5   1  -6  128140    5050  -3
  -1   6  -6  128140    5050  -4
  -5   6   6  128140    5050   1
   4  -6   6  316270    6240  -2
   4   2  -6  316270    6240  -3
  -2   6  -6  316270    6240  -4
  -4   6   6  316270    6240   1
   3  -6   6  777900   14350  -2
   3   3  -6  777900   14350  -3
  -3   6  -6  777900   14350  -4
  -3   6   6  777900   14350   1
   2  -6   6  343770   18820  -2
   2   4  -6  343770   18820  -3
  -4   6  -6  343770   18820  -4
  -2   6   6  343770   18820   1
   1  -6   6  152280    5480  -2
   1   5  -6  152280    5480  -3
  -5   6  -6  152280    5480  -4
  -1   6   6  152280    5480   1
   0  -6   6   76310    7380  -2
   0   6  -6   76310    7380  -3
  -6   6  -6   76310    7380  -4
   0   6   6   76310    7380   1
  -1  -6   6   90540    8410  -2
  -1   7  -6   90540    8410  -3
  -7   6  -6   90540    8410  -4
   1   6   6   90540    8410   1
  -2  -6   6  190930   11370  -2
  -2   8  -6  190930   11370  -3
  -8   6  -6  190930   11370  -4
   2   6   6  190930   11370   1
  -3  -6   6  376470   13480  -2
  -3   9  -6  376470   13480  -3
  -9   6  -6  376470   13480  -4
   3   6   6  376470   13480   1
  -4  -6   6   99490   14160  -2
  -4  10  -6   99490   14160  -3
 -10   6  -6   99490   14160  -4
   4   6   6   99490   14160   1
  12  -7   6  146300   26460  -2
  12  -5  -6  146300   26460  -3
   5   7  -6  146300   26460  -4
 -12   7   6  146300   26460   1
  11  -7   6  109750   12640  -2
  11  -4  -6  109750   12640  -3
   4   7  -6  109750   12640  -4
 -11   7   6  109750   12640   1
  10  -7   6  140860    8000  -2
  10  -3  -6  140860    8000  -3
   3   7  -6  140860    8000  -4
 -10   7   6  140860    8000   1
   9  -7   6   56790   11730  -2
   9  -2  -6   56790   11730  -3
   2   7  -6   56790   11730  -4
  -9   7   6   56790   11730   1
   8  -7   6  531690   11440  -2
   8  -1  -6  531690   11440  -3
   1   7  -6  531690   11440  -4
  -8   7   6  531690   11440   1
   7  -7   6   40160    8890  -2
   7   0  -6   40160    8890  -3
   0   7  -6   40160    8890  -4
  -7   7   6   40160    8890   1
   6  -7   6   85180    4460  -2
   6   1  -6   85180    4460  -3
  -1   7  -6   85180    4460  -4
  -6   7   6   85180    4460   1
   5  -7   6  343910    7520  -2
   5   2  -6  343910    7520  -3
  -2   7  -6  343910    7520  -4
  -5   7   6  343910    7520   1
   4  -7   6  102680    6210  -2
   4   3  -6  102680    6210  -3
  -3   7  -6  102680    6210  -4
  -4   7   6  102680    6210   1
   3  -7   6   78780    5490  -2
   3   4  -6   78780    5490  -3
  -4   7  -6   78780    5490  -4
  -3   7   6   78780    5490   1
   2  -7   6  368460    8040  -2
   2   5  -6  368460    8040  -3
  -5   7  -6  368460    8040  -4
  -2   7   6  368460    8040   1
   1  -7   6   78150    6340  -2
   1   6  -6   78150    6340  -3
  -6   7  -6   78150    6340  -4
  -1   7   6   78150    6340   1
  -1  -7   6  516740   15310  -2
  -1   8  -6  516740   15310  -3
  -8   7  -6  516740   15310  -4
   1   7   6  516740   15310   1
  -2  -7   6   72990   15930  -2
  -2   9  -6   72990   15930  -3
  -9   7  -6   72990   15930  -4
   2   7   6   72990   15930   1
  -5  -7   6  103010   12340  -2
  -5  12  -6  103010   12340  -3
 -12   7  -6  103010   12340  -4
   5   7   6  103010   12340   1
  10  -8   6   78740   11410  -2
  10  -2  -6   78740   11410  -3
   2   8  -6   78740   11410  -4
 -10   8   6   78740   11410   1
   9  -8   6   88620    9970  -2
   9  -1  -6   88620    9970  -3
   1   8  -6   88620    9970  -4
  -9   8   6   88620    9970   1
   8  -8   6  125180    7330  -2
   8   0  -6  125180    7330  -3
   0   8  -6  125180    7330  -4
  -8   8   6  125180    7330   1
   7  -8   6  612420   11230  -2
   7   1  -6  612420   11230  -3
  -1   8  -6  612420   11230  -4
  -7   8   6  612420   11230   1
   6  -8   6  183410    6090  -2
   6   2  -6  183410    6090  -3
  -2   8  -6  183410    6090  -4
  -6   8   6  183410    6090   1
   5  -8   6   96020    4740  -2
   5   3  -6   96020    4740  -3
  -3   8  -6   96020    4740  -4
  -5   8   6   96020    4740   1
   4  -8   6  136820    5190  -2
   4   4  -6  136820    5190  -3
  -4   8  -6  136820    5190  -4
  -4   8   6  136820    5190   1
   3  -8   6  112960    5540  -2
   3   5  -6  112960    5540  -3
  -5   8  -6  112960    5540  -4
  -3   8   6  112960    5540   1
   2  -8   6  181100    5740  -2
   2   6  -6  181100    5740  -3
  -6   8  -6  181100    5740  -4
  -2   8   6  181100    5740   1
   1  -8   6  613230   13110  -2
   1   7  -6  613230   13110  -3
  -7   8  -6  613230   13110  -4
  -1   8   6  613230   13110   1
   0  -8   6  129730   10860  -2
   0   8  -6  129730   10860  -3
  -8   8  -6  129730   10860  -4
   0   8   6  129730   10860   1
  -1  -8   6  116470   12270  -2
  -1   9  -6  116470   12270  -3
  -9   8  -6  116470   12270  -4
   1   8   6  116470   12270   1
  -2  -8   6   92060   14500  -2
  -2  10  -6   92060   14500  -3
 -10   8  -6   92060   14500  -4
   2   8   6   92060   14500   1
  11  -9   6   48170   21600  -2
  11  -2  -6   48170   21600  -3
   2   9  -6   48170   21600  -4
 -11   9   6   48170   21600   1
  10  -9   6   66130   21100  -2
  10  -1  -6   66130   21100  -3
   1   9  -6   66130   21100  -4
 -10   9   6   66130   21100   1
   9  -9   6   92660    8690  -2
   9   0  -6   92660    8690  -3
   0   9  -6   92660    8690  -4
  -9   9   6   92660    8690   1
   8  -9   6  111470    7980  -2
   8   1  -6  111470    7980  -3
  -1   9  -6  111470    7980  -4
  -8   9   6  111470    7980   1
   7  -9   6   54680    9910  -2
   7   2  -6   54680    9910  -3
  -2   9  -6   54680    9910  -4
  -7   9   6   54680    9910   1
   6  -9   6  377690    8590  -2
   6   3  -6  377690    8590  -3
  -3   9  -6  377690    8590  -4
  -6   9   6  377690    8590   1
   5  -9   6   48900    8780  -2
   5   4  -6   48900    8780  -3
  -4   9  -6   48900    8780  -4
  -5   9   6   48900    8780   1
   4  -9   6   56510   19630  -2
   4   5  -6   56510   19630  -3
  -5   9  -6   56510   19630  -4
  -4   9   6   56510   19630   1
   3  -9   6  323690    8750  -2
   3   6  -6  323690    8750  -3
  -6   9  -6  323690    8750  -4
  -3   9   6  323690    8750   1
   2  -9   6   34980   15370  -2
   2   7  -6   34980   15370  -3
  -7   9  -6   34980   15370  -4
  -2   9   6   34980   15370   1
   1  -9   6   99840   10470  -2
   1   8  -6   99840   10470  -3
  -8   9  -6   99840   10470  -4
  -1   9   6   99840   10470   1
   0  -9   6  114460   12970  -2
   0   9  -6  114460   12970  -3
  -9   9  -6  114460   12970  -4
   0   9   6  114460   12970   1
  -1  -9   6   56870   22060  -2
  -1  10  -6   56870   22060  -3
 -10   9  -6   56870   22060  -4
   1   9   6   56870   22060   1
  11 -10   6  159100   14530  -2
  11  -1  -6  159100   14530  -3
   1  10  -6  159100   14530  -4
 -11  10   6  159100   14530   1
  10 -10   6   53120   21800  -2
  10   0  -6   53120   21800  -3
   0  10  -6   53120   21800  -4
 -10  10   6   53120   21800   1
   9 -10   6   74910   25470  -2
   9   1  -6   74910   25470  -3
  -1  10  -6   74910   25470  -4
  -9  10   6   74910   25470   1
   8 -10   6   66370   19640  -2
   8   2  -6   66370   19640  -3
  -2  10  -6   66370   19640  -4
  -8  10   6   66370   19640   1
   7 -10   6   93670    8260  -2
   7   3  -6   93670    8260  -3
  -3  10  -6   93670    8260  -4
  -7  10   6   93670    8260   1
   6 -10   6   77920    8230  -2
   6   4  -6   77920    8230  -3
  -4  10  -6   77920    8230  -4
  -6  10   6   77920    8230   1
   5 -10   6  449720   12140  -2
   5   5  -6  449720   12140  -3
  -5  10  -6  449720   12140  -4
  -5  10   6  449720   12140   1
   3 -10   6  118540    8650  -2
   3   7  -6  118540    8650  -3
  -7  10  -6  118540    8650  -4
  -3  10   6  118540    8650   1
   2 -10   6  117890   30690  -2
   2   8  -6  117890   30690  -3
  -8  10  -6  117890   30690  -4
  -2  10   6  117890   30690   1
  -1 -10   6  127790   13290  -2
  -1  11  -6  127790   13290  -3
 -11  10  -6  127790   13290  -4
   1  10   6  127790   13290   1
  10 -11   6  134240    8390  -2
  10   1  -6  134240    8390  -3
  -1  11  -6  134240    8390  -4
 -10  11   6  134240    8390   1
   9 -11   6   71140   21490  -2
   9   2  -6   71140   21490  -3
  -2  11  -6   71140   21490  -4
  -9  11   6   71140   21490   1
   7 -11   6  106920   20600  -2
   7   4  -6  106920   20600  -3
  -4  11  -6  106920   20600  -4
  -7  11   6  106920   20600   1
   5 -11   6   69920   23890  -2
   5   6  -6   69920   23890  -3
  -6  11  -6   69920   23890  -4
  -5  11   6   69920   23890   1
   4 -11   6   92580   10720  -2
   4   7  -6   92580   10720  -3
  -7  11  -6   92580   10720  -4
  -4  11   6   92580   10720   1
   1 -11   6  112480   12150  -2
   1  10  -6  112480   12150  -3
 -10  11  -6  112480   12150  -4
  -1  11   6  112480   12150   1
   7 -12   6  103450    9610  -2
   7   5  -6  103450    9610  -3
  -5  12  -6  103450    9610  -4
  -7  12   6  103450    9610   1
   0   0   7 1055780   20210  -2
   0   0  -7 1055780   20210  -3
   0   0  -7 1055780   20210  -4
   0   0   7 1055780   20210   1
   1  -1   7  261820    4830  -2
   1   0  -7  261820    4830  -3
   0   1  -7  261820    4830  -4
  -1   1   7  261820    4830   1
   0  -1   7  285900    5160  -2
   0   1  -7  285900    5160  -3
  -1   1  -7  285900    5160  -4
   0   1   7  285900    5160   1
  -1  -1   7  103180    3310  -2
  -1   2  -7  103180    3310  -3
  -2   1  -7  103180    3310  -4
   1   1   7  103180    3310   1
   3  -2   7   96330    3380  -2
   3  -1  -7   96330    3380  -3
   1   2  -7   96330    3380  -4
  -3   2   7   96330    3380   1
   2  -2   7  146830    3950  -2
   2   0  -7  146830    3950  -3
   0   2  -7  146830    3950  -4
  -2   2   7  146830    3950   1
   1  -2   7   97870    4520  -2
   1   1  -7   97870    4520  -3
  -1   2  -7   97870    4520  -4
  -1   2   7   97870    4520   1
   0  -2   7  138320   10340  -2
   0   2  -7  138320   10340  -3
  -2   2  -7  138320   10340  -4
   0   2   7  138320   10340   1
  -1  -2   7  103460    4020  -2
  -1   3  -7  103460    4020  -3
  -3   2  -7  103460    4020  -4
   1   2   7  103460    4020   1
  -2  -2   7  442290   12080  -2
  -2   4  -7  442290   12080  -3
  -4   2  -7  442290   12080  -4
   2   2   7  442290   12080   1
   5  -3   7   90520    5160  -2
   5  -2  -7   90520    5160  -3
   2   3  -7   90520    5160  -4
  -5   3   7   90520    5160   1
   4  -3   7  202520    5070  -2
   4  -1  -7  202520    5070  -3
   1   3  -7  202520    5070  -4
  -4   3   7  202520    5070   1
   3  -3   7  100090    7900  -2
   3   0  -7  100090    7900  -3
   0   3  -7  100090    7900  -4
  -3   3   7  100090    7900   1
   2  -3   7   89250    2980  -2
   2   1  -7   89250    2980  -3
  -1   3  -7   89250    2980  -4
  -2   3   7   89250    2980   1
   1  -3   7  102230    3350  -2
   1   2  -7  102230    3350  -3
  -2   3  -7  102230    3350  -4
  -1   3   7  102230    3350   1
   0  -3   7   89780    3160  -2
   0   3  -7   89780    3160  -3
  -3   3  -7   89780    3160  -4
   0   3   7   89780    3160   1
  -1  -3   7  172800    9960  -2
  -1   4  -7  172800    9960  -3
  -4   3  -7  172800    9960  -4
   1   3   7  172800    9960   1
  -2  -3   7   86080    3670  -2
  -2   5  -7   86080    3670  -3
  -5   3  -7   86080    3670  -4
   2   3   7   86080    3670   1
  -3  -3   7  155390    6610  -2
  -3   6  -7  155390    6610  -3
  -6   3  -7  155390    6610  -4
   3   3   7  155390    6610   1
   7  -4   7  142610    6610  -2
   7  -3  -7  142610    6610  -3
   3   4  -7  142610    6610  -4
  -7   4   7  142610    6610   1
   6  -4   7   91190    5310  -2
   6  -2  -7   91190    5310  -3
   2   4  -7   91190    5310  -4
  -6   4   7   91190    5310   1
   5  -4   7  107780    4050  -2
   5  -1  -7  107780    4050  -3
   1   4  -7  107780    4050  -4
  -5   4   7  107780    4050   1
   4  -4   7  125730    4060  -2
   4   0  -7  125730    4060  -3
   0   4  -7  125730    4060  -4
  -4   4   7  125730    4060   1
   3  -4   7  186900    4660  -2
   3   1  -7  186900    4660  -3
  -1   4  -7  186900    4660  -4
  -3   4   7  186900    4660   1
   2  -4   7  448540   11800  -2
   2   2  -7  448540   11800  -3
  -2   4  -7  448540   11800  -4
  -2   4   7  448540   11800   1
   1  -4   7  206620    5260  -2
   1   3  -7  206620    5260  -3
  -3   4  -7  206620    5260  -4
  -1   4   7  206620    5260   1
   0  -4   7  129270    5260  -2
   0   4  -7  129270    5260  -3
  -4   4  -7  129270    5260  -4
   0   4   7  129270    5260   1
  -1  -4   7  121700    7080  -2
  -1   5  -7  121700    7080  -3
  -5   4  -7  121700    7080  -4
   1   4   7  121700    7080   1
  -2  -4   7   79180    5060  -2
  -2   6  -7   79180    5060  -3
  -6   4  -7   79180    5060  -4
   2   4   7   79180    5060   1
  -3  -4   7  156120    7990  -2
  -3   7  -7  156120    7990  -3
  -7   4  -7  156120    7990  -4
   3   4   7  156120    7990   1
  -4  -4   7  190070    8230  -2
  -4   8  -7  190070    8230  -3
  -8   4  -7  190070    8230  -4
   4   4   7  190070    8230   1
   9  -5   7   44470   12480  -2
   9  -4  -7   44470   12480  -3
   4   5  -7   44470   12480  -4
  -9   5   7   44470   12480   1
   8  -5   7  198340    7460  -2
   8  -3  -7  198340    7460  -3
   3   5  -7  198340    7460  -4
  -8   5   7  198340    7460   1
   7  -5   7   48710   12820  -2
   7  -2  -7   48710   12820  -3
   2   5  -7   48710   12820  -4
  -7   5   7   48710   12820   1
   6  -5   7  156170    6470  -2
   6  -1  -7  156170    6470  -3
   1   5  -7  156170    6470  -4
  -6   5   7  156170    6470   1
   5  -5   7   30770    4230  -2
   5   0  -7   30770    4230  -3
   0   5  -7   30770    4230  -4
  -5   5   7   30770    4230   1
   4  -5   7  123720    4210  -2
   4   1  -7  123720    4210  -3
  -1   5  -7  123720    4210  -4
  -4   5   7  123720    4210   1
   3  -5   7   88250    5880  -2
   3   2  -7   88250    5880  -3
  -2   5  -7   88250    5880  -4
  -3   5   7   88250    5880   1
   2  -5   7   99940    4310  -2
   2   3  -7   99940    4310  -3
  -3   5  -7   99940    4310  -4
  -2   5   7   99940    4310   1
   1  -5   7  127560    4550  -2
   1   4  -7  127560    4550  -3
  -4   5  -7  127560    4550  -4
  -1   5   7  127560    4550   1
   0  -5   7   33010    6750  -2
   0   5  -7   33010    6750  -3
  -5   5  -7   33010    6750  -4
   0   5   7   33010    6750   1
  -1  -5   7  165070    6350  -2
  -1   6  -7  165070    6350  -3
  -6   5  -7  165070    6350  -4
   1   5   7  165070    6350   1
  -2  -5   7   29990   14110  -2
  -2   7  -7   29990   14110  -3
  -7   5  -7   29990   14110  -4
   2   5   7   29990   14110   1
  -3  -5   7  173800    9930  -2
  -3   8  -7  173800    9930  -3
  -8   5  -7  173800    9930  -4
   3   5   7  173800    9930   1
  -4  -5   7   75360   17380  -2
  -4   9  -7   75360   17380  -3
  -9   5  -7   75360   17380  -4
   4   5   7   75360   17380   1
  -5  -5   7  132160    8790  -2
  -5  10  -7  132160    8790  -3
 -10   5  -7  132160    8790  -4
   5   5   7  132160    8790   1
   9  -6   7   39540   19510  -2
   9  -3  -7   39540   19510  -3
   3   6  -7   39540   19510  -4
  -9   6   7   39540   19510   1
   8  -6   7   55280   10110  -2
   8  -2  -7   55280   10110  -3
   2   6  -7   55280   10110  -4
  -8   6   7   55280   10110   1
   7  -6   7  214230    7110  -2
   7  -1  -7  214230    7110  -3
   1   6  -7  214230    7110  -4
  -7   6   7  214230    7110   1
   6  -6   7  265310    7290  -2
   6   0  -7  265310    7290  -3
   0   6  -7  265310    7290  -4
  -6   6   7  265310    7290   1
   5  -6   7  191820    5620  -2
   5   1  -7  191820    5620  -3
  -1   6  -7  191820    5620  -4
  -5   6   7  191820    5620   1
   4  -6   7   89750    4140  -2
   4   2  -7   89750    4140  -3
  -2   6  -7   89750    4140  -4
  -4   6   7   89750    4140   1
   3  -6   7  137900    4680  -2
   3   3  -7  137900    4680  -3
  -3   6  -7  137900    4680  -4
  -3   6   7  137900    4680   1
   2  -6   7   81970    5130  -2
   2   4  -7   81970    5130  -3
  -4   6  -7   81970    5130  -4
  -2   6   7   81970    5130   1
   1  -6   7  201740    6980  -2
   1   5  -7  201740    6980  -3
  -5   6  -7  201740    6980  -4
  -1   6   7  201740    6980   1
   0  -6   7  273420    8700  -2
   0   6  -7  273420    8700  -3
  -6   6  -7  273420    8700  -4
   0   6   7  273420    8700   1
  -1  -6   7  238530    6480  -2
  -1   7  -7  238530    6480  -3
  -7   6  -7  238530    6480  -4
   1   6   7  238530    6480   1
  -2  -6   7   26610   15870  -2
  -2   8  -7   26610   15870  -3
  -8   6  -7   26610   15870  -4
   2   6   7   26610   15870   1
  10  -7   7  174610   10730  -2
  10  -3  -7  174610   10730  -3
   3   7  -7  174610   10730  -4
 -10   7   7  174610   10730   1
   8  -7   7  102470    9430  -2
   8  -1  -7  102470    9430  -3
   1   7  -7  102470    9430  -4
  -8   7   7  102470    9430   1
   6  -7   7  231280    6610  -2
   6   1  -7  231280    6610  -3
  -1   7  -7  231280    6610  -4
  -6   7   7  231280    6610   1
   5  -7   7   35110   13760  -2
   5   2  -7   35110   13760  -3
  -2   7  -7   35110   13760  -4
  -5   7   7   35110   13760   1
   4  -7   7  140010    6470  -2
   4   3  -7  140010    6470  -3
  -3   7  -7  140010    6470  -4
  -4   7   7  140010    6470   1
   3  -7   7  109980    6230  -2
   3   4  -7  109980    6230  -3
  -4   7  -7  109980    6230  -4
  -3   7   7  109980    6230   1
   1  -7   7  201170    7490  -2
   1   6  -7  201170    7490  -3
  -6   7  -7  201170    7490  -4
  -1   7   7  201170    7490   1
   0  -7   7   33040   16460  -2
   0   7  -7   33040   16460  -3
  -7   7  -7   33040   16460  -4
   0   7   7   33040   16460   1
  -1  -7   7  115470   13370  -2
  -1   8  -7  115470   13370  -3
  -8   7  -7  115470   13370  -4
   1   7   7  115470   13370   1
  -2  -7   7   66620   10790  -2
  -2   9  -7   66620   10790  -3
  -9   7  -7   66620   10790  -4
   2   7   7   66620   10790   1
  -3  -7   7  168010    9920  -2
  -3  10  -7  168010    9920  -3
 -10   7  -7  168010    9920  -4
   3   7   7  168010    9920   1
   9  -8   7   73620   18410  -2
   9  -1  -7   73620   18410  -3
   1   8  -7   73620   18410  -4
  -9   8   7   73620   18410   1
   7  -8   7   82980    6630  -2
   7   1  -7   82980    6630  -3
  -1   8  -7   82980    6630  -4
  -7   8   7   82980    6630   1
   6  -8   7   51090    7950  -2
   6   2  -7   51090    7950  -3
  -2   8  -7   51090    7950  -4
  -6   8   7   51090    7950   1
   5  -8   7  218930    8010  -2
   5   3  -7  218930    8010  -3
  -3   8  -7  218930    8010  -4
  -5   8   7  218930    8010   1
   4  -8   7  183600    7620  -2
   4   4  -7  183600    7620  -3
  -4   8  -7  183600    7620  -4
  -4   8   7  183600    7620   1
   3  -8   7  212310    8160  -2
   3   5  -7  212310    8160  -3
  -5   8  -7  212310    8160  -4
  -3   8   7  212310    8160   1
   2  -8   7   41670   14510  -2
   2   6  -7   41670   14510  -3
  -6   8  -7   41670   14510  -4
  -2   8   7   41670   14510   1
   1  -8   7   87670    9590  -2
   1   7  -7   87670    9590  -3
  -7   8  -7   87670    9590  -4
  -1   8   7   87670    9590   1
  -1  -8   7   65910   19810  -2
  -1   9  -7   65910   19810  -3
  -9   8  -7   65910   19810  -4
   1   8   7   65910   19810   1
  10  -9   7  154270   13050  -2
  10  -1  -7  154270   13050  -3
   1   9  -7  154270   13050  -4
 -10   9   7  154270   13050   1
   8  -9   7  105420   19050  -2
   8   1  -7  105420   19050  -3
  -1   9  -7  105420   19050  -4
  -8   9   7  105420   19050   1
   6  -9   7   85560   18190  -2
   6   3  -7   85560   18190  -3
  -3   9  -7   85560   18190  -4
  -6   9   7   85560   18190   1
   4  -9   7   47970   14020  -2
   4   5  -7   47970   14020  -3
  -5   9  -7   47970   14020  -4
  -4   9   7   47970   14020   1
   3  -9   7   37300   17190  -2
   3   6  -7   37300   17190  -3
  -6   9  -7   37300   17190  -4
  -3   9   7   37300   17190   1
   2  -9   7   48740   10300  -2
   2   7  -7   48740   10300  -3
  -7   9  -7   48740   10300  -4
  -2   9   7   48740   10300   1
   1  -9   7   88750   20210  -2
   1   8  -7   88750   20210  -3
  -8   9  -7   88750   20210  -4
  -1   9   7   88750   20210   1
  -1  -9   7  151390   14790  -2
  -1  10  -7  151390   14790  -3
 -10   9  -7  151390   14790  -4
   1   9   7  151390   14790   1
   9 -10   7  138830   15060  -2
   9   1  -7  138830   15060  -3
  -1  10  -7  138830   15060  -4
  -9  10   7  138830   15060   1
   7 -10   7  194840    7780  -2
   7   3  -7  194840    7780  -3
  -3  10  -7  194840    7780  -4
  -7  10   7  194840    7780   1
   5 -10   7  128020    8650  -2
   5   5  -7  128020    8650  -3
  -5  10  -7  128020    8650  -4
  -5  10   7  128020    8650   1
   3 -10   7  179470    9440  -2
   3   7  -7  179470    9440  -3
  -7  10  -7  179470    9440  -4
  -3  10   7  179470    9440   1
   1 -10   7  136040   12200  -2
   1   9  -7  136040   12200  -3
  -9  10  -7  136040   12200  -4
  -1  10   7  136040   12200   1
   0   0   8  431660   11680  -2
   0   0  -8  431660   11680  -3
   0   0  -8  431660   11680  -4
   0   0   8  431660   11680   1
   1  -1   8  262330    6560  -2
   1   0  -8  262330    6560  -3
   0   1  -8  262330    6560  -4
  -1   1   8  262330    6560   1
   0  -1   8  236620    4620  -2
   0   1  -8  236620    4620  -3
  -1   1  -8  236620    4620  -4
   0   1   8  236620    4620   1
  -1  -1   8  288050    9280  -2
  -1   2  -8  288050    9280  -3
  -2   1  -8  288050    9280  -4
   1   1   8  288050    9280   1
   3  -2   8  275270    5990  -2
   3  -1  -8  275270    5990  -3
   1   2  -8  275270    5990  -4
  -3   2   8  275270    5990   1
   2  -2   8  263990    9790  -2
   2   0  -8  263990    9790  -3
   0   2  -8  263990    9790  -4
  -2   2   8  263990    9790   1
   1  -2   8  263270    6550  -2
   1   1  -8  263270    6550  -3
  -1   2  -8  263270    6550  -4
  -1   2   8  263270    6550   1
   0  -2   8  253780    7680  -2
   0   2  -8  253780    7680  -3
  -2   2  -8  253780    7680  -4
   0   2   8  253780    7680   1
  -1  -2   8  291800    7130  -2
  -1   3  -8  291800    7130  -3
  -3   2  -8  291800    7130  -4
   1   2   8  291800    7130   1
  -2  -2   8  463130   13220  -2
  -2   4  -8  463130   13220  -3
  -4   2  -8  463130   13220  -4
   2   2   8  463130   13220   1
   5  -3   8  136220    6450  -2
   5  -2  -8  136220    6450  -3
   2   3  -8  136220    6450  -4
  -5   3   8  136220    6450   1
   4  -3   8  216870    6610  -2
   4  -1  -8  216870    6610  -3
   1   3  -8  216870    6610  -4
  -4   3   8  216870    6610   1
   3  -3   8  271620    7340  -2
   3   0  -8  271620    7340  -3
   0   3  -8  271620    7340  -4
  -3   3   8  271620    7340   1
   2  -3   8  307130    5270  -2
   2   1  -8  307130    5270  -3
  -1   3  -8  307130    5270  -4
  -2   3   8  307130    5270   1
   1  -3   8  279230    7890  -2
   1   2  -8  279230    7890  -3
  -2   3  -8  279230    7890  -4
  -1   3   8  279230    7890   1
   0  -3   8  271560    5910  -2
   0   3  -8  271560    5910  -3
  -3   3  -8  271560    5910  -4
   0   3   8  271560    5910   1
  -1  -3   8  241610   12270  -2
  -1   4  -8  241610   12270  -3
  -4   3  -8  241610   12270  -4
   1   3   8  241610   12270   1
  -2  -3   8  125910    7960  -2
  -2   5  -8  125910    7960  -3
  -5   3  -8  125910    7960  -4
   2   3   8  125910    7960   1
  -3  -3   8  195900    6570  -2
  -3   6  -8  195900    6570  -3
  -6   3  -8  195900    6570  -4
   3   3   8  195900    6570   1
   7  -4   8  121590   12100  -2
   7  -3  -8  121590   12100  -3
   3   4  -8  121590   12100  -4
  -7   4   8  121590   12100   1
   6  -4   8  184530    8110  -2
   6  -2  -8  184530    8110  -3
   2   4  -8  184530    8110  -4
  -6   4   8  184530    8110   1
   5  -4   8  250410    5930  -2
   5  -1  -8  250410    5930  -3
   1   4  -8  250410    5930  -4
  -5   4   8  250410    5930   1
   4  -4   8  172080    5340  -2
   4   0  -8  172080    5340  -3
   0   4  -8  172080    5340  -4
  -4   4   8  172080    5340   1
   3  -4   8  229600    5670  -2
   3   1  -8  229600    5670  -3
  -1   4  -8  229600    5670  -4
  -3   4   8  229600    5670   1
   2  -4   8  489750    9030  -2
   2   2  -8  489750    9030  -3
  -2   4  -8  489750    9030  -4
  -2   4   8  489750    9030   1
   1  -4   8  256240    6170  -2
   1   3  -8  256240    6170  -3
  -3   4  -8  256240    6170  -4
  -1   4   8  256240    6170   1
   0  -4   8  170640    6850  -2
   0   4  -8  170640    6850  -3
  -4   4  -8  170640    6850  -4
   0   4   8  170640    6850   1
  -1  -4   8  267020   11750  -2
  -1   5  -8  267020   11750  -3
  -5   4  -8  267020   11750  -4
   1   4   8  267020   11750   1
  -2  -4   8  178890    7690  -2
  -2   6  -8  178890    7690  -3
  -6   4  -8  178890    7690  -4
   2   4   8  178890    7690   1
  -3  -4   8  118410    7150  -2
  -3   7  -8  118410    7150  -3
  -7   4  -8  118410    7150  -4
   3   4   8  118410    7150   1
  -4  -4   8  122290    7170  -2
  -4   8  -8  122290    7170  -3
  -8   4  -8  122290    7170  -4
   4   4   8  122290    7170   1
   9  -5   8   52290   18540  -2
   9  -4  -8   52290   18540  -3
   4   5  -8   52290   18540  -4
  -9   5   8   52290   18540   1
   8  -5   8  177740   12860  -2
   8  -3  -8  177740   12860  -3
   3   5  -8  177740   12860  -4
  -8   5   8  177740   12860   1
   7  -5   8  117630   19520  -2
   7  -2  -8  117630   19520  -3
   2   5  -8  117630   19520  -4
  -7   5   8  117630   19520   1
   6  -5   8  230340    7190  -2
   6  -1  -8  230340    7190  -3
   1   5  -8  230340    7190  -4
  -6   5   8  230340    7190   1
   5  -5   8   64210    6790  -2
   5   0  -8   64210    6790  -3
   0   5  -8   64210    6790  -4
  -5   5   8   64210    6790   1
   4  -5   8  294030    9010  -2
   4   1  -8  294030    9010  -3
  -1   5  -8  294030    9010  -4
  -4   5   8  294030    9010   1
   3  -5   8  140850    5210  -2
   3   2  -8  140850    5210  -3
  -2   5  -8  140850    5210  -4
  -3   5   8  140850    5210   1
   2  -5   8  114770    7530  -2
   2   3  -8  114770    7530  -3
  -3   5  -8  114770    7530  -4
  -2   5   8  114770    7530   1
   1  -5   8  284040   10000  -2
   1   4  -8  284040   10000  -3
  -4   5  -8  284040   10000  -4
  -1   5   8  284040   10000   1
   0  -5   8   68850    9550  -2
   0   5  -8   68850    9550  -3
  -5   5  -8   68850    9550  -4
   0   5   8   68850    9550   1
  -1  -5   8  200290    8590  -2
  -1   6  -8  200290    8590  -3
  -6   5  -8  200290    8590  -4
   1   5   8  200290    8590   1
  -2  -5   8   89550    8450  -2
  -2   7  -8   89550    8450  -3
  -7   5  -8   89550    8450  -4
   2   5   8   89550    8450   1
  -3  -5   8  218220   10180  -2
  -3   8  -8  218220   10180  -3
  -8   5  -8  218220   10180  -4
   3   5   8  218220   10180   1
  -5  -5   8  368230   12590  -2
  -5  10  -8  368230   12590  -3
 -10   5  -8  368230   12590  -4
   5   5   8  368230   12590   1
   9  -6   8  128400    9580  -2
   9  -3  -8  128400    9580  -3
   3   6  -8  128400    9580  -4
  -9   6   8  128400    9580   1
   8  -6   8  110460   14980  -2
   8  -2  -8  110460   14980  -3
   2   6  -8  110460   14980  -4
  -8   6   8  110460   14980   1
   7  -6   8   97910    7330  -2
   7  -1  -8   97910    7330  -3
   1   6  -8   97910    7330  -4
  -7   6   8   97910    7330   1
   6  -6   8  102900    6050  -2
   6   0  -8  102900    6050  -3
   0   6  -8  102900    6050  -4
  -6   6   8  102900    6050   1
   5  -6   8  213340    6610  -2
   5   1  -8  213340    6610  -3
  -1   6  -8  213340    6610  -4
  -5   6   8  213340    6610   1
   4  -6   8  182140    6460  -2
   4   2  -8  182140    6460  -3
  -2   6  -8  182140    6460  -4
  -4   6   8  182140    6460   1
   3  -6   8  171110    6460  -2
   3   3  -8  171110    6460  -3
  -3   6  -8  171110    6460  -4
  -3   6   8  171110    6460   1
   2  -6   8  170160    5560  -2
   2   4  -8  170160    5560  -3
  -4   6  -8  170160    5560  -4
  -2   6   8  170160    5560   1
   1  -6   8  239570   11370  -2
   1   5  -8  239570   11370  -3
  -5   6  -8  239570   11370  -4
  -1   6   8  239570   11370   1
   0  -6   8  106290   10850  -2
   0   6  -8  106290   10850  -3
  -6   6  -8  106290   10850  -4
   0   6   8  106290   10850   1
  -1  -6   8  121270    7740  -2
  -1   7  -8  121270    7740  -3
  -7   6  -8  121270    7740  -4
   1   6   8  121270    7740   1
  -2  -6   8  115720    9860  -2
  -2   8  -8  115720    9860  -3
  -8   6  -8  115720    9860  -4
   2   6   8  115720    9860   1
  -3  -6   8  128630   11550  -2
  -3   9  -8  128630   11550  -3
  -9   6  -8  128630   11550  -4
   3   6   8  128630   11550   1
  10  -7   8  183290    9530  -2
  10  -3  -8  183290    9530  -3
   3   7  -8  183290    9530  -4
 -10   7   8  183290    9530   1
   8  -7   8  253930    9610  -2
   8  -1  -8  253930    9610  -3
   1   7  -8  253930    9610  -4
  -8   7   8  253930    9610   1
   7  -7   8   81450   13420  -2
   7   0  -8   81450   13420  -3
   0   7  -8   81450   13420  -4
  -7   7   8   81450   13420   1
   6  -7   8  109010    8290  -2
   6   1  -8  109010    8290  -3
  -1   7  -8  109010    8290  -4
  -6   7   8  109010    8290   1
   5  -7   8  107670    6420  -2
   5   2  -8  107670    6420  -3
  -2   7  -8  107670    6420  -4
  -5   7   8  107670    6420   1
   4  -7   8  130310    7200  -2
   4   3  -8  130310    7200  -3
  -3   7  -8  130310    7200  -4
  -4   7   8  130310    7200   1
   3  -7   8  106500    7120  -2
   3   4  -8  106500    7120  -3
  -4   7  -8  106500    7120  -4
  -3   7   8  106500    7120   1
   2  -7   8  102700    9730  -2
   2   5  -8  102700    9730  -3
  -5   7  -8  102700    9730  -4
  -2   7   8  102700    9730   1
   1  -7   8  145240   14390  -2
   1   6  -8  145240   14390  -3
  -6   7  -8  145240   14390  -4
  -1   7   8  145240   14390   1
   0  -7   8   75140   14640  -2
   0   7  -8   75140   14640  -3
  -7   7  -8   75140   14640  -4
   0   7   8   75140   14640   1
  -1  -7   8  235980   13750  -2
  -1   8  -8  235980   13750  -3
  -8   7  -8  235980   13750  -4
   1   7   8  235980   13750   1
  -3  -7   8  186900   12920  -2
  -3  10  -8  186900   12920  -3
 -10   7  -8  186900   12920  -4
   3   7   8  186900   12920   1
  10  -8   8  129260   15660  -2
  10  -2  -8  129260   15660  -3
   2   8  -8  129260   15660  -4
 -10   8   8  129260   15660   1
   9  -8   8  133460   15400  -2
   9  -1  -8  133460   15400  -3
   1   8  -8  133460   15400  -4
  -9   8   8  133460   15400   1
   7  -8   8  237850    9720  -2
   7   1  -8  237850    9720  -3
  -1   8  -8  237850    9720  -4
  -7   8   8  237850    9720   1
   6  -8   8  118000    8010  -2
   6   2  -8  118000    8010  -3
  -2   8  -8  118000    8010  -4
  -6   8   8  118000    8010   1
   5  -8   8  203680    8290  -2
   5   3  -8  203680    8290  -3
  -3   8  -8  203680    8290  -4
  -5   8   8  203680    8290   1
   4  -8   8  123900    9750  -2
   4   4  -8  123900    9750  -3
  -4   8  -8  123900    9750  -4
  -4   8   8  123900    9750   1
   3  -8   8  202600   11150  -2
   3   5  -8  202600   11150  -3
  -5   8  -8  202600   11150  -4
  -3   8   8  202600   11150   1
   2  -8   8  100040   17360  -2
   2   6  -8  100040   17360  -3
  -6   8  -8  100040   17360  -4
  -2   8   8  100040   17360   1
   1  -8   8  220910   10560  -2
   1   7  -8  220910   10560  -3
  -7   8  -8  220910   10560  -4
  -1   8   8  220910   10560   1
  -1  -8   8  140030   13870  -2
  -1   9  -8  140030   13870  -3
  -9   8  -8  140030   13870  -4
   1   8   8  140030   13870   1
  -2  -8   8   86680   27170  -2
  -2  10  -8   86680   27170  -3
 -10   8  -8   86680   27170  -4
   2   8   8   86680   27170   1
   9  -9   8  116230   15710  -2
   9   0  -8  116230   15710  -3
   0   9  -8  116230   15710  -4
  -9   9   8  116230   15710   1
   8  -9   8  132000    8590  -2
   8   1  -8  132000    8590  -3
  -1   9  -8  132000    8590  -4
  -8   9   8  132000    8590   1
   6  -9   8  133650   10940  -2
   6   3  -8  133650   10940  -3
  -3   9  -8  133650   10940  -4
  -6   9   8  133650   10940   1
   3  -9   8  134310    9950  -2
   3   6  -8  134310    9950  -3
  -6   9  -8  134310    9950  -4
  -3   9   8  134310    9950   1
   1  -9   8  118340   13480  -2
   1   8  -8  118340   13480  -3
  -8   9  -8  118340   13480  -4
  -1   9   8  118340   13480   1
   0  -9   8   70160   23560  -2
   0   9  -8   70160   23560  -3
  -9   9  -8   70160   23560  -4
   0   9   8   70160   23560   1
   8 -10   8   96890   13390  -2
   8   2  -8   96890   13390  -3
  -2  10  -8   96890   13390  -4
  -8  10   8   96890   13390   1
   7 -10   8  186320   10160  -2
   7   3  -8  186320   10160  -3
  -3  10  -8  186320   10160  -4
  -7  10   8  186320   10160   1
   5 -10   8  314540   11450  -2
   5   5  -8  314540   11450  -3
  -5  10  -8  314540   11450  -4
  -5  10   8  314540   11450   1
   3 -10   8  203990   12240  -2
   3   7  -8  203990   12240  -3
  -7  10  -8  203990   12240  -4
  -3  10   8  203990   12240   1
   2 -10   8  104120   12200  -2
   2   8  -8  104120   12200  -3
  -8  10  -8  104120   12200  -4
  -2  10   8  104120   12200   1
   0   0   9  158420    8620  -2
   0   0  -9  158420    8620  -3
   0   0  -9  158420    8620  -4
   0   0   9  158420    8620   1
   1  -1   9  406780    8960  -2
   1   0  -9  406780    8960  -3
   0   1  -9  406780    8960  -4
  -1   1   9  406780    8960   1
   0  -1   9  366930    6870  -2
   0   1  -9  366930    6870  -3
  -1   1  -9  366930    6870  -4
   0   1   9  366930    6870   1
  -1  -1   9  518590   11060  -2
  -1   2  -9  518590   11060  -3
  -2   1  -9  518590   11060  -4
   1   1   9  518590   11060   1
   3  -2   9  228990    6160  -2
   3  -1  -9  228990    6160  -3
   1   2  -9  228990    6160  -4
  -3   2   9  228990    6160   1
   2  -2   9  347390    9420  -2
   2   0  -9  347390    9420  -3
   0   2  -9  347390    9420  -4
  -2   2   9  347390    9420   1
   1  -2   9  494370    9710  -2
   1   1  -9  494370    9710  -3
  -1   2  -9  494370    9710  -4
  -1   2   9  494370    9710   1
   0  -2   9  312290   11450  -2
   0   2  -9  312290   11450  -3
  -2   2  -9  312290   11450  -4
   0   2   9  312290   11450   1
  -1  -2   9  210630    6970  -2
  -1   3  -9  210630    6970  -3
  -3   2  -9  210630    6970  -4
   1   2   9  210630    6970   1
  -2  -2   9  166040    8240  -2
  -2   4  -9  166040    8240  -3
  -4   2  -9  166040    8240  -4
   2   2   9  166040    8240   1
   5  -3   9  205580    7640  -2
   5  -2  -9  205580    7640  -3
   2   3  -9  205580    7640  -4
  -5   3   9  205580    7640   1
   4  -3   9  287420   10560  -2
   4  -1  -9  287420   10560  -3
   1   3  -9  287420   10560  -4
  -4   3   9  287420   10560   1
   3  -3   9  275200    9200  -2
   3   0  -9  275200    9200  -3
   0   3  -9  275200    9200  -4
  -3   3   9  275200    9200   1
   2  -3   9  244240    5670  -2
   2   1  -9  244240    5670  -3
  -1   3  -9  244240    5670  -4
  -2   3   9  244240    5670   1
   1  -3   9  223610    8260  -2
   1   2  -9  223610    8260  -3
  -2   3  -9  223610    8260  -4
  -1   3   9  223610    8260   1
   0  -3   9  301140    9430  -2
   0   3  -9  301140    9430  -3
  -3   3  -9  301140    9430  -4
   0   3   9  301140    9430   1
  -1  -3   9  307820   11310  -2
  -1   4  -9  307820   11310  -3
  -4   3  -9  307820   11310  -4
   1   3   9  307820   11310   1
  -2  -3   9  169350    9090  -2
  -2   5  -9  169350    9090  -3
  -5   3  -9  169350    9090  -4
   2   3   9  169350    9090   1
  -3  -3   9  258440    8910  -2
  -3   6  -9  258440    8910  -3
  -6   3  -9  258440    8910  -4
   3   3   9  258440    8910   1
   6  -4   9   99380    8730  -2
   6  -2  -9   99380    8730  -3
   2   4  -9   99380    8730  -4
  -6   4   9   99380    8730   1
   5  -4   9  198270    6120  -2
   5  -1  -9  198270    6120  -3
   1   4  -9  198270    6120  -4
  -5   4   9  198270    6120   1
   4  -4   9  157090    7210  -2
   4   0  -9  157090    7210  -3
   0   4  -9  157090    7210  -4
  -4   4   9  157090    7210   1
   3  -4   9  248860    7110  -2
   3   1  -9  248860    7110  -3
  -1   4  -9  248860    7110  -4
  -3   4   9  248860    7110   1
   2  -4   9  159180    6510  -2
   2   2  -9  159180    6510  -3
  -2   4  -9  159180    6510  -4
  -2   4   9  159180    6510   1
   1  -4   9  300350    8800  -2
   1   3  -9  300350    8800  -3
  -3   4  -9  300350    8800  -4
  -1   4   9  300350    8800   1
   0  -4   9  163980    5920  -2
   0   4  -9  163980    5920  -3
  -4   4  -9  163980    5920  -4
   0   4   9  163980    5920   1
  -1  -4   9  211410   13540  -2
  -1   5  -9  211410   13540  -3
  -5   4  -9  211410   13540  -4
   1   4   9  211410   13540   1
  -2  -4   9   88130    7890  -2
  -2   6  -9   88130    7890  -3
  -6   4  -9   88130    7890  -4
   2   4   9   88130    7890   1
  -3  -4   9   62640   18280  -2
  -3   7  -9   62640   18280  -3
  -7   4  -9   62640   18280  -4
   3   4   9   62640   18280   1
  -4  -4   9   48490   25580  -2
  -4   8  -9   48490   25580  -3
  -8   4  -9   48490   25580  -4
   4   4   9   48490   25580   1
   9  -5   9  119900    8270  -2
   9  -4  -9  119900    8270  -3
   4   5  -9  119900    8270  -4
  -9   5   9  119900    8270   1
   8  -5   9  330990   12320  -2
   8  -3  -9  330990   12320  -3
   3   5  -9  330990   12320  -4
  -8   5   9  330990   12320   1
   7  -5   9   66540   17310  -2
   7  -2  -9   66540   17310  -3
   2   5  -9   66540   17310  -4
  -7   5   9   66540   17310   1
   6  -5   9  167530    6060  -2
   6  -1  -9  167530    6060  -3
   1   5  -9  167530    6060  -4
  -6   5   9  167530    6060   1
   5  -5   9   48350   12160  -2
   5   0  -9   48350   12160  -3
   0   5  -9   48350   12160  -4
  -5   5   9   48350   12160   1
   4  -5   9  210560    7130  -2
   4   1  -9  210560    7130  -3
  -1   5  -9  210560    7130  -4
  -4   5   9  210560    7130   1
   3  -5   9  221190    7650  -2
   3   2  -9  221190    7650  -3
  -2   5  -9  221190    7650  -4
  -3   5   9  221190    7650   1
   2  -5   9  195300    9570  -2
   2   3  -9  195300    9570  -3
  -3   5  -9  195300    9570  -4
  -2   5   9  195300    9570   1
   1  -5   9  221650    7940  -2
   1   4  -9  221650    7940  -3
  -4   5  -9  221650    7940  -4
  -1   5   9  221650    7940   1
   0  -5   9   77320   15170  -2
   0   5  -9   77320   15170  -3
  -5   5  -9   77320   15170  -4
   0   5   9   77320   15170   1
  -1  -5   9  192360   14100  -2
  -1   6  -9  192360   14100  -3
  -6   5  -9  192360   14100  -4
   1   5   9  192360   14100   1
  -2  -5   9   54580   19750  -2
  -2   7  -9   54580   19750  -3
  -7   5  -9   54580   19750  -4
   2   5   9   54580   19750   1
  -3  -5   9  334880   13720  -2
  -3   8  -9  334880   13720  -3
  -8   5  -9  334880   13720  -4
   3   5   9  334880   13720   1
  -4  -5   9  115780   17740  -2
  -4   9  -9  115780   17740  -3
  -9   5  -9  115780   17740  -4
   4   5   9  115780   17740   1
   9  -6   9  108010   18180  -2
   9  -3  -9  108010   18180  -3
   3   6  -9  108010   18180  -4
  -9   6   9  108010   18180   1
   7  -6   9  204100    8620  -2
   7  -1  -9  204100    8620  -3
   1   6  -9  204100    8620  -4
  -7   6   9  204100    8620   1
   6  -6   9   85290    8410  -2
   6   0  -9   85290    8410  -3
   0   6  -9   85290    8410  -4
  -6   6   9   85290    8410   1
   5  -6   9  176540   13280  -2
   5   1  -9  176540   13280  -3
  -1   6  -9  176540   13280  -4
  -5   6   9  176540   13280   1
   4  -6   9  109970    5640  -2
   4   2  -9  109970    5640  -3
  -2   6  -9  109970    5640  -4
  -4   6   9  109970    5640   1
   3  -6   9  260620   11550  -2
   3   3  -9  260620   11550  -3
  -3   6  -9  260620   11550  -4
  -3   6   9  260620   11550   1
   2  -6   9  102790    7400  -2
   2   4  -9  102790    7400  -3
  -4   6  -9  102790    7400  -4
  -2   6   9  102790    7400   1
   1  -6   9  159630    8390  -2
   1   5  -9  159630    8390  -3
  -5   6  -9  159630    8390  -4
  -1   6   9  159630    8390   1
  -1  -6   9  225940   12210  -2
  -1   7  -9  225940   12210  -3
  -7   6  -9  225940   12210  -4
   1   6   9  225940   12210   1
  -2  -6   9   93550   15300  -2
  -2   8  -9   93550   15300  -3
  -8   6  -9   93550   15300  -4
   2   6   9   93550   15300   1
  -3  -6   9   84630   13940  -2
  -3   9  -9   84630   13940  -3
  -9   6  -9   84630   13940  -4
   3   6   9   84630   13940   1
   8  -7   9  171870    9760  -2
   8  -1  -9  171870    9760  -3
   1   7  -9  171870    9760  -4
  -8   7   9  171870    9760   1
   7  -7   9  128730    7080  -2
   7   0  -9  128730    7080  -3
   0   7  -9  128730    7080  -4
  -7   7   9  128730    7080   1
   6  -7   9  224710    9510  -2
   6   1  -9  224710    9510  -3
  -1   7  -9  224710    9510  -4
  -6   7   9  224710    9510   1
   3  -7   9   75710   17940  -2
   3   4  -9   75710   17940  -3
  -4   7  -9   75710   17940  -4
  -3   7   9   75710   17940   1
   2  -7   9   75390   13600  -2
   2   5  -9   75390   13600  -3
  -5   7  -9   75390   13600  -4
  -2   7   9   75390   13600   1
   1  -7   9  246660    9570  -2
   1   6  -9  246660    9570  -3
  -6   7  -9  246660    9570  -4
  -1   7   9  246660    9570   1
   0  -7   9  132990   12090  -2
   0   7  -9  132990   12090  -3
  -7   7  -9  132990   12090  -4
   0   7   9  132990   12090   1
  -1  -7   9  174120   13500  -2
  -1   8  -9  174120   13500  -3
  -8   7  -9  174120   13500  -4
   1   7   9  174120   13500   1
   9  -8   9  116660   16950  -2
   9  -1  -9  116660   16950  -3
   1   8  -9  116660   16950  -4
  -9   8   9  116660   16950   1
   8  -8   9   79830   22730  -2
   8   0  -9   79830   22730  -3
   0   8  -9   79830   22730  -4
  -8   8   9   79830   22730   1
   7  -8   9  169390   11270  -2
   7   1  -9  169390   11270  -3
  -1   8  -9  169390   11270  -4
  -7   8   9  169390   11270   1
   6  -8   9   74180   25540  -2
   6   2  -9   74180   25540  -3
  -2   8  -9   74180   25540  -4
  -6   8   9   74180   25540   1
   5  -8   9  294720    8980  -2
   5   3  -9  294720    8980  -3
  -3   8  -9  294720    8980  -4
  -5   8   9  294720    8980   1
   3  -8   9  332430   10700  -2
   3   5  -9  332430   10700  -3
  -5   8  -9  332430   10700  -4
  -3   8   9  332430   10700   1
   2  -8   9   93010   17290  -2
   2   6  -9   93010   17290  -3
  -6   8  -9   93010   17290  -4
  -2   8   9   93010   17290   1
   1  -8   9  192750   11610  -2
   1   7  -9  192750   11610  -3
  -7   8  -9  192750   11610  -4
  -1   8   9  192750   11610   1
  -1  -8   9   57090   26940  -2
  -1   9  -9   57090   26940  -3
  -9   8  -9   57090   26940  -4
   1   8   9   57090   26940   1
   8  -9   9   87400   17400  -2
   8   1  -9   87400   17400  -3
  -1   9  -9   87400   17400  -4
  -8   9   9   87400   17400   1
   6  -9   9  103160   11650  -2
   6   3  -9  103160   11650  -3
  -3   9  -9  103160   11650  -4
  -6   9   9  103160   11650   1
   5  -9   9  153710   11390  -2
   5   4  -9  153710   11390  -3
  -4   9  -9  153710   11390  -4
  -5   9   9  153710   11390   1
   4  -9   9  127140   11190  -2
   4   5  -9  127140   11190  -3
  -5   9  -9  127140   11190  -4
  -4   9   9  127140   11190   1
   1  -9   9  102740   26190  -2
   1   8  -9  102740   26190  -3
  -8   9  -9  102740   26190  -4
  -1   9   9  102740   26190   1
   0   0  10   78350   13430  -2
   0   0 -10   78350   13430  -3
   0   0 -10   78350   13430  -4
   0   0  10   78350   13430   1
   1  -1  10  542200   16730  -2
   1   0 -10  542200   16730  -3
   0   1 -10  542200   16730  -4
  -1   1  10  542200   16730   1
   0  -1  10  611940   10670  -2
   0   1 -10  611940   10670  -3
  -1   1 -10  611940   10670  -4
   0   1  10  611940   10670   1
  -1  -1  10  155370    6810  -2
  -1   2 -10  155370    6810  -3
  -2   1 -10  155370    6810  -4
   1   1  10  155370    6810   1
   3  -2  10  445690   10880  -2
   3  -1 -10  445690   10880  -3
   1   2 -10  445690   10880  -4
  -3   2  10  445690   10880   1
   2  -2  10  313570   11150  -2
   2   0 -10  313570   11150  -3
   0   2 -10  313570   11150  -4
  -2   2  10  313570   11150   1
   1  -2  10  134660    6450  -2
   1   1 -10  134660    6450  -3
  -1   2 -10  134660    6450  -4
  -1   2  10  134660    6450   1
   0  -2  10  353110   10930  -2
   0   2 -10  353110   10930  -3
  -2   2 -10  353110   10930  -4
   0   2  10  353110   10930   1
  -1  -2  10  536930   17450  -2
  -1   3 -10  536930   17450  -3
  -3   2 -10  536930   17450  -4
   1   2  10  536930   17450   1
  -2  -2  10   26290   16910  -2
  -2   4 -10   26290   16910  -3
  -4   2 -10   26290   16910  -4
   2   2  10   26290   16910   1
   5  -3  10  190180    8480  -2
   5  -2 -10  190180    8480  -3
   2   3 -10  190180    8480  -4
  -5   3  10  190180    8480   1
   4  -3  10  396620   13010  -2
   4  -1 -10  396620   13010  -3
   1   3 -10  396620   13010  -4
  -4   3  10  396620   13010   1
   3  -3  10   55910   19030  -2
   3   0 -10   55910   19030  -3
   0   3 -10   55910   19030  -4
  -3   3  10   55910   19030   1
   2  -3  10  469820    9890  -2
   2   1 -10  469820    9890  -3
  -1   3 -10  469820    9890  -4
  -2   3  10  469820    9890   1
   1  -3  10  526150   19250  -2
   1   2 -10  526150   19250  -3
  -2   3 -10  526150   19250  -4
  -1   3  10  526150   19250   1
   0  -3  10   50400   16170  -2
   0   3 -10   50400   16170  -3
  -3   3 -10   50400   16170  -4
   0   3  10   50400   16170   1
  -1  -3  10  359030    9990  -2
  -1   4 -10  359030    9990  -3
  -4   3 -10  359030    9990  -4
   1   3  10  359030    9990   1
  -2  -3  10  198720   12110  -2
  -2   5 -10  198720   12110  -3
  -5   3 -10  198720   12110  -4
   2   3  10  198720   12110   1
  -3  -3  10  235610   11310  -2
  -3   6 -10  235610   11310  -3
  -6   3 -10  235610   11310  -4
   3   3  10  235610   11310   1
   7  -4  10  281310   12220  -2
   7  -3 -10  281310   12220  -3
   3   4 -10  281310   12220  -4
  -7   4  10  281310   12220   1
   6  -4  10  154690   11270  -2
   6  -2 -10  154690   11270  -3
   2   4 -10  154690   11270  -4
  -6   4  10  154690   11270   1
   5  -4  10   93590    9480  -2
   5  -1 -10   93590    9480  -3
   1   4 -10   93590    9480  -4
  -5   4  10   93590    9480   1
   4  -4  10  259240   12290  -2
   4   0 -10  259240   12290  -3
   0   4 -10  259240   12290  -4
  -4   4  10  259240   12290   1
   3  -4  10  385010    9410  -2
   3   1 -10  385010    9410  -3
  -1   4 -10  385010    9410  -4
  -3   4  10  385010    9410   1
   1  -4  10  314260   11660  -2
   1   3 -10  314260   11660  -3
  -3   4 -10  314260   11660  -4
  -1   4  10  314260   11660   1
   0  -4  10  215830    7980  -2
   0   4 -10  215830    7980  -3
  -4   4 -10  215830    7980  -4
   0   4  10  215830    7980   1
  -1  -4  10  111350   22130  -2
  -1   5 -10  111350   22130  -3
  -5   4 -10  111350   22130  -4
   1   4  10  111350   22130   1
  -2  -4  10  186640   10000  -2
  -2   6 -10  186640   10000  -3
  -6   4 -10  186640   10000  -4
   2   4  10  186640   10000   1
  -3  -4  10  340720   11600  -2
  -3   7 -10  340720   11600  -3
  -7   4 -10  340720   11600  -4
   3   4  10  340720   11600   1
   8  -5  10  329400   13800  -2
   8  -3 -10  329400   13800  -3
   3   5 -10  329400   13800  -4
  -8   5  10  329400   13800   1
   7  -5  10  107130   28760  -2
   7  -2 -10  107130   28760  -3
   2   5 -10  107130   28760  -4
  -7   5  10  107130   28760   1
   6  -5  10  395560   13360  -2
   6  -1 -10  395560   13360  -3
   1   5 -10  395560   13360  -4
  -6   5  10  395560   13360   1
   5  -5  10  328490   10090  -2
   5   0 -10  328490   10090  -3
   0   5 -10  328490   10090  -4
  -5   5  10  328490   10090   1
   4  -5  10  110750   11680  -2
   4   1 -10  110750   11680  -3
  -1   5 -10  110750   11680  -4
  -4   5  10  110750   11680   1
   3  -5  10  169660    8330  -2
   3   2 -10  169660    8330  -3
  -2   5 -10  169660    8330  -4
  -3   5  10  169660    8330   1
   2  -5  10  191560   11190  -2
   2   3 -10  191560   11190  -3
  -3   5 -10  191560   11190  -4
  -2   5  10  191560   11190   1
   1  -5  10  124430    7200  -2
   1   4 -10  124430    7200  -3
  -4   5 -10  124430    7200  -4
  -1   5  10  124430    7200   1
   0  -5  10  286180    9910  -2
   0   5 -10  286180    9910  -3
  -5   5 -10  286180    9910  -4
   0   5  10  286180    9910   1
  -1  -5  10  430440   30250  -2
  -1   6 -10  430440   30250  -3
  -6   5 -10  430440   30250  -4
   1   5  10  430440   30250   1
  -3  -5  10  292520   11820  -2
  -3   8 -10  292520   11820  -3
  -8   5 -10  292520   11820  -4
   3   5  10  292520   11820   1
   8  -6  10   67180   22060  -2
   8  -2 -10   67180   22060  -3
   2   6 -10   67180   22060  -4
  -8   6  10   67180   22060   1
   7  -6  10  218880    9710  -2
   7  -1 -10  218880    9710  -3
   1   6 -10  218880    9710  -4
  -7   6  10  218880    9710   1
   5  -6  10  359750   12510  -2
   5   1 -10  359750   12510  -3
  -1   6 -10  359750   12510  -4
  -5   6  10  359750   12510   1
   4  -6  10  157800    8050  -2
   4   2 -10  157800    8050  -3
  -2   6 -10  157800    8050  -4
  -4   6  10  157800    8050   1
   3  -6  10  204780   14840  -2
   3   3 -10  204780   14840  -3
  -3   6 -10  204780   14840  -4
  -3   6  10  204780   14840   1
   2  -6  10  160660   13930  -2
   2   4 -10  160660   13930  -3
  -4   6 -10  160660   13930  -4
  -2   6  10  160660   13930   1
   1  -6  10  439720   13500  -2
   1   5 -10  439720   13500  -3
  -5   6 -10  439720   13500  -4
  -1   6  10  439720   13500   1
  -1  -6  10  218620   18380  -2
  -1   7 -10  218620   18380  -3
  -7   6 -10  218620   18380  -4
   1   6  10  218620   18380   1
  -2  -6  10  122890   25240  -2
  -2   8 -10  122890   25240  -3
  -8   6 -10  122890   25240  -4
   2   6  10  122890   25240   1
   8  -7  10  151270   27870  -2
   8  -1 -10  151270   27870  -3
   1   7 -10  151270   27870  -4
  -8   7  10  151270   27870   1
   7  -7  10   89600   10200  -2
   7   0 -10   89600   10200  -3
   0   7 -10   89600   10200  -4
  -7   7  10   89600   10200   1
   6  -7  10  202930   11030  -2
   6   1 -10  202930   11030  -3
  -1   7 -10  202930   11030  -4
  -6   7  10  202930   11030   1
   4  -7  10  282480   11300  -2
   4   3 -10  282480   11300  -3
  -3   7 -10  282480   11300  -4
  -4   7  10  282480   11300   1
   3  -7  10  315370   11550  -2
   3   4 -10  315370   11550  -3
  -4   7 -10  315370   11550  -4
  -3   7  10  315370   11550   1
   1  -7  10  202930   11340  -2
   1   6 -10  202930   11340  -3
  -6   7 -10  202930   11340  -4
  -1   7  10  202930   11340   1
   0  -7  10   76510   22020  -2
   0   7 -10   76510   22020  -3
  -7   7 -10   76510   22020  -4
   0   7  10   76510   22020   1
  -1  -7  10  206030   28900  -2
  -1   8 -10  206030   28900  -3
  -8   7 -10  206030   28900  -4
   1   7  10  206030   28900   1
   7  -8  10  137290   20760  -2
   7   1 -10  137290   20760  -3
  -1   8 -10  137290   20760  -4
  -7   8  10  137290   20760   1
   6  -8  10  137230   25300  -2
   6   2 -10  137230   25300  -3
  -2   8 -10  137230   25300  -4
  -6   8  10  137230   25300   1
   5  -8  10  314770   11090  -2
   5   3 -10  314770   11090  -3
  -3   8 -10  314770   11090  -4
  -5   8  10  314770   11090   1
   3  -8  10  283070   10550  -2
   3   5 -10  283070   10550  -3
  -5   8 -10  283070   10550  -4
  -3   8  10  283070   10550   1
   2  -8  10  103310   13150  -2
   2   6 -10  103310   13150  -3
  -6   8 -10  103310   13150  -4
  -2   8  10  103310   13150   1
   0   0  11  272710   18660  -2
   0   0 -11  272710   18660  -3
   0   0 -11  272710   18660  -4
   0   0  11  272710   18660   1
   1  -1  11  251620    9440  -2
   1   0 -11  251620    9440  -3
   0   1 -11  251620    9440  -4
  -1   1  11  251620    9440   1
   0  -1  11  210340    7600  -2
   0   1 -11  210340    7600  -3
  -1   1 -11  210340    7600  -4
   0   1  11  210340    7600   1
  -1  -1  11  154470   21900  -2
  -1   2 -11  154470   21900  -3
  -2   1 -11  154470   21900  -4
   1   1  11  154470   21900   1
   3  -2  11  150050   10300  -2
   3  -1 -11  150050   10300  -3
   1   2 -11  150050   10300  -4
  -3   2  11  150050   10300   1
   2  -2  11   65760   14530  -2
   2   0 -11   65760   14530  -3
   0   2 -11   65760   14530  -4
  -2   2  11   65760   14530   1
   1  -2  11  133030    9420  -2
   1   1 -11  133030    9420  -3
  -1   2 -11  133030    9420  -4
  -1   2  11  133030    9420   1
   0  -2  11   47530   17890  -2
   0   2 -11   47530   17890  -3
  -2   2 -11   47530   17890  -4
   0   2  11   47530   17890   1
  -1  -2  11  121110   18300  -2
  -1   3 -11  121110   18300  -3
  -3   2 -11  121110   18300  -4
   1   2  11  121110   18300   1
  -2  -2  11  196150    9850  -2
  -2   4 -11  196150    9850  -3
  -4   2 -11  196150    9850  -4
   2   2  11  196150    9850   1
   5  -3  11  181310    9970  -2
   5  -2 -11  181310    9970  -3
   2   3 -11  181310    9970  -4
  -5   3  11  181310    9970   1
   4  -3  11  225390   10430  -2
   4  -1 -11  225390   10430  -3
   1   3 -11  225390   10430  -4
  -4   3  11  225390   10430   1
   2  -3  11  142610    9360  -2
   2   1 -11  142610    9360  -3
  -1   3 -11  142610    9360  -4
  -2   3  11  142610    9360   1
   1  -3  11  106430   15410  -2
   1   2 -11  106430   15410  -3
  -2   3 -11  106430   15410  -4
  -1   3  11  106430   15410   1
  -1  -3  11  240810   11270  -2
  -1   4 -11  240810   11270  -3
  -4   3 -11  240810   11270  -4
   1   3  11  240810   11270   1
  -2  -3  11  143110   10890  -2
  -2   5 -11  143110   10890  -3
  -5   3 -11  143110   10890  -4
   2   3  11  143110   10890   1
  -3  -3  11  161730   13810  -2
  -3   6 -11  161730   13810  -3
  -6   3 -11  161730   13810  -4
   3   3  11  161730   13810   1
   5  -4  11  113900   11650  -2
   5  -1 -11  113900   11650  -3
   1   4 -11  113900   11650  -4
  -5   4  11  113900   11650   1
   3  -4  11  198000    8440  -2
   3   1 -11  198000    8440  -3
  -1   4 -11  198000    8440  -4
  -3   4  11  198000    8440   1
   2  -4  11  219420    8800  -2
   2   2 -11  219420    8800  -3
  -2   4 -11  219420    8800  -4
  -2   4  11  219420    8800   1
   1  -4  11  235200   11000  -2
   1   3 -11  235200   11000  -3
  -3   4 -11  235200   11000  -4
  -1   4  11  235200   11000   1
  -1  -4  11  138110   36150  -2
  -1   5 -11  138110   36150  -3
  -5   4 -11  138110   36150  -4
   1   4  11  138110   36150   1
   6  -5  11  199860    9570  -2
   6  -1 -11  199860    9570  -3
   1   5 -11  199860    9570  -4
  -6   5  11  199860    9570   1
   5  -5  11   95470   22630  -2
   5   0 -11   95470   22630  -3
   0   5 -11   95470   22630  -4
  -5   5  11   95470   22630   1
   4  -5  11   91690   12570  -2
   4   1 -11   91690   12570  -3
  -1   5 -11   91690   12570  -4
  -4   5  11   91690   12570   1
   3  -5  11  175580    9650  -2
   3   2 -11  175580    9650  -3
  -2   5 -11  175580    9650  -4
  -3   5  11  175580    9650   1
   2  -5  11  159880    8870  -2
   2   3 -11  159880    8870  -3
  -3   5 -11  159880    8870  -4
  -2   5  11  159880    8870   1
   1  -5  11  101520   11030  -2
   1   4 -11  101520   11030  -3
  -4   5 -11  101520   11030  -4
  -1   5  11  101520   11030   1
  -1  -5  11  210320   26000  -2
  -1   6 -11  210320   26000  -3
  -6   5 -11  210320   26000  -4
   1   5  11  210320   26000   1
   5  -6  11  160740   13500  -2
   5   1 -11  160740   13500  -3
  -1   6 -11  160740   13500  -4
  -5   6  11  160740   13500   1
   3  -6  11  173920   12890  -2
   3   3 -11  173920   12890  -3
  -3   6 -11  173920   12890  -4
  -3   6  11  173920   12890   1
   1  -6  11  166760   10220  -2
   1   5 -11  166760   10220  -3
  -5   6 -11  166760   10220  -4
  -1   6  11  166760   10220   1
  -1  -1  12  208130   11700  -2
  -1   2 -12  208130   11700  -3
  -2   1 -12  208130   11700  -4
   1   1  12  208130   11700   1
   2  -2  12  341540   16130  -2
   2   0 -12  341540   16130  -3
   0   2 -12  341540   16130  -4
  -2   2  12  341540   16130   1
   1  -2  12  190840   10980  -2
   1   1 -12  190840   10980  -3
  -1   2 -12  190840   10980  -4
  -1   2  12  190840   10980   1
   0  -2  12  293130   11550  -2
   0   2 -12  293130   11550  -3
  -2   2 -12  293130   11550  -4
   0   2  12  293130   11550   1
   3  -3  12  158430   12290  -2
   3   0 -12  158430   12290  -3
   0   3 -12  158430   12290  -4
  -3   3  12  158430   12290   1
   0  -3  12  172370   16480  -2
   0   3 -12  172370   16480  -3
  -3   3 -12  172370   16480  -4
   0   3  12  172370   16480   1
   4  -4  12  185180   15960  -2
   4   0 -12  185180   15960  -3
   0   4 -12  185180   15960  -4
  -4   4  12  185180   15960   1
   0  -4  12  232360   16400  -2
   0   4 -12  232360   16400  -3
  -4   4 -12  232360   16400  -4
   0   4  12  232360   16400   1
;
_shelx_hkl_checksum              2966
loop_
_space_group_symop_operation_xyz
'x, y, z'
'-y, x-y, z'
'-x+y, -x, z'
'-x, -y, -z'
'y, -x+y, -z'
'x-y, x, -z'
loop_
_atom_site_label
_atom_site_type_symbol
_atom_site_fract_x
_atom_site_fract_y
_atom_site_fract_z
_atom_site_U_iso_or_equiv
_atom_site_adp_type
_atom_site_occupancy
_atom_site_site_symmetry_order
_atom_site_calc_flag
_atom_site_refinement_flags_posn
_atom_site_refinement_flags_adp
_atom_site_refinement_flags_occupancy
In1 In 0.0000 0.0000 0.0000 0.0058(3) Uani 1 6 d S T P
Ag1 Ag 0.0000 0.0000 0.5000 0.0178(3) Uani 1 6 d S T P
Br1 Br 0.32342(8) 0.13553(8) 0.22264(8) 0.01323(10) Uani 1 1 d . . .
N1 N 0.6667 0.3333 0.84333(10) 0.02448(19) Uani 1 3 d S T P
H1 H 0.7795(6) 0.4658(5) 0.8942(4) 0.0749(9) Uani 1 1 d . . .
C1 C 0.6667 0.3333 0.63857(13) 0.0246(2) Uani 1 3 d S T P
H2 H 0.5460(6) 0.1919(5) 0.5904(4) 0.0789(10) Uani 1 1 d . . .
loop_
_atom_site_aniso_label
_atom_site_aniso_U_11
_atom_site_aniso_U_22
_atom_site_aniso_U_33
_atom_site_aniso_U_23
_atom_site_aniso_U_13
_atom_site_aniso_U_12
In1 0.0072(5) 0.0072(5) 0.0031(5) 0.000 0.000 0.0036(2)
Ag1 0.0246(5) 0.0246(5) 0.0041(4) 0.000 0.000 0.0123(3)
Br1 0.00863(19) 0.0182(2) 0.01072(14) -0.00223(16) -0.00479(17) 0.00510(17)
N1 0.0319(3) 0.0319(3) 0.0096(2) 0.000 0.000 0.01596(15)
H1 0.082(2) 0.079(2) 0.0580(13) -0.0442(14) -0.0374(14) 0.0355(17)
C1 0.0321(4) 0.0321(4) 0.0095(3) 0.000 0.000 0.01605(19)
H2 0.083(3) 0.072(2) 0.0583(13) -0.0388(14) -0.0337(15) 0.0210(16)
loop_
_atom_type_symbol
_atom_type_description
_atom_type_scat_dispersion_real
_atom_type_scat_dispersion_imag
_atom_type_scat_source
H H 0.0000 0.0000
'Neutron Data Booklet, ILL Grenoble, France (2003) ISBN 0-9704143-7-4'
C C 0.0000 0.0000
'Neutron Data Booklet, ILL Grenoble, France (2003) ISBN 0-9704143-7-4'
N N 0.0000 0.0000
'Neutron Data Booklet, ILL Grenoble, France (2003) ISBN 0-9704143-7-4'
Br Br 0.0000 0.0000
'Neutron Data Booklet, ILL Grenoble, France (2003) ISBN 0-9704143-7-4'
Ag Ag 0.0000 0.0000
'Neutron Data Booklet, ILL Grenoble, France (2003) ISBN 0-9704143-7-4'
In In 0.0000 0.0000
'Neutron Data Booklet, ILL Grenoble, France (2003) ISBN 0-9704143-7-4'
loop_
_geom_angle_atom_site_label_1
_geom_angle_atom_site_label_2
_geom_angle_atom_site_label_3
_geom_angle
_geom_angle_site_symmetry_1
_geom_angle_site_symmetry_3
Br1 In1 Br1 180.0 . 4
Br1 In1 Br1 91.316(19) . 5
Br1 In1 Br1 88.684(19) 4 5
Br1 In1 Br1 88.684(19) . 2
Br1 In1 Br1 91.316(19) 4 2
Br1 In1 Br1 180.00(3) 5 2
Br1 In1 Br1 91.316(19) . 6
Br1 In1 Br1 88.684(19) 4 6
Br1 In1 Br1 88.684(19) 5 6
Br1 In1 Br1 91.316(19) 2 6
Br1 In1 Br1 88.684(19) . 3
Br1 In1 Br1 91.316(19) 4 3
Br1 In1 Br1 91.316(19) 5 3
Br1 In1 Br1 88.684(19) 2 3
Br1 In1 Br1 180.00(3) 6 3
Br1 Ag1 Br1 180.0 6_556 3
Br1 Ag1 Br1 79.593(16) 6_556 5_556
Br1 Ag1 Br1 100.407(16) 3 5_556
Br1 Ag1 Br1 100.407(16) 6_556 2
Br1 Ag1 Br1 79.593(16) 3 2
Br1 Ag1 Br1 180.000(17) 5_556 2
Br1 Ag1 Br1 79.593(16) 6_556 4_556
Br1 Ag1 Br1 100.407(16) 3 4_556
Br1 Ag1 Br1 79.593(16) 5_556 4_556
Br1 Ag1 Br1 100.407(16) 2 4_556
Br1 Ag1 Br1 100.407(16) 6_556 .
Br1 Ag1 Br1 79.593(16) 3 .
Br1 Ag1 Br1 100.407(16) 5_556 .
Br1 Ag1 Br1 79.593(16) 2 .
Br1 Ag1 Br1 180.0 4_556 .
In1 Br1 Ag1 78.536(15) . .
H1 N1 H1 108.1(2) . 3_665
H1 N1 H1 108.1(2) . 2_655
H1 N1 H1 108.1(2) 3_665 2_655
H1 N1 C1 110.81(19) . .
H1 N1 C1 110.81(19) 3_665 .
H1 N1 C1 110.81(19) 2_655 .
H2 C1 H2 110.32(18) 3_665 .
H2 C1 H2 110.32(18) 3_665 2_655
H2 C1 H2 110.32(18) . 2_655
H2 C1 N1 108.61(19) 3_665 .
H2 C1 N1 108.61(19) . .
H2 C1 N1 108.61(19) 2_655 .
loop_
_geom_bond_atom_site_label_1
_geom_bond_atom_site_label_2
_geom_bond_distance
_geom_bond_site_symmetry_2
In1 Br1 2.6603(5) .
In1 Br1 2.6603(5) 4
In1 Br1 2.6603(5) 5
In1 Br1 2.6603(5) 2
In1 Br1 2.6603(5) 6
In1 Br1 2.6603(5) 3
Ag1 Br1 2.9050(6) 6_556
Ag1 Br1 2.9050(6) 3
Ag1 Br1 2.9050(6) 5_556
Ag1 Br1 2.9050(6) 2
Ag1 Br1 2.9050(6) 4_556
Ag1 Br1 2.9051(6) .
N1 H1 1.011(3) .
N1 H1 1.011(3) 3_665
N1 H1 1.011(3) 2_655
N1 C1 1.4446(11) .
C1 H2 1.066(3) 3_665
C1 H2 1.066(3) .
C1 H2 1.066(3) 2_655
loop_
_geom_hbond_atom_site_label_D
_geom_hbond_atom_site_label_H
_geom_hbond_atom_site_label_A
_geom_hbond_distance_DH
_geom_hbond_distance_HA
_geom_hbond_distance_DA
_geom_hbond_angle_DHA
_geom_hbond_site_symmetry_A
N1 H1 Br1 1.011(3) 2.805(4) 3.6468(5) 141.0(2) 5_666
N1 H1 Br1 1.011(3) 2.760(3) 3.5142(9) 131.7(3) 3_666
C1 H2 Br1 1.066(3) 3.012(3) 3.7147(10) 124.0(3) .
loop_
_geom_torsion_atom_site_label_1
_geom_torsion_atom_site_label_2
_geom_torsion_atom_site_label_3
_geom_torsion_atom_site_label_4
_geom_torsion
_geom_torsion_site_symmetry_1
_geom_torsion_site_symmetry_4
H1 N1 C1 H2 -59.9(3) . 3_665
H1 N1 C1 H2 -179.9(3) 3_665 3_665
H1 N1 C1 H2 60.1(3) 2_655 3_665
H1 N1 C1 H2 -179.9(3) . .
H1 N1 C1 H2 60.1(3) 3_665 .
H1 N1 C1 H2 -59.9(3) 2_655 .
H1 N1 C1 H2 60.1(3) . 2_655
H1 N1 C1 H2 -59.9(3) 3_665 2_655
H1 N1 C1 H2 -179.9(3) 2_655 2_655
