#------------------------------------------------------------------------------
#$Date: 2019-11-17 15:32:33 +0200 (Sun, 17 Nov 2019) $
#$Revision: 230902 $
#$URL: file:///home/coder/svn-repositories/cod/cif/7/23/14/7231423.cif $
#------------------------------------------------------------------------------
#
# This file is available in the Crystallography Open Database (COD),
# http://www.crystallography.net/
#
# All data on this site have been placed in the public domain by the
# contributors.
#
data_7231423
loop_
_publ_author_name
'Collings, Ines E.'
'Manna, Rudra Sekhar'
'Tsirlin, Alexander A.'
'Bykov, Maxim'
'Bykova, Elena'
'Hanfland, Michael'
'Gegenwart, Philipp'
'van Smaalen, Sander'
'Dubrovinsky, Leonid'
'Dubrovinskaia, Natalia'
_publ_section_title
;
 Pressure dependence of spin canting in ammonium metal formate
 antiferromagnets.
;
_journal_issue                   37
_journal_name_full               'Physical chemistry chemical physics : PCCP'
_journal_page_first              24465
_journal_page_last               24476
_journal_paper_doi               10.1039/c8cp03761b
_journal_volume                  20
_journal_year                    2018
_chemical_formula_moiety         'C6 H6 Fe2 O12, N2 H8'
_chemical_formula_sum            'C6 H14 Fe2 N2 O12'
_chemical_formula_weight         417.9
_space_group_IT_number           4
_space_group_name_Hall           'P 2yb'
_space_group_name_H-M_alt        'P 1 21 1'
_symmetry_cell_setting           monoclinic
_symmetry_Int_Tables_number      4
_symmetry_space_group_name_Hall  'P 2yb'
_symmetry_space_group_name_H-M   'P 1 21 1'
_audit_creation_method           'Jana2006 Version : 25/10/2015'
_audit_update_record
;
2018-08-09 deposited with the CCDC.
2018-08-22 downloaded from the CCDC.
;
_cell_angle_alpha                90
_cell_angle_beta                 90.00(2)
_cell_angle_gamma                90
_cell_formula_units_Z            2
_cell_length_a                   6.5890(12)
_cell_length_b                   7.004(2)
_cell_length_c                   13.771(6)
_cell_measurement_reflns_used    237
_cell_measurement_temperature    293
_cell_measurement_theta_max      12.93
_cell_measurement_theta_min      1.88
_cell_volume                     635.5(4)
_computing_cell_refinement       'CrysAlisPro 1.171.38.46 (Rigaku OD, 2015)'
_computing_data_collection       'CrysAlisPro 1.171.38.46 (Rigaku OD, 2015)'
_computing_data_reduction        'CrysAlisPro 1.171.38.46 (Rigaku OD, 2015)'
_diffrn_ambient_pressure         '2.37 GPa'
_diffrn_ambient_temperature      293
_diffrn_detector                 'CCD plate'
_diffrn_measured_fraction_theta_full 0.88
_diffrn_measured_fraction_theta_max 0.87
_diffrn_measurement_device       'ID15B beamline, ESRF'
_diffrn_measurement_device_type
'esperanto-CrysAlisPro-abstract goniometer imported esperanto images'
_diffrn_measurement_method       '\w scans'
_diffrn_measurement_specimen_support 'diamond-anvil cell'
_diffrn_radiation_monochromator  synchrotron
_diffrn_radiation_probe          x-ray
_diffrn_radiation_source         synchrotron
_diffrn_radiation_type           synchrotron
_diffrn_radiation_wavelength     0.41111
_diffrn_reflns_av_R_equivalents  0.0416
_diffrn_reflns_av_unetI/netI     0.0757
_diffrn_reflns_limit_h_max       7
_diffrn_reflns_limit_h_min       -7
_diffrn_reflns_limit_k_max       7
_diffrn_reflns_limit_k_min       -7
_diffrn_reflns_limit_l_max       15
_diffrn_reflns_limit_l_min       -15
_diffrn_reflns_number            3453
_diffrn_reflns_theta_full        10.32
_diffrn_reflns_theta_max         13.26
_diffrn_reflns_theta_min         1.89
_diffrn_source                   synchrotron
_exptl_absorpt_coefficient_mu    0.497
_exptl_absorpt_correction_T_max  1
_exptl_absorpt_correction_T_min  0.286
_exptl_absorpt_correction_type   multi-scan
_exptl_absorpt_process_details
;
CrysAlisPro 1.171.38.46 (Rigaku Oxford Diffraction, 2015)
Empirical absorption correction using spherical harmonics,
 implemented in SCALE3 ABSPACK scaling algorithm.
;
_exptl_crystal_colour            colourless
_exptl_crystal_density_diffrn    2.1837
_exptl_crystal_description       block
_exptl_crystal_F_000             408
_exptl_crystal_size_max          0.170
_exptl_crystal_size_mid          0.110
_exptl_crystal_size_min          0.050
_refine_ls_abs_structure_details
'  967 of Friedel pairs used in the refinement'
_refine_ls_extinction_method     none
_refine_ls_goodness_of_fit_gt    4.78
_refine_ls_goodness_of_fit_ref   3.59
_refine_ls_hydrogen_treatment    constr
_refine_ls_number_constraints    38
_refine_ls_number_parameters     86
_refine_ls_number_reflns         3453
_refine_ls_number_restraints     0
_refine_ls_R_factor_all          0.2025
_refine_ls_R_factor_gt           0.1447
_refine_ls_shift/su_max          0.0448
_refine_ls_shift/su_mean         0.0092
_refine_ls_structure_factor_coef F
_refine_ls_weighting_details     w=1/(\s^2^(F)+0.0001F^2^)
_refine_ls_weighting_scheme      sigma
_refine_ls_wR_factor_gt          0.1689
_refine_ls_wR_factor_ref         0.1751
_reflns_number_gt                1840
_reflns_number_total             3453
_reflns_threshold_expression     I>3\s(I)
_cod_data_source_file            c8cp03761b2.cif
_cod_data_source_block           AFeF_c4_p12
_cod_depositor_comments
;
The following automatic conversions were performed:

'_diffrn_radiation_probe' value 'X-ray' changed to 'x-ray' according
to
/home/data/users/saulius/crontab/automatic-downloads/rss-feeds/RSC/lib/dictionaries/cif_core.dic
dictionary named 'cif_core.dic' version 2.4.2 from 2011-04-26.

Automatic conversion script
Id: cif_fix_values 4973 2017-02-22 13:04:09Z antanas 

 Adding full bibliography for 7231402--7231432.cif.
;
_cod_database_code               7231423
loop_
_space_group_symop_id
_space_group_symop_operation_xyz
1 x,y,z
2 -x,y+1/2,-z
loop_
_atom_site_label
_atom_site_type_symbol
_atom_site_fract_x
_atom_site_fract_y
_atom_site_fract_z
_atom_site_adp_type
_atom_site_U_iso_or_equiv
_atom_site_site_symmetry_multiplicity
_atom_site_occupancy
_atom_site_calc_flag
Fe1 Fe 0.6351(5) 0.7132(7) 0.8502(2) Uani 0.0621(15) 2 1 d
Fe2 Fe 1.1368(5) 1.2183(7) 0.6486(3) Uani 0.0593(14) 2 1 d
O1 O 1.054(3) 1.092(3) 0.7754(13) Uiso 0.085(4) 2 1 d
O2 O 0.509(3) 0.929(3) 0.9325(13) Uiso 0.091(4) 2 1 d
O3 O 0.368(3) 0.586(3) 0.8560(13) Uiso 0.078(4) 2 1 d
O4 O 0.729(4) 0.588(3) 0.9851(14) Uiso 0.091(4) 2 1 d
O5 O 0.775(3) 0.486(3) 0.7796(13) Uiso 0.077(4) 2 1 d
O6 O 0.418(4) 1.072(3) 0.6377(14) Uiso 0.096(5) 2 1 d
O7 O 0.911(3) 0.864(3) 0.8563(14) Uiso 0.085(4) 2 1 d
O8 O 0.280(3) 0.455(3) 0.7238(13) Uiso 0.078(4) 2 1 d
O9 O 0.847(3) 0.337(3) 0.6355(13) Uiso 0.077(4) 2 1 d
O10 O 1.005(4) 0.994(3) 0.5662(14) Uiso 0.100(5) 2 1 d
O11 O 0.576(4) 0.868(4) 0.7224(15) Uiso 0.096(5) 2 1 d
O12 O 1.220(4) 1.340(3) 0.5134(16) Uiso 0.100(5) 2 1 d
N1 N 0.638(3) 0.217(5) 0.4667(16) Uiso 0.093(4) 2 1 d
N2 N 1.144(3) 0.713(5) 1.0257(16) Uiso 0.093(4) 2 1 d
C1 C 1.129(6) 1.371(5) 0.443(2) Uiso 0.100(5) 2 1 d
C2 C 0.538(5) 1.025(5) 0.705(2) Uiso 0.096(5) 2 1 d
C3 C 1.018(5) 0.928(5) 0.798(2) Uiso 0.085(4) 2 1 d
C5 C 0.759(5) 0.460(4) 0.6915(19) Uiso 0.077(4) 2 1 d
C6 C 0.618(5) 0.573(5) 1.045(2) Uiso 0.091(4) 2 1 d
C4 C 0.238(5) 0.481(4) 0.8082(19) Uiso 0.078(4) 2 1 d
H1c1 H 1.160238 1.294071 0.387405 Uiso 0.1199 2 1 d
H1c2 H 0.599607 1.124176 0.74299 Uiso 0.1152 2 1 d
H1c3 H 1.090276 0.835002 0.759911 Uiso 0.1023 2 1 d
H1c5 H 0.666541 0.544332 0.659125 Uiso 0.0919 2 1 d
H1c6 H 0.612678 0.68054 1.0887 Uiso 0.1087 2 1 d
H1c4 H 0.118562 0.428592 0.837758 Uiso 0.094 2 1 d
loop_
_atom_site_aniso_label
_atom_site_aniso_type_symbol
_atom_site_aniso_U_11
_atom_site_aniso_U_22
_atom_site_aniso_U_33
_atom_site_aniso_U_12
_atom_site_aniso_U_13
_atom_site_aniso_U_23
Fe1 Fe 0.070(3) 0.040(2) 0.076(2) 0.012(3) -0.0113(18) 0.014(3)
Fe2 Fe 0.052(2) 0.038(2) 0.088(3) -0.011(3) -0.0041(18) 0.005(3)
loop_
_atom_type_symbol
_atom_type_scat_dispersion_real
_atom_type_scat_dispersion_imag
_atom_type_scat_source
C -0.0001 0.0005 'International Tables Vol C tables 4.2.6.8 and 6.1.1.1'
H 0.0000 0.0000 'International Tables Vol C tables 4.2.6.8 and 6.1.1.1'
Fe 0.1967 0.3056 'International Tables Vol C tables 4.2.6.8 and 6.1.1.1'
N 0.0006 0.0010 'International Tables Vol C tables 4.2.6.8 and 6.1.1.1'
O 0.0018 0.0018 'International Tables Vol C tables 4.2.6.8 and 6.1.1.1'
loop_
_geom_angle_atom_site_label_1
_geom_angle_atom_site_label_2
_geom_angle_atom_site_label_3
_geom_angle_site_symmetry_1
_geom_angle_site_symmetry_3
_geom_angle
O2 Fe1 O3 . . 87.2(8)
O2 Fe1 O5 . . 174.4(8)
O2 Fe1 O7 . . 87.6(9)
O2 Fe1 O11 . . 90.4(9)
O3 Fe1 O5 . . 93.9(8)
O3 Fe1 O7 . . 174.4(8)
O3 Fe1 O11 . . 95.9(9)
O5 Fe1 O7 . . 91.1(8)
O5 Fe1 O11 . . 94.9(8)
O7 Fe1 O11 . . 86.3(9)
O1 Fe2 O6 . 1_655 94.8(9)
O1 Fe2 O9 . 1_565 90.2(8)
O1 Fe2 O10 . . 91.6(8)
O1 Fe2 O12 . . 177.8(9)
O6 Fe2 O9 1_655 1_565 169.4(8)
O6 Fe2 O10 1_655 . 87.7(9)
O6 Fe2 O12 1_655 . 84.7(9)
O9 Fe2 O10 1_565 . 82.8(9)
O9 Fe2 O12 1_565 . 90.0(9)
O10 Fe2 O12 . . 86.2(8)
Fe2 O1 C3 . . 133.0(19)
Fe1 O2 C6 . 2_657 157.4(19)
Fe1 O3 C4 . . 144.9(18)
Fe1 O5 C5 . . 122.4(18)
Fe2 O6 C2 1_455 . 128(2)
Fe1 O7 C3 . . 134(2)
Fe2 O9 C5 1_545 . 128.5(18)
Fe2 O10 C1 . 2_746 149(2)
Fe1 O11 C2 . . 135(2)
Fe2 O12 C1 . . 132(3)
O10 C1 O12 2_756 . 126(3)
O10 C1 H1c1 2_756 . 117.17
O12 C1 H1c1 . . 117.17
O6 C2 O11 . . 122(3)
O6 C2 H1c2 . . 118.75
O11 C2 H1c2 . . 118.76
O1 C3 O7 . . 131(3)
O1 C3 H1c3 . . 114.27
O7 C3 H1c3 . . 114.27
O5 C5 O9 . . 130(3)
O5 C5 H1c5 . . 114.82
O9 C5 H1c5 . . 114.82
O2 C6 O4 2_647 . 130(3)
O2 C6 H1c6 2_647 . 114.75
O4 C6 H1c6 . . 114.75
O3 C4 O8 . . 115(3)
O3 C4 H1c4 . . 122.64
O8 C4 H1c4 . . 122.64
loop_
_geom_bond_atom_site_label_1
_geom_bond_atom_site_label_2
_geom_bond_site_symmetry_2
_geom_bond_distance
Fe1 O2 . 2.07(2)
Fe1 O3 . 1.97(2)
Fe1 O5 . 2.080(19)
Fe1 O7 . 2.11(2)
Fe1 O11 . 2.10(2)
Fe2 O1 . 2.03(2)
Fe2 O6 1_655 2.12(2)
Fe2 O9 1_565 2.09(2)
Fe2 O10 . 2.12(2)
Fe2 O12 . 2.12(2)
O1 C3 . 1.21(4)
O2 C6 2_657 1.35(4)
O3 C4 . 1.31(4)
O4 C6 . 1.11(4)
O5 C5 . 1.23(3)
O6 C2 . 1.26(4)
O7 C3 . 1.16(4)
O8 C4 . 1.21(3)
O9 C5 . 1.29(3)
O10 C1 2_746 1.24(4)
O11 C2 . 1.16(5)
O12 C1 . 1.16(4)
C1 H1c1 . 0.96
C2 H1c2 . 0.96
C3 H1c3 . 0.96
C5 H1c5 . 0.96
C6 H1c6 . 0.96
C4 H1c4 . 0.96
loop_
_geom_hbond_atom_site_label_D
_geom_hbond_atom_site_label_H
_geom_hbond_atom_site_label_A
_geom_hbond_site_symmetry_A
_geom_hbond_distance_DH
_geom_hbond_distance_HA
_geom_hbond_distance_DA
_geom_hbond_angle_DHA
C1 H1c1 O11 2_756 0.96 2.36 2.99(4) 123.25
C5 H1c5 O11 . 0.96 2.50 3.13(4) 123.28
C4 H1c4 O5 1_455 0.96 2.43 3.08(4) 124.08
loop_
_twin_individual_id
_twin_individual_mass_fraction_refined
_twin_individual_twin_matrix_11
_twin_individual_twin_matrix_12
_twin_individual_twin_matrix_13
_twin_individual_twin_matrix_21
_twin_individual_twin_matrix_22
_twin_individual_twin_matrix_23
_twin_individual_twin_matrix_31
_twin_individual_twin_matrix_32
_twin_individual_twin_matrix_33
1 0.257 1 0 0 0 1 0 0 0 1
2 0.302 0.9911 0 -0.2787 0 -1 0 -0.0638 0 -0.9911
3 0.225 -0.5 0 -1.81 0 1 0 0.4144 0 -0.5
4 0.216 -0.611 0 -1.6545 0 -1 0 -0.3788 0 0.611
loop_
_twin_refln_datum_id
_twin_refln_individual_id
_twin_refln_index_h
_twin_refln_index_k
_twin_refln_index_l
_twin_refln_f_squared_calc
_twin_refln_f_squared_meas
_twin_refln_f_squared_sigma
_twin_refln_include_status
1 1 0 -6 -8 12.75 5.97 6.67 <
2 1 0 -6 -9 2.39 -2.71 7.00 <
3 1 0 -5 -6 29.01 5.60 5.83 <
4 1 0 -5 -7 2.73 5.92 5.76 <
5 1 0 -5 -8 31.47 41.22 9.69 o
6 1 0 -5 -9 0.85 13.41 7.24 <
7 1 0 -5 -10 1.03 -3.65 5.67 <
8 1 0 -5 -11 0.52 6.55 6.46 <
9 1 0 -4 -4 173.32 112.44 12.45 o
10 1 0 -4 -5 0.63 32.26 9.79 o
11 1 0 -4 -6 97.20 50.29 9.03 o
12 1 0 -4 -7 1.58 -3.01 5.34 <
13 1 0 -4 -8 3.46 -0.73 4.51 <
14 1 0 -4 -9 6.92 -1.66 4.40 <
15 1 0 -4 -10 36.97 26.75 7.71 o
16 1 0 -4 -11 0.97 0.04 4.34 <
17 3 -5 -4 6 15.79 13.75 6.24 <
17 1 0 -4 -12 15.79 13.75 6.24 <
18 1 0 -4 -13 0.38 -3.86 5.68 <
19 1 0 -3 -3 225.45 182.87 14.04 o
20 1 0 -3 -4 253.89 215.68 15.34 o
21 1 0 -3 -5 11.15 90.39 13.65 o
22 1 0 -3 -6 137.85 137.32 12.51 o
23 1 0 -3 -7 12.19 1.60 3.28 <
24 1 0 -3 -8 83.59 148.52 13.00 o
25 1 0 -3 -9 1.69 1.40 3.61 <
26 1 0 -3 -10 4.69 3.41 3.94 <
27 1 0 -3 -11 4.03 -4.22 4.19 <
28 3 -5 -3 6 69.34 73.16 10.00 o
28 1 0 -3 -12 69.34 73.16 10.00 o
29 1 0 -3 -13 0.71 2.29 3.92 <
30 1 0 -3 -14 3.86 3.18 4.91 <
31 1 0 -2 -2 119.59 149.35 11.06 o
32 1 0 -2 -3 46.03 32.76 5.79 o
33 1 0 -2 -4 891.81 739.74 22.68 o
34 1 0 -2 -5 146.46 132.33 9.99 o
35 1 0 -2 -6 667.01 682.44 22.56 o
36 1 0 -2 -7 0.64 15.42 5.15 <
37 1 0 -2 -8 155.62 146.88 10.74 o
38 1 0 -2 -9 10.00 7.68 3.58 <
39 1 0 -2 -10 174.00 182.51 12.70 o
40 1 0 -2 -11 2.34 -2.88 3.50 <
41 3 -5 -2 6 19.59 20.97 5.77 o
41 1 0 -2 -12 19.59 20.97 5.77 o
42 1 0 -2 -13 2.09 -6.86 4.81 <
43 1 0 -2 -14 3.11 0.77 4.17 <
44 1 0 -1 -1 16.67 20.47 2.72 o
45 1 0 -1 -2 3076.27 3158.68 34.23 o
46 1 0 -1 -3 250.84 175.70 8.04 o
47 1 0 -1 -4 964.65 883.70 19.69 o
48 1 0 -1 -5 124.62 78.87 6.21 o
49 1 0 -1 -6 937.15 928.14 21.60 o
50 1 0 -1 -7 8.45 8.25 2.87 <
51 1 0 -1 -8 473.86 820.66 22.97 o
52 1 0 -1 -9 4.72 6.76 3.25 <
53 1 0 -1 -10 0.52 2.12 2.95 <
54 1 0 -1 -11 10.97 -4.64 3.66 <
55 1 0 0 3 0.06 -0.34 0.62 <
56 1 0 0 4 192.17 160.80 7.08 o
57 1 0 0 5 22.23 -0.80 1.16 <
58 1 0 0 6 803.83 624.06 16.78 o
59 1 0 0 7 2.65 30.05 4.88 o
60 1 0 0 8 68.44 53.15 5.68 o
61 1 0 1 1 16.69 20.20 2.76 o
62 1 0 1 2 3073.36 3167.04 34.60 o
63 1 0 1 3 250.51 177.54 8.54 o
64 1 0 1 4 964.45 893.38 20.91 o
65 1 0 1 5 124.31 73.72 6.39 o
66 1 0 1 6 937.45 931.48 23.60 o
67 1 0 1 7 8.47 7.62 3.30 <
68 1 0 1 8 474.31 819.19 25.82 o
69 1 0 1 9 4.66 0.04 2.84 <
70 1 0 1 10 0.53 -2.38 3.60 <
71 1 0 1 11 11.24 3.06 4.10 <
72 3 5 1 -6 87.77 68.93 10.05 o
72 1 0 1 12 87.77 68.93 10.05 o
73 1 0 1 13 3.79 6.49 5.26 <
74 1 0 1 14 3.84 -5.55 5.66 <
75 1 0 1 15 0.51 11.15 6.93 <
76 1 0 2 2 117.91 134.55 10.24 o
77 1 0 2 3 46.05 32.14 6.17 o
78 1 0 2 4 895.58 740.27 23.81 o
79 1 0 2 5 146.12 120.78 10.44 o
80 1 0 2 6 665.92 694.06 25.42 o
81 1 0 2 7 0.61 15.43 6.01 <
82 1 0 2 8 155.33 138.02 12.28 o
83 1 0 2 9 10.20 3.91 4.13 <
84 1 0 2 10 173.95 163.53 15.06 o
85 1 0 2 11 2.32 0.13 4.61 <
86 3 5 2 -6 19.77 15.87 7.36 <
86 1 0 2 12 19.77 15.87 7.36 <
87 1 0 2 13 2.06 -11.96 7.52 <
88 1 0 2 14 3.21 0.46 6.39 <
89 1 0 3 3 225.71 155.99 12.88 o
90 1 0 3 4 253.52 196.53 15.46 o
91 1 0 3 5 11.08 91.52 13.98 o
92 1 0 3 6 137.46 122.17 12.43 o
93 1 0 3 7 12.03 0.95 3.89 <
94 1 0 3 8 83.17 136.65 14.76 o
95 1 0 3 9 1.65 -1.88 4.79 <
96 1 0 3 10 4.86 6.81 6.09 <
97 1 0 3 11 3.91 -7.26 7.25 <
98 3 5 3 -6 70.08 71.54 13.59 o
98 1 0 3 12 70.08 71.54 13.59 o
99 1 0 3 13 0.71 -2.51 6.85 <
100 1 0 3 14 3.85 -2.97 7.82 <
101 1 0 4 4 174.24 83.91 10.48 o
102 1 0 4 5 0.61 8.31 6.32 <
103 1 0 4 6 98.10 47.21 10.13 o
104 1 0 4 7 1.56 5.25 6.17 <
105 1 0 4 8 4.02 3.93 5.75 <
106 1 0 4 9 6.76 -1.51 5.65 <
107 1 0 4 10 36.76 34.45 10.23 o
108 1 0 4 11 1.01 0.47 6.54 <
109 3 5 4 -6 15.69 14.57 9.43 <
109 1 0 4 12 15.69 14.57 9.43 <
110 1 0 4 13 0.36 -22.12 10.75 <
111 1 0 5 6 28.81 8.65 6.11 <
112 1 0 5 7 2.70 -4.29 6.95 <
113 1 0 5 8 30.95 42.03 10.96 o
114 1 0 5 9 0.87 6.60 7.77 <
115 1 0 5 10 1.11 -7.46 8.25 <
116 1 0 5 11 0.52 -10.88 9.48 <
117 1 0 6 8 12.67 4.99 6.78 <
118 1 0 6 9 2.43 1.82 7.47 <
119 1 -1 -6 -4 25.77 7.40 6.34 <
120 1 -1 -6 -5 0.25 5.10 6.26 <
121 1 -1 -6 -6 30.07 32.70 10.86 o
122 1 -1 -6 -7 29.10 13.53 8.21 <
123 1 -1 -6 -8 41.61 30.48 9.95 o
124 1 -1 -6 -9 4.48 13.92 7.56 <
125 1 1 -5 -11 10.67 20.17 8.25 <
126 1 1 -5 -10 37.44 23.46 8.68 <
127 1 1 -5 -9 17.30 23.08 8.71 <
128 1 -1 -5 -3 69.86 82.05 11.95 o
129 1 -1 -5 -4 199.88 141.22 16.69 o
130 1 -1 -5 -5 68.41 34.32 8.01 o
131 1 -1 -5 -6 51.44 25.74 8.13 o
132 1 -1 -5 -7 7.53 -0.05 5.20 <
133 1 -1 -5 -8 10.71 4.87 5.38 <
134 1 -1 -5 -9 26.87 42.17 9.66 o
135 1 -1 -5 -10 33.14 42.74 10.07 o
136 1 -1 -5 -11 10.97 12.58 7.09 <
137 1 1 -4 -12 36.17 29.85 8.27 o
138 1 1 -4 -11 8.40 19.86 7.02 <
139 1 1 -4 -10 9.08 6.49 5.70 <
140 1 1 -4 -9 9.25 1.32 4.62 <
141 1 1 -4 -8 49.73 23.26 7.55 o
142 4 2 4 -6 47.12 35.62 8.50 o
142 1 1 -4 -7 47.12 35.62 8.50 o
143 4 1 4 1 121.61 168.99 14.02 o
143 1 -1 -4 -1 121.61 168.99 14.02 o
144 1 -1 -4 -2 428.61 326.22 19.57 o
145 1 -1 -4 -3 332.14 436.56 23.51 o
146 1 -1 -4 -4 78.30 64.43 9.46 o
147 1 -1 -4 -5 6.24 6.68 4.71 <
148 1 -1 -4 -6 52.13 3.30 9.63 <
149 1 -1 -4 -7 66.49 34.17 7.39 o
150 1 -1 -4 -8 64.77 32.39 7.45 o
151 1 -1 -4 -9 11.66 37.48 7.87 o
152 1 -1 -4 -10 6.01 12.18 5.79 <
153 1 -1 -4 -11 12.14 3.24 4.71 <
154 1 -1 -4 -12 33.76 32.32 8.04 o
155 1 1 -3 -13 0.87 7.68 4.92 <
156 1 1 -3 -12 5.44 7.36 4.75 <
157 1 1 -3 -11 14.26 80.00 11.45 o
158 1 1 -3 -10 44.55 30.70 6.86 o
159 1 1 -3 -9 51.70 57.63 8.94 o
160 1 1 -3 -8 12.98 4.75 3.95 <
161 4 2 3 -6 54.44 40.45 7.71 o
161 1 1 -3 -7 54.44 40.45 7.71 o
162 1 1 -3 -6 127.24 115.53 12.42 o
163 1 1 -3 -5 323.56 240.36 17.02 o
164 1 -1 -3 0 102.95 123.70 10.87 o
165 4 1 3 1 569.34 745.24 25.54 o
165 1 -1 -3 -1 569.34 745.24 25.54 o
166 1 -1 -3 -2 309.26 307.28 17.10 o
167 1 -1 -3 -3 170.04 178.56 12.97 o
168 1 -1 -3 -4 619.42 784.84 27.57 o
169 1 -1 -3 -5 330.12 247.59 14.95 o
170 1 -1 -3 -6 127.24 177.49 13.42 o
171 1 -1 -3 -7 46.67 30.48 6.00 o
172 1 -1 -3 -8 5.80 8.70 4.01 <
173 1 -1 -3 -9 91.84 155.71 12.98 o
174 1 -1 -3 -10 58.01 36.89 7.07 o
175 1 -1 -3 -11 26.54 15.84 5.61 <
176 1 -1 -3 -12 7.54 2.75 4.56 <
177 1 -1 -3 -13 4.40 1.81 4.27 <
178 1 1 -2 -14 0.48 3.05 3.88 <
179 1 1 -2 -13 11.20 15.37 5.06 o
180 1 1 -2 -12 5.73 12.06 4.49 <
181 1 1 -2 -11 11.28 38.25 7.35 o
182 1 1 -2 -10 10.23 17.31 5.78 <
183 1 1 -2 -9 3.80 3.44 4.05 <
184 1 1 -2 -8 329.06 219.69 13.62 o
185 4 2 2 -6 205.78 188.51 13.21 o
185 1 1 -2 -7 205.78 188.51 13.21 o
186 1 1 -2 -6 187.37 149.55 11.62 o
187 1 1 -2 -5 67.87 71.96 7.90 o
188 1 1 -2 -4 285.62 271.97 15.39 o
189 1 -1 -2 1 156.57 130.04 8.45 o
190 1 -1 -2 0 220.45 193.33 10.57 o
191 4 1 2 1 305.83 343.55 13.69 o
191 1 -1 -2 -1 305.83 343.55 13.69 o
192 1 -1 -2 -2 988.57 961.93 24.03 o
193 1 -1 -2 -3 1366.80 1898.69 33.33 o
194 1 -1 -2 -4 308.31 325.09 14.17 o
195 1 -1 -2 -5 86.02 68.19 6.66 o
196 1 -1 -2 -6 154.17 20.56 9.59 <
197 1 -1 -2 -7 234.90 173.37 11.31 o
198 1 -1 -2 -8 260.14 270.34 14.93 o
199 1 -1 -2 -9 14.48 83.42 8.81 o
200 1 -1 -2 -10 10.48 11.35 4.37 <
201 1 -1 -2 -11 22.75 14.00 5.36 <
202 1 -1 -2 -12 6.17 7.71 4.51 <
203 1 1 -1 -13 3.63 -0.55 3.38 <
204 1 1 -1 -12 2.81 3.96 3.66 <
205 1 1 -1 -11 26.40 72.08 8.16 o
206 1 1 -1 -10 87.32 71.60 7.23 o
207 1 1 -1 -9 119.04 86.23 7.36 o
208 1 1 -1 -8 25.75 29.33 4.26 o
209 4 2 1 -6 89.97 81.05 6.71 o
209 1 1 -1 -7 89.97 81.05 6.71 o
210 1 1 -1 -6 247.48 274.77 12.03 o
211 1 1 -1 -5 322.81 279.81 11.80 o
212 1 1 -1 -4 966.45 839.15 20.64 o
213 1 1 -1 -3 359.46 337.37 12.63 o
214 1 -1 -1 0 1623.69 1422.91 16.64 o
215 4 1 1 1 1485.01 1661.72 20.86 o
215 1 -1 -1 -1 1485.01 1661.72 20.86 o
216 1 -1 -1 -2 121.89 111.23 5.82 o
217 1 -1 -1 -3 384.63 397.05 13.22 o
218 1 -1 -1 -4 803.71 792.09 19.84 o
219 1 -1 -1 -5 381.51 272.31 12.23 o
220 1 -1 -1 -6 284.84 424.59 16.20 o
221 1 -1 -1 -7 111.01 77.48 7.49 o
222 1 -1 0 15 0.13 4.65 6.24 <
223 1 -1 0 14 14.85 8.26 5.71 <
224 1 -1 0 13 13.49 5.16 4.58 <
225 1 -1 0 12 24.21 15.24 5.47 <
226 1 -1 0 11 4.67 66.35 9.81 o
227 1 -1 0 10 43.41 26.21 5.43 o
228 1 -1 0 9 167.23 115.17 8.97 o
229 1 -1 0 8 230.51 192.97 10.43 o
230 4 2 0 -6 337.26 321.38 11.78 o
230 1 1 0 -7 337.26 321.38 11.78 o
231 4 -2 0 6 337.26 334.43 12.55 o
231 1 -1 0 7 337.26 334.43 12.55 o
232 1 -1 0 6 38.11 31.31 3.71 o
233 1 1 0 -6 38.11 24.16 3.26 o
234 1 -1 0 5 347.33 318.44 9.96 o
235 1 1 0 -5 347.33 330.45 8.83 o
236 1 -1 0 4 37.38 35.86 3.23 o
237 1 1 0 -4 37.38 31.39 2.62 o
238 1 -1 1 15 5.77 7.96 7.30 <
239 1 -1 1 14 11.45 7.11 6.40 <
240 1 -1 1 13 3.77 4.06 5.83 <
241 1 -1 1 12 2.89 -0.39 4.42 <
242 1 -1 1 11 25.47 154.20 15.57 o
243 1 -1 1 10 91.54 61.94 8.49 o
244 1 -1 1 9 115.46 84.22 8.97 o
245 1 -1 1 8 25.63 36.82 6.09 o
246 4 -2 -1 6 92.55 83.03 8.13 o
246 1 -1 1 7 92.55 83.03 8.13 o
247 1 -1 1 6 252.01 279.84 13.99 o
248 1 -1 1 5 335.28 275.76 12.94 o
249 1 -1 1 4 934.87 844.31 21.52 o
250 1 1 1 0 1627.03 1427.85 17.17 o
251 4 -1 -1 -1 1485.96 1675.07 21.18 o
251 1 1 1 1 1485.96 1675.07 21.18 o
252 1 1 1 2 118.80 116.01 6.20 o
253 1 1 1 3 393.34 415.16 13.79 o
254 1 1 1 4 833.84 789.07 20.04 o
255 1 1 1 5 366.33 276.35 12.32 o
256 1 1 1 6 279.34 419.71 16.26 o
257 1 1 1 7 108.74 71.24 7.16 o
258 1 1 1 8 30.65 25.56 4.63 o
259 1 1 1 9 151.46 244.96 14.71 o
260 1 1 1 10 79.79 67.48 8.61 o
261 1 -1 2 14 0.55 -2.67 7.35 <
262 1 -1 2 13 11.80 19.27 8.72 <
263 1 -1 2 12 6.15 9.02 6.36 <
264 1 -1 2 11 10.80 45.06 10.01 o
265 1 -1 2 10 10.04 6.74 6.40 <
266 1 -1 2 9 4.05 0.22 5.75 <
267 1 -1 2 8 332.78 214.18 16.21 o
268 4 -2 -2 6 206.63 168.85 13.81 o
268 1 -1 2 7 206.63 168.85 13.81 o
269 1 -1 2 6 180.14 142.17 12.46 o
270 1 -1 2 5 67.91 68.21 7.74 o
271 1 1 2 0 220.50 210.81 11.38 o
272 4 -1 -2 -1 307.54 362.07 15.36 o
272 1 1 2 1 307.54 362.07 15.36 o
273 1 1 2 2 980.75 970.40 25.45 o
274 1 1 2 3 1359.90 1907.23 35.50 o
275 1 1 2 4 298.43 341.37 15.81 o
276 1 1 2 5 86.48 65.07 7.04 o
277 1 1 2 6 160.56 150.05 11.34 o
278 1 1 2 7 231.63 167.32 12.35 o
279 1 1 2 8 258.44 228.04 15.32 o
280 1 1 2 9 13.09 112.84 11.40 o
281 1 1 2 10 10.58 4.61 4.42 <
282 1 1 2 11 23.48 11.14 5.69 <
283 1 1 2 12 5.88 6.48 5.38 <
284 1 1 2 13 17.85 21.35 7.80 <
285 1 1 2 14 0.97 3.22 5.88 <
286 1 -1 3 13 0.79 1.66 6.83 <
287 1 -1 3 12 5.63 2.71 6.54 <
288 1 -1 3 11 15.22 133.43 19.53 o
289 1 -1 3 10 44.84 31.92 8.97 o
290 1 -1 3 9 52.38 51.62 10.30 o
291 1 -1 3 8 12.71 3.34 4.96 <
292 4 -2 -3 6 54.09 35.65 7.76 o
292 1 -1 3 7 54.09 35.65 7.76 o
293 1 -1 3 6 127.98 90.77 10.61 o
294 4 -1 -3 -1 569.75 770.10 26.33 o
294 1 1 3 1 569.75 770.10 26.33 o
295 1 1 3 2 306.01 318.14 18.25 o
296 1 1 3 3 173.86 176.31 13.90 o
297 1 1 3 4 616.73 803.90 30.55 o
298 1 1 3 5 326.48 251.36 17.06 o
299 1 1 3 6 127.56 173.55 15.04 o
300 1 1 3 7 46.99 22.24 6.13 o
301 1 1 3 8 5.80 2.30 4.00 <
302 1 1 3 9 91.04 128.99 14.17 o
303 1 1 3 10 57.33 21.57 7.50 <
304 1 1 3 11 25.20 20.05 7.80 <
305 1 1 3 12 7.28 -2.09 6.18 <
306 1 1 3 13 4.62 -4.90 7.40 <
307 1 -1 4 12 36.11 30.04 11.14 <
308 1 -1 4 11 8.52 24.80 10.69 <
309 1 -1 4 10 9.10 10.03 7.61 <
310 1 -1 4 9 9.05 4.63 6.09 <
311 1 -1 4 8 48.75 21.22 7.91 <
312 1 1 4 2 425.24 325.34 20.29 o
313 1 1 4 3 335.49 452.41 25.76 o
314 1 1 4 4 78.82 88.21 12.02 o
315 1 1 4 5 6.17 6.95 5.27 <
316 1 1 4 6 50.07 73.54 20.18 o
317 1 1 4 7 65.90 25.73 7.96 o
318 1 1 4 8 64.68 24.96 8.27 o
319 1 1 4 9 11.61 34.44 9.86 o
320 1 1 4 10 5.78 17.86 8.98 <
321 1 1 4 11 12.15 13.59 8.15 <
322 1 1 4 12 33.87 9.56 8.56 <
323 1 -1 5 11 10.38 64.39 14.28 o
324 1 -1 5 10 37.03 22.62 9.31 <
325 1 1 5 3 68.88 79.28 11.17 o
326 1 1 5 4 197.28 187.50 20.87 o
327 1 1 5 5 70.68 35.39 9.56 o
328 1 1 5 6 51.84 30.14 9.79 o
329 1 1 5 7 7.72 8.71 7.43 <
330 1 1 5 8 10.86 2.86 6.56 <
331 1 1 5 9 27.31 30.12 10.53 <
332 1 1 5 10 33.59 21.46 10.88 <
333 1 1 5 11 11.55 11.53 9.25 <
334 1 1 6 5 0.23 -6.04 7.08 <
335 1 1 6 6 29.96 108.06 16.08 o
336 1 1 6 7 29.64 8.87 7.63 <
337 1 1 6 8 41.70 14.96 9.94 <
338 1 1 6 9 4.72 15.18 10.55 <
339 1 -2 -7 -3 41.50 8.59 6.83 <
340 1 -2 -7 -4 0.40 5.29 6.32 <
341 1 -2 -6 -1 106.48 27.36 7.59 o
342 4 2 6 2 23.66 5.21 5.45 <
342 1 -2 -6 -2 23.66 5.21 5.45 <
343 1 -2 -6 -3 5.98 0.33 5.38 <
344 1 -2 -6 -4 8.26 1.49 5.61 <
345 1 -2 -6 -5 121.29 45.90 10.20 o
346 1 -2 -6 -6 1.39 0.54 4.95 <
347 1 -2 -6 -7 22.80 10.43 6.99 <
348 1 -2 -6 -8 4.54 -1.38 5.91 <
349 1 -2 -5 1 169.90 93.83 10.38 o
350 1 -2 -5 0 0.43 8.94 5.47 <
351 1 -2 -5 -1 156.07 88.72 10.92 o
352 4 2 5 2 14.85 8.94 4.63 <
352 1 -2 -5 -2 14.85 8.94 4.63 <
353 1 -2 -5 -3 264.32 154.63 14.88 o
354 1 -2 -5 -4 6.21 1.77 4.32 <
355 1 -2 -5 -5 8.75 -5.24 5.02 <
356 1 -2 -5 -6 5.81 10.69 5.77 <
357 1 -2 -5 -7 122.33 101.87 13.08 o
358 1 -2 -5 -8 1.82 30.23 9.95 o
359 1 -2 -5 -9 28.66 17.91 7.00 <
360 1 -2 -5 -10 0.37 7.83 6.37 <
361 1 2 -4 -12 0.81 -1.15 5.09 <
362 1 2 -4 -11 32.19 28.73 7.90 o
363 1 2 -4 -10 3.59 -11.81 7.02 <
364 1 2 -4 -9 66.43 70.43 11.85 o
365 1 -2 -4 2 132.87 131.51 10.58 o
366 1 -2 -4 1 403.47 311.80 16.80 o
367 1 -2 -4 0 42.86 33.93 6.60 o
368 1 -2 -4 -1 419.43 319.01 17.66 o
369 4 2 4 2 252.40 341.15 18.72 o
369 1 -2 -4 -2 252.40 341.15 18.72 o
370 1 -2 -4 -3 165.42 138.05 11.85 o
371 1 -2 -4 -4 0.18 4.22 3.93 <
372 1 -2 -4 -5 569.47 547.37 24.86 o
373 1 -2 -4 -6 3.83 0.40 3.47 <
374 1 -2 -4 -7 10.37 12.24 4.97 <
375 1 -2 -4 -8 2.16 -0.01 3.80 <
376 1 -2 -4 -9 82.43 84.83 11.07 o
377 1 -2 -4 -10 2.45 25.28 6.96 o
378 1 -2 -4 -11 34.67 39.05 8.63 o
379 1 -2 -4 -12 0.02 -0.15 4.77 <
380 1 2 -3 -13 18.13 13.98 5.52 <
381 1 2 -3 -12 4.28 -5.04 4.64 <
382 1 2 -3 -11 33.12 48.76 8.65 o
383 1 2 -3 -10 3.47 -0.57 3.88 <
384 1 2 -3 -9 34.30 30.87 7.54 o
385 1 2 -3 -8 7.42 1.82 4.16 <
386 1 -2 -3 4 4.15 -1.30 2.28 <
387 1 -2 -3 3 1008.16 909.69 22.78 o
388 1 -2 -3 2 37.22 31.36 4.61 o
389 1 -2 -3 1 645.69 612.55 19.17 o
390 1 -2 -3 0 6.92 10.48 3.52 <
391 1 -2 -3 -1 560.42 644.40 20.74 o
392 4 2 3 2 64.98 81.22 8.22 o
392 1 -2 -3 -2 64.98 81.22 8.22 o
393 1 -2 -3 -3 976.92 1003.84 27.24 o
394 1 -2 -3 -4 7.82 1.80 2.68 <
395 1 -2 -3 -5 8.50 1.20 2.94 <
396 1 -2 -3 -6 10.64 21.69 5.05 o
397 1 -2 -3 -7 374.53 461.89 21.22 o
398 1 -2 -3 -8 8.42 -0.07 3.08 <
399 1 -2 -3 -9 31.57 38.41 7.44 o
400 1 -2 -3 -10 9.19 22.60 6.26 o
401 1 -2 -3 -11 52.42 44.62 8.32 o
402 1 -2 -3 -12 0.72 -2.58 4.98 <
403 1 -2 -3 -13 23.67 16.48 6.49 <
404 1 2 -2 -14 1.91 2.47 3.55 <
405 1 2 -2 -13 4.60 7.73 4.29 <
406 1 2 -2 -12 0.31 -1.12 3.37 <
407 1 2 -2 -11 39.60 35.21 6.36 o
408 1 2 -2 -10 7.62 -5.02 4.25 <
409 1 2 -2 -9 76.75 112.01 10.79 o
410 1 2 -2 -8 5.45 0.23 3.16 <
411 1 2 -2 -7 13.10 11.02 3.61 o
412 1 -2 -2 3 59.93 71.86 4.64 o
413 1 -2 -2 2 115.13 119.19 6.21 o
414 1 -2 -2 1 908.28 898.98 17.16 o
415 1 -2 -2 0 34.91 13.64 2.55 o
416 1 -2 -2 -1 916.94 873.94 20.07 o
417 4 2 2 2 239.37 269.29 11.33 o
417 1 -2 -2 -2 239.37 269.29 11.33 o
418 1 -2 -2 -3 54.79 54.95 5.49 o
419 1 -2 -2 -4 77.07 87.73 7.71 o
420 1 -2 -2 -5 791.04 801.35 24.19 o
421 1 -2 -2 -6 0.93 8.75 3.49 <
422 1 -2 -2 -7 16.36 20.93 4.37 o
423 1 -2 -2 -8 3.25 0.46 2.72 <
424 1 -2 -2 -9 112.74 85.39 9.91 o
425 1 -2 -1 14 1.38 30.98 7.57 o
426 1 2 -1 -14 1.38 20.94 5.69 o
427 1 -2 -1 13 9.69 7.66 4.84 <
428 1 2 -1 -13 9.69 10.65 4.38 <
429 1 -2 -1 12 0.92 81.99 9.66 o
430 1 2 -1 -12 0.92 -2.27 3.15 <
431 1 -2 -1 11 14.66 22.89 4.97 o
432 1 2 -1 -11 14.66 22.25 4.67 o
433 1 2 -1 -10 3.52 -0.13 2.52 <
434 1 -2 -1 10 3.52 6.33 3.17 <
435 1 -2 -1 9 69.64 64.62 5.44 o
436 1 2 -1 -9 69.64 75.02 7.12 o
437 1 2 -1 -8 1.94 2.66 2.48 <
438 1 -2 -1 8 1.94 2.43 1.79 <
439 1 2 -1 -7 231.27 307.73 13.75 o
440 1 -2 -1 7 231.27 248.89 8.21 o
441 4 1 1 -7 79.51 95.45 7.77 o
441 1 2 -1 -6 79.51 95.45 7.77 o
442 1 2 -1 -5 64.94 121.72 8.39 o
443 1 -2 0 14 0.31 -2.42 6.01 <
444 1 -2 0 13 0.26 2.64 5.57 <
445 1 -2 0 12 0.04 -2.98 4.68 <
446 1 -2 0 11 25.17 17.95 5.56 o
447 1 -2 0 10 1.22 -0.93 3.65 <
448 1 2 0 -10 1.22 -0.90 2.37 <
449 1 -2 0 9 11.74 14.50 3.83 o
450 1 2 0 -9 11.74 11.07 2.87 o
451 1 -2 0 8 15.22 12.91 3.59 o
452 1 2 0 -8 15.22 16.50 2.91 o
453 1 -2 0 7 3.59 7.56 2.55 <
454 1 2 0 -7 3.59 34.14 3.98 o
455 4 1 0 -7 322.55 346.86 9.80 o
455 1 2 0 -6 322.55 346.86 9.80 o
456 1 2 0 -5 358.21 419.27 10.78 o
457 1 -2 1 14 1.38 31.89 9.82 o
458 1 -2 1 13 9.13 13.51 7.30 <
459 1 -2 1 12 0.86 -10.71 7.15 <
460 1 -2 1 11 13.84 42.45 8.51 o
461 1 -2 1 10 3.51 -1.71 4.51 <
462 1 -2 1 9 70.91 73.66 8.93 o
463 1 -2 1 8 1.78 2.22 3.22 <
464 1 -2 1 7 236.09 282.09 13.39 o
465 1 2 1 -1 1943.32 2165.95 22.24 o
466 1 2 1 0 11.19 -2.54 2.25 <
467 1 -2 2 14 1.87 -3.72 7.82 <
468 1 -2 2 13 4.58 -2.88 6.92 <
469 1 -2 2 12 0.30 0.60 5.84 <
470 1 -2 2 11 39.78 48.67 10.34 o
471 1 -2 2 10 7.86 -4.54 5.35 <
472 1 -2 2 9 76.95 89.77 10.74 o
473 1 2 2 -2 115.58 100.62 6.56 o
474 1 2 2 -1 885.64 903.66 19.92 o
475 1 2 2 0 35.34 13.03 2.61 o
476 1 2 2 1 939.85 865.49 21.51 o
477 4 -2 -2 -2 239.30 283.66 12.68 o
477 1 2 2 2 239.30 283.66 12.68 o
478 1 2 2 3 56.10 60.05 6.00 o
479 1 2 2 4 77.59 68.44 7.03 o
480 1 2 2 5 786.08 786.48 24.98 o
481 1 2 2 6 1.06 6.59 3.28 <
482 1 2 2 7 17.91 12.01 4.07 <
483 1 2 2 8 3.39 -2.06 3.20 <
484 1 2 2 9 113.13 73.90 9.51 o
485 1 2 2 10 9.23 14.84 5.16 <
486 1 2 2 11 60.99 33.78 7.72 o
487 1 -2 3 13 18.54 20.21 9.55 <
488 1 -2 3 12 4.34 -16.54 9.81 <
489 1 -2 3 11 33.10 48.46 10.10 o
490 1 -2 3 10 3.39 1.80 4.80 <
491 1 2 3 -1 636.64 578.07 20.81 o
492 1 2 3 0 7.00 4.46 2.97 <
493 1 2 3 1 569.12 631.58 23.23 o
494 4 -2 -3 -2 64.87 73.22 8.57 o
494 1 2 3 2 64.87 73.22 8.57 o
495 1 2 3 3 983.89 991.05 30.42 o
496 1 2 3 4 8.19 2.24 3.20 <
497 1 2 3 5 8.37 -15.85 7.53 <
498 1 2 3 6 10.47 15.06 5.18 <
499 1 2 3 7 375.39 448.82 23.83 o
500 1 2 3 8 8.61 0.93 3.62 <
501 1 2 3 9 33.53 23.17 6.78 o
502 1 2 3 10 9.37 16.05 6.20 <
503 1 2 3 11 52.16 28.66 7.94 o
504 1 2 3 12 0.72 -1.67 5.11 <
505 1 2 3 13 23.40 15.27 7.88 <
506 1 2 4 0 43.33 28.11 6.14 o
507 1 2 4 1 413.43 306.60 19.59 o
508 4 -2 -4 -2 252.59 328.91 20.68 o
508 1 2 4 2 252.59 328.91 20.68 o
509 1 2 4 3 166.02 134.89 13.87 o
510 1 2 4 4 0.25 -5.84 5.24 <
511 1 2 4 5 571.72 491.47 27.52 o
512 1 2 4 6 4.13 2.84 4.92 <
513 1 2 4 7 11.14 8.39 5.82 <
514 1 2 4 8 2.29 -4.93 5.24 <
515 1 2 4 9 82.18 58.00 11.31 o
516 1 2 4 10 2.54 25.59 9.22 <
517 1 2 4 11 34.72 30.37 9.86 o
518 1 2 4 12 0.01 4.22 7.56 <
519 1 2 5 1 154.43 75.12 10.22 o
520 4 -2 -5 -2 14.94 7.05 5.35 <
520 1 2 5 2 14.94 7.05 5.35 <
521 1 2 5 3 262.31 165.71 17.12 o
522 1 2 5 4 6.18 7.36 6.75 <
523 1 2 5 5 8.72 -18.08 8.37 <
524 1 2 5 6 5.59 18.72 8.67 <
525 1 2 5 7 121.83 74.44 13.84 o
526 1 2 5 8 1.81 -0.92 6.66 <
527 1 2 5 9 27.85 11.28 8.72 <
528 1 2 5 10 0.39 6.28 9.75 <
529 1 2 6 3 5.60 -4.13 6.81 <
530 1 2 6 4 7.99 6.53 7.37 <
531 1 2 6 5 120.51 24.07 9.54 <
532 1 2 6 6 1.31 3.05 8.39 <
533 1 2 6 7 22.02 6.73 8.11 <
534 1 2 6 8 4.52 4.45 8.04 <
535 1 -3 -7 1 35.31 29.70 8.03 o
536 1 -3 -7 0 23.23 30.63 8.44 o
537 1 -3 -7 -1 35.29 19.53 7.81 <
538 1 -3 -6 3 75.17 40.58 8.46 o
539 1 -3 -6 2 31.70 40.12 8.49 o
540 1 -3 -6 1 43.24 146.76 15.84 o
541 1 -3 -6 0 5.46 38.21 8.84 o
542 1 -3 -6 -1 37.74 34.51 8.25 o
543 1 -3 -6 -2 29.73 11.62 4.96 <
544 1 -3 -6 -3 69.21 79.53 11.34 o
545 1 -3 -6 -4 7.48 2.98 4.82 <
546 1 -3 -6 -5 4.17 6.20 5.98 <
547 1 -3 -6 -6 13.20 7.49 6.21 <
548 1 -3 -6 -7 26.53 17.20 7.52 <
549 1 -3 -5 5 63.70 51.55 7.59 o
550 1 -3 -5 4 38.66 19.01 5.41 o
551 1 -3 -5 3 10.87 7.65 4.47 <
552 1 -3 -5 2 0.06 8.66 4.22 <
553 1 -3 -5 1 92.46 89.69 10.36 o
554 1 -3 -5 0 54.66 91.64 11.01 o
555 1 -3 -5 -1 93.98 62.09 8.81 o
556 1 -3 -5 -2 3.15 0.89 3.70 <
557 1 -3 -5 -3 17.92 13.65 5.51 <
558 1 -3 -5 -4 46.27 20.49 6.50 o
559 1 -3 -5 -5 88.82 57.12 9.27 o
560 1 -3 -5 -6 32.98 19.33 6.28 o
561 1 -3 -5 -7 29.04 28.20 7.62 o
562 1 -3 -5 -8 4.23 -0.22 5.33 <
563 1 -3 -5 -9 19.08 26.38 8.01 o
564 1 -3 -4 7 60.10 40.21 5.28 o
565 1 -3 -4 6 4.19 3.83 2.90 <
566 1 -3 -4 5 1.04 4.19 2.95 <
567 1 -3 -4 4 11.64 5.83 3.19 <
568 1 -3 -4 3 182.83 171.11 10.94 o
569 1 -3 -4 2 128.20 339.49 17.08 o
570 1 -3 -4 1 18.53 156.15 13.47 o
571 1 -3 -4 0 1.38 -14.18 5.58 <
572 1 -3 -4 -1 20.93 -8.63 5.64 <
573 1 -3 -4 -2 116.57 120.41 10.49 o
574 1 -3 -4 -3 207.51 367.14 18.82 o
575 1 -3 -4 -4 14.17 1.84 3.20 <
576 1 -3 -4 -5 7.15 -0.84 3.22 <
577 1 -3 -4 -6 4.08 1.90 3.59 <
578 1 -3 -4 -7 83.06 79.46 10.21 o
579 1 -3 -4 -8 35.91 32.39 7.59 o
580 1 -3 -4 -9 26.47 33.28 7.79 o
581 1 -3 -4 -10 2.13 3.43 4.99 <
582 1 -3 -4 -11 4.04 18.28 7.69 <
583 1 -3 -3 12 0.97 0.10 2.35 <
584 1 3 -3 -12 0.97 3.83 4.17 <
585 1 3 -3 -11 14.13 17.73 5.90 o
586 1 3 -3 -10 6.81 23.37 7.35 o
587 1 -3 -3 6 38.27 67.08 4.92 o
588 1 -3 -3 5 59.68 188.54 7.91 o
589 1 -3 -3 4 79.33 115.27 6.75 o
590 1 -3 -3 3 58.90 104.27 7.19 o
591 1 -3 -3 2 5.65 -1.03 2.60 <
592 1 -3 -3 1 214.66 283.01 13.01 o
593 1 -3 -3 0 63.60 138.95 11.19 o
594 1 -3 -3 -1 242.30 242.13 12.98 o
595 1 -3 -3 -2 5.83 7.07 2.89 <
596 1 -3 -3 -3 61.99 136.54 10.01 o
597 1 -3 -3 -4 83.73 92.41 9.09 o
598 1 -3 -3 -5 83.19 84.81 9.16 o
599 1 -3 -3 -6 64.10 43.64 7.09 o
600 1 -3 -3 -7 23.05 41.79 7.25 o
601 1 -3 -3 -8 8.37 13.70 5.40 <
602 1 -3 -3 -9 44.50 51.60 8.81 o
603 1 -3 -3 -10 7.77 10.42 5.47 <
604 1 -3 -2 13 15.50 26.49 5.28 o
605 1 3 -2 -13 15.50 31.09 6.08 o
606 1 3 -2 -12 10.14 9.69 4.17 <
607 1 -3 -2 12 10.14 7.79 3.12 <
608 1 -3 -2 11 10.63 5.09 2.30 <
609 1 3 -2 -11 10.63 8.91 4.13 <
610 1 3 -2 -10 12.65 32.77 6.61 o
611 1 3 -2 -9 37.29 31.17 6.44 o
612 1 -3 -1 13 3.19 14.38 5.22 <
613 1 3 -1 -13 3.19 4.40 3.10 <
614 1 -3 -1 12 0.14 0.07 3.35 <
615 1 3 -1 -12 0.14 2.21 2.84 <
616 1 3 -1 -11 14.06 13.07 3.89 o
617 1 -3 -1 11 14.06 8.24 3.25 <
618 1 3 -1 -10 22.58 30.68 5.21 o
619 1 3 -1 -9 104.58 76.22 7.37 o
620 1 3 -1 -8 12.09 34.34 5.50 o
621 1 3 -1 -7 74.69 36.67 5.50 o
622 1 -3 0 13 7.10 20.19 6.65 o
623 1 3 0 -12 0.71 2.62 3.22 <
624 1 -3 0 12 0.71 -6.20 4.24 <
625 1 3 0 -11 18.45 15.23 3.78 o
626 1 3 0 -10 15.62 7.28 2.92 <
627 1 3 0 -9 16.58 5.33 2.23 <
628 1 3 0 -8 104.35 102.84 6.07 o
629 1 3 0 -7 274.96 211.15 8.83 o
630 1 3 0 -6 251.73 156.93 7.96 o
631 1 -3 1 13 3.41 5.65 4.98 <
632 1 3 2 -4 33.87 19.60 2.54 o
633 1 3 2 -3 408.50 348.41 10.50 o
634 1 3 2 -2 168.71 605.55 15.33 o
635 1 3 2 -1 250.57 282.51 11.83 o
636 1 3 2 0 146.41 149.15 9.69 o
637 1 3 2 1 291.30 303.60 13.71 o
638 1 3 2 2 200.58 249.84 12.86 o
639 1 3 2 3 464.21 964.44 26.36 o
640 1 3 2 4 52.76 37.89 5.63 o
641 1 3 3 -3 59.50 28.76 4.44 o
642 1 3 3 -2 5.35 11.11 3.25 o
643 1 3 3 -1 211.37 273.95 14.57 o
644 1 3 3 0 62.78 114.72 10.80 o
645 1 3 3 1 246.01 226.94 14.35 o
646 1 3 3 2 6.08 4.68 3.40 <
647 1 3 3 3 61.40 121.55 10.68 o
648 1 3 3 4 80.81 93.60 9.98 o
649 1 3 3 5 82.35 77.85 9.73 o
650 1 3 3 6 64.96 41.94 7.68 o
651 1 3 3 7 24.13 32.03 7.41 o
652 1 3 3 8 8.34 6.01 4.85 <
653 1 3 3 9 44.17 42.94 8.64 o
654 1 3 3 10 8.46 -0.35 4.38 <
655 1 3 3 11 26.39 48.27 10.43 o
656 1 3 4 -2 130.26 292.34 16.99 o
657 1 3 4 -1 16.41 84.15 12.21 o
658 1 3 4 0 1.33 -19.37 7.10 <
659 1 3 4 1 23.80 -21.59 7.58 <
660 1 3 4 2 114.26 110.67 12.52 o
661 1 3 4 3 206.95 341.97 21.88 o
662 1 3 4 4 13.75 8.12 5.61 <
663 1 3 4 5 6.88 0.45 4.27 <
664 1 3 4 6 3.58 -1.64 5.45 <
665 1 3 4 7 83.01 63.07 11.60 o
666 1 3 4 8 36.12 31.51 8.68 o
667 1 3 4 9 26.18 15.83 7.38 <
668 1 3 4 10 2.18 0.70 5.58 <
669 1 3 4 11 4.33 5.36 6.41 <
670 1 3 5 -1 94.21 64.00 9.10 o
671 1 3 5 0 54.09 71.85 11.56 o
672 1 3 5 1 93.01 60.25 10.31 o
673 1 3 5 2 2.85 -1.47 5.48 <
674 1 3 5 3 18.69 12.56 6.79 <
675 1 3 5 4 47.17 15.61 7.54 <
676 1 3 5 5 88.72 44.82 10.60 o
677 1 3 5 6 32.61 19.22 8.43 <
678 1 3 5 7 28.66 22.08 9.06 <
679 1 3 5 8 4.23 -3.61 7.29 <
680 1 3 5 9 19.34 21.57 9.87 <
681 1 3 6 1 38.71 18.26 7.28 <
682 1 3 6 2 30.14 5.51 6.27 <
683 1 3 6 3 69.09 98.77 15.17 o
684 1 3 6 4 7.47 9.71 7.78 <
685 1 3 6 5 4.16 6.11 7.48 <
686 1 3 6 6 13.49 6.16 8.32 <
687 1 3 6 7 26.80 11.53 9.22 <
688 1 -4 -6 4 24.32 32.34 6.90 o
689 1 -4 -6 3 0.04 1.16 4.17 <
690 1 -4 -6 2 4.86 7.64 4.76 <
691 1 -4 -6 1 8.85 115.18 13.63 o
692 1 -4 -6 0 109.01 141.20 13.39 o
693 1 -4 -6 -1 5.64 8.45 4.85 <
694 1 -4 -6 -2 8.62 4.39 4.72 <
695 1 -4 -6 -3 1.18 0.46 4.48 <
696 1 -4 -6 -4 30.54 61.22 10.05 o
697 1 -4 -5 8 18.82 28.74 5.53 o
698 1 -4 -5 7 6.01 9.32 4.13 <
699 1 -4 -5 6 24.62 61.06 7.39 o
700 1 -4 -5 5 0.24 7.82 4.29 <
701 1 -4 -5 4 18.56 81.67 8.66 o
702 1 -4 -5 3 7.22 11.81 4.61 <
703 1 -4 -5 2 61.73 74.81 9.16 o
704 1 -4 -5 1 0.24 -2.52 4.61 <
705 1 -4 -5 0 6.88 -10.55 6.36 <
706 1 -4 -5 -1 6.97 -1.47 4.67 <
707 1 -4 -5 -2 54.42 52.21 8.16 o
708 1 -4 -5 -3 11.91 10.33 4.78 <
709 1 -4 -5 -4 27.37 62.95 9.12 o
710 1 -4 -5 -5 1.66 5.44 4.65 <
711 1 -4 -5 -6 36.59 59.68 9.62 o
712 1 -4 -5 -7 10.21 4.97 5.16 <
713 1 -4 -5 -8 37.11 41.87 9.12 o
714 1 -4 -4 8 14.19 12.81 2.47 o
715 1 -4 -4 7 2.44 6.42 2.56 <
716 1 -4 -4 6 41.41 104.47 7.52 o
717 1 -4 -4 5 11.83 16.98 3.88 o
718 1 -4 -4 4 39.45 53.55 5.92 o
719 1 -4 -4 3 6.48 4.50 3.06 <
720 1 -4 -4 2 1.37 1.09 2.63 <
721 1 -4 -4 1 11.43 56.00 7.24 o
722 1 -4 -4 0 70.47 62.03 7.71 o
723 1 -4 -4 -1 5.13 5.27 3.44 <
724 1 -4 -4 -2 4.28 1.85 3.40 <
725 1 -4 -4 -3 6.01 7.12 4.31 <
726 1 -4 -4 -4 59.25 104.47 10.92 o
727 1 -4 -4 -5 12.08 15.34 5.28 <
728 1 -4 -4 -6 82.25 110.14 12.84 o
729 1 -4 -4 -7 3.15 -0.15 4.28 <
730 1 -4 -4 -8 11.85 19.68 6.84 <
731 1 -4 -4 -9 1.94 1.25 4.45 <
732 1 -4 -4 -10 22.98 22.47 7.48 o
733 1 -4 -3 -1 25.37 2.85 3.53 <
734 1 -4 -3 -2 195.20 224.08 13.88 o
735 1 4 -2 -12 1.71 1.42 3.50 <
736 1 4 -2 -11 2.09 0.80 3.23 <
737 1 4 -1 -12 18.34 32.88 5.32 o
738 1 4 -1 -11 4.64 1.25 2.60 <
739 1 4 -1 -10 1.13 0.70 2.62 <
740 1 4 -1 -9 0.57 3.15 2.83 <
741 1 4 0 -12 0.10 6.33 3.06 <
742 1 4 0 -11 3.96 1.68 2.12 <
743 1 4 0 -10 87.34 75.53 5.74 o
744 1 4 0 -9 12.40 6.83 2.58 <
745 1 4 0 -8 41.90 18.07 3.19 o
746 1 4 2 -5 9.85 2.92 1.30 <
747 1 4 2 -4 107.81 81.97 5.43 o
748 1 4 2 -3 24.82 3.97 2.12 <
749 1 4 2 -2 65.26 46.18 4.71 o
750 1 4 2 -1 64.33 1209.90 26.86 o
751 1 4 3 -4 47.07 106.86 7.40 o
752 1 4 3 -3 26.85 4.37 2.78 <
753 1 4 3 -2 215.87 174.09 10.85 o
754 1 4 3 0 0.71 3.35 3.22 <
755 1 4 3 1 26.13 -8.23 5.43 <
756 1 4 3 2 193.95 212.53 14.81 o
757 1 4 3 3 23.62 21.20 5.61 o
758 1 4 3 4 92.59 203.98 15.51 o
759 1 4 3 5 9.76 13.66 5.41 <
760 1 4 3 6 14.82 11.20 5.06 <
761 1 4 4 -3 6.31 1.48 3.36 <
762 1 4 4 -2 1.71 -2.96 4.03 <
763 1 4 4 -1 11.15 126.25 11.32 o
764 1 4 4 0 70.12 55.75 8.55 o
765 1 4 4 1 5.42 4.24 4.39 <
766 1 4 4 2 3.72 5.12 4.37 <
767 1 4 4 3 6.18 4.97 4.63 <
768 1 4 4 4 59.36 82.07 11.71 o
769 1 4 4 5 12.03 11.77 5.98 <
770 1 4 4 6 82.71 77.03 11.69 o
771 1 4 4 7 2.99 0.88 5.07 <
772 1 4 4 8 11.76 6.34 5.80 <
773 1 4 4 9 1.86 5.56 5.91 <
774 1 4 4 10 23.19 22.64 8.91 <
775 1 4 5 -2 60.87 52.35 9.76 o
776 1 4 5 -1 0.28 -9.49 6.48 <
777 1 4 5 0 6.94 23.86 7.44 o
778 1 4 5 1 6.62 -20.32 8.33 <
779 1 4 5 2 55.48 34.69 8.49 o
780 1 4 5 3 11.37 6.83 6.08 <
781 1 4 5 4 28.55 49.70 11.05 o
782 1 4 5 5 1.55 11.14 7.73 <
783 1 4 5 6 36.14 45.50 11.39 o
784 1 4 5 7 10.22 0.24 6.09 <
785 1 4 5 8 37.10 22.66 9.34 <
786 1 4 6 -1 8.90 326.88 21.47 o
787 1 4 6 0 108.92 107.75 13.98 o
788 1 4 6 1 5.61 10.33 7.66 <
789 1 4 6 2 8.90 -1.44 6.60 <
790 1 4 6 3 1.14 -1.07 7.51 <
791 1 4 6 4 30.27 39.14 11.39 o
792 1 -5 -5 5 5.24 45.20 7.78 o
793 1 -5 -5 4 27.43 66.49 9.44 o
794 1 -5 -5 3 1.78 3.13 4.61 <
795 1 -5 -5 2 12.03 13.44 5.43 <
796 1 -5 -5 1 5.10 66.97 9.48 o
797 1 -5 -5 0 64.73 181.30 14.81 o
798 1 -5 -5 -1 13.58 25.70 6.90 o
799 1 -5 -5 -2 9.77 13.35 5.38 <
800 1 -5 -5 -3 0.05 -0.20 4.78 <
801 1 -5 -5 -4 32.79 88.31 12.43 o
802 1 -5 -5 -5 9.61 12.20 6.00 <
803 1 5 0 -11 1.83 -7.59 2.72 <
804 1 5 0 -10 0.44 -0.57 1.71 <
805 3 -5 2 -6 37.02 7.10 1.69 o
805 1 5 2 -6 37.02 7.10 1.69 o
806 1 5 2 -5 11.61 2.85 1.94 <
807 1 5 2 -4 22.16 15.06 3.74 o
808 1 5 3 -5 7.34 8.50 2.66 o
809 1 5 3 -4 61.88 65.82 6.70 o
810 1 5 3 -3 26.71 28.60 5.28 o
811 1 5 3 -2 25.42 7.41 4.05 <
812 1 5 3 -1 12.94 106.50 10.13 o
813 1 5 3 0 145.84 133.06 12.27 o
814 1 5 3 1 22.10 13.37 4.84 <
815 1 5 3 2 19.17 12.01 5.12 <
816 1 5 4 -4 16.16 10.29 3.99 <
817 1 5 4 -3 16.81 15.37 4.59 o
818 1 5 4 -2 101.54 94.71 10.41 o
819 1 5 4 -1 14.47 0.03 4.01 <
820 1 5 4 0 0.73 -10.47 5.89 <
821 1 5 4 1 1.77 -11.03 6.61 <
822 1 5 4 2 110.14 114.38 13.43 o
823 1 5 4 3 25.47 25.05 7.50 o
824 1 5 4 4 19.10 30.17 8.82 o
825 1 5 4 5 2.64 9.86 6.60 <
826 3 0 4 -12 23.26 27.40 8.81 o
826 1 5 4 6 23.26 27.40 8.81 o
827 1 5 4 7 11.23 4.55 6.05 <
828 1 5 5 -3 1.92 -0.61 4.22 <
829 1 5 5 -2 11.87 11.49 5.86 <
830 1 5 5 -1 5.02 127.65 13.81 o
831 1 5 5 0 64.71 83.75 12.26 o
832 1 5 5 1 13.76 16.66 7.58 <
833 1 5 5 2 9.98 7.94 6.60 <
834 1 5 5 3 0.04 0.66 5.85 <
835 1 5 5 4 32.35 99.53 15.77 o
836 1 5 5 5 9.55 13.53 8.75 <
837 1 6 2 -7 1.72 6.50 1.85 o
838 1 6 2 -6 10.07 4.68 2.70 <
839 1 6 3 -6 2.32 0.31 1.81 <
840 1 6 3 -5 0.14 -5.31 3.39 <
841 1 6 3 -4 4.84 4.14 3.71 <
842 1 6 3 -3 28.28 25.25 6.05 o
843 1 6 3 -2 5.25 74.49 10.22 o
844 1 6 4 -3 3.57 -0.85 4.42 <
845 1 6 4 -2 0.76 5.11 4.81 <
846 1 6 4 -1 35.91 40.41 9.21 o
847 1 6 4 0 11.04 11.06 6.25 <
848 1 6 4 1 37.41 29.34 8.71 o
849 1 6 4 2 0.86 4.55 6.70 <
850 1 6 4 3 2.97 -3.08 6.49 <
851 2 0 -6 -7 1.52 16.18 5.30 o
852 2 0 -6 -8 14.98 15.67 5.52 <
853 2 0 -6 -9 2.81 -0.26 4.41 <
854 2 0 -5 -5 0.76 4.04 3.27 <
855 2 0 -5 -6 34.09 8.86 3.82 <
856 2 0 -5 -7 3.21 1.57 3.41 <
857 2 0 -5 -8 36.99 82.40 10.22 o
858 2 0 -5 -9 1.00 1.12 3.68 <
859 2 0 -5 -10 1.21 -2.25 4.15 <
860 2 0 -5 -11 0.61 -0.77 4.19 <
861 2 0 -4 -4 203.67 171.80 11.12 o
862 2 0 -4 -5 0.75 -3.71 2.84 <
863 2 0 -4 -6 114.22 89.24 9.12 o
864 2 0 -4 -7 1.85 3.37 3.03 <
865 2 0 -4 -8 4.07 2.96 3.33 <
866 2 0 -4 -9 8.13 -0.75 3.45 <
867 2 0 -4 -10 43.44 53.45 9.31 o
868 2 0 -4 -11 1.14 -1.11 4.76 <
869 4 -5 -4 6 15.59 6.17 6.02 <
869 2 0 -4 -12 15.59 6.17 6.02 <
870 2 0 -4 -13 0.45 -4.44 5.74 <
871 2 0 -3 -3 264.92 264.81 12.49 o
872 2 0 -3 -4 298.35 281.71 13.75 o
873 2 0 -3 -5 13.10 8.07 3.10 <
874 2 0 -3 -6 161.99 146.72 11.22 o
875 2 0 -3 -7 14.32 1.21 2.84 <
876 2 0 -3 -8 98.23 174.23 13.82 o
877 2 0 -3 -9 1.99 -0.05 3.08 <
878 2 0 -3 -10 5.51 5.72 4.04 <
879 2 0 -3 -11 4.74 0.93 3.77 <
880 4 -5 -3 6 75.00 52.55 11.13 o
880 2 0 -3 -12 75.00 52.55 11.13 o
881 2 0 -3 -13 0.83 2.83 4.95 <
882 2 0 -3 -14 4.53 2.73 5.43 <
883 2 0 -2 -2 140.53 173.62 8.17 o
884 2 0 -2 -3 54.09 41.83 4.56 o
885 2 0 -2 -4 1047.96 874.94 22.51 o
886 2 0 -2 -5 172.10 161.44 10.44 o
887 2 0 -2 -6 783.80 858.14 25.53 o
888 2 0 -2 -7 0.76 3.97 3.16 <
889 2 0 -2 -8 182.87 161.13 12.81 o
890 2 0 -2 -9 11.75 9.47 4.20 <
891 2 0 -2 -10 204.47 212.33 17.14 o
892 2 0 -2 -11 2.76 -0.07 3.68 <
893 4 -5 -2 6 20.56 7.04 5.43 <
893 2 0 -2 -12 20.56 7.04 5.43 <
894 2 0 -2 -13 2.46 -0.82 4.64 <
895 2 0 -2 -14 3.66 2.41 5.14 <
896 2 0 -1 -1 19.59 19.33 1.87 o
897 2 0 -1 -2 3614.92 3137.01 28.73 o
898 2 0 -1 -3 294.76 219.30 8.80 o
899 2 0 -1 -4 1133.56 1170.08 23.75 o
900 2 0 -1 -5 146.44 127.54 9.25 o
901 2 0 -1 -6 1101.25 1315.63 31.24 o
902 2 0 -1 -7 9.93 5.90 3.13 <
903 2 0 -1 -8 556.84 980.05 30.27 o
904 2 0 -1 -9 5.54 2.39 2.97 <
905 2 0 -1 -10 0.61 -2.15 3.33 <
906 2 0 -1 -11 12.89 5.11 4.42 <
907 4 -5 -1 6 98.94 50.89 9.83 o
907 2 0 -1 -12 98.94 50.89 9.83 o
908 2 0 1 1 19.61 17.73 1.76 o
909 2 0 1 2 3611.49 3167.04 29.56 o
910 2 0 1 3 294.38 222.43 9.05 o
911 2 0 1 4 1133.32 1172.48 23.37 o
912 2 0 1 5 146.08 134.62 9.35 o
913 2 0 1 6 1101.60 1312.52 30.89 o
914 2 0 1 7 9.96 6.39 3.25 <
915 2 0 1 8 557.36 953.01 31.02 o
916 2 0 1 9 5.47 8.14 4.11 <
917 2 0 2 2 138.55 168.26 8.38 o
918 2 0 2 3 54.11 43.60 5.06 o
919 2 0 2 4 1052.39 881.81 22.93 o
920 2 0 2 5 171.70 163.96 10.96 o
921 2 0 2 6 782.52 862.97 25.99 o
922 2 0 2 7 0.72 5.39 3.34 <
923 2 0 2 8 182.53 187.44 14.34 o
924 2 0 2 9 11.98 8.16 4.30 <
925 2 0 2 10 204.41 262.40 18.30 o
926 2 0 2 11 2.72 -1.41 3.88 <
927 4 5 2 -6 20.74 9.19 5.57 <
927 2 0 2 12 20.74 9.19 5.57 <
928 2 0 2 13 2.42 -9.17 6.02 <
929 2 0 3 2 257.08 156.64 9.02 o
930 2 0 3 3 265.23 260.07 13.59 o
931 2 0 3 4 297.91 291.53 15.27 o
932 2 0 3 6 161.53 149.34 12.34 o
933 2 0 3 7 14.13 3.50 3.39 <
934 2 0 3 8 97.74 160.07 13.88 o
935 2 0 3 9 1.94 0.90 3.45 <
936 2 0 3 10 5.71 5.36 4.61 <
937 2 0 3 11 4.60 0.01 4.15 <
938 4 5 3 -6 75.75 59.54 10.72 o
938 2 0 3 12 75.75 59.54 10.72 o
939 2 0 3 13 0.83 -4.40 5.64 <
940 2 0 3 14 4.52 3.48 5.61 <
941 2 0 4 4 204.75 166.22 12.40 o
942 2 0 4 5 0.72 -7.69 4.06 <
943 2 0 4 6 115.27 76.29 9.67 o
944 2 0 4 7 1.83 7.30 4.65 <
945 2 0 4 8 4.72 4.38 4.33 <
946 2 0 4 9 7.95 -0.83 4.11 <
947 2 0 4 10 43.20 50.08 9.79 o
948 2 0 4 11 1.18 -3.85 5.26 <
949 4 5 4 -6 15.48 2.36 5.45 <
949 2 0 4 12 15.48 2.36 5.45 <
950 2 0 4 13 0.43 -7.94 6.76 <
951 2 0 5 5 0.66 -8.64 4.21 <
952 2 0 5 6 33.86 6.59 4.33 <
953 2 0 5 7 3.18 -0.72 3.84 <
954 2 0 5 8 36.37 41.26 9.41 o
955 2 0 5 9 1.02 -3.63 5.07 <
956 2 0 5 10 1.31 2.61 5.35 <
957 2 0 5 11 0.61 2.37 5.48 <
958 2 0 6 6 92.79 32.89 7.37 o
959 2 0 6 7 1.55 5.59 4.86 <
960 2 0 6 8 14.88 9.49 6.08 <
961 2 0 6 9 2.85 4.04 5.76 <
962 2 1 -6 -9 5.86 13.31 6.37 <
963 2 1 -6 -8 49.19 56.24 9.27 o
964 3 2 6 -6 31.48 30.58 6.76 o
964 2 1 -6 -7 31.48 30.58 6.76 o
965 2 1 -6 -6 28.24 22.66 5.82 o
966 2 1 -6 -5 4.68 5.76 4.05 <
967 2 1 -5 -11 12.54 27.65 9.00 o
968 2 1 -5 -10 44.00 39.17 9.11 o
969 2 1 -5 -9 20.33 30.32 7.85 o
970 2 1 -5 -8 13.87 11.48 5.30 <
971 3 2 5 -6 14.69 22.39 5.62 o
971 2 1 -5 -7 14.69 22.39 5.62 o
972 2 1 -5 -6 42.91 25.94 6.15 o
973 2 1 -5 -5 66.37 63.71 7.96 o
974 2 1 -5 -4 168.15 188.66 13.20 o
975 2 1 -5 -3 98.53 137.81 10.42 o
976 2 -1 -5 -8 12.58 20.20 5.39 o
977 2 -1 -5 -9 31.58 79.08 9.78 o
978 2 -1 -5 -10 38.94 58.41 8.98 o
979 2 -1 -5 -11 12.89 31.86 7.47 o
980 2 1 -4 -12 42.50 26.30 8.48 o
981 2 1 -4 -11 9.87 11.11 6.27 <
982 2 1 -4 -10 10.67 7.92 5.80 <
983 2 1 -4 -9 10.87 5.03 4.53 <
984 2 1 -4 -8 58.43 36.66 7.60 o
985 3 2 4 -6 54.54 48.45 8.13 o
985 2 1 -4 -7 54.54 48.45 8.13 o
986 2 1 -4 -6 34.59 9.29 3.90 <
987 2 1 -4 -5 5.01 9.49 3.77 <
988 2 1 -4 -4 101.29 85.00 8.51 o
989 2 1 -4 -3 325.12 370.97 16.42 o
990 2 1 -4 -2 519.44 449.98 17.34 o
991 2 -1 -4 -6 61.26 -3.82 3.76 <
992 2 -1 -4 -7 78.13 49.99 6.59 o
993 2 -1 -4 -8 76.11 43.01 6.56 o
994 2 -1 -4 -9 13.71 43.40 7.38 o
995 2 -1 -4 -10 7.07 7.96 4.45 <
996 2 -1 -4 -11 14.26 12.39 4.86 <
997 2 -1 -4 -12 39.67 47.39 8.83 o
998 2 1 -3 -14 7.01 4.37 6.07 <
999 2 1 -3 -13 1.03 4.34 5.79 <
1000 2 1 -3 -12 6.40 0.90 4.60 <
1001 2 1 -3 -11 16.75 33.63 8.59 o
1002 2 1 -3 -10 52.35 34.03 8.21 o
1003 2 1 -3 -9 60.75 65.15 10.38 o
1004 2 1 -3 -8 15.26 8.89 4.61 <
1005 3 2 3 -6 61.14 59.26 8.62 o
1005 2 1 -3 -7 61.14 59.26 8.62 o
1006 2 1 -3 -6 149.52 162.71 12.98 o
1007 2 1 -3 -5 380.21 306.21 16.15 o
1008 2 1 -3 -4 846.27 833.01 26.24 o
1009 2 1 -3 -3 110.21 143.55 9.89 o
1010 2 1 -3 -2 413.33 382.71 15.07 o
1011 2 1 -3 -1 345.60 431.77 15.36 o
1012 2 -1 -3 -5 387.92 298.32 13.52 o
1013 2 -1 -3 -6 149.52 150.04 10.02 o
1014 2 -1 -3 -7 54.85 43.54 5.97 o
1015 2 -1 -3 -8 6.81 6.71 3.10 <
1016 2 -1 -3 -9 107.92 174.93 13.21 o
1017 2 -1 -3 -10 68.17 46.48 7.72 o
1018 2 -1 -3 -11 31.19 24.25 6.58 o
1019 2 -1 -3 -12 8.86 -9.88 6.38 <
1020 2 -1 -3 -13 5.17 3.00 4.95 <
1021 2 -1 -3 -14 5.93 6.96 5.47 <
1022 2 1 -2 -12 6.74 7.36 5.06 <
1023 2 1 -2 -11 13.26 13.78 5.64 <
1024 2 1 -2 -10 12.03 19.53 6.50 o
1025 2 1 -2 -9 4.47 1.79 3.55 <
1026 2 1 -2 -8 386.68 344.63 21.07 o
1027 3 2 2 -6 241.42 235.08 16.60 o
1027 2 1 -2 -7 241.42 235.08 16.60 o
1028 2 1 -2 -6 220.18 195.66 14.50 o
1029 2 1 -2 -5 79.76 97.58 9.50 o
1030 2 1 -2 -4 335.63 375.75 16.29 o
1031 2 1 -2 -3 1469.55 1502.60 28.97 o
1032 2 1 -2 -2 1013.35 1144.11 23.70 o
1033 2 1 -2 -1 183.99 207.13 9.61 o
1034 2 1 -2 0 259.05 270.74 9.56 o
1035 2 -1 -2 -4 362.30 273.92 10.92 o
1036 2 -1 -2 -5 101.09 94.21 7.03 o
1037 2 -1 -2 -6 181.17 162.65 9.81 o
1038 2 -1 -2 -7 276.03 222.80 12.71 o
1039 2 -1 -2 -8 305.69 281.35 15.53 o
1040 2 -1 -2 -9 17.01 101.88 9.46 o
1041 2 -1 -2 -10 12.31 8.07 3.91 <
1042 2 -1 -2 -11 26.73 13.58 5.04 <
1043 2 -1 -2 -12 7.25 4.40 4.29 <
1044 2 -1 -2 -13 21.76 15.73 6.61 <
1045 2 -1 -2 -14 1.21 1.47 4.64 <
1046 2 1 -1 -6 290.82 433.03 18.92 o
1047 2 1 -1 -5 379.33 377.64 16.55 o
1048 2 1 -1 -4 1135.67 1044.80 25.77 o
1049 2 1 -1 -3 422.40 419.99 15.06 o
1050 2 1 -1 -2 178.85 177.79 8.75 o
1051 2 1 -1 -1 972.30 1136.83 19.15 o
1052 2 1 -1 0 1907.99 1823.77 19.18 o
1053 2 -1 -1 -3 451.98 431.61 10.84 o
1054 2 -1 -1 -4 944.44 865.39 17.25 o
1055 2 -1 -1 -5 448.32 337.59 12.51 o
1056 2 -1 -1 -6 334.72 366.64 13.90 o
1057 2 -1 -1 -7 130.44 95.73 8.18 o
1058 2 -1 -1 -8 36.33 38.25 5.84 o
1059 2 -1 -1 -9 173.16 346.21 17.60 o
1060 2 -1 -1 -10 97.83 83.03 9.76 o
1061 2 -1 -1 -11 15.55 11.32 5.06 <
1062 2 -1 -1 -12 9.99 4.39 4.39 <
1063 2 -1 -1 -13 5.07 -0.64 4.25 <
1064 2 -1 -1 -14 8.19 6.86 6.12 <
1065 2 -1 -1 -15 10.91 7.57 6.85 <
1066 2 -1 0 -4 73.83 48.24 3.72 o
1067 2 1 0 4 73.83 43.52 3.60 o
1068 2 -1 0 -5 490.47 428.10 13.49 o
1069 2 1 0 5 490.47 435.14 12.81 o
1070 2 -1 0 -6 44.05 53.03 5.28 o
1071 2 -1 0 -7 305.45 230.43 12.26 o
1072 2 -1 0 -8 268.63 242.44 13.48 o
1073 2 -1 0 -9 214.30 442.69 19.47 o
1074 2 -1 0 -10 21.77 23.08 5.66 o
1075 2 -1 0 -11 6.70 5.21 4.20 <
1076 2 -1 1 5 393.98 382.76 17.22 o
1077 2 -1 1 4 1098.56 1047.84 26.31 o
1078 2 -1 1 3 412.70 416.85 14.91 o
1079 2 -1 1 2 184.56 173.94 8.45 o
1080 2 -1 1 1 964.37 1137.85 19.29 o
1081 2 -1 1 0 1911.91 1809.13 19.32 o
1082 2 1 1 3 462.21 437.89 11.25 o
1083 2 1 1 4 979.84 874.30 18.24 o
1084 2 1 1 5 430.47 347.93 13.14 o
1085 2 1 1 6 328.25 370.91 14.79 o
1086 2 1 1 7 127.78 96.76 8.78 o
1087 2 1 1 8 36.02 36.14 5.81 o
1088 2 1 1 9 177.98 303.82 17.16 o
1089 2 1 1 10 93.76 97.53 10.49 o
1090 2 1 1 11 15.96 15.49 5.32 <
1091 2 -1 2 11 12.69 24.88 7.25 o
1092 2 -1 2 10 11.79 18.32 6.45 <
1093 2 -1 2 9 4.76 3.09 3.75 <
1094 2 -1 2 8 391.05 366.36 21.01 o
1095 3 -2 -2 6 242.39 228.02 15.78 o
1095 2 -1 2 7 242.39 228.02 15.78 o
1096 2 -1 2 6 211.68 212.52 14.76 o
1097 2 -1 2 5 79.80 97.49 9.48 o
1098 2 -1 2 4 348.93 361.01 15.93 o
1099 2 -1 2 3 1477.68 1498.78 29.69 o
1100 2 -1 2 2 1019.93 1142.62 23.84 o
1101 2 -1 2 1 172.62 212.18 9.70 o
1102 2 -1 2 0 259.11 274.22 10.24 o
1103 2 1 2 4 350.69 294.50 12.45 o
1104 2 1 2 5 101.63 94.57 7.75 o
1105 2 1 2 6 188.67 136.77 9.18 o
1106 2 1 2 7 272.19 202.32 13.47 o
1107 2 1 2 8 303.69 278.87 16.51 o
1108 2 1 2 9 15.38 61.14 8.13 o
1109 2 1 2 10 12.43 12.08 5.04 <
1110 2 1 2 11 27.59 12.10 5.30 <
1111 2 1 2 12 6.91 11.71 5.48 <
1112 2 1 2 13 20.98 16.41 6.40 <
1113 2 1 2 14 1.13 3.88 5.34 <
1114 2 -1 3 14 6.93 1.46 5.25 <
1115 2 -1 3 13 0.93 3.17 5.32 <
1116 2 -1 3 12 6.61 6.77 6.04 <
1117 2 -1 3 11 17.88 70.07 11.60 o
1118 2 -1 3 10 52.69 45.68 8.88 o
1119 2 -1 3 9 61.55 74.88 10.69 o
1120 2 -1 3 8 14.94 9.68 4.81 <
1121 3 -2 -3 6 60.78 55.61 8.44 o
1121 2 -1 3 7 60.78 55.61 8.44 o
1122 2 -1 3 6 150.39 170.47 13.55 o
1123 2 -1 3 5 384.27 315.50 17.25 o
1124 2 -1 3 4 849.39 829.77 26.62 o
1125 2 -1 3 3 107.19 151.36 10.71 o
1126 2 -1 3 2 417.07 389.25 16.34 o
1127 2 -1 3 1 340.54 432.73 16.84 o
1128 2 -1 3 0 118.30 140.96 8.12 o
1129 2 1 3 4 724.72 529.69 17.21 o
1130 2 1 3 5 383.64 296.68 15.03 o
1131 2 1 3 6 149.90 164.84 12.18 o
1132 2 1 3 7 55.21 38.41 6.69 o
1133 2 1 3 8 6.82 8.00 4.08 <
1134 2 1 3 9 106.98 151.65 13.77 o
1135 2 1 3 10 67.37 41.99 8.14 o
1136 2 1 3 11 29.61 20.84 6.66 o
1137 2 1 3 12 8.56 -1.23 4.58 <
1138 2 1 3 13 5.43 1.55 5.09 <
1139 2 1 3 14 6.03 -0.89 4.98 <
1140 2 -1 4 12 42.43 35.75 10.01 o
1141 2 -1 4 11 10.01 20.44 7.58 <
1142 2 -1 4 10 10.69 12.44 7.25 <
1143 2 -1 4 9 10.63 0.28 4.05 <
1144 2 -1 4 8 57.29 33.77 7.72 o
1145 3 -2 -4 6 56.10 44.64 8.32 o
1145 2 -1 4 7 56.10 44.64 8.32 o
1146 2 -1 4 6 35.81 9.90 3.75 <
1147 2 -1 4 5 4.86 7.36 3.86 <
1148 2 -1 4 4 100.27 89.42 10.00 o
1149 2 -1 4 3 323.89 388.67 18.72 o
1150 2 -1 4 2 522.33 452.30 19.63 o
1151 2 -1 4 1 109.66 87.10 7.54 o
1152 2 1 4 7 77.44 43.11 7.30 o
1153 2 1 4 8 76.01 28.10 6.86 o
1154 2 1 4 9 13.65 34.43 7.84 o
1155 2 1 4 10 6.79 6.07 5.36 <
1156 2 1 4 11 14.27 7.53 5.64 <
1157 2 1 4 12 39.80 32.41 9.26 o
1158 2 -1 5 11 12.20 29.28 9.68 o
1159 2 -1 5 10 43.51 31.32 9.57 o
1160 2 -1 5 9 20.11 22.02 7.97 <
1161 2 -1 5 8 13.97 8.84 5.80 <
1162 3 -2 -5 6 14.39 13.87 6.30 <
1162 2 -1 5 7 14.39 13.87 6.30 <
1163 2 -1 5 6 42.06 18.79 6.46 <
1164 2 -1 5 5 65.26 58.67 9.16 o
1165 2 -1 5 4 169.98 176.14 14.66 o
1166 2 -1 5 3 99.75 115.97 11.34 o
1167 2 -1 5 2 92.58 52.64 7.00 o
1168 2 1 5 7 9.07 7.66 4.65 <
1169 2 1 5 8 12.76 6.19 4.33 <
1170 2 1 5 9 32.10 41.54 8.90 o
1171 2 1 5 10 39.47 36.49 8.90 o
1172 2 1 5 11 13.58 11.01 7.06 <
1173 2 -1 6 9 5.81 4.29 6.24 <
1174 2 -1 6 8 49.15 23.06 8.50 <
1175 3 -2 -6 6 31.05 13.87 6.70 <
1175 2 -1 6 7 31.05 13.87 6.70 <
1176 2 -1 6 6 28.58 8.44 5.71 <
1177 2 -1 6 5 4.67 1.28 3.86 <
1178 2 -1 6 4 41.62 11.67 4.88 <
1179 2 1 6 9 5.55 17.61 6.36 <
1180 2 -1 7 6 25.10 8.31 5.96 <
1181 2 2 -7 -5 0.07 3.19 4.68 <
1182 2 2 -6 -8 3.21 1.15 4.17 <
1183 2 2 -6 -7 7.89 17.34 5.83 <
1184 3 1 6 -7 23.90 37.69 8.26 o
1184 2 2 -6 -6 23.90 37.69 8.26 o
1185 2 2 -6 -5 96.43 106.65 11.36 o
1186 2 2 -6 -4 1.60 8.65 4.47 <
1187 2 2 -6 -3 3.99 6.83 4.07 <
1188 2 2 -5 -10 0.08 -2.82 5.21 <
1189 2 2 -5 -9 18.49 28.91 9.19 o
1190 2 2 -5 -8 1.09 4.94 5.17 <
1191 2 2 -5 -7 114.01 145.75 15.29 o
1192 3 1 5 -7 14.16 21.46 6.44 o
1192 2 2 -5 -6 14.16 21.46 6.44 o
1193 2 2 -5 -5 4.25 -2.52 3.38 <
1194 2 2 -5 -4 18.25 5.14 3.57 <
1195 2 2 -5 -3 282.22 293.56 16.31 o
1196 2 2 -5 -2 11.81 8.98 3.55 <
1197 2 2 -4 -12 0.95 4.45 5.94 <
1198 2 2 -4 -11 37.82 37.13 10.45 o
1199 2 2 -4 -10 4.21 1.31 4.65 <
1200 2 2 -4 -9 78.06 149.39 17.75 o
1201 2 2 -4 -8 2.18 -2.88 4.40 <
1202 2 2 -4 -7 12.87 11.17 4.93 <
1203 3 1 4 -7 45.86 46.61 8.72 o
1203 2 2 -4 -6 45.86 46.61 8.72 o
1204 2 2 -4 -5 627.26 654.50 27.31 o
1205 2 2 -4 -4 3.74 30.45 6.76 o
1206 2 2 -4 -3 176.43 208.27 13.60 o
1207 2 2 -4 -2 156.13 196.48 11.90 o
1208 2 2 -4 -1 474.12 415.11 16.30 o
1209 2 2 -4 0 50.36 41.96 5.38 o
1210 2 -2 -4 -9 96.86 115.20 10.00 o
1211 2 -2 -4 -10 2.88 44.96 7.07 o
1212 2 -2 -4 -11 40.74 85.56 9.87 o
1213 2 -2 -4 -12 0.03 3.32 3.86 <
1214 2 2 -3 -12 5.03 2.83 4.96 <
1215 2 2 -3 -11 38.91 37.08 9.28 o
1216 2 2 -3 -10 4.07 1.26 4.34 <
1217 2 2 -3 -9 40.31 52.57 10.84 o
1218 2 2 -3 -8 8.72 2.95 4.28 <
1219 2 2 -3 -7 399.51 596.68 30.05 o
1220 3 1 3 -7 58.10 56.49 8.81 o
1220 2 2 -3 -6 58.10 56.49 8.81 o
1221 2 2 -3 -5 5.41 8.65 3.50 <
1222 2 2 -3 -4 4.87 0.89 2.54 <
1223 2 2 -3 -3 1184.69 1318.83 32.08 o
1224 2 2 -3 -2 43.74 41.98 5.57 o
1225 2 2 -3 -1 758.74 801.78 21.82 o
1226 2 2 -3 0 8.13 18.38 3.20 o
1227 2 2 -3 1 658.55 759.06 17.14 o
1228 2 -2 -3 -8 9.89 2.60 2.56 <
1229 2 -2 -3 -9 37.09 55.42 6.81 o
1230 2 -2 -3 -10 10.79 45.72 6.61 o
1231 2 -2 -3 -11 61.60 78.96 9.28 o
1232 2 -2 -3 -12 0.85 5.46 4.04 <
1233 2 -2 -3 -13 27.81 30.45 6.86 o
1234 2 2 -2 -8 6.40 3.52 3.36 <
1235 2 2 -2 -7 15.39 26.74 5.79 o
1236 3 1 2 -7 182.33 199.42 15.14 o
1236 2 2 -2 -6 182.33 199.42 15.14 o
1237 2 2 -2 -5 799.30 1043.67 31.58 o
1238 2 2 -2 -4 97.67 96.92 9.61 o
1239 2 2 -2 -3 70.42 82.95 8.09 o
1240 2 2 -2 -2 135.29 166.99 10.46 o
1241 2 2 -2 -1 1067.32 1149.03 24.30 o
1242 2 2 -2 0 41.03 18.85 2.53 o
1243 2 2 -2 1 1077.49 1157.66 19.24 o
1244 2 -2 -2 -7 19.22 21.56 3.25 o
1245 2 -2 -2 -8 3.82 1.67 2.09 <
1246 2 -2 -2 -9 132.48 120.79 9.46 o
1247 2 -2 -2 -10 11.12 27.48 5.37 o
1248 2 -2 -2 -11 71.93 66.56 8.70 o
1249 2 -2 -2 -12 3.08 0.90 3.42 <
1250 2 -2 -2 -13 7.21 -8.17 6.03 <
1251 2 -2 -2 -14 2.02 1.44 4.29 <
1252 2 2 -1 0 13.31 -0.80 1.34 <
1253 2 2 -1 1 2467.01 2959.29 25.69 o
1254 2 -2 -1 -6 40.89 17.06 2.73 o
1255 2 -2 -1 -7 326.60 298.55 11.63 o
1256 2 -2 -1 -8 9.35 3.35 2.20 <
1257 2 -2 -1 -9 108.45 104.85 8.96 o
1258 2 -2 -1 -10 5.72 7.89 3.42 <
1259 2 -2 -1 -11 19.01 24.75 5.55 o
1260 2 -2 -1 -12 1.43 1.99 3.52 <
1261 2 -2 -1 -13 19.39 18.09 6.06 <
1262 2 -2 -1 -14 2.00 3.54 4.83 <
1263 2 2 0 4 33.00 45.28 3.07 o
1264 2 -2 0 -5 547.15 518.82 10.62 o
1265 2 2 0 5 547.15 525.19 12.30 o
1266 2 2 0 6 199.36 212.53 9.45 o
1267 2 -2 0 -6 199.36 210.91 8.43 o
1268 2 2 0 7 5.96 2.19 1.83 <
1269 2 -2 0 -7 5.96 1.29 1.55 <
1270 2 2 0 8 35.46 18.19 3.71 o
1271 2 -2 0 -8 35.46 17.05 3.54 o
1272 2 -2 0 -9 25.87 19.18 4.24 o
1273 2 -2 0 -10 3.90 23.00 4.97 o
1274 2 -2 0 -11 57.41 20.68 5.61 o
1275 2 -2 0 -12 1.12 -2.49 4.09 <
1276 2 -2 0 -13 0.17 -4.81 5.38 <
1277 2 -2 0 -14 0.05 -2.74 5.48 <
1278 2 2 1 4 39.39 19.90 2.20 o
1279 2 2 1 5 200.00 124.56 7.55 o
1280 2 2 1 6 41.51 13.52 3.10 o
1281 2 -2 1 -6 41.51 11.66 2.14 o
1282 2 2 1 7 322.18 284.27 13.67 o
1283 2 -2 1 -7 322.18 279.38 11.07 o
1284 2 -2 1 -8 9.60 3.16 2.34 <
1285 2 2 1 8 9.60 1.37 2.44 <
1286 2 -2 1 -9 107.57 77.13 7.90 o
1287 2 2 1 9 107.57 87.17 8.91 o
1288 2 2 1 10 5.56 10.50 4.39 <
1289 2 -2 1 -10 5.56 5.30 3.87 <
1290 2 -2 1 -11 19.89 16.96 6.00 <
1291 2 2 1 11 19.89 16.92 5.30 o
1292 2 2 1 12 1.45 1.00 3.53 <
1293 2 2 1 13 20.56 17.56 6.11 <
1294 2 -2 2 7 14.20 36.63 6.90 o
1295 3 -1 -2 7 181.45 198.37 15.72 o
1295 2 -2 2 6 181.45 198.37 15.72 o
1296 2 -2 2 5 802.85 1034.03 31.62 o
1297 2 -2 2 4 97.23 111.47 9.93 o
1298 2 -2 2 3 68.54 70.59 7.20 o
1299 2 -2 2 2 135.82 161.02 10.10 o
1300 2 -2 2 1 1040.72 1145.08 24.85 o
1301 2 -2 2 0 41.52 21.14 2.89 o
1302 2 -2 2 -1 1104.41 1166.04 19.84 o
1303 3 2 -2 2 266.58 305.14 8.63 o
1303 2 -2 2 -2 266.58 305.14 8.63 o
1304 2 -2 2 -3 65.92 55.00 3.10 o
1305 2 2 2 5 923.72 663.54 16.88 o
1306 2 2 2 6 1.24 4.69 2.68 <
1307 2 2 2 7 21.05 13.65 3.34 o
1308 2 2 2 8 3.98 -0.77 2.74 <
1309 2 2 2 9 132.94 101.86 10.33 o
1310 2 2 2 10 10.85 11.68 4.37 <
1311 2 2 2 11 71.67 49.01 8.36 o
1312 2 2 2 12 3.09 3.39 4.43 <
1313 2 2 2 13 7.12 8.93 5.82 <
1314 2 2 2 14 2.00 3.35 5.17 <
1315 2 -2 3 12 5.10 0.43 4.98 <
1316 2 -2 3 11 38.89 63.42 11.32 o
1317 2 -2 3 10 3.99 -1.87 4.74 <
1318 2 -2 3 9 38.00 67.02 10.79 o
1319 2 -2 3 8 8.56 1.88 3.78 <
1320 2 -2 3 7 397.42 641.39 28.62 o
1321 3 -1 -3 7 58.62 64.20 9.20 o
1321 2 -2 3 6 58.62 64.20 9.20 o
1322 2 -2 3 5 5.54 8.11 3.29 <
1323 2 -2 3 4 4.47 -1.28 2.72 <
1324 2 -2 3 3 1180.85 1316.09 32.36 o
1325 2 -2 3 2 44.81 44.32 6.01 o
1326 2 -2 3 1 748.11 800.06 22.32 o
1327 2 -2 3 0 8.23 15.61 3.38 o
1328 2 -2 3 -1 668.77 772.18 19.41 o
1329 3 2 -3 2 72.23 82.97 5.44 o
1329 2 -2 3 -2 72.23 82.97 5.44 o
1330 2 2 3 6 12.30 14.85 3.18 o
1331 2 2 3 7 441.13 428.02 19.83 o
1332 2 2 3 8 10.11 -0.37 2.70 <
1333 2 2 3 9 39.40 38.51 7.26 o
1334 2 2 3 10 11.01 28.49 6.87 o
1335 2 2 3 11 61.29 42.48 8.59 o
1336 2 2 3 12 0.84 4.13 5.02 <
1337 2 2 3 13 27.49 19.12 7.40 <
1338 2 -2 4 12 0.96 4.53 6.29 <
1339 2 -2 4 11 37.98 46.50 10.94 o
1340 2 -2 4 10 4.14 0.52 4.42 <
1341 2 -2 4 9 77.84 162.29 17.38 o
1342 2 -2 4 8 2.23 -3.15 4.79 <
1343 2 -2 4 7 12.28 21.84 6.44 o
1344 3 -1 -4 7 44.53 41.36 7.81 o
1344 2 -2 4 6 44.53 41.36 7.81 o
1345 2 -2 4 5 625.45 682.58 27.89 o
1346 2 -2 4 4 3.73 2.54 3.33 <
1347 2 -2 4 3 175.98 205.71 14.29 o
1348 2 -2 4 2 155.09 198.05 13.47 o
1349 2 -2 4 1 478.45 399.21 17.35 o
1350 2 -2 4 0 50.92 39.13 5.60 o
1351 2 -2 4 -1 485.82 374.41 14.77 o
1352 2 2 4 8 2.69 -0.03 2.76 <
1353 2 2 4 9 96.57 82.14 9.97 o
1354 2 2 4 10 2.99 25.45 6.86 o
1355 2 2 4 11 40.80 41.45 8.72 o
1356 2 2 4 12 0.02 0.02 4.90 <
1357 2 -2 5 10 0.07 0.39 5.60 <
1358 2 -2 5 9 19.19 24.47 8.78 <
1359 2 -2 5 8 1.15 -1.33 5.00 <
1360 2 -2 5 7 114.34 124.45 14.47 o
1361 3 -1 -5 7 14.48 12.65 5.80 <
1361 2 -2 5 6 14.48 12.65 5.80 <
1362 2 -2 5 5 4.12 -4.75 4.71 <
1363 2 -2 5 4 18.09 3.97 4.02 <
1364 2 -2 5 3 283.96 262.24 17.37 o
1365 2 -2 5 2 11.22 7.35 3.76 <
1366 2 -2 5 1 201.44 141.18 11.32 o
1367 2 -2 5 0 0.45 2.37 2.79 <
1368 2 2 5 9 32.72 15.46 4.88 o
1369 2 2 5 10 0.45 0.96 3.77 <
1370 2 -2 6 8 3.21 3.83 6.12 <
1371 2 -2 6 7 8.43 3.56 5.74 <
1372 3 -1 -6 7 24.29 11.80 6.36 <
1372 2 -2 6 6 24.29 11.80 6.36 <
1373 2 -2 6 5 97.27 65.03 10.39 o
1374 2 -2 6 4 1.67 4.02 4.25 <
1375 2 -2 6 3 4.43 2.33 3.45 <
1376 2 -2 6 2 1.65 4.01 3.45 <
1377 2 -2 6 1 121.50 56.37 7.87 o
1378 2 -2 7 5 0.09 -0.66 4.65 <
1379 2 -2 7 4 1.57 -1.39 4.23 <
1380 2 -2 7 3 44.44 4.82 4.06 <
1381 2 3 -6 -7 24.03 19.19 7.43 <
1382 2 3 -6 -6 10.40 6.64 5.29 <
1383 2 3 -6 -5 5.65 13.07 5.44 <
1384 2 3 -6 -4 5.89 11.72 5.02 <
1385 2 3 -6 -3 88.33 77.26 9.32 o
1386 2 3 -6 -2 37.25 38.63 6.99 o
1387 2 3 -5 -9 23.22 13.64 7.29 <
1388 2 3 -5 -8 3.70 25.84 9.30 <
1389 2 3 -5 -7 23.40 31.37 8.13 o
1390 2 3 -5 -6 23.46 27.32 8.14 o
1391 2 3 -5 -5 74.86 95.88 12.23 o
1392 2 3 -5 -4 45.43 26.02 6.51 o
1393 2 3 -5 -3 12.77 4.47 3.36 <
1394 2 3 -5 -2 0.07 1.13 2.95 <
1395 2 3 -5 -1 108.65 101.46 9.42 o
1396 2 3 -5 0 64.23 41.25 6.12 o
1397 2 3 -4 -11 1.94 -0.79 4.79 <
1398 2 3 -4 -10 0.70 6.11 6.16 <
1399 2 3 -4 -9 10.82 17.53 7.18 <
1400 2 3 -4 -8 29.73 31.11 8.36 o
1401 2 3 -4 -7 70.63 79.67 12.37 o
1402 2 3 -4 -6 4.93 1.55 4.12 <
1403 2 3 -4 -5 1.23 2.59 4.06 <
1404 2 3 -4 -4 13.68 6.17 4.11 <
1405 2 3 -4 -3 214.84 203.43 14.41 o
1406 2 3 -4 -2 150.64 269.96 16.56 o
1407 2 3 -4 -1 21.77 5.16 3.62 <
1408 2 3 -4 0 1.63 -0.62 2.53 <
1409 2 3 -4 1 24.59 6.03 2.67 <
1410 2 3 -3 -9 34.56 33.62 7.85 o
1411 2 3 -3 -8 11.04 20.30 6.59 o
1412 2 3 -3 -7 42.73 38.10 7.72 o
1413 2 3 -3 -6 44.97 61.07 10.66 o
1414 2 3 -3 -5 70.13 203.83 16.35 o
1415 2 3 -3 -4 93.22 117.73 11.96 o
1416 2 3 -3 -3 69.21 71.29 8.71 o
1417 2 3 -3 -2 6.64 1.42 2.93 <
1418 2 3 -3 -1 252.25 293.87 14.71 o
1419 2 3 -3 0 74.74 70.02 7.08 o
1420 2 3 -3 1 284.73 263.99 11.29 o
1421 2 3 -3 2 6.85 8.62 2.09 o
1422 2 -3 -3 -11 31.73 67.88 7.42 o
1423 2 -3 -3 -12 0.89 8.05 3.83 <
1424 2 3 -2 -4 40.40 41.28 6.09 o
1425 2 3 -2 -3 484.56 465.65 19.42 o
1426 2 3 -2 -2 201.18 387.72 17.87 o
1427 2 3 -2 -1 282.94 408.88 16.48 o
1428 2 3 -2 0 171.00 183.63 10.86 o
1429 2 3 -2 1 353.59 350.23 12.77 o
1430 2 3 -2 2 229.82 302.55 9.74 o
1431 2 3 -2 3 541.66 833.81 11.59 o
1432 2 -3 -2 -10 14.32 17.48 3.68 o
1433 2 -3 -2 -11 17.34 28.67 5.16 o
1434 2 -3 -2 -12 21.32 23.27 4.95 o
1435 2 -3 -2 -13 23.25 49.29 7.61 o
1436 2 -3 -1 -9 129.30 178.43 8.90 o
1437 2 -3 -1 -10 64.34 51.97 5.47 o
1438 2 -3 -1 -11 20.86 43.81 6.01 o
1439 2 -3 -1 -12 0.19 -1.26 2.73 <
1440 2 -3 -1 -13 2.57 1.99 3.44 <
1441 2 3 0 5 2.38 4.89 1.34 o
1442 2 3 0 6 264.68 269.02 9.49 o
1443 2 3 0 7 423.20 329.11 11.62 o
1444 2 -3 0 -8 195.02 160.65 6.86 o
1445 2 3 0 8 195.02 150.39 8.92 o
1446 2 -3 0 -9 14.35 6.19 2.13 <
1447 2 3 0 9 14.35 4.11 2.71 <
1448 2 -3 0 -10 8.11 6.40 2.71 <
1449 2 3 0 10 8.11 5.31 2.98 <
1450 2 -3 0 -11 17.59 40.01 5.97 o
1451 2 -3 0 -12 5.06 3.99 3.69 <
1452 2 -3 0 -13 14.64 19.36 5.80 o
1453 2 -3 0 -14 0.03 0.31 4.41 <
1454 2 3 1 6 69.96 51.91 4.73 o
1455 2 3 1 7 81.07 85.98 7.23 o
1456 2 3 1 8 24.71 10.64 3.46 o
1457 2 -3 1 -8 24.71 9.77 1.85 o
1458 2 -3 1 -9 130.08 124.55 7.14 o
1459 2 3 1 9 130.08 136.68 11.09 o
1460 2 -3 1 -10 63.59 32.49 4.79 o
1461 2 3 1 10 63.59 33.44 6.21 o
1462 2 3 1 11 21.31 21.57 5.97 o
1463 2 -3 1 -11 21.31 17.42 4.49 o
1464 2 3 1 12 0.21 1.87 3.80 <
1465 2 -3 1 -12 0.21 1.17 3.54 <
1466 2 3 1 13 2.39 -0.68 4.22 <
1467 2 -3 1 -13 2.39 15.76 5.67 <
1468 2 3 2 7 106.43 117.07 8.36 o
1469 2 3 2 8 45.25 32.16 5.33 o
1470 2 -3 2 -8 45.25 20.70 2.73 o
1471 2 3 2 9 49.29 43.01 6.84 o
1472 2 -3 2 -9 49.29 28.86 4.21 o
1473 2 -3 2 -10 14.11 8.96 3.79 <
1474 2 3 2 10 14.11 10.36 4.63 <
1475 2 -3 2 -11 17.25 17.92 6.17 <
1476 2 3 2 11 17.25 15.91 5.70 <
1477 2 3 2 12 21.54 9.19 5.16 <
1478 2 -3 2 -12 21.54 15.66 7.48 <
1479 2 3 2 13 23.47 26.14 7.98 o
1480 2 -3 3 8 11.12 37.12 8.40 o
1481 2 -3 3 7 41.23 50.50 9.12 o
1482 2 -3 3 6 44.79 71.53 10.37 o
1483 2 -3 3 5 69.75 190.17 15.47 o
1484 2 -3 3 4 97.43 113.78 11.16 o
1485 2 -3 3 3 69.92 70.49 8.24 o
1486 2 -3 3 2 6.28 0.82 3.41 <
1487 2 -3 3 1 248.37 308.23 15.62 o
1488 2 -3 3 0 73.78 80.57 8.28 o
1489 2 -3 3 -1 289.09 269.17 12.65 o
1490 2 -3 3 -2 7.14 5.91 2.39 <
1491 2 -3 3 -3 72.15 143.81 7.60 o
1492 2 -3 3 -4 94.96 99.13 5.73 o
1493 2 -3 3 -5 96.77 66.14 4.11 o
1494 2 3 3 8 9.80 2.10 2.23 <
1495 2 3 3 9 51.91 48.49 7.09 o
1496 2 3 3 10 9.95 5.58 4.14 <
1497 2 3 3 11 31.01 46.22 8.33 o
1498 2 3 3 12 0.92 1.92 4.39 <
1499 2 -3 4 11 1.80 2.21 5.83 <
1500 2 -3 4 10 0.66 9.42 6.85 <
1501 2 -3 4 9 11.20 21.87 7.63 <
1502 2 -3 4 8 29.26 40.43 8.76 o
1503 2 -3 4 7 71.33 87.90 12.03 o
1504 2 -3 4 6 5.39 -1.35 4.45 <
1505 2 -3 4 5 1.35 4.70 4.22 <
1506 2 -3 4 4 13.97 3.16 3.76 <
1507 2 -3 4 3 215.36 204.24 14.69 o
1508 2 -3 4 2 153.07 284.69 17.30 o
1509 2 -3 4 1 19.29 19.13 5.97 o
1510 2 -3 4 0 1.56 1.17 2.81 <
1511 2 -3 4 -1 27.97 6.42 3.10 <
1512 2 -3 4 -2 134.27 159.38 10.12 o
1513 2 -3 4 -3 243.18 424.67 14.24 o
1514 2 -3 4 -4 16.16 5.21 2.06 <
1515 2 3 4 10 2.57 -0.16 2.76 <
1516 2 3 4 11 5.09 3.86 3.87 <
1517 2 -3 5 9 22.73 19.37 8.01 <
1518 2 -3 5 8 3.64 17.67 7.61 <
1519 2 -3 5 7 24.11 21.41 7.60 <
1520 2 -3 5 6 23.68 35.04 9.01 o
1521 2 -3 5 5 75.51 73.25 10.61 o
1522 2 -3 5 4 44.33 23.24 6.28 o
1523 2 -3 5 3 12.15 4.39 4.32 <
1524 2 -3 5 2 0.10 -2.04 4.33 <
1525 2 -3 5 1 110.70 93.20 9.85 o
1526 2 -3 5 0 63.56 31.69 5.99 o
1527 2 -3 5 -1 109.30 80.63 8.08 o
1528 2 -3 5 -2 3.34 1.58 2.30 <
1529 2 -3 5 -3 21.96 15.39 3.32 o
1530 2 -3 6 7 23.48 17.56 7.66 <
1531 2 -3 6 6 10.15 8.98 6.53 <
1532 2 -3 6 5 5.65 8.02 6.06 <
1533 2 -3 6 4 5.79 7.16 5.27 <
1534 2 -3 6 3 88.91 54.63 9.54 o
1535 2 -3 6 2 36.40 27.71 6.29 o
1536 2 -3 6 1 49.94 38.60 7.11 o
1537 2 -3 6 0 6.28 6.25 3.88 <
1538 2 -3 6 -1 45.49 32.56 5.54 o
1539 2 -3 6 -2 35.42 18.13 4.23 o
1540 2 -3 7 2 3.66 4.14 4.57 <
1541 2 -3 7 1 41.38 19.66 5.53 o
1542 2 -3 7 0 27.51 13.10 4.45 <
1543 2 4 -6 -5 6.00 3.52 4.89 <
1544 2 4 -6 -4 28.58 39.66 8.21 o
1545 2 4 -6 -3 0.05 1.74 3.88 <
1546 2 4 -6 -2 5.71 3.79 3.80 <
1547 2 4 -6 -1 10.40 42.49 8.07 o
1548 2 4 -6 0 128.10 227.38 14.28 o
1549 2 4 -5 -8 22.11 19.71 7.59 <
1550 2 4 -5 -7 7.07 10.29 6.92 <
1551 2 4 -5 -6 28.93 48.13 10.13 o
1552 2 4 -5 -5 0.29 5.04 4.99 <
1553 2 4 -5 -4 21.81 80.13 11.52 o
1554 2 4 -5 -3 8.48 16.02 5.84 <
1555 2 4 -5 -2 72.54 60.83 8.90 o
1556 2 4 -5 -1 0.28 0.17 3.45 <
1557 2 4 -5 0 8.09 -2.64 3.85 <
1558 2 4 -5 1 8.20 -1.69 3.17 <
1559 2 4 -4 -10 12.76 11.33 5.70 <
1560 2 4 -4 -9 0.21 -2.46 4.73 <
1561 2 4 -4 -8 16.67 15.72 6.20 <
1562 2 4 -4 -7 2.87 5.88 5.42 <
1563 2 4 -4 -6 48.66 93.85 12.43 o
1564 2 4 -4 -5 13.90 10.39 5.23 <
1565 2 4 -4 -4 46.35 54.56 9.22 o
1566 2 4 -4 -3 7.61 4.27 4.05 <
1567 2 4 -4 -2 1.61 3.82 3.56 <
1568 2 4 -4 -1 13.43 20.56 5.43 o
1569 2 4 -4 0 82.81 79.22 8.09 o
1570 2 4 -4 1 6.03 8.28 3.12 <
1571 2 4 -4 2 5.03 2.59 2.24 <
1572 2 4 -3 -6 15.08 3.79 3.18 <
1573 2 4 -3 -5 14.38 9.15 4.12 <
1574 2 4 -3 -4 52.81 175.25 14.52 o
1575 2 4 -3 -3 33.27 24.56 5.63 o
1576 2 4 -3 -2 251.46 256.75 16.02 o
1577 2 4 -3 -1 18.02 5.67 3.30 <
1578 2 4 -3 1 29.81 6.83 2.17 o
1579 2 4 -3 2 229.38 258.65 11.58 o
1580 2 4 -3 3 26.54 33.74 3.55 o
1581 2 4 -2 0 988.17 935.47 23.74 o
1582 2 4 -2 1 60.05 28.91 3.72 o
1583 2 4 -2 2 96.51 78.26 6.35 o
1584 2 4 -2 3 4.40 10.50 2.28 o
1585 2 4 0 6 238.54 120.63 5.18 o
1586 2 4 0 7 19.07 8.50 2.65 o
1587 2 4 0 8 58.15 26.76 4.15 o
1588 2 4 0 9 4.03 8.14 3.39 <
1589 2 4 0 10 146.40 142.18 9.83 o
1590 2 4 0 11 4.71 3.42 3.13 <
1591 2 -4 0 -12 0.53 13.30 2.63 o
1592 2 4 1 7 14.54 14.66 2.47 o
1593 2 4 1 8 103.72 84.22 7.31 o
1594 2 4 1 9 1.16 -2.83 3.22 <
1595 2 4 1 10 4.54 3.65 3.79 <
1596 2 -4 1 -11 2.88 3.23 1.11 <
1597 2 4 1 11 2.88 -4.01 4.37 <
1598 2 -4 1 -12 35.49 76.51 5.46 o
1599 2 4 1 12 35.49 56.85 9.31 o
1600 2 4 2 9 5.45 2.52 2.68 <
1601 2 4 2 10 47.09 34.90 6.57 o
1602 2 4 2 11 1.62 2.94 4.27 <
1603 2 -4 2 -11 1.62 1.68 0.85 <
1604 2 -4 2 -12 4.63 4.26 2.26 <
1605 2 4 2 12 4.63 4.09 5.29 <
1606 2 -4 3 -1 30.70 7.61 2.32 o
1607 2 -4 3 -2 227.91 262.50 12.44 o
1608 2 4 3 10 3.28 3.12 2.86 <
1609 2 -4 3 -11 0.25 -0.64 2.08 <
1610 2 4 3 11 0.25 2.46 3.56 <
1611 2 -4 4 8 16.75 22.39 7.77 <
1612 2 -4 4 7 3.05 6.17 5.10 <
1613 2 -4 4 6 48.41 139.30 14.56 o
1614 2 -4 4 5 13.69 15.67 5.87 <
1615 2 -4 4 4 46.90 51.71 8.45 o
1616 2 -4 4 3 7.41 5.54 4.13 <
1617 2 -4 4 2 2.01 3.49 3.41 <
1618 2 -4 4 1 13.10 28.28 6.63 o
1619 2 -4 4 0 82.40 79.12 8.57 o
1620 2 -4 4 -1 6.37 6.01 3.36 <
1621 2 -4 4 -2 4.37 5.01 3.41 <
1622 2 -4 4 -3 7.27 5.51 3.04 <
1623 2 -4 4 -4 69.75 108.46 7.98 o
1624 2 -4 4 -5 14.14 16.63 3.61 o
1625 2 -4 4 -6 97.19 81.64 6.10 o
1626 2 -4 4 -7 3.52 0.83 1.65 <
1627 2 -4 4 -8 13.82 11.49 1.98 o
1628 2 -4 5 8 22.00 32.87 9.18 o
1629 2 -4 5 7 7.15 4.05 5.38 <
1630 2 -4 5 6 29.41 54.02 10.16 o
1631 2 -4 5 5 0.27 3.25 4.87 <
1632 2 -4 5 4 20.67 73.43 11.14 o
1633 2 -4 5 3 9.03 12.70 5.49 <
1634 2 -4 5 2 71.52 69.07 10.00 o
1635 2 -4 5 1 0.33 -1.02 4.06 <
1636 2 -4 5 0 8.15 -6.44 6.04 <
1637 2 -4 5 -1 7.78 -2.86 4.21 <
1638 2 -4 5 -2 65.20 57.72 7.69 o
1639 2 -4 5 -3 13.36 14.78 4.38 o
1640 2 -4 5 -4 33.55 82.54 7.77 o
1641 2 -4 5 -5 1.82 5.75 2.89 <
1642 2 -4 5 -6 42.47 46.68 4.84 o
1643 2 -4 5 -7 12.00 5.68 2.12 <
1644 2 -4 6 5 6.04 2.04 5.53 <
1645 2 -4 6 4 28.98 31.48 8.23 o
1646 2 -4 6 3 0.08 -1.09 4.22 <
1647 2 -4 6 2 5.47 4.35 4.44 <
1648 2 -4 6 1 10.46 61.77 9.85 o
1649 2 -4 6 0 127.99 171.24 14.23 o
1650 2 -4 6 -1 6.59 9.53 4.64 <
1651 2 -4 6 -2 10.46 8.01 3.98 <
1652 2 -4 6 -3 1.34 2.81 3.11 <
1653 2 -4 6 -4 35.57 61.57 6.70 o
1654 2 -4 6 -5 7.28 4.08 2.63 <
1655 2 5 -5 -5 6.16 6.41 5.71 <
1656 2 5 -5 -4 32.24 35.16 8.40 o
1657 2 5 -5 -3 2.09 -0.49 4.46 <
1658 2 5 -5 -2 14.13 15.21 6.02 <
1659 2 5 -5 -1 6.00 41.13 8.32 o
1660 2 5 -5 0 76.07 152.22 12.51 o
1661 2 5 -5 1 15.95 31.70 6.34 o
1662 2 5 -5 2 11.48 21.45 4.61 o
1663 2 5 -4 -7 5.13 8.81 5.13 <
1664 4 -5 -4 -6 36.44 26.27 7.26 o
1664 2 5 -4 -6 36.44 26.27 7.26 o
1665 2 5 -4 -5 0.50 3.76 4.29 <
1666 2 5 -4 -4 19.26 12.44 5.40 <
1667 2 5 -4 -3 19.62 24.61 6.69 o
1668 2 5 -4 -2 119.80 149.08 14.40 o
1669 2 5 -4 -1 16.85 5.10 4.05 <
1670 2 5 -4 0 0.93 -0.38 3.63 <
1671 2 5 -4 1 2.07 3.17 3.39 <
1672 2 5 -4 2 129.00 176.26 10.97 o
1673 2 5 -4 3 29.93 48.56 5.16 o
1674 2 5 -3 -3 31.54 32.92 5.83 o
1675 2 5 -3 -2 30.23 7.69 3.55 <
1676 2 5 -3 -1 14.82 30.46 6.09 o
1677 2 5 -3 0 171.08 178.41 12.59 o
1678 2 5 -3 1 26.79 15.55 4.27 o
1679 2 5 -3 2 22.11 11.61 3.63 o
1680 2 5 -3 3 14.93 45.67 5.40 o
1681 2 5 -3 4 96.90 91.20 5.10 o
1682 2 5 -2 2 181.61 85.99 7.25 o
1683 2 5 -2 3 40.39 13.92 3.09 o
1684 2 5 -2 4 38.48 18.44 3.12 o
1685 2 5 0 7 2.79 -0.31 0.93 <
1686 2 5 0 8 32.44 24.65 4.00 o
1687 2 5 0 9 1.14 2.11 3.09 <
1688 2 5 0 10 0.09 0.86 3.51 <
1689 2 5 0 11 3.64 4.36 3.92 <
1690 2 5 1 9 11.36 5.39 2.97 <
1691 2 5 1 10 23.72 19.02 5.58 o
1692 2 5 1 11 4.23 1.77 4.80 <
1693 2 5 2 10 4.21 5.33 2.78 <
1694 2 -5 5 5 6.40 15.82 7.29 <
1695 2 -5 5 4 32.74 43.65 8.78 o
1696 2 -5 5 3 2.26 0.79 4.32 <
1697 2 -5 5 2 13.95 16.39 5.94 <
1698 2 -5 5 1 5.90 41.19 8.38 o
1699 2 -5 5 0 76.04 173.58 14.60 o
1700 2 -5 5 -1 16.17 26.94 6.52 o
1701 2 -5 5 -2 11.73 21.11 5.95 o
1702 2 -5 5 -3 0.05 2.19 4.18 <
1703 2 -5 5 -4 38.02 92.41 10.44 o
1704 2 -5 5 -5 11.22 20.29 6.39 o
1705 2 6 -4 -3 4.22 0.11 3.70 <
1706 2 6 -4 -2 0.80 7.11 5.03 <
1707 2 6 -4 -1 42.56 42.83 8.29 o
1708 2 6 -4 0 13.01 16.33 5.76 <
1709 2 6 -4 1 43.66 77.59 11.37 o
1710 2 6 -4 2 1.11 3.65 4.86 <
1711 2 6 -4 3 3.46 0.11 3.32 <
1712 2 6 -3 0 1.73 1.15 2.88 <
1713 2 6 -3 1 32.08 39.76 6.69 o
1714 2 6 -3 2 12.24 2.75 3.54 <
1715 2 6 -3 3 54.40 44.25 6.73 o
1716 2 6 -3 4 5.92 4.40 3.21 <
1717 2 6 -2 4 6.42 3.04 2.28 <
1718 2 6 -2 5 62.24 31.01 4.22 o
1719 3 0 -7 5 0.56 -0.40 1.67 <
1720 3 0 -7 6 50.35 64.93 13.45 o
1721 3 0 -6 4 108.20 77.33 11.96 o
1722 3 0 -6 5 0.50 -0.69 2.37 <
1723 3 0 -6 6 69.15 40.37 10.32 o
1724 3 0 -6 7 1.13 4.61 4.62 <
1725 3 0 -6 8 11.16 9.03 6.35 <
1726 3 0 -6 9 2.10 1.05 2.95 <
1727 3 0 -5 3 27.59 29.04 6.35 o
1728 3 0 -5 4 121.39 128.25 14.48 o
1729 3 0 -5 5 0.56 -2.31 1.57 <
1730 3 0 -5 6 25.40 4.36 3.33 <
1731 3 0 -5 7 2.39 2.25 3.17 <
1732 3 0 -5 8 27.56 37.75 11.53 o
1733 3 0 -5 9 0.75 2.29 4.18 <
1734 3 0 -5 10 0.90 -3.33 5.15 <
1735 3 0 -5 11 0.46 1.25 2.06 <
1736 3 0 -4 3 10.75 11.60 5.91 <
1737 3 0 -4 4 151.74 136.78 13.93 o
1738 3 0 -4 5 0.56 -1.74 2.30 <
1739 3 0 -4 6 85.10 64.61 12.09 o
1740 3 0 -4 7 1.38 4.46 3.89 <
1741 3 0 -4 8 3.03 0.47 1.70 <
1742 3 0 -4 9 6.06 0.24 2.78 <
1743 3 0 -4 10 32.36 29.64 10.69 <
1744 3 0 -4 11 0.85 2.40 3.40 <
1745 3 0 -3 2 190.11 137.39 11.26 o
1746 3 0 -3 3 197.38 248.10 16.70 o
1747 3 0 -3 4 222.28 247.88 17.70 o
1748 3 0 -3 6 120.69 141.89 17.27 o
1749 3 0 -3 7 10.67 1.75 2.49 <
1750 3 0 -3 8 73.18 142.52 20.53 o
1751 3 0 -3 9 1.48 8.95 5.83 <
1752 3 0 -2 1 241.05 302.72 13.04 o
1753 3 0 -2 2 104.70 151.20 10.02 o
1754 3 0 -2 3 40.30 43.03 7.44 o
1755 3 0 -2 4 780.77 763.84 30.89 o
1756 3 0 -2 5 128.22 163.13 16.79 o
1757 3 0 -2 6 583.95 862.24 41.01 o
1758 3 0 -1 1 14.60 14.12 2.06 o
1759 3 0 -1 2 2693.23 3167.04 43.17 o
1760 3 0 -1 3 219.61 209.40 13.48 o
1761 3 0 -1 4 844.54 1093.72 36.39 o
1762 3 0 1 -1 14.61 19.41 2.63 o
1763 3 0 1 -2 2690.68 3129.52 41.91 o
1764 3 0 1 -3 219.32 217.22 13.76 o
1765 3 0 1 -4 844.36 1091.94 35.57 o
1766 3 0 2 -1 241.19 303.96 13.00 o
1767 3 0 2 -2 103.22 153.76 9.92 o
1768 3 0 2 -3 40.32 41.12 7.17 o
1769 3 0 2 -4 784.07 756.47 29.10 o
1770 3 0 2 -5 127.92 165.65 16.58 o
1771 3 0 2 -6 583.00 852.13 39.24 o
1772 3 0 2 -7 0.54 6.22 5.05 <
1773 3 0 3 -2 191.53 131.38 10.61 o
1774 3 0 3 -3 197.61 242.90 15.78 o
1775 3 0 3 -4 221.96 250.14 16.58 o
1776 3 0 3 -6 120.34 154.35 16.92 o
1777 3 0 3 -7 10.53 2.37 2.57 <
1778 3 0 3 -8 72.82 145.58 17.72 o
1779 3 0 3 -9 1.44 -2.16 3.16 <
1780 3 0 3 -10 4.25 4.76 3.95 <
1781 3 0 4 -3 10.82 14.08 6.64 <
1782 3 0 4 -4 152.55 144.46 13.53 o
1783 3 0 4 -5 0.53 -2.74 2.77 <
1784 3 0 4 -6 85.88 86.52 12.30 o
1785 3 0 4 -7 1.37 6.03 3.83 <
1786 3 0 4 -8 3.52 4.05 3.39 <
1787 3 0 4 -9 5.92 -1.88 2.67 <
1788 3 0 4 -10 32.18 35.95 10.24 o
1789 3 0 4 -11 0.88 -4.82 4.70 <
1790 3 0 4 -12 23.42 0.02 3.43 <
1790 1 5 4 6 23.42 0.02 3.43 <
1791 3 0 5 -4 122.03 140.54 13.85 o
1792 3 0 5 -5 0.49 -3.02 2.28 <
1793 3 0 5 -6 25.23 7.97 3.94 <
1794 3 0 5 -7 2.37 0.27 1.77 <
1795 3 0 5 -8 27.10 58.25 12.09 o
1796 3 0 5 -9 0.76 0.15 2.45 <
1797 3 0 5 -10 0.97 -0.04 2.26 <
1798 3 0 5 -11 0.46 -1.94 2.50 <
1799 3 0 6 -5 0.46 0.82 1.38 <
1800 3 0 6 -6 69.13 64.04 11.18 o
1801 3 0 6 -7 1.16 11.18 4.50 <
1802 3 0 6 -8 11.09 13.31 5.82 <
1803 3 0 6 -9 2.12 3.12 3.29 <
1804 3 0 7 -6 50.40 81.04 13.05 o
1805 3 -1 -7 6 18.81 13.83 6.71 <
1806 3 -1 -7 5 22.74 5.85 3.08 <
1807 3 1 -7 5 26.37 9.79 4.23 <
1808 3 1 -7 6 19.86 12.22 5.38 <
1809 3 -1 -6 9 4.37 5.84 5.26 <
1810 3 -1 -6 8 36.65 21.27 9.25 <
1811 3 -1 -6 7 24.30 11.64 5.87 <
1811 2 -2 6 6 24.30 11.64 5.87 <
1812 3 -1 -6 6 21.04 10.80 5.05 <
1813 3 -1 -6 5 3.49 2.68 2.68 <
1814 3 -1 -6 4 31.99 13.64 5.41 <
1815 3 1 -6 4 22.56 18.30 5.57 o
1816 3 1 -6 5 0.22 2.61 2.04 <
1817 3 1 -6 6 26.33 13.31 5.20 <
1818 3 1 -6 7 25.48 14.81 6.62 <
1819 3 1 -6 8 36.43 27.42 9.62 <
1820 3 1 -6 9 3.92 21.81 9.85 <
1821 3 -1 -5 11 9.34 11.12 7.48 <
1822 3 -1 -5 10 32.78 28.76 11.65 <
1823 3 -1 -5 9 15.15 19.24 9.06 <
1824 3 -1 -5 8 10.34 6.40 4.99 <
1825 3 -1 -5 7 14.50 7.89 4.97 <
1825 2 -2 5 6 14.50 7.89 4.97 <
1826 3 -1 -5 6 31.97 23.34 8.46 <
1827 3 -1 -5 5 49.45 46.56 10.36 o
1828 3 -1 -5 4 125.28 145.44 17.22 o
1829 3 -1 -5 3 73.41 90.65 11.69 o
1830 3 1 -5 3 61.16 127.14 12.52 o
1831 3 1 -5 4 174.99 161.61 15.72 o
1832 3 1 -5 5 59.89 60.14 10.48 o
1833 3 1 -5 6 45.04 18.46 6.75 <
1834 3 1 -5 7 6.59 10.63 5.71 <
1835 3 1 -5 8 9.38 7.92 5.32 <
1836 3 1 -5 9 23.52 50.58 14.04 o
1837 3 1 -5 10 29.01 48.82 13.22 o
1838 3 1 -5 11 9.60 54.40 15.81 o
1839 3 -1 -4 12 31.67 32.66 13.30 <
1840 3 -1 -4 11 7.36 2.91 3.27 <
1841 3 -1 -4 10 7.95 28.36 11.46 <
1842 3 -1 -4 9 8.10 3.16 3.34 <
1843 3 -1 -4 8 43.53 26.50 9.61 <
1844 3 -1 -4 7 44.54 36.61 10.52 o
1844 2 -2 4 6 44.54 36.61 10.52 o
1845 3 -1 -4 6 25.77 -1.14 4.30 <
1846 3 -1 -4 5 3.73 5.78 3.32 <
1847 3 -1 -4 4 75.47 58.70 9.46 o
1848 3 -1 -4 3 242.22 298.47 20.86 o
1849 3 -1 -4 2 387.00 307.35 19.95 o
1850 3 1 -4 3 290.78 431.48 22.03 o
1851 3 1 -4 4 68.55 95.94 11.62 o
1852 3 1 -4 5 5.46 8.07 3.44 <
1853 3 1 -4 6 45.64 18.18 5.05 o
1854 3 1 -4 7 58.21 44.96 10.27 o
1855 3 1 -4 8 56.71 40.99 11.51 o
1856 3 1 -4 9 10.21 30.41 10.04 o
1857 3 1 -4 10 5.26 7.12 4.82 <
1858 3 -1 -3 10 39.01 47.69 14.50 o
1859 3 -1 -3 9 45.26 48.13 13.06 o
1860 3 -1 -3 8 11.37 5.24 4.44 <
1861 3 -1 -3 7 58.75 44.22 10.88 o
1861 2 -2 3 6 58.75 44.22 10.88 o
1862 3 -1 -3 6 111.40 177.97 21.01 o
1863 3 -1 -3 5 283.27 242.65 21.40 o
1864 3 -1 -3 4 630.50 632.28 30.73 o
1865 3 -1 -3 3 82.11 102.11 11.05 o
1866 3 -1 -3 2 307.95 287.14 17.63 o
1867 3 1 -3 2 270.75 306.05 15.59 o
1868 3 1 -3 3 148.87 169.62 12.64 o
1869 3 1 -3 4 542.29 642.72 27.07 o
1870 3 1 -3 5 289.01 303.43 21.80 o
1871 3 1 -3 6 111.39 150.58 17.15 o
1872 3 1 -3 7 40.86 47.88 9.91 o
1873 3 1 -3 8 5.07 9.95 6.73 <
1874 3 -1 -2 7 181.67 155.42 20.76 o
1874 2 -2 2 6 181.67 155.42 20.76 o
1875 3 -1 -2 6 164.04 224.13 23.46 o
1876 3 -1 -2 5 59.42 77.81 12.22 o
1877 3 -1 -2 4 250.05 322.23 22.16 o
1878 3 -1 -2 3 1094.86 1058.36 33.41 o
1879 3 -1 -2 2 754.98 788.26 26.45 o
1880 3 -1 -2 1 137.07 131.09 9.88 o
1881 3 1 -2 1 343.30 248.41 9.84 o
1881 2 -1 2 -1 343.30 248.41 9.84 o
1882 3 1 -2 2 865.48 892.13 21.83 o
1883 3 1 -2 3 1196.61 1888.37 36.24 o
1884 3 1 -2 4 269.92 317.61 18.88 o
1885 3 1 -2 5 75.31 86.50 11.24 o
1886 3 -1 -1 4 846.11 767.10 34.95 o
1887 3 -1 -1 3 314.70 312.98 19.47 o
1888 3 -1 -1 2 133.25 112.91 8.89 o
1889 3 -1 -1 1 724.40 651.49 17.43 o
1890 3 1 -1 2 106.71 153.90 8.34 o
1891 3 1 1 -5 293.53 240.71 19.39 o
1892 3 1 1 -4 818.46 772.85 32.35 o
1893 3 1 1 -3 307.48 297.41 17.02 o
1894 3 1 1 -2 137.50 111.45 8.55 o
1895 3 1 1 -1 718.49 649.69 16.95 o
1896 3 -1 1 -2 104.01 154.88 7.67 o
1897 3 -1 1 -3 344.36 784.70 25.28 o
1898 3 1 2 -8 291.35 248.19 25.14 o
1899 3 1 2 -7 182.56 161.35 18.75 o
1899 2 2 -2 -6 182.56 161.35 18.75 o
1900 3 1 2 -6 157.71 152.14 17.56 o
1901 3 1 2 -5 59.45 64.88 9.48 o
1902 3 1 2 -4 259.96 288.59 19.56 o
1903 3 1 2 -3 1100.92 1049.55 31.43 o
1904 3 1 2 -2 759.88 767.72 24.69 o
1905 3 1 2 -1 128.61 133.21 9.36 o
1906 3 -1 2 -2 858.63 891.38 21.33 o
1907 3 -1 2 -3 1190.57 1872.98 35.88 o
1908 3 -1 2 -4 261.27 324.48 17.91 o
1909 3 -1 2 -5 75.72 96.94 12.25 o
1910 3 -1 2 -6 140.57 193.84 19.55 o
1911 3 -1 2 -7 202.79 288.39 27.92 o
1912 3 1 3 -10 39.25 41.31 11.78 o
1913 3 1 3 -9 45.85 62.64 13.02 o
1914 3 1 3 -8 11.13 6.35 3.90 <
1915 3 1 3 -7 58.22 43.19 9.30 o
1915 2 2 -3 -6 58.22 43.19 9.30 o
1916 3 1 3 -6 112.05 158.90 17.97 o
1917 3 1 3 -5 286.30 242.08 18.67 o
1918 3 1 3 -4 632.82 613.98 28.23 o
1919 3 1 3 -3 79.86 107.64 10.93 o
1920 3 1 3 -2 310.73 287.66 16.85 o
1921 3 -1 3 -3 152.21 154.81 11.67 o
1922 3 -1 3 -4 539.94 650.62 25.27 o
1923 3 -1 3 -5 285.82 309.07 19.74 o
1924 3 -1 3 -6 111.68 173.63 17.29 o
1925 3 -1 3 -7 41.14 42.96 9.06 o
1926 3 -1 3 -8 5.08 10.27 4.73 <
1927 3 -1 3 -9 79.70 211.47 26.45 o
1928 3 -1 3 -10 50.19 77.53 18.43 o
1929 3 1 4 -12 31.61 40.45 12.16 o
1930 3 1 4 -11 7.46 7.17 5.08 <
1931 3 1 4 -10 7.97 15.31 7.40 <
1932 3 1 4 -9 7.92 2.67 2.55 <
1933 3 1 4 -8 42.68 35.53 8.88 o
1934 3 1 4 -7 45.87 44.85 9.93 o
1934 2 2 -4 -6 45.87 44.85 9.93 o
1935 3 1 4 -6 26.68 2.57 3.47 <
1936 3 1 4 -5 3.62 5.89 1.79 o
1937 3 1 4 -4 74.71 65.66 9.24 o
1938 3 1 4 -3 241.31 302.92 19.71 o
1939 3 -1 4 -3 293.72 418.74 21.08 o
1940 3 -1 4 -4 69.01 90.31 10.81 o
1941 3 -1 4 -5 5.40 11.51 3.78 o
1942 3 -1 4 -6 43.84 19.74 3.64 o
1943 3 -1 4 -7 57.70 52.95 9.97 o
1944 3 -1 4 -8 56.63 47.15 10.30 o
1945 3 -1 4 -9 10.17 37.79 10.16 o
1946 3 -1 4 -10 5.06 5.02 4.04 <
1947 3 -1 4 -11 10.63 15.65 7.87 <
1948 3 -1 4 -12 29.65 53.12 15.43 o
1949 3 1 5 -11 9.09 18.71 7.74 <
1950 3 1 5 -10 32.42 49.79 12.06 o
1951 3 1 5 -9 14.98 33.74 9.58 o
1952 3 1 5 -8 10.40 12.28 5.56 <
1953 3 1 5 -7 14.18 17.54 6.60 <
1953 2 2 -5 -6 14.18 17.54 6.60 <
1954 3 1 5 -6 31.34 25.72 7.43 o
1955 3 1 5 -5 48.62 61.76 10.51 o
1956 3 1 5 -4 126.64 145.57 15.00 o
1957 3 -1 5 -4 172.71 173.35 15.46 o
1958 3 -1 5 -5 61.88 66.62 9.37 o
1959 3 -1 5 -6 45.38 27.49 6.33 o
1960 3 -1 5 -7 6.76 16.42 5.59 <
1961 3 -1 5 -8 9.51 15.27 5.50 <
1962 3 -1 5 -9 23.91 63.28 12.52 o
1963 3 -1 5 -10 29.41 60.49 12.59 o
1964 3 -1 5 -11 10.11 35.78 11.03 o
1965 3 1 6 -9 4.33 8.93 5.40 <
1966 3 1 6 -8 36.62 54.03 12.53 o
1967 3 1 6 -7 23.91 32.80 9.13 o
1967 2 2 -6 -6 23.91 32.80 9.13 o
1968 3 1 6 -6 21.29 18.42 6.41 <
1969 3 1 6 -5 3.48 2.10 2.01 <
1970 3 -1 6 -6 26.23 19.19 5.42 o
1971 3 -1 6 -7 25.95 30.14 7.65 o
1972 3 -1 6 -8 36.51 64.43 11.77 o
1973 3 -1 6 -9 4.13 29.60 8.94 o
1974 3 1 7 -6 18.70 16.31 5.72 <
1975 4 3 7 -2 2.71 1.51 3.05 <
1975 3 -2 -7 5 2.71 1.51 3.05 <
1976 3 2 -7 5 1.48 2.88 3.21 <
1977 3 -2 -6 8 2.39 2.79 3.95 <
1978 3 -2 -6 7 5.88 5.35 4.54 <
1979 3 -2 -6 6 31.04 10.24 6.15 <
1979 2 -1 6 7 31.04 10.24 6.15 <
1980 4 3 6 -2 98.02 71.28 13.38 o
1980 3 -2 -6 5 98.02 71.28 13.38 o
1981 3 -2 -6 4 1.19 4.87 3.29 <
1982 3 2 -6 4 7.23 6.89 3.14 <
1983 3 2 -6 5 106.19 87.14 12.10 o
1984 3 2 -6 6 1.22 4.61 3.24 <
1985 3 2 -6 7 19.96 12.64 5.15 <
1986 3 2 -6 8 3.98 -0.22 2.49 <
1987 3 -2 -5 10 0.06 -2.83 2.11 <
1988 3 -2 -5 9 13.77 16.32 8.37 <
1989 3 -2 -5 8 0.81 0.52 2.89 <
1990 3 -2 -5 7 84.94 71.00 14.97 o
1991 3 -2 -5 6 14.37 10.64 5.33 <
1991 2 -1 5 7 14.37 10.64 5.33 <
1992 4 3 5 -2 3.23 -0.19 1.43 <
1992 3 -2 -5 5 3.23 -0.19 1.43 <
1993 3 -2 -5 4 13.60 2.98 1.92 <
1994 3 -2 -5 3 210.26 222.68 20.60 o
1995 3 2 -5 3 231.41 202.21 14.71 o
1996 3 2 -5 4 5.43 6.27 2.78 <
1997 3 2 -5 5 7.66 2.77 2.59 <
1998 3 2 -5 6 5.09 17.42 5.72 o
1999 3 2 -5 7 107.10 134.65 19.23 o
2000 3 2 -5 8 1.59 8.29 5.72 <
2001 3 2 -5 9 25.10 25.10 9.15 <
2002 3 2 -5 10 0.33 1.68 2.88 <
2003 3 -2 -4 12 0.71 -0.23 2.66 <
2004 3 -2 -4 11 28.18 18.10 10.26 <
2005 3 -2 -4 10 3.14 -5.01 5.24 <
2006 3 -2 -4 9 58.16 61.22 16.45 o
2007 3 -2 -4 8 1.63 0.04 1.84 <
2008 3 -2 -4 7 9.59 12.96 6.62 <
2009 3 -2 -4 6 56.09 18.37 6.75 <
2009 2 -1 4 7 56.09 18.37 6.75 <
2010 4 3 4 -2 577.86 446.08 32.86 o
2010 3 -2 -4 5 577.86 446.08 32.86 o
2011 3 -2 -4 4 2.79 1.40 1.76 <
2012 3 -2 -4 3 131.45 169.71 17.08 o
2013 3 -2 -4 2 116.32 136.64 14.15 o
2014 3 2 -4 3 144.82 163.94 12.44 o
2015 3 2 -4 4 0.16 1.90 1.22 <
2016 3 2 -4 5 498.57 600.15 28.97 o
2017 3 2 -4 6 3.35 11.67 8.94 <
2018 3 2 -4 7 9.08 21.46 6.55 o
2019 3 2 -4 8 1.89 -1.37 2.08 <
2020 3 2 -4 9 72.16 107.34 17.12 o
2021 3 -2 -3 10 3.04 -6.42 6.34 <
2022 3 -2 -3 9 30.03 44.57 13.52 o
2023 3 -2 -3 8 6.50 -1.37 2.61 <
2024 3 -2 -3 7 297.64 296.09 30.87 o
2025 3 -2 -3 6 60.66 30.05 8.79 o
2025 2 -1 3 7 60.66 30.05 8.79 o
2026 4 3 3 -2 8.56 0.71 3.10 <
2026 3 -2 -3 5 8.56 0.71 3.10 <
2027 3 -2 -3 4 3.63 -0.37 1.36 <
2028 3 -2 -3 3 882.63 1012.69 38.14 o
2029 3 -2 -3 2 32.58 31.03 6.30 o
2030 3 -2 -3 1 565.29 444.04 22.41 o
2031 3 2 -3 2 72.23 69.67 6.63 o
2031 2 -2 3 -2 72.23 69.67 6.63 o
2032 3 2 -3 3 855.28 1018.95 28.00 o
2033 3 2 -3 4 6.85 -5.60 3.21 <
2034 3 2 -3 5 7.44 -3.82 4.67 <
2035 3 2 -3 6 9.31 32.59 7.77 o
2036 3 2 -3 7 327.89 535.50 33.90 o
2037 3 -2 -2 8 4.77 3.07 3.20 <
2038 3 -2 -2 7 11.47 11.38 5.86 <
2039 3 -2 -2 6 242.09 114.31 17.64 o
2039 2 -1 2 7 242.09 114.31 17.64 o
2040 4 3 2 -2 738.40 515.09 35.65 o
2040 3 -2 -2 5 738.40 515.09 35.65 o
2041 3 -2 -2 4 72.77 54.70 10.22 o
2042 3 -2 -2 3 52.47 56.64 8.63 o
2043 3 -2 -2 2 100.79 93.55 9.62 o
2044 3 -2 -2 1 795.19 711.97 25.85 o
2045 3 2 -2 2 266.58 212.63 9.14 o
2045 2 -2 2 -2 266.58 212.63 9.14 o
2046 3 2 -2 3 47.97 56.55 6.11 o
2047 3 2 -2 4 67.47 98.70 10.23 o
2048 4 3 1 -2 128.01 9.30 4.32 <
2048 3 -2 -1 5 128.01 9.30 4.32 <
2049 3 -2 -1 4 31.86 9.39 4.38 <
2050 3 -2 -1 3 79.44 116.90 14.98 o
2051 3 -2 -1 2 201.44 166.68 12.83 o
2052 3 -2 -1 1 1662.52 1628.67 31.62 o
2053 3 -2 -1 0 9.92 -1.95 1.80 <
2054 3 2 0 -2 0.31 0.13 0.69 <
2055 3 -2 0 1 303.74 292.48 14.00 o
2056 3 2 0 -1 303.74 278.80 11.79 o
2057 4 -3 -1 2 127.98 -6.23 6.50 <
2057 3 2 1 -5 127.98 -6.23 6.50 <
2058 3 2 1 -4 32.45 10.95 4.24 <
2059 3 2 1 -3 85.76 72.42 9.09 o
2060 3 2 1 -2 205.09 156.28 11.33 o
2061 3 2 1 -1 1701.35 1623.18 30.60 o
2062 3 2 1 0 9.79 0.32 1.24 <
2063 3 -2 1 -3 194.99 105.39 9.63 o
2064 3 2 2 -8 4.86 -1.33 2.47 <
2065 3 2 2 -7 10.58 14.71 5.52 <
2066 3 2 2 -6 241.12 110.20 14.11 o
2066 2 1 -2 -7 241.12 110.20 14.11 o
2067 4 -3 -2 2 743.17 569.13 29.29 o
2067 3 2 2 -5 743.17 569.13 29.29 o
2068 3 2 2 -4 72.44 55.28 8.76 o
2069 3 2 2 -3 51.07 49.93 7.28 o
2070 3 2 2 -2 101.19 94.71 9.21 o
2071 3 2 2 -1 775.37 706.77 23.95 o
2072 3 -2 2 -3 49.12 57.93 5.07 o
2073 3 -2 2 -4 67.93 89.71 8.45 o
2074 3 -2 2 -5 688.20 1078.57 38.18 o
2075 3 -2 2 -6 0.93 9.57 5.66 <
2076 3 -2 2 -7 15.68 31.77 8.35 o
2077 3 2 3 -10 2.97 -0.79 1.80 <
2078 3 2 3 -9 28.31 31.33 8.57 o
2079 3 2 3 -8 6.38 0.00 1.03 <
2080 3 2 3 -7 296.09 336.12 27.16 o
2081 3 2 3 -6 61.02 37.02 8.29 o
2081 2 1 -3 -7 61.02 37.02 8.29 o
2082 4 -3 -3 2 8.92 1.49 2.02 <
2082 3 2 3 -5 8.92 1.49 2.02 <
2083 3 2 3 -4 3.33 0.22 0.78 <
2084 3 2 3 -3 879.77 1012.98 36.02 o
2085 3 2 3 -2 33.39 27.75 5.29 o
2086 3 -2 3 -3 861.39 1018.27 26.42 o
2087 3 -2 3 -4 7.17 -1.06 2.03 <
2088 3 -2 3 -5 7.33 11.89 1.97 o
2089 3 -2 3 -6 9.16 30.10 6.90 o
2090 3 -2 3 -7 328.65 519.66 30.45 o
2091 3 -2 3 -8 7.53 2.10 2.44 <
2092 3 -2 3 -9 29.36 59.65 13.60 o
2093 3 -2 3 -10 8.20 53.03 15.81 o
2094 3 2 4 -12 0.71 -0.48 1.77 <
2095 3 2 4 -11 28.30 33.39 9.76 o
2096 3 2 4 -10 3.08 -0.15 2.14 <
2097 3 2 4 -9 57.99 97.49 17.70 o
2098 3 2 4 -8 1.66 1.26 1.37 <
2099 3 2 4 -7 9.15 17.37 6.03 <
2100 3 2 4 -6 54.53 26.18 7.48 o
2100 2 1 -4 -7 54.53 26.18 7.48 o
2101 4 -3 -4 2 574.75 514.37 30.46 o
2101 3 2 4 -5 574.75 514.37 30.46 o
2102 3 2 4 -4 2.78 1.86 1.58 <
2103 3 2 4 -3 131.11 166.00 15.24 o
2104 3 2 4 -2 115.55 142.67 13.44 o
2105 3 -2 4 -4 0.22 2.38 1.66 <
2106 3 -2 4 -5 500.53 611.34 25.32 o
2107 3 -2 4 -6 3.61 5.60 2.71 <
2108 3 -2 4 -7 9.76 23.81 5.67 o
2109 3 -2 4 -8 2.01 1.96 1.88 <
2110 3 -2 4 -9 71.95 124.65 16.87 o
2111 3 -2 4 -10 2.23 19.61 6.93 <
2112 3 -2 4 -11 30.40 77.19 16.07 o
2113 3 -2 4 -12 0.01 0.86 2.42 <
2114 3 2 5 -10 0.05 -2.15 2.99 <
2115 3 2 5 -9 14.30 27.19 8.85 o
2116 3 2 5 -8 0.86 2.09 1.96 <
2117 3 2 5 -7 85.19 112.93 17.84 o
2118 3 2 5 -6 14.67 21.00 6.79 o
2118 2 1 -5 -7 14.67 21.00 6.79 o
2119 4 -3 -5 2 3.12 3.53 3.86 <
2119 3 2 5 -5 3.12 3.53 3.86 <
2120 3 2 5 -4 13.48 4.41 2.73 <
2121 3 2 5 -3 211.56 222.58 18.92 o
2122 3 -2 5 -5 7.63 2.00 2.26 <
2123 3 -2 5 -6 4.90 19.58 5.02 o
2124 3 -2 5 -7 106.66 151.57 15.98 o
2125 3 -2 5 -8 1.59 6.76 3.65 <
2126 3 -2 5 -9 24.38 36.11 8.64 o
2127 3 -2 5 -10 0.34 -0.91 2.27 <
2128 3 2 6 -8 2.39 4.63 3.80 <
2129 3 2 6 -7 6.28 19.93 7.18 <
2130 3 2 6 -6 31.47 16.36 6.12 <
2130 2 1 -6 -7 31.47 16.36 6.12 <
2131 4 -3 -6 2 99.25 92.50 14.21 o
2131 3 2 6 -5 99.25 92.50 14.21 o
2132 3 -2 6 -6 1.14 6.86 3.53 <
2133 3 -2 6 -7 19.28 26.01 6.08 o
2134 3 -2 6 -8 3.95 5.18 3.22 <
2135 3 -3 -6 7 17.90 7.93 5.52 <
2136 3 -3 -6 6 7.75 -0.62 3.57 <
2137 3 -3 -6 5 4.21 3.37 3.57 <
2138 3 -3 -6 4 4.39 6.84 4.33 <
2139 3 3 -6 4 6.55 9.36 3.42 <
2140 3 3 -6 5 3.65 2.39 1.92 <
2141 3 3 -6 6 11.55 6.95 3.71 <
2142 3 3 -6 7 23.22 20.13 7.94 <
2143 3 -3 -5 9 17.30 8.17 6.68 <
2144 3 -3 -5 8 2.76 -7.28 6.46 <
2145 3 -3 -5 7 17.43 21.28 9.26 <
2146 3 -3 -5 6 17.48 14.97 6.69 <
2147 3 -3 -5 5 55.77 48.54 11.73 o
2148 3 -3 -5 4 33.85 16.93 6.17 <
2149 3 -3 -5 3 9.52 3.74 2.47 <
2150 3 3 -5 3 15.69 10.80 3.10 o
2151 3 3 -5 4 40.51 25.32 5.32 o
2152 3 3 -5 5 77.76 69.61 10.31 o
2153 3 3 -5 6 28.88 42.55 9.42 o
2154 3 3 -5 7 25.42 40.47 9.83 o
2155 3 3 -5 8 3.71 -0.97 3.31 <
2156 3 3 -5 9 16.70 33.55 9.70 o
2157 3 -3 -4 11 1.45 6.63 7.93 <
2158 3 -3 -4 10 0.52 3.38 4.71 <
2159 3 -3 -4 9 8.06 16.36 10.47 <
2160 3 -3 -4 8 22.15 9.46 6.37 <
2161 3 -3 -4 7 52.62 40.15 11.53 o
2162 3 -3 -4 6 3.67 1.17 1.21 <
2163 3 -3 -4 5 0.91 2.88 2.87 <
2164 3 -3 -4 4 10.19 1.91 2.03 <
2165 3 -3 -4 3 160.06 136.75 16.51 o
2166 4 2 4 -5 554.64 137.20 16.73 o
2166 3 -3 -4 2 554.64 137.20 16.73 o
2167 3 3 -4 2 102.06 114.21 8.53 o
2168 3 3 -4 3 181.67 339.24 17.18 o
2169 3 3 -4 4 12.41 5.37 2.50 <
2170 3 3 -4 5 6.26 0.61 0.98 <
2171 3 3 -4 6 3.57 2.81 2.53 <
2172 3 3 -4 7 72.72 90.66 13.31 o
2173 3 3 -4 8 31.44 38.99 9.42 o
2174 3 -3 -3 10 5.96 1.26 3.57 <
2175 3 -3 -3 9 25.75 26.26 12.30 <
2176 3 -3 -3 8 8.23 -1.59 4.05 <
2177 3 -3 -3 7 31.83 22.33 9.47 <
2178 3 -3 -3 6 33.50 22.72 8.07 <
2179 3 -3 -3 5 52.25 107.83 16.56 o
2180 3 -3 -3 4 69.45 53.34 10.01 o
2181 3 -3 -3 3 51.56 40.75 8.44 o
2182 4 2 3 -5 8.79 13.69 4.44 o
2182 3 -3 -3 2 8.79 13.69 4.44 o
2183 3 -3 -3 1 187.93 163.59 15.40 o
2184 3 3 -3 2 5.10 6.83 1.70 o
2185 3 3 -3 3 54.27 114.75 8.91 o
2186 3 3 -3 4 73.30 83.41 8.93 o
2187 3 3 -3 5 72.83 79.71 10.30 o
2188 3 -3 -2 8 7.75 7.82 5.09 <
2189 3 -3 -2 7 65.43 32.01 10.67 o
2190 3 -3 -2 6 5.45 3.10 3.12 <
2191 3 -3 -2 5 16.20 113.09 17.49 o
2192 3 -3 -2 4 30.10 24.39 7.12 o
2193 3 -3 -2 3 361.01 293.32 21.95 o
2194 4 2 2 -5 718.56 280.27 20.17 o
2194 3 -3 -2 2 718.56 280.27 20.17 o
2195 3 -3 -2 1 210.80 218.67 15.20 o
2196 3 -3 -2 0 127.40 96.74 9.98 o
2197 3 -3 -1 5 352.04 555.12 41.12 o
2198 3 -3 -1 4 230.35 149.99 19.06 o
2199 3 -3 -1 3 76.07 73.44 12.81 o
2200 4 2 1 -5 125.48 145.31 13.83 o
2200 3 -3 -1 2 125.48 145.31 13.83 o
2201 3 -3 -1 1 424.57 446.33 20.35 o
2202 3 -3 -1 0 238.59 226.19 13.02 o
2203 3 3 0 -3 794.30 528.58 29.05 o
2204 4 2 0 -5 430.93 162.86 16.04 o
2204 3 -3 0 2 430.93 162.86 16.04 o
2205 4 -2 0 5 430.93 166.69 12.05 o
2205 3 3 0 -2 430.93 166.69 12.05 o
2206 3 -3 0 1 165.18 92.27 10.61 o
2207 3 3 0 -1 165.18 106.63 7.43 o
2208 3 3 0 0 3.32 5.93 2.29 <
2209 3 -3 0 0 3.32 -1.88 1.37 <
2210 3 -3 0 -1 207.41 125.21 6.66 o
2211 3 3 1 -6 25.56 26.25 8.12 o
2212 3 3 1 -5 349.49 572.93 32.60 o
2213 3 3 1 -4 225.78 179.35 14.97 o
2214 3 3 1 -3 75.53 80.90 9.60 o
2215 4 -2 -1 5 125.47 137.73 10.40 o
2215 3 3 1 -2 125.47 137.73 10.40 o
2216 3 3 1 -1 420.03 451.48 18.41 o
2217 3 3 1 0 241.25 229.79 11.65 o
2218 3 3 2 -9 31.31 16.16 7.49 <
2219 3 3 2 -8 7.58 10.67 5.51 <
2220 3 3 2 -7 66.16 53.62 10.82 o
2221 3 3 2 -6 5.70 3.83 3.23 <
2222 3 3 2 -5 16.45 102.08 13.17 o
2223 3 3 2 -4 29.65 27.25 5.66 o
2224 3 3 2 -3 357.63 301.90 18.29 o
2225 4 -2 -2 5 713.88 247.94 16.49 o
2225 3 3 2 -2 713.88 247.94 16.49 o
2226 3 3 2 -1 219.38 217.70 13.73 o
2227 3 -3 2 -3 406.41 695.62 14.83 o
2228 3 -3 2 -4 46.19 35.39 4.11 o
2229 3 -3 2 -5 12.41 11.42 3.81 <
2230 3 -3 2 -6 6.20 3.55 1.43 <
2231 3 3 3 -11 12.83 9.86 5.80 <
2232 3 3 3 -10 5.57 6.69 3.87 <
2233 3 3 3 -9 26.61 19.27 7.06 <
2234 3 3 3 -8 8.28 6.05 3.60 <
2235 3 3 3 -7 30.72 25.25 7.55 o
2236 3 3 3 -6 33.37 30.13 7.20 o
2237 3 3 3 -5 51.97 110.19 13.38 o
2238 3 3 3 -4 72.59 61.93 9.27 o
2239 3 3 3 -3 52.09 43.38 7.35 o
2240 4 -2 -3 5 8.43 4.19 1.76 <
2240 3 3 3 -2 8.43 4.19 1.76 <
2241 3 -3 3 -4 70.75 100.36 7.50 o
2242 3 -3 3 -5 72.10 77.30 7.21 o
2243 3 -3 3 -6 56.87 56.43 7.72 o
2244 3 -3 3 -7 21.13 41.86 7.91 o
2245 3 -3 3 -8 7.30 9.08 3.46 <
2246 3 -3 3 -9 38.67 101.62 16.65 o
2247 3 3 4 -11 1.34 1.55 3.55 <
2248 3 3 4 -10 0.49 6.66 4.98 <
2249 3 3 4 -9 8.35 13.61 6.10 <
2250 3 3 4 -8 21.80 21.13 6.85 o
2251 3 3 4 -7 53.15 53.52 10.41 o
2252 3 3 4 -6 4.02 1.71 1.99 <
2253 3 3 4 -5 1.01 3.07 2.74 <
2254 3 3 4 -4 10.41 2.03 1.86 <
2255 3 3 4 -3 160.45 135.41 14.44 o
2256 4 -2 -4 5 557.74 131.90 13.99 o
2256 3 3 4 -2 557.74 131.90 13.99 o
2257 3 -3 4 -5 6.03 0.89 1.15 <
2258 3 -3 4 -6 3.13 3.80 1.77 <
2259 3 -3 4 -7 72.67 89.84 10.12 o
2260 3 -3 4 -8 31.62 47.01 8.08 o
2261 3 -3 4 -9 22.92 35.51 8.25 o
2262 3 -3 4 -10 1.91 4.78 3.32 <
2263 3 -3 4 -11 3.79 5.69 4.03 <
2264 3 3 5 -9 16.94 14.54 6.11 <
2265 3 3 5 -8 2.71 -1.12 1.42 <
2266 3 3 5 -7 17.96 26.39 8.15 o
2267 3 3 5 -6 17.64 22.72 6.89 o
2268 3 3 5 -5 56.25 63.33 11.23 o
2269 3 3 5 -4 33.03 21.69 6.29 o
2270 3 3 5 -3 9.05 12.23 5.68 <
2271 3 -3 5 -6 28.55 39.83 6.37 o
2272 3 -3 5 -7 25.09 47.83 7.45 o
2273 3 -3 5 -8 3.71 1.41 1.24 <
2274 3 -3 5 -9 16.93 29.57 6.80 o
2275 3 3 6 -7 17.49 16.14 6.76 <
2276 3 3 6 -6 7.56 5.46 4.30 <
2277 3 3 6 -5 4.21 10.10 4.68 <
2278 3 -3 6 -7 23.47 20.91 4.95 o
2279 3 -4 -6 5 4.47 2.21 3.46 <
2280 3 -4 -6 4 21.30 15.89 6.12 <
2281 3 4 -6 4 26.74 40.13 6.92 o
2282 3 -4 -5 8 16.47 17.41 9.53 <
2283 3 -4 -5 7 5.27 1.63 2.81 <
2284 3 -4 -5 6 21.56 29.60 10.10 <
2285 3 -4 -5 5 0.21 5.53 4.62 <
2286 3 -4 -5 4 16.25 40.74 11.03 o
2287 3 -4 -5 3 6.32 7.49 3.90 <
2288 3 4 -5 3 10.42 12.68 3.41 o
2289 3 4 -5 4 23.96 67.98 9.89 o
2290 3 4 -5 5 1.46 4.77 2.74 <
2291 3 4 -5 6 32.03 65.50 11.42 o
2292 3 4 -5 7 8.94 7.10 4.53 <
2293 3 4 -5 8 32.49 45.48 10.94 o
2294 3 -4 -4 10 9.51 1.29 4.07 <
2295 3 -4 -4 9 0.15 0.93 4.75 <
2296 3 -4 -4 8 12.42 5.26 5.44 <
2297 3 -4 -4 7 2.14 5.08 4.49 <
2298 3 -4 -4 6 36.25 60.43 14.69 o
2299 3 -4 -4 5 10.36 6.04 3.89 <
2300 3 -4 -4 4 34.53 29.29 8.64 o
2301 3 -4 -4 3 5.67 5.49 3.44 <
2302 3 -4 -4 2 1.20 0.90 1.41 <
2303 3 4 -4 2 3.75 2.68 1.21 <
2304 3 4 -4 3 5.26 6.18 2.33 <
2305 3 4 -4 4 51.87 86.74 9.94 o
2306 3 4 -4 5 10.57 13.76 4.44 o
2307 3 4 -4 6 72.01 99.71 14.04 o
2308 3 -4 -3 10 0.40 0.34 2.83 <
2309 3 -4 -3 9 3.85 -1.68 4.17 <
2310 3 -4 -3 8 18.38 3.49 3.69 <
2311 3 -4 -3 7 3.59 0.84 1.43 <
2312 3 -4 -3 6 11.24 4.11 3.75 <
2313 3 -4 -3 5 10.72 6.49 4.60 <
2314 3 -4 -3 4 39.34 101.01 14.94 o
2315 3 -4 -3 3 24.79 18.81 6.37 <
2316 3 -4 -3 2 187.35 148.59 16.64 o
2317 3 -4 -3 1 13.42 9.01 3.19 <
2318 3 4 -3 2 170.89 164.73 8.10 o
2319 3 4 -3 3 19.78 19.90 3.50 o
2320 3 -4 -2 8 0.60 -3.44 5.05 <
2321 3 -4 -2 7 2.46 -1.28 2.51 <
2322 3 -4 -2 6 66.94 44.77 14.29 o
2323 3 -4 -2 5 8.19 3.27 2.57 <
2324 3 -4 -2 4 97.63 46.30 10.54 o
2325 3 -4 -2 3 22.01 7.27 3.56 <
2326 3 -4 -2 2 55.70 60.44 9.26 o
2327 3 -4 -2 1 56.02 53.07 8.73 o
2328 3 -4 -2 0 736.22 806.30 32.48 o
2329 3 -4 -1 5 12.01 2.76 3.28 <
2330 3 -4 -1 4 158.34 140.07 20.26 o
2331 3 -4 -1 3 31.56 12.25 5.46 <
2332 3 4 -1 -2 282.52 224.24 24.97 o
2333 3 -4 -1 2 282.52 235.96 19.84 o
2334 3 -4 -1 1 38.99 24.76 4.78 o
2335 3 4 -1 -1 38.99 21.82 3.78 o
2336 3 4 -1 0 0.24 -1.04 0.76 <
2337 3 -4 -1 0 0.24 -3.75 2.38 <
2338 3 -4 -1 -1 44.94 38.37 5.63 o
2339 3 4 0 -4 353.54 339.00 28.50 o
2340 3 4 0 -3 40.77 38.63 7.11 o
2341 3 4 0 -2 6.30 -0.61 0.90 <
2342 3 -4 0 2 6.30 -2.11 2.59 <
2343 3 -4 0 1 2.10 3.97 2.52 <
2344 3 4 0 -1 2.10 2.20 1.26 <
2345 3 4 0 0 295.60 226.05 10.19 o
2346 3 -4 0 0 295.60 233.66 14.92 o
2347 3 -4 0 -2 1.50 9.21 2.26 o
2348 3 4 1 -7 10.28 8.93 5.46 <
2349 3 4 1 -6 152.27 184.37 21.12 o
2350 3 4 1 -5 12.09 4.74 2.79 <
2351 3 4 1 -4 160.27 224.64 16.76 o
2352 3 4 1 -3 32.83 19.06 4.10 o
2353 3 4 1 -2 280.38 237.37 14.53 o
2354 3 4 1 -1 39.47 34.48 5.06 o
2355 3 4 2 -9 4.35 1.86 3.08 <
2356 3 4 2 -8 0.75 -0.47 1.95 <
2357 3 4 2 -7 2.31 1.21 1.70 <
2358 3 4 2 -6 67.66 62.77 11.13 o
2359 3 4 2 -5 8.62 8.26 3.49 <
2360 3 4 2 -4 94.38 67.12 9.15 o
2361 3 4 2 -3 21.73 9.79 3.34 <
2362 3 4 2 -2 57.13 56.48 7.78 o
2363 3 4 2 -1 56.32 44.49 6.79 o
2364 3 -4 2 -5 7.18 7.86 2.25 o
2365 3 -4 2 -6 79.39 69.74 9.54 o
2366 3 -4 2 -7 1.16 1.71 1.65 <
2367 3 4 3 -11 0.14 0.17 1.89 <
2368 3 4 3 -10 0.37 -0.69 2.28 <
2369 3 4 3 -9 3.88 4.31 3.22 <
2370 3 4 3 -8 18.27 20.39 7.10 <
2371 3 4 3 -7 3.64 3.43 2.60 <
2372 3 4 3 -6 10.61 4.21 2.99 <
2373 3 4 3 -5 10.86 6.90 3.43 <
2374 3 4 3 -4 41.21 118.93 13.76 o
2375 3 4 3 -3 23.51 21.61 5.46 o
2376 3 4 3 -2 188.99 168.61 15.06 o
2377 3 -4 3 -5 8.54 11.73 2.18 o
2378 3 -4 3 -6 12.98 4.27 1.67 <
2379 3 -4 3 -7 2.09 5.66 2.51 <
2380 3 -4 3 -8 38.66 28.11 6.12 o
2381 3 -4 3 -9 2.87 3.07 2.79 <
2382 3 -4 3 -10 2.44 2.95 3.01 <
2383 3 4 4 -10 9.41 15.53 7.00 <
2384 3 4 4 -9 0.14 6.11 4.14 <
2385 3 4 4 -8 12.48 13.18 5.62 <
2386 3 4 4 -7 2.27 4.60 3.27 <
2387 3 4 4 -6 36.07 71.64 12.34 o
2388 3 4 4 -5 10.20 9.80 4.56 <
2389 3 4 4 -4 34.94 31.80 7.59 o
2390 3 4 4 -3 5.52 2.90 2.13 <
2391 3 -4 4 -6 72.41 99.39 7.90 o
2392 3 -4 4 -7 2.62 5.07 1.88 <
2393 3 -4 4 -8 10.30 22.52 4.70 o
2394 3 -4 4 -9 1.63 -0.76 1.86 <
2395 3 -4 4 -10 20.30 30.32 7.11 o
2396 3 4 5 -8 16.39 26.76 8.75 o
2397 3 4 5 -7 5.33 3.54 2.88 <
2398 3 4 5 -6 21.91 35.06 9.08 o
2399 3 4 5 -5 0.20 3.42 3.13 <
2400 3 4 5 -4 15.40 57.35 10.50 o
2401 3 -4 5 -7 8.94 7.17 2.45 <
2402 3 -4 5 -8 32.48 40.16 6.13 o
2403 3 4 6 -5 4.50 0.10 1.15 <
2404 3 -5 -5 5 4.59 8.90 6.06 <
2405 3 -5 -5 4 24.02 24.67 9.20 <
2406 3 -5 -5 3 1.55 0.56 1.44 <
2407 3 5 -5 2 8.55 11.20 2.42 o
2408 3 5 -5 3 0.04 3.24 2.01 <
2409 3 5 -5 4 28.71 53.52 9.21 o
2410 3 5 -5 5 8.42 9.64 4.12 <
2411 4 5 4 -7 7.51 3.03 3.93 <
2411 3 -5 -4 7 7.51 3.03 3.93 <
2412 3 -5 -4 6 15.67 3.25 1.92 <
2412 1 0 -4 -12 15.67 3.25 1.92 <
2413 3 -5 -4 5 0.38 2.48 2.33 <
2414 3 -5 -4 4 14.35 8.56 4.91 <
2415 3 -5 -4 3 14.62 24.38 8.06 o
2416 3 -5 -4 2 89.26 113.76 16.25 o
2417 3 5 -4 2 96.11 124.40 8.16 o
2418 3 5 -4 3 22.30 28.86 4.90 o
2419 3 5 -4 4 16.66 15.27 4.52 o
2420 3 -5 -3 9 4.49 0.98 2.46 <
2421 3 -5 -3 8 7.51 3.51 4.97 <
2422 4 5 3 -7 2.10 -0.08 2.39 <
2422 3 -5 -3 7 2.10 -0.08 2.39 <
2423 3 -5 -3 6 68.82 12.49 7.22 <
2423 1 0 -3 -12 68.82 12.49 7.22 <
2424 3 -5 -3 5 6.57 3.89 2.90 <
2425 3 -5 -3 4 55.05 52.28 11.75 o
2426 3 -5 -3 3 23.50 20.46 6.56 o
2427 3 -5 -3 2 22.52 7.02 3.82 <
2428 3 -5 -3 1 11.04 16.38 5.61 <
2429 3 -5 -3 0 127.46 136.12 15.58 o
2430 3 -5 -2 8 23.24 4.86 5.94 <
2431 4 5 2 -7 20.81 3.05 4.40 <
2431 3 -5 -2 7 20.81 3.05 4.40 <
2432 3 -5 -2 6 19.48 -3.20 5.17 <
2432 1 0 -2 -12 19.48 -3.20 5.17 <
2433 3 -5 -2 5 10.18 2.29 3.46 <
2434 3 -5 -2 4 18.17 7.09 5.27 <
2435 3 -5 -2 3 9.24 5.56 1.52 o
2436 3 -5 -2 2 90.10 82.12 11.95 o
2437 3 -5 -2 1 19.69 6.72 3.33 <
2438 3 -5 -2 0 8.30 -1.04 2.11 <
2439 3 -5 -2 -1 11.23 10.18 3.92 <
2440 3 -5 -1 5 25.65 5.94 5.31 <
2441 3 -5 -1 4 77.58 13.22 7.28 <
2442 3 -5 -1 3 4.14 1.53 3.36 <
2443 3 5 -1 -3 4.14 17.37 9.31 <
2444 3 -5 -1 2 29.89 13.77 5.53 <
2445 3 5 -1 -2 29.89 20.71 4.34 o
2446 3 -5 -1 1 11.63 16.83 5.12 o
2447 3 5 -1 -1 11.63 15.22 2.95 o
2448 3 5 -1 0 53.55 23.76 2.76 o
2449 3 -5 -1 0 53.55 24.49 4.93 o
2450 3 -5 -1 -1 31.73 19.12 4.00 o
2451 3 -5 -1 -2 30.37 40.14 6.10 o
2452 3 5 0 -5 0.00 2.47 3.49 <
2453 3 5 0 -4 61.00 34.65 7.31 o
2454 3 5 0 -3 35.10 26.99 4.91 o
2455 3 5 0 -2 91.30 65.44 7.46 o
2456 3 5 0 -1 1.24 0.61 0.93 <
2457 3 -5 0 1 1.24 -2.31 2.01 <
2458 3 -5 0 0 4.21 -4.66 2.73 <
2459 3 -5 0 -1 0.19 -0.15 0.64 <
2460 3 -5 0 -2 80.82 66.77 5.60 o
2461 3 -5 0 -3 53.41 46.74 5.14 o
2462 4 -5 -1 7 0.13 -1.64 2.57 <
2462 3 5 1 -7 0.13 -1.64 2.57 <
2463 3 5 1 -6 87.20 20.02 6.68 <
2463 1 0 1 12 87.20 20.02 6.68 <
2464 3 5 1 -5 24.73 19.33 5.41 o
2465 3 5 1 -4 76.91 68.63 9.23 o
2466 3 5 1 -3 3.73 6.54 2.98 <
2467 3 5 1 -2 30.77 32.92 5.86 o
2468 3 5 1 -1 11.82 19.80 4.25 o
2469 3 5 2 -9 2.65 4.06 4.33 <
2470 3 5 2 -8 23.33 18.62 7.54 <
2471 4 -5 -2 7 20.80 6.10 3.94 <
2471 3 5 2 -7 20.80 6.10 3.94 <
2472 3 5 2 -6 19.65 13.44 4.99 <
2472 1 0 2 12 19.65 13.44 4.99 <
2473 3 5 2 -5 10.16 6.94 3.48 <
2474 3 5 2 -4 19.40 15.38 4.49 o
2475 3 5 2 -3 9.65 19.42 5.21 o
2476 3 5 2 -2 89.81 118.22 12.72 o
2477 3 5 2 -1 19.26 7.14 2.73 <
2478 3 -5 2 -6 37.02 10.10 2.57 o
2478 1 5 2 -6 37.02 10.10 2.57 o
2479 3 -5 2 -7 15.79 7.23 2.99 <
2480 3 5 3 -9 4.40 7.61 5.18 <
2481 3 5 3 -8 7.52 10.07 4.68 <
2482 4 -5 -3 7 2.10 3.09 2.84 <
2482 3 5 3 -7 2.10 3.09 2.84 <
2483 3 5 3 -6 69.55 40.57 8.94 o
2483 1 0 3 12 69.55 40.57 8.94 o
2484 3 5 3 -5 6.42 10.07 4.42 <
2485 3 5 3 -4 54.18 83.61 12.06 o
2486 3 5 3 -3 23.38 36.93 7.58 o
2487 3 5 3 -2 22.25 11.49 3.76 o
2488 3 -5 3 -6 71.34 37.54 3.57 o
2488 1 5 3 -6 71.34 37.54 3.57 o
2489 3 -5 3 -7 4.79 2.83 1.11 <
2490 3 -5 3 -8 12.34 16.01 3.64 o
2491 3 -5 3 -9 8.04 7.34 2.83 <
2492 4 -5 -4 7 7.51 4.87 3.35 <
2492 3 5 4 -7 7.51 4.87 3.35 <
2493 3 5 4 -6 15.56 12.96 5.07 <
2493 1 0 4 12 15.56 12.96 5.07 <
2494 3 5 4 -5 0.32 7.71 4.04 <
2495 3 5 4 -4 14.15 14.61 5.50 <
2496 3 5 4 -3 14.72 36.81 7.93 o
2497 3 -5 4 -7 9.83 9.97 1.97 o
2498 3 5 5 -5 4.76 7.91 4.60 <
2499 3 5 5 -4 24.39 29.27 7.99 o
2500 3 -6 -4 3 3.14 -0.11 2.37 <
2501 3 -6 -4 2 0.60 4.80 4.17 <
2502 3 -6 -4 1 31.71 35.16 9.52 o
2503 3 6 -4 1 32.53 15.36 2.11 o
2504 3 -6 -3 6 1.95 -0.20 1.83 <
2505 3 -6 -3 5 0.13 -0.07 1.71 <
2506 3 -6 -3 4 4.21 3.44 3.81 <
2507 3 -6 -3 3 24.71 19.35 6.39 o
2508 3 -6 -3 2 4.48 25.12 7.87 o
2509 3 -6 -3 1 25.15 45.56 9.68 o
2510 3 -6 -3 0 1.29 -0.41 1.51 <
2511 3 -6 -2 7 1.59 -2.04 4.08 <
2512 3 -6 -2 6 8.78 3.02 3.91 <
2513 3 -6 -2 5 33.97 3.23 4.04 <
2514 3 -6 -2 4 2.07 -0.80 1.96 <
2515 3 -6 -2 3 11.98 5.21 4.02 <
2516 3 -6 -2 2 8.10 11.50 5.64 <
2517 3 6 -2 -2 8.10 10.00 4.64 <
2518 3 6 -2 -1 25.12 19.74 3.54 o
2519 3 -6 -2 1 25.12 24.49 6.24 o
2520 3 -6 -2 0 19.80 18.98 5.24 o
2521 3 -6 -2 -1 35.67 37.78 7.22 o
2522 3 -6 -1 5 1.77 -3.53 3.48 <
2523 3 -6 -1 4 11.51 -1.56 2.89 <
2524 3 6 -1 -4 11.51 2.45 3.63 <
2525 3 -6 -1 3 29.68 6.61 4.66 <
2526 3 6 -1 -3 29.68 17.91 4.86 o
2527 3 -6 -1 2 11.07 14.34 6.49 <
2528 3 6 -1 -2 11.07 22.24 4.74 o
2529 3 6 -1 -1 31.36 27.43 4.08 o
2530 3 -6 -1 1 31.36 14.66 5.13 <
2531 3 -6 -1 0 5.19 -0.87 1.52 <
2532 3 -6 -1 -1 16.03 17.39 4.04 o
2533 3 -6 -1 -2 15.78 14.38 3.46 o
2534 3 6 0 -6 2.01 -1.94 3.87 <
2535 3 6 0 -5 32.09 32.31 8.82 o
2536 3 6 0 -4 4.78 14.10 4.56 o
2537 3 6 0 -3 1.46 -0.92 1.33 <
2538 3 6 0 -2 0.31 15.59 4.35 o
2539 3 -6 0 1 15.93 3.78 2.92 <
2540 3 6 0 -1 15.93 25.99 4.56 o
2541 3 -6 0 0 4.72 1.10 1.17 <
2542 3 -6 0 -1 37.02 9.24 3.08 <
2543 3 -6 0 -2 7.67 -1.23 1.15 <
2544 3 -6 0 -3 0.01 0.61 0.75 <
2545 3 6 1 -8 2.12 1.03 2.59 <
2546 3 6 1 -7 10.33 10.52 6.02 <
2547 3 6 1 -6 1.19 2.28 2.73 <
2548 3 6 1 -5 1.87 0.26 0.74 <
2549 3 6 1 -4 11.26 3.39 2.15 <
2550 3 6 1 -3 29.73 47.52 7.85 o
2551 3 6 1 -2 10.74 31.12 6.32 o
2552 3 6 1 -1 31.10 25.70 4.75 o
2553 3 6 2 -7 1.50 3.58 2.39 <
2554 3 6 2 -6 8.82 7.21 3.77 <
2555 3 6 2 -5 33.30 52.96 9.39 o
2556 3 6 2 -4 2.02 5.52 3.00 <
2557 3 6 2 -3 12.25 7.39 3.14 <
2558 3 6 2 -2 7.81 16.29 4.64 o
2559 3 -6 2 -7 2.98 1.90 0.87 <
2560 3 6 3 -6 2.03 5.75 3.49 <
2561 3 6 3 -5 0.12 -5.10 3.86 <
2562 3 6 3 -4 4.24 6.43 3.56 <
2563 3 6 3 -3 24.76 39.69 8.44 o
2564 3 6 3 -2 4.59 40.53 8.32 o
2565 3 6 4 -3 3.12 4.19 2.89 <
2566 3 7 -2 -2 4.24 3.30 1.70 <
2567 3 -7 -2 2 4.24 3.89 3.20 <
2568 3 7 -2 -1 2.89 2.15 1.11 <
2569 3 -7 -2 1 2.89 1.53 2.33 <
2570 3 -7 -2 0 1.20 0.69 1.61 <
2571 3 -7 -2 -1 5.14 2.55 2.01 <
2572 3 7 -1 -4 3.81 0.55 1.13 <
2573 3 -7 -1 4 3.81 1.58 4.06 <
2574 3 7 -1 -3 3.22 7.69 3.16 <
2575 3 -7 -1 3 3.22 2.49 3.43 <
2576 3 7 -1 -2 1.02 1.23 1.17 <
2577 3 -7 -1 2 1.02 3.60 2.66 <
2578 3 7 -1 -1 19.74 42.07 4.61 o
2579 3 -7 -1 1 19.74 22.39 7.39 o
2580 3 -7 -1 0 3.91 3.86 2.74 <
2581 3 -7 -1 -1 21.04 13.03 3.79 o
2582 3 -7 -1 -2 1.43 -0.28 0.86 <
2583 3 -7 -1 -3 7.28 7.59 2.42 o
2584 3 7 0 -4 0.10 2.31 1.95 <
2585 3 7 0 -3 43.31 89.31 10.99 o
2586 3 7 0 -2 2.90 2.93 2.10 <
2587 3 7 0 -1 13.49 10.47 2.52 o
2588 3 -7 0 0 1.17 1.56 1.83 <
2589 3 -7 0 -1 14.31 2.93 2.13 <
2590 3 -7 0 -2 2.05 1.05 1.22 <
2591 3 -7 0 -3 36.88 27.88 4.13 o
2592 3 -7 0 -4 3.55 0.59 0.58 <
2593 3 7 1 -4 4.01 3.28 2.56 <
2594 3 7 1 -3 3.41 12.30 4.42 <
2595 3 7 1 -2 0.99 1.25 1.37 <
2596 3 7 2 -2 4.42 6.65 2.88 <
2597 4 0 2 4 752.71 657.96 19.47 o
2598 4 0 2 5 122.81 110.36 6.98 o
2599 4 0 3 5 9.31 15.31 4.58 o
2600 4 0 3 6 115.53 104.90 8.80 o
2601 4 0 3 7 10.11 3.91 1.93 <
2602 4 0 3 8 69.90 101.00 6.79 o
2603 4 0 3 9 1.38 0.64 0.28 <
2604 4 0 4 6 82.45 32.05 7.82 o
2605 4 0 4 7 1.31 7.66 3.98 <
2606 4 0 4 8 3.38 1.42 0.60 <
2607 4 0 4 9 5.68 0.46 0.94 <
2608 4 0 4 10 30.90 25.57 3.56 o
2609 4 0 4 11 0.85 -1.83 0.84 <
2610 4 0 5 8 26.01 17.56 6.79 <
2611 4 0 5 9 0.73 0.61 0.63 <
2612 4 0 5 10 0.94 74.31 7.88 o
2613 4 0 5 11 0.44 -3.51 2.03 <
2614 4 -1 -4 -4 65.80 64.64 10.76 o
2615 4 -1 -4 -5 5.24 6.91 3.67 <
2616 4 -1 -4 -6 43.81 -4.80 6.38 <
2617 4 -1 -3 1 247.19 264.34 20.69 o
2618 4 -1 -3 0 86.52 99.79 12.36 o
2619 4 -1 -3 -1 569.75 510.60 28.93 o
2619 1 1 3 1 569.75 510.60 28.93 o
2620 4 -1 -3 -2 259.92 267.35 19.10 o
2621 4 -1 -3 -3 142.91 371.42 20.82 o
2622 4 -1 -3 -4 520.60 533.90 25.82 o
2623 4 -1 -3 -5 277.45 227.34 15.69 o
2624 4 -1 -3 -6 106.94 113.30 10.95 o
2625 4 -1 -3 -7 39.23 11.99 4.11 <
2626 4 -1 -3 -8 4.87 8.93 2.66 o
2627 4 -1 -3 -9 77.19 88.79 8.39 o
2628 4 -1 -3 -10 48.76 23.47 4.31 o
2629 4 -1 -3 -11 22.31 153.22 11.53 o
2630 4 -1 -3 -12 6.34 1.64 2.62 <
2631 4 -1 -2 4 240.05 306.16 20.98 o
2632 4 -1 -2 3 1051.07 1042.62 36.07 o
2633 4 -1 -2 2 724.78 751.83 29.92 o
2634 4 -1 -2 1 131.59 133.04 12.29 o
2635 4 -1 -2 0 185.28 162.01 12.49 o
2636 4 -1 -2 -1 307.54 251.13 15.22 o
2636 1 1 2 1 307.54 251.13 15.22 o
2637 4 -1 -2 -2 830.86 838.33 25.48 o
2638 4 -1 -2 -3 1148.75 3167.04 45.69 o
2639 4 -1 -2 -4 259.12 242.88 12.92 o
2640 4 -1 -2 -5 72.30 70.23 6.92 o
2641 4 -1 -2 -6 129.58 142.40 8.54 o
2642 4 -1 -2 -7 197.42 165.36 8.92 o
2643 4 -1 -2 -8 218.64 202.48 9.76 o
2644 4 -1 -2 -9 12.17 59.74 5.32 o
2645 4 -1 -2 -10 8.80 2.65 0.32 o
2646 4 -1 -2 -11 19.12 22.85 3.32 o
2647 4 -1 -2 -12 5.19 3.91 1.41 <
2648 4 -1 -2 -13 15.56 8.92 1.82 o
2649 4 -1 -2 -14 0.86 1.85 0.75 <
2650 4 -1 -1 5 271.31 251.99 15.12 o
2651 4 -1 -1 4 812.27 849.42 26.71 o
2652 4 -1 -1 3 302.11 285.60 13.85 o
2653 4 -1 -1 2 127.92 104.07 7.85 o
2654 4 -1 -1 1 695.42 727.73 19.67 o
2655 4 -1 -1 0 1364.66 1194.92 22.79 o
2656 4 -1 -1 -1 1485.96 1327.61 23.36 o
2656 1 1 1 1 1485.96 1327.61 23.36 o
2657 4 -1 -1 -2 102.45 122.25 6.80 o
2658 4 -1 -1 -3 323.27 753.34 17.74 o
2659 4 -1 -1 -4 675.49 703.72 17.26 o
2660 4 1 0 -15 0.11 -8.98 3.16 <
2661 4 1 0 -14 12.48 6.78 2.09 o
2662 4 1 0 -13 11.34 9.15 2.60 o
2663 4 1 0 -12 20.35 11.63 2.72 o
2664 4 1 0 -11 3.93 0.87 0.58 <
2665 4 1 0 -10 36.49 45.95 5.73 o
2666 4 1 0 -9 140.55 99.08 6.91 o
2667 4 1 0 -8 193.74 170.48 8.87 o
2668 4 1 0 -7 323.14 249.38 9.95 o
2668 1 2 0 -6 323.14 249.38 9.95 o
2669 4 -1 0 6 32.03 70.54 6.48 o
2670 4 1 0 -6 32.03 44.66 4.19 o
2671 4 1 0 -5 291.92 258.77 9.19 o
2672 4 -1 0 5 291.92 251.22 10.55 o
2673 4 -1 0 4 31.42 34.72 3.48 o
2674 4 1 0 -4 31.42 33.49 3.25 o
2675 4 -1 0 3 33.22 47.93 3.81 o
2676 4 1 0 -3 33.22 49.53 3.89 o
2677 4 -1 0 2 451.77 528.44 12.72 o
2678 4 1 0 -2 451.77 522.86 13.28 o
2679 4 1 1 -15 4.85 1.91 0.95 <
2680 4 1 1 -14 9.63 11.65 4.12 <
2681 4 1 1 -13 3.17 1.59 0.57 <
2682 4 1 1 -12 2.43 -0.56 1.90 <
2683 4 1 1 -11 21.40 10.75 3.83 <
2684 4 1 1 -10 76.94 68.97 9.16 o
2685 4 1 1 -9 97.04 88.03 9.91 o
2686 4 1 1 -8 21.54 35.78 5.60 o
2687 4 1 1 -7 79.76 79.23 8.72 o
2687 1 2 -1 -6 79.76 79.23 8.72 o
2688 4 1 1 -6 211.81 456.61 22.02 o
2689 4 1 1 -5 281.79 257.87 14.45 o
2690 4 1 1 -4 785.72 851.69 25.08 o
2691 4 1 1 -3 295.18 292.87 13.65 o
2692 4 1 1 -2 132.00 97.54 7.48 o
2693 4 1 1 -1 689.75 718.94 19.06 o
2694 4 1 1 0 1367.46 1187.45 22.66 o
2695 4 1 1 1 1485.01 1328.05 22.50 o
2695 1 -1 -1 -1 1485.01 1328.05 22.50 o
2696 4 1 1 2 99.85 128.25 6.55 o
2697 4 1 2 -6 151.40 204.85 17.36 o
2698 4 1 2 -5 57.07 76.68 9.89 o
2699 4 1 2 -4 249.57 302.98 20.12 o
2700 4 1 2 -3 1056.88 1044.51 35.41 o
2701 4 1 2 -2 729.48 765.99 29.26 o
2702 4 1 2 -1 123.46 134.36 11.76 o
2703 4 1 2 0 185.33 168.22 12.51 o
2704 4 1 2 1 305.83 265.33 15.42 o
2704 1 -1 -2 -1 305.83 265.33 15.42 o
2705 4 1 2 2 824.28 845.93 23.53 o
2706 4 1 2 3 1142.95 3152.65 44.97 o
2707 4 1 2 4 250.82 259.21 11.21 o
2708 4 1 2 5 72.69 78.35 6.26 o
2709 4 1 3 -2 298.30 285.12 22.16 o
2710 4 1 3 -1 243.57 275.11 19.94 o
2711 4 1 3 0 84.61 103.75 12.06 o
2712 4 1 3 1 569.34 525.94 27.78 o
2712 1 -1 -3 -1 569.34 525.94 27.78 o
2713 4 1 3 2 257.19 257.33 17.43 o
2714 4 1 3 3 146.12 325.85 18.23 o
2715 4 1 3 4 518.34 554.48 22.27 o
2716 4 1 3 5 274.39 244.76 13.43 o
2717 4 1 3 6 107.21 154.51 10.27 o
2718 4 1 3 7 39.49 42.92 5.13 o
2719 4 1 3 8 4.87 10.18 2.22 o
2720 4 -1 4 11 7.16 4.03 1.34 o
2721 4 -1 4 10 7.65 5.89 2.28 <
2722 4 1 4 1 121.61 122.51 15.75 o
2722 1 -1 -4 -1 121.61 122.51 15.75 o
2723 4 1 4 2 357.40 296.92 21.65 o
2724 4 1 4 3 281.97 888.22 36.13 o
2725 4 1 4 4 66.25 58.54 8.50 o
2726 4 1 4 5 5.19 6.42 3.02 <
2727 4 1 4 6 42.08 7.19 2.21 o
2728 4 1 4 7 55.39 30.23 6.34 o
2729 4 1 4 8 54.36 33.86 5.74 o
2730 4 1 4 9 9.76 17.55 4.62 o
2731 4 1 4 10 4.86 4.68 1.29 o
2732 4 1 5 3 57.89 235.45 21.89 o
2733 4 1 5 4 165.81 91.02 14.66 o
2734 4 1 5 5 59.40 24.34 7.78 o
2735 4 1 5 6 43.57 12.91 7.14 <
2736 4 1 5 7 6.49 3.45 3.56 <
2737 4 1 5 8 9.13 5.56 2.34 <
2738 4 1 5 9 22.96 45.85 7.24 o
2739 4 1 5 10 28.23 41.05 5.99 o
2740 4 1 5 11 9.71 52.95 7.12 o
2741 4 1 6 5 0.19 16.06 6.21 <
2742 4 1 6 6 25.18 7.80 6.11 <
2743 4 1 6 7 24.91 5.36 6.07 <
2744 4 1 6 8 35.05 27.37 6.72 o
2745 4 1 6 9 3.97 17.51 5.03 o
2746 4 -2 -5 2 8.45 0.65 3.00 <
2747 4 -2 -5 1 142.80 89.00 13.88 o
2748 4 -2 -5 0 0.36 -2.80 1.46 <
2749 4 -2 -5 -1 131.17 81.23 13.60 o
2750 4 -2 -5 -2 14.94 3.79 1.89 <
2750 1 2 5 2 14.94 3.79 1.89 <
2751 4 -2 -5 -3 222.15 145.01 18.28 o
2752 4 -2 -5 -4 5.22 2.11 2.43 <
2753 4 -2 -5 -5 7.35 3.52 5.26 <
2754 4 -2 -5 -6 4.89 33.24 9.38 o
2755 4 -2 -5 -7 102.82 103.79 14.72 o
2756 4 -2 -5 -8 1.53 -5.07 4.21 <
2757 4 -2 -5 -9 24.09 10.57 4.49 <
2758 4 -2 -5 -10 0.31 -1.66 3.12 <
2759 4 -2 -4 5 563.77 471.84 34.92 o
2759 3 3 4 -2 563.77 471.84 34.92 o
2760 4 -2 -4 4 2.67 1.70 1.56 <
2761 4 -2 -4 3 126.19 429.47 30.39 o
2762 4 -2 -4 2 111.67 109.94 14.91 o
2763 4 -2 -4 1 339.10 258.57 22.63 o
2764 4 -2 -4 0 36.02 17.58 7.30 <
2765 4 -2 -4 -1 352.52 269.53 22.76 o
2766 4 -2 -4 -2 252.59 217.58 19.60 o
2766 1 2 4 2 252.59 217.58 19.60 o
2767 4 -2 -4 -3 139.03 121.84 14.06 o
2768 4 -2 -4 -4 0.16 -2.39 2.57 <
2769 4 -2 -4 -5 478.62 466.20 26.55 o
2770 4 -2 -4 -6 3.22 72.09 21.78 o
2771 4 -2 -4 -7 8.72 3.28 2.35 <
2772 4 -2 -4 -8 1.81 -3.12 2.39 <
2773 4 -2 -4 -9 69.28 52.59 8.90 o
2774 4 -2 -4 -10 2.06 8.17 2.69 o
2775 4 -2 -4 -11 29.14 32.92 6.10 o
2776 4 -2 -4 -12 0.02 2.53 1.81 <
2777 4 -2 -3 7 285.74 341.39 27.28 o
2778 4 -2 -3 6 53.97 29.18 7.49 o
2778 1 -1 3 7 53.97 29.18 7.49 o
2779 4 -2 -3 5 8.59 -11.18 5.57 <
2779 3 3 3 -2 8.59 -11.18 5.57 <
2780 4 -2 -3 4 3.49 -0.11 1.07 <
2781 4 -2 -3 3 847.32 2058.67 59.44 o
2782 4 -2 -3 2 31.28 24.32 5.88 o
2783 4 -2 -3 1 542.68 514.26 26.92 o
2784 4 -2 -3 0 5.82 1.80 2.42 <
2785 4 -2 -3 -1 471.02 548.71 27.08 o
2786 4 -2 -3 -2 64.87 47.48 8.05 o
2786 1 2 3 2 64.87 47.48 8.05 o
2787 4 -2 -3 -3 821.07 924.77 33.60 o
2788 4 -2 -3 -4 6.58 -0.69 2.79 <
2789 4 -2 -3 -5 7.14 18.13 4.93 o
2790 4 -2 -3 -6 8.94 45.59 6.90 o
2791 4 -2 -3 -7 314.78 445.71 21.57 o
2792 4 -2 -3 -8 7.08 1.66 1.60 <
2793 4 -2 -3 -9 26.53 35.76 5.71 o
2794 4 -2 -3 -10 7.72 15.65 3.89 o
2795 4 -2 -3 -11 44.06 44.57 6.39 o
2796 4 -2 -3 -12 0.60 -1.43 1.48 <
2797 4 -2 -3 -13 19.89 13.66 3.24 o
2798 4 -2 -2 9 64.51 116.93 15.33 o
2799 4 -2 -2 8 4.58 -4.47 2.76 <
2800 4 -2 -2 7 11.01 -15.34 5.92 <
2801 4 -2 -2 6 206.38 122.37 13.48 o
2801 1 -1 2 7 206.38 122.37 13.48 o
2802 4 -2 -2 5 720.53 732.04 31.31 o
2802 3 3 2 -2 720.53 732.04 31.31 o
2803 4 -2 -2 4 69.86 48.67 7.90 o
2804 4 -2 -2 3 50.37 97.77 11.23 o
2805 4 -2 -2 2 96.76 96.14 10.62 o
2806 4 -2 -2 1 763.38 777.81 28.69 o
2807 4 -2 -2 0 29.34 7.86 2.57 o
2808 4 -2 -2 -1 770.66 765.15 26.18 o
2809 4 -2 -2 -2 239.30 212.93 14.26 o
2809 1 2 2 2 239.30 212.93 14.26 o
2810 4 -2 -2 -3 46.05 58.00 6.81 o
2811 4 -2 -2 -4 64.77 72.48 7.76 o
2812 4 -2 -2 -5 664.84 755.48 24.66 o
2813 4 -2 -2 -6 0.78 11.94 3.41 o
2814 4 -2 -2 -7 13.75 17.71 1.19 o
2815 4 -2 -2 -8 2.73 -0.02 0.76 <
2816 4 -2 -1 10 2.95 -11.10 4.41 <
2817 4 -2 -1 9 58.53 76.85 10.51 o
2818 4 -2 -1 8 1.63 3.21 1.96 <
2819 4 -2 -1 7 194.38 204.35 15.28 o
2820 4 -2 -1 6 92.27 52.59 7.22 o
2820 1 -1 1 7 92.27 52.59 7.22 o
2821 4 -2 -1 5 128.70 28.31 3.15 o
2821 3 3 1 -2 128.70 28.31 3.15 o
2822 4 -2 -1 4 30.59 13.46 3.27 o
2823 4 -2 -1 3 76.26 144.28 11.50 o
2824 4 -2 -1 2 193.38 159.83 11.54 o
2825 4 -2 -1 1 1596.02 1727.09 36.06 o
2826 4 -2 -1 -1 1764.48 2126.28 40.53 o
2827 4 2 0 -14 0.26 3.22 1.35 <
2828 4 2 0 -13 0.22 -3.58 1.85 <
2829 4 2 0 -12 0.04 0.76 0.72 <
2830 4 2 0 -11 21.15 17.72 3.35 o
2831 4 -2 0 10 1.02 0.92 0.54 <
2832 4 2 0 -10 1.02 -1.02 1.13 <
2833 4 2 0 -9 9.86 13.19 2.83 o
2834 4 -2 0 9 9.86 18.60 3.89 o
2835 4 -2 0 8 12.79 9.45 2.65 o
2836 4 2 0 -8 12.79 11.86 2.48 o
2837 4 2 0 -7 3.02 -2.02 1.47 <
2838 4 -2 0 7 3.02 -1.76 1.45 <
2839 4 -2 0 6 336.70 238.19 12.92 o
2839 1 -1 0 7 336.70 238.19 12.92 o
2840 4 2 0 -6 336.70 243.30 12.50 o
2840 1 1 0 -7 336.70 243.30 12.50 o
2841 4 -2 0 5 431.57 339.25 14.36 o
2841 3 3 0 -2 431.57 339.25 14.36 o
2842 4 -2 0 4 72.09 26.35 4.34 o
2843 4 2 1 -14 1.16 29.30 6.07 o
2844 4 2 1 -13 7.67 11.56 3.63 o
2845 4 2 1 -12 0.72 6.59 3.16 <
2846 4 -2 1 11 11.63 22.31 3.63 o
2847 4 2 1 -11 11.63 27.53 5.34 o
2848 4 -2 1 9 59.60 46.84 4.69 o
2849 4 2 1 -9 59.60 72.71 8.80 o
2850 4 2 1 -8 1.50 0.86 0.51 <
2851 4 -2 1 8 1.50 2.23 0.97 <
2852 4 2 1 -7 198.42 230.52 14.03 o
2853 4 -2 1 7 198.42 174.72 9.64 o
2854 4 2 1 -6 89.69 56.82 6.73 o
2854 1 1 -1 -7 89.69 56.82 6.73 o
2855 4 2 1 -5 128.71 34.83 2.02 o
2855 3 -3 -1 2 128.71 34.83 2.02 o
2856 4 2 1 -4 31.15 12.27 2.97 o
2857 4 2 1 -3 82.33 126.52 10.31 o
2858 4 2 1 -2 196.89 161.86 11.38 o
2859 4 2 1 -1 1633.29 1710.78 35.85 o
2860 4 2 2 -14 1.58 0.42 1.49 <
2861 4 2 2 -13 3.85 3.62 2.49 <
2862 4 2 2 -12 0.25 -4.63 3.43 <
2863 4 -2 2 11 33.44 13.39 2.14 o
2864 4 2 2 -11 33.44 34.61 7.51 o
2865 4 -2 2 10 6.61 -0.90 0.70 <
2866 4 2 2 -10 6.61 -1.41 2.98 <
2867 4 2 2 -9 64.67 111.79 13.03 o
2868 4 2 2 -8 4.66 1.01 0.53 <
2869 4 2 2 -6 205.52 137.10 13.32 o
2869 1 1 -2 -7 205.52 137.10 13.32 o
2870 4 2 2 -5 725.28 726.74 28.86 o
2870 3 -3 -2 2 725.28 726.74 28.86 o
2871 4 2 2 -4 69.54 50.85 7.43 o
2872 4 2 2 -3 49.02 88.47 9.79 o
2873 4 2 2 -2 97.14 99.59 9.74 o
2874 4 2 2 -1 744.35 782.13 26.59 o
2875 4 2 2 0 29.70 23.20 4.70 o
2876 4 2 2 1 789.91 743.25 23.89 o
2877 4 2 2 2 239.37 219.52 13.16 o
2877 1 -2 -2 -2 239.37 219.52 13.16 o
2878 4 2 2 3 47.15 53.48 6.12 o
2879 4 2 2 4 65.22 108.87 9.64 o
2880 4 2 3 -13 15.58 21.37 7.40 <
2881 4 2 3 -12 3.65 9.27 5.47 <
2882 4 2 3 -11 27.82 38.23 9.21 o
2883 4 2 3 -10 2.85 -3.82 4.37 <
2884 4 2 3 -9 27.18 35.75 9.24 o
2885 4 2 3 -8 6.12 -0.17 1.43 <
2886 4 2 3 -7 284.25 311.18 24.91 o
2887 4 2 3 -6 54.33 29.73 7.34 o
2887 1 1 -3 -7 54.33 29.73 7.34 o
2888 4 2 3 -5 8.95 -4.31 4.39 <
2888 3 -3 -3 2 8.95 -4.31 4.39 <
2889 4 2 3 -4 3.20 1.92 1.94 <
2890 4 2 3 -3 844.58 2026.81 58.65 o
2891 4 2 3 -2 32.05 27.09 6.07 o
2892 4 2 3 -1 535.07 531.65 25.66 o
2893 4 2 3 0 5.89 10.57 4.68 <
2894 4 2 3 1 478.32 521.02 23.68 o
2895 4 2 3 2 64.98 64.15 8.48 o
2895 1 -2 -3 -2 64.98 64.15 8.48 o
2896 4 2 3 3 826.93 913.88 29.83 o
2897 4 2 3 4 6.89 -0.80 1.63 <
2898 4 2 3 5 7.04 7.61 1.69 o
2899 4 2 3 6 8.80 39.17 5.80 o
2900 4 2 3 7 315.51 448.26 21.51 o
2901 4 2 4 -7 8.78 12.79 5.57 <
2902 4 2 4 -6 47.12 26.05 8.12 o
2902 1 1 -4 -7 47.12 26.05 8.12 o
2903 4 2 4 -5 560.64 514.33 35.07 o
2903 3 -3 -4 2 560.64 514.33 35.07 o
2904 4 2 4 -4 2.67 1.38 1.89 <
2905 4 2 4 -3 125.87 337.29 27.38 o
2906 4 2 4 -2 110.93 122.22 15.27 o
2907 4 2 4 -1 342.20 278.38 22.76 o
2908 4 2 4 0 36.42 23.36 7.95 <
2909 4 2 4 1 347.48 268.93 20.91 o
2910 4 2 4 2 252.40 234.03 18.64 o
2910 1 -2 -4 -2 252.40 234.03 18.64 o
2911 4 2 4 3 139.53 123.73 12.61 o
2912 4 2 4 4 0.21 0.76 1.14 <
2913 4 2 4 5 480.51 470.66 24.10 o
2914 4 2 4 6 3.47 83.64 25.70 o
2915 4 2 4 7 9.37 10.15 2.86 o
2916 4 2 4 8 1.92 0.03 1.30 <
2917 4 2 4 9 69.07 69.66 9.42 o
2918 4 2 5 -3 203.10 436.94 36.48 o
2919 4 2 5 -2 8.03 0.55 0.73 <
2920 4 2 5 -1 144.08 83.66 13.54 o
2921 4 2 5 0 0.32 0.97 3.45 <
2922 4 2 5 1 129.79 54.44 13.16 o
2923 4 2 5 2 14.85 4.01 3.53 <
2923 1 -2 -5 -2 14.85 4.01 3.53 <
2924 4 2 5 3 220.47 152.91 16.88 o
2925 4 2 5 4 5.19 3.20 2.89 <
2926 4 2 5 5 7.33 1.58 3.68 <
2927 4 2 5 6 4.70 9.86 6.62 <
2928 4 2 5 7 102.40 29.07 12.21 <
2929 4 2 5 8 1.52 1.96 1.13 <
2930 4 2 5 9 23.40 26.27 5.23 o
2931 4 2 5 10 0.32 0.98 1.15 <
2932 4 2 6 0 1.08 6.41 8.10 <
2933 4 2 6 1 89.62 157.74 55.75 <
2934 4 2 6 2 23.66 0.56 3.74 <
2934 1 -2 -6 -2 23.66 0.56 3.74 <
2935 4 2 6 3 4.70 0.06 2.28 <
2936 4 2 6 4 6.72 2.37 2.51 <
2937 4 2 6 5 101.29 59.95 11.11 o
2938 4 2 6 6 1.10 7.44 4.04 <
2939 4 2 6 7 18.51 3.02 1.54 <
2940 4 2 6 8 3.80 2.41 2.09 <
2941 4 2 7 3 35.11 1.03 3.03 <
2942 4 2 7 4 0.30 -0.12 0.81 <
2943 4 2 7 5 1.48 4.86 4.69 <
2944 4 -3 -7 0 19.52 31.39 12.78 <
2945 4 -3 -7 -1 29.66 5.24 1.73 o
2946 4 -3 -6 5 4.04 4.28 3.19 <
2947 4 -3 -6 4 4.21 18.91 9.90 <
2948 4 -3 -6 3 63.18 13.30 6.52 <
2949 4 -3 -6 2 98.87 15.82 7.35 <
2949 3 2 6 -5 98.87 15.82 7.35 <
2950 4 -3 -6 1 36.34 10.02 5.94 <
2951 4 -3 -6 0 4.59 29.15 10.29 <
2952 4 -3 -6 -1 31.72 22.60 10.09 <
2953 4 -3 -6 -2 24.99 7.91 4.20 <
2954 4 -3 -6 -3 58.16 61.99 13.12 o
2955 4 -3 -6 -4 6.28 2.84 1.95 <
2956 4 -3 -6 -5 3.50 1.39 2.33 <
2957 4 -3 -6 -6 11.09 5.16 3.20 <
2958 4 -3 -6 -7 22.30 11.01 6.75 <
2959 4 -3 -5 7 16.74 26.27 9.66 <
2960 4 -3 -5 6 16.78 17.04 7.26 <
2961 4 -3 -5 5 53.54 27.21 8.47 o
2962 4 -3 -5 4 32.49 9.33 5.09 <
2963 4 -3 -5 3 9.13 2.99 3.26 <
2964 4 -3 -5 2 3.06 -3.63 2.45 <
2964 3 2 5 -5 3.06 -3.63 2.45 <
2965 4 -3 -5 1 77.71 42.13 10.57 o
2966 4 -3 -5 0 45.94 41.70 10.79 o
2967 4 -3 -5 -1 78.98 41.19 9.81 o
2968 4 -3 -5 -2 2.65 1.23 1.86 <
2969 4 -3 -5 -3 15.06 8.21 4.57 <
2970 4 -3 -5 -4 38.89 14.70 6.24 <
2971 4 -3 -5 -5 74.65 37.90 9.43 o
2972 4 -3 -5 -6 27.72 36.82 10.84 o
2973 4 -3 -5 -7 24.41 17.43 7.22 <
2974 4 -3 -5 -8 3.56 -3.02 5.64 <
2975 4 -3 -5 -9 16.03 37.03 9.86 o
2976 4 -3 -4 9 7.74 18.39 7.45 <
2977 4 -3 -4 8 21.26 18.34 7.02 <
2978 4 -3 -4 7 50.52 42.28 10.54 o
2979 4 -3 -4 6 3.52 4.14 3.14 <
2980 4 -3 -4 5 0.88 1.95 2.24 <
2981 4 -3 -4 4 9.78 0.84 0.49 <
2982 4 -3 -4 3 153.66 92.61 14.32 o
2983 4 -3 -4 2 568.59 250.41 24.86 o
2983 3 2 4 -5 568.59 250.41 24.86 o
2984 4 -3 -4 0 1.16 -3.13 4.26 <
2985 4 -3 -4 -1 17.59 -4.48 5.21 <
2986 4 -3 -4 -2 97.97 95.41 13.35 o
2987 4 -3 -4 -3 174.40 228.78 20.19 o
2988 4 -3 -4 -4 11.91 0.96 1.08 <
2989 4 -3 -4 -5 6.01 1.29 1.37 <
2990 4 -3 -4 -6 3.43 1.30 2.21 <
2991 4 -3 -4 -7 69.81 47.99 10.25 o
2992 4 -3 -4 -8 30.18 24.46 5.97 o
2993 4 -3 -4 -9 22.24 47.19 9.61 o
2994 4 -3 -4 -10 1.79 8.70 4.38 <
2995 4 -3 -4 -11 3.39 2.47 2.41 <
2996 4 -3 -3 11 11.87 92.30 16.37 o
2997 4 -3 -3 10 5.72 24.13 7.73 o
2998 4 -3 -3 9 24.72 17.43 6.14 <
2999 4 -3 -3 8 7.90 15.39 6.06 <
3000 4 -3 -3 7 30.56 15.73 5.32 <
3001 4 -3 -3 6 32.16 26.57 7.36 o
3002 4 -3 -3 5 50.16 94.17 13.98 o
3003 4 -3 -3 4 66.67 51.10 10.16 o
3004 4 -3 -3 3 49.50 33.61 7.58 o
3005 4 -3 -3 2 8.75 -0.90 2.22 <
3005 3 2 3 -5 8.75 -0.90 2.22 <
3006 4 -3 -3 1 180.42 191.19 18.30 o
3007 4 -3 -3 0 53.46 125.08 16.03 o
3008 4 -3 -3 -1 203.65 198.14 17.22 o
3009 4 -3 -3 -2 4.90 3.53 1.94 <
3010 4 -3 -3 -3 52.10 86.93 10.71 o
3011 4 -3 -3 -4 70.37 80.32 10.22 o
3012 4 -3 -3 -5 69.92 88.56 11.36 o
3013 4 -3 -3 -6 53.87 90.13 12.91 o
3014 4 -3 -3 -7 19.37 35.01 6.92 o
3015 4 -3 -3 -8 7.04 7.59 2.84 <
3016 4 -3 -3 -9 37.40 105.97 12.25 o
3017 4 -3 -3 -10 6.53 17.63 5.47 o
3018 4 -3 -3 -11 22.69 38.18 7.71 o
3019 4 -3 -3 -12 0.63 2.54 1.74 <
3020 4 -3 -2 12 8.52 7.59 4.39 <
3021 4 -3 -2 11 8.94 26.98 7.96 o
3022 4 -3 -2 10 10.64 18.24 6.31 <
3023 4 -3 -2 9 31.34 17.62 5.20 o
3024 4 -3 -2 8 7.44 25.75 7.83 o
3025 4 -3 -2 7 62.82 70.13 10.76 o
3026 4 -3 -2 6 5.23 6.22 3.07 <
3027 4 -3 -2 5 15.55 103.24 12.73 o
3028 4 -3 -2 4 28.89 21.38 5.12 o
3029 4 -3 -2 3 346.57 328.51 21.57 o
3030 4 -3 -2 2 736.26 329.65 22.16 o
3030 3 2 2 -5 736.26 329.65 22.16 o
3031 4 -3 -2 1 202.37 294.92 20.06 o
3032 4 -3 -2 0 122.31 118.95 13.01 o
3033 4 -3 -2 -1 252.90 242.03 16.47 o
3034 4 -3 -2 -2 164.37 230.49 16.21 o
3035 4 -3 -2 -3 387.41 832.49 32.05 o
3036 4 -3 -2 -4 43.30 48.66 7.49 o
3037 4 -3 -1 13 2.68 -0.55 1.03 <
3038 4 -3 -1 12 0.12 -0.32 0.33 <
3039 4 -3 -1 11 11.82 32.36 7.62 o
3040 4 -3 -1 10 18.98 22.58 5.75 o
3041 4 -3 -1 9 87.90 64.70 9.49 o
3042 4 -3 -1 8 10.16 16.52 4.96 o
3043 4 -3 -1 7 62.78 33.18 6.36 o
3044 4 -3 -1 6 26.21 25.28 5.21 o
3045 4 -3 -1 5 337.96 610.95 27.17 o
3046 4 -3 -1 4 221.14 219.85 15.66 o
3047 4 -3 -1 3 73.02 85.98 9.76 o
3048 4 -3 -1 2 124.76 126.37 12.07 o
3048 3 2 1 -5 124.76 126.37 12.07 o
3049 4 -3 0 13 5.97 11.44 4.04 <
3050 4 -3 0 12 0.60 3.85 1.99 <
3051 4 -3 0 11 15.51 30.63 6.48 o
3052 4 -3 0 10 13.13 6.03 2.77 <
3053 4 -3 0 9 13.94 13.44 4.59 <
3054 4 -3 0 8 87.70 76.86 8.39 o
3055 4 -3 0 7 231.09 169.02 12.14 o
3056 4 -3 0 6 211.57 143.30 11.44 o
3057 4 -3 0 5 3.44 42.56 6.37 o
3058 4 -3 1 13 2.86 3.89 1.67 <
3059 4 3 1 -13 2.86 0.92 0.97 <
3060 4 -3 1 12 0.10 -1.39 1.29 <
3061 4 3 1 -12 0.10 -2.44 2.00 <
3062 4 3 1 -11 11.03 15.76 4.28 o
3063 4 -3 1 11 11.03 10.88 3.47 o
3064 4 -3 1 10 19.41 23.14 4.39 o
3065 4 3 1 -10 19.41 24.80 5.28 o
3066 4 -3 1 9 87.13 51.58 5.89 o
3067 4 3 1 -9 87.13 68.47 8.40 o
3068 4 3 1 -8 10.73 18.12 4.41 o
3069 4 3 1 -7 61.35 45.94 6.64 o
3070 4 3 1 -6 24.54 33.55 5.82 o
3071 4 3 1 -5 335.51 610.54 24.27 o
3072 4 3 1 -4 216.75 208.03 14.09 o
3073 4 3 1 -3 72.50 78.31 8.84 o
3074 4 3 1 -2 124.78 131.48 12.01 o
3074 3 -2 -1 5 124.78 131.48 12.01 o
3075 4 -3 2 13 12.80 11.06 2.67 o
3076 4 3 2 -13 12.80 25.04 6.56 o
3077 4 -3 2 12 8.52 8.03 2.34 o
3078 4 3 2 -12 8.52 6.98 3.38 <
3079 4 -3 2 11 8.87 11.45 2.71 o
3080 4 3 2 -11 8.87 12.64 4.52 <
3081 4 3 2 -10 10.68 15.04 4.95 o
3082 4 3 2 -9 30.06 19.60 5.11 o
3083 4 3 2 -8 7.28 23.39 6.11 o
3084 4 3 2 -7 63.51 71.47 9.25 o
3085 4 3 2 -6 5.47 3.40 1.95 <
3086 4 3 2 -5 15.80 102.93 10.75 o
3087 4 3 2 -4 28.46 26.08 5.10 o
3088 4 3 2 -3 343.33 342.36 19.92 o
3089 4 3 2 -2 731.57 344.01 20.89 o
3089 3 -2 -2 5 731.57 344.01 20.89 o
3090 4 3 2 -1 210.60 288.97 18.59 o
3091 4 3 2 0 123.05 152.37 13.75 o
3092 4 3 2 1 244.83 259.80 16.12 o
3093 4 3 2 2 168.58 214.77 15.29 o
3094 4 3 3 -12 0.83 2.29 1.23 <
3095 4 3 3 -11 12.32 42.63 9.83 o
3096 4 3 3 -10 5.34 18.40 6.50 <
3097 4 3 3 -9 25.55 24.70 6.73 o
3098 4 3 3 -8 7.95 12.33 4.83 <
3099 4 3 3 -7 29.49 19.05 5.41 o
3100 4 3 3 -6 32.03 26.21 6.43 o
3101 4 3 3 -5 49.89 108.35 13.35 o
3102 4 3 3 -4 69.69 62.07 9.99 o
3103 4 3 3 -3 50.01 42.24 7.72 o
3104 4 3 3 -2 8.40 3.17 1.35 <
3104 3 -2 -3 5 8.40 3.17 1.35 <
3105 4 3 3 -1 177.65 196.22 15.84 o
3106 4 3 3 0 52.77 101.80 12.26 o
3107 4 3 3 1 206.76 211.11 16.29 o
3108 4 3 3 2 5.11 3.81 1.85 <
3109 4 3 3 3 51.61 108.00 11.48 o
3110 4 3 3 4 67.92 94.52 9.97 o
3111 4 3 3 5 69.21 77.84 9.23 o
3112 4 3 4 -11 1.28 7.14 4.57 <
3113 4 3 4 -10 0.47 9.95 5.96 <
3114 4 3 4 -9 8.01 12.96 5.77 <
3115 4 3 4 -8 20.93 22.65 6.99 o
3116 4 3 4 -7 51.02 41.82 9.35 o
3117 4 3 4 -6 3.85 0.15 0.41 <
3118 4 3 4 -5 0.97 0.51 0.71 <
3119 4 3 4 -4 9.99 0.88 1.31 <
3120 4 3 4 -3 154.03 125.97 15.96 o
3121 4 3 4 -2 571.66 237.93 22.58 o
3121 3 -2 -4 5 571.66 237.93 22.58 o
3122 4 3 4 -1 13.79 -15.73 5.82 <
3123 4 3 4 0 1.12 -1.18 3.75 <
3124 4 3 4 1 20.01 -1.88 4.85 <
3125 4 3 4 2 96.03 105.20 12.03 o
3126 4 3 4 3 173.93 263.94 18.96 o
3127 4 3 4 4 11.56 1.32 1.78 <
3128 4 3 4 5 5.79 2.49 2.46 <
3129 4 3 4 6 3.01 0.55 1.03 <
3130 4 3 4 7 69.77 43.41 10.41 o
3131 4 3 4 8 30.36 8.86 7.52 <
3132 4 3 5 -9 16.26 13.97 6.47 <
3133 4 3 5 -8 2.60 8.28 4.82 <
3134 4 3 5 -7 17.24 9.83 5.61 <
3135 4 3 5 -6 16.93 19.51 7.07 <
3136 4 3 5 -5 54.00 33.40 9.22 o
3137 4 3 5 -4 31.71 8.14 4.65 <
3138 4 3 5 -3 8.69 3.39 3.44 <
3139 4 3 5 -2 3.18 -3.84 3.67 <
3139 3 -2 -5 5 3.18 -3.84 3.67 <
3140 4 3 5 -1 79.18 43.93 9.50 o
3141 4 3 5 0 45.46 34.50 9.85 o
3142 4 3 5 1 78.17 13.94 8.86 <
3143 4 3 5 2 2.39 -0.75 0.21 <
3144 4 3 5 3 15.71 4.21 4.40 <
3145 4 3 5 4 39.65 4.95 5.53 <
3146 4 3 5 5 74.57 48.43 8.23 o
3147 4 3 5 6 27.41 36.97 7.67 o
3148 4 3 5 7 24.09 35.97 7.36 o
3149 4 3 5 8 3.56 0.54 2.44 <
3150 4 3 5 9 16.25 45.65 7.53 o
3151 4 3 6 -6 7.26 8.72 5.69 <
3152 4 3 6 -5 4.04 5.40 4.74 <
3153 4 3 6 -4 4.14 -0.06 1.20 <
3154 4 3 6 -3 63.59 11.77 9.20 <
3155 4 3 6 -2 97.65 7.10 8.71 <
3155 3 -2 -6 5 97.65 7.10 8.71 <
3156 4 3 6 -1 35.72 5.05 6.75 <
3157 4 3 6 0 4.49 2.58 5.84 <
3158 4 3 6 1 32.54 3.64 6.78 <
3159 4 3 6 2 25.33 3.30 4.53 <
3160 4 3 6 3 58.06 24.35 11.25 <
3161 4 3 6 4 6.28 1.98 4.36 <
3162 4 3 6 5 3.50 1.85 2.30 <
3163 4 3 6 6 11.34 5.85 3.33 <
3164 4 3 6 7 22.53 12.40 4.45 <
3165 4 3 7 -1 29.60 1.14 5.05 <
3166 4 3 7 0 19.68 2.89 7.46 <
3167 4 3 7 1 29.34 0.88 4.21 <
3168 4 -4 -6 4 20.44 8.98 6.30 <
3169 4 -4 -6 3 0.03 1.91 3.22 <
3170 4 -4 -6 2 4.08 -3.53 4.36 <
3171 4 -4 -6 1 7.44 1.21 2.72 <
3172 4 -4 -6 0 91.62 43.15 11.74 o
3173 4 -4 -6 -1 4.74 -2.57 3.20 <
3174 4 -4 -6 -2 7.24 3.92 4.07 <
3175 4 -4 -6 -3 0.99 3.62 3.73 <
3176 4 -4 -6 -4 25.67 24.41 8.54 <
3177 4 -4 -5 8 15.81 20.13 8.47 <
3178 4 -4 -5 7 5.05 -2.25 3.04 <
3179 4 -4 -5 6 20.69 70.62 17.93 o
3180 4 -4 -5 5 0.21 0.02 1.40 <
3181 4 -4 -5 4 15.60 20.19 7.80 <
3182 4 -4 -5 3 6.07 6.90 4.77 <
3183 4 -4 -5 2 51.89 15.34 7.07 <
3184 4 -4 -5 1 0.20 -7.96 5.90 <
3185 4 -4 -5 -1 5.86 -0.74 2.25 <
3186 4 -4 -5 -2 45.74 31.48 10.41 o
3187 4 -4 -5 -3 10.01 6.35 4.50 <
3188 4 -4 -5 -4 23.00 30.89 8.76 o
3189 4 -4 -5 -5 1.40 3.07 2.43 <
3190 4 -4 -5 -6 30.75 33.23 8.30 o
3191 4 -4 -5 -7 8.58 2.22 0.93 <
3192 4 -4 -5 -8 31.19 20.31 8.44 <
3193 4 -4 -4 10 9.13 10.23 4.72 <
3194 4 -4 -4 9 0.15 6.84 4.72 <
3195 4 -4 -4 8 11.93 11.06 5.88 <
3196 4 -4 -4 7 2.05 -0.29 1.72 <
3197 4 -4 -4 6 34.80 133.63 19.95 o
3198 4 -4 -4 5 9.94 3.15 2.75 <
3199 4 -4 -4 4 33.15 25.92 8.22 o
3200 4 -4 -4 3 5.44 2.71 2.82 <
3201 4 -4 -4 2 1.15 -3.85 3.03 <
3202 4 -4 -4 1 9.60 5.41 3.90 <
3203 4 -4 -4 0 59.23 30.10 8.03 o
3204 4 -4 -4 -1 4.31 -4.97 3.74 <
3205 4 -4 -4 -2 3.60 1.29 2.14 <
3206 4 -4 -4 -3 5.05 5.14 3.25 <
3207 4 -4 -4 -4 49.80 56.01 10.53 o
3208 4 -4 -4 -5 10.15 10.47 4.59 <
3209 4 -4 -4 -6 69.13 81.90 12.69 o
3210 4 -4 -4 -7 2.65 -0.94 2.50 <
3211 4 -4 -4 -8 9.96 16.26 6.53 <
3212 4 -4 -4 -9 1.63 0.72 1.24 <
3213 4 -4 -4 -10 19.32 12.24 7.33 <
3214 4 -4 -3 11 0.16 1.44 1.40 <
3215 4 -4 -3 10 0.38 1.63 0.49 o
3216 4 -4 -3 9 3.70 0.00 3.54 <
3217 4 -4 -3 8 17.64 14.72 5.76 <
3218 4 -4 -3 7 3.45 0.41 1.55 <
3219 4 -4 -3 6 10.79 8.61 4.72 <
3220 4 -4 -3 5 10.29 8.59 4.63 <
3221 4 -4 -3 4 37.77 88.35 14.09 o
3222 4 -4 -3 3 23.80 14.22 5.20 <
3223 4 -4 -3 2 179.85 141.32 16.41 o
3224 4 -4 -3 1 12.89 4.12 2.17 <
3225 4 -4 -3 -1 21.32 7.17 3.49 <
3226 4 -4 -3 -2 164.06 192.88 18.63 o
3227 4 -4 -3 -3 18.98 23.50 6.36 o
3228 4 -4 -3 -4 80.17 150.30 15.81 o
3229 4 -4 -3 -5 8.25 9.64 4.26 <
3230 4 -4 -3 -6 11.74 7.86 3.44 <
3231 4 -4 -2 12 1.44 -1.82 1.84 <
3232 4 -4 -2 11 1.75 2.28 2.28 <
3233 4 -4 -2 10 14.08 15.97 5.67 <
3234 4 -4 -2 9 4.44 1.89 2.09 <
3235 4 -4 -2 8 0.58 10.39 5.00 <
3236 4 -4 -2 7 2.36 -1.92 2.11 <
3237 4 -4 -2 6 64.26 79.62 13.28 o
3238 4 -4 -2 5 7.87 -3.13 2.43 <
3239 4 -4 -2 4 93.72 65.18 11.45 o
3240 4 -4 -2 3 21.12 8.78 4.42 <
3241 4 -4 -2 2 53.47 40.83 8.11 o
3242 4 -4 -2 1 53.77 47.31 8.51 o
3243 4 -4 -2 0 706.77 778.53 35.46 o
3244 4 -4 -1 12 15.42 15.82 5.35 <
3245 4 -4 -1 11 3.90 0.65 0.80 <
3246 4 -4 -1 10 0.95 1.96 2.23 <
3247 4 -4 -1 9 0.48 4.26 2.71 <
3248 4 -4 -1 8 54.54 45.08 8.44 o
3249 4 -4 -1 7 9.63 2.72 2.16 <
3250 4 -4 -1 6 146.26 171.63 16.71 o
3251 4 -4 -1 5 11.53 3.56 1.93 <
3252 4 -4 -1 4 152.00 197.61 16.92 o
3253 4 -4 0 12 0.08 -0.61 1.41 <
3254 4 -4 0 11 3.33 2.69 2.29 <
3255 4 -4 0 10 73.41 68.10 9.00 o
3256 4 -4 0 9 10.42 3.70 2.03 <
3257 4 -4 0 8 35.22 13.68 3.77 o
3258 4 -4 1 12 15.41 13.51 3.67 o
3259 4 4 1 -12 15.41 15.01 4.61 o
3260 4 4 1 -11 3.83 2.21 1.60 <
3261 4 -4 1 11 3.83 1.35 1.27 <
3262 4 4 1 -10 0.91 -0.97 1.23 <
3263 4 4 1 -9 0.46 0.76 0.58 <
3264 4 4 1 -8 55.61 39.42 7.12 o
3265 4 4 1 -7 9.87 7.42 2.53 <
3266 4 4 1 -6 146.18 154.60 15.47 o
3267 4 4 2 -12 1.52 2.52 1.57 <
3268 4 4 2 -11 1.86 3.59 2.89 <
3269 4 4 2 -10 14.49 13.30 4.24 o
3270 4 4 2 -9 4.17 4.64 3.07 <
3271 4 4 2 -8 0.72 2.99 1.71 <
3272 4 4 2 -7 2.22 1.38 1.58 <
3273 4 4 2 -6 64.95 67.52 10.33 o
3274 4 4 2 -5 8.28 -1.76 2.37 <
3275 4 4 2 -4 90.61 52.87 8.73 o
3276 4 4 2 -3 20.86 4.95 2.60 <
3277 4 4 2 -2 54.85 43.71 7.51 o
3278 4 4 2 -1 54.07 76.62 10.69 o
3279 4 4 2 0 707.98 792.73 34.84 o
3280 4 4 3 -11 0.14 1.34 2.32 <
3281 4 4 3 -10 0.35 4.43 3.20 <
3282 4 4 3 -9 3.73 -0.47 1.38 <
3283 4 4 3 -8 17.54 17.58 5.33 o
3284 4 4 3 -7 3.50 2.80 2.00 <
3285 4 4 3 -6 10.19 7.34 3.84 <
3286 4 4 3 -5 10.42 3.81 2.56 <
3287 4 4 3 -4 39.56 121.34 13.95 o
3288 4 4 3 -3 22.57 12.83 4.13 o
3289 4 4 3 -2 181.43 172.41 16.46 o
3290 4 4 3 -1 12.46 7.09 2.95 <
3291 4 4 3 0 0.60 -11.21 4.26 <
3292 4 4 3 1 21.96 12.16 3.83 o
3293 4 4 3 2 163.01 165.47 17.53 o
3294 4 4 3 3 19.85 19.43 6.68 <
3295 4 4 4 -10 9.03 14.96 5.85 <
3296 4 4 4 -9 0.14 7.98 4.94 <
3297 4 4 4 -8 11.98 15.47 5.94 <
3298 4 4 4 -7 2.18 2.24 2.08 <
3299 4 4 4 -6 34.62 92.84 14.86 o
3300 4 4 4 -5 9.79 6.00 2.99 <
3301 4 4 4 -4 33.55 26.35 6.89 o
3302 4 4 4 -3 5.30 -0.81 1.91 <
3303 4 4 4 -2 1.44 -0.84 1.95 <
3304 4 4 4 -1 9.37 7.85 3.75 <
3305 4 4 4 0 58.94 37.91 8.70 o
3306 4 4 4 1 4.55 0.81 0.84 <
3307 4 4 4 2 3.12 0.25 1.04 <
3308 4 4 4 3 5.20 1.43 2.72 <
3309 4 4 4 4 49.89 21.41 10.64 <
3310 4 4 4 5 10.11 4.26 4.83 <
3311 4 4 4 6 69.51 116.72 13.80 o
3312 4 4 5 -8 15.74 19.81 7.60 <
3313 4 4 5 -7 5.11 1.20 2.09 <
3314 4 4 5 -6 21.03 48.26 12.08 o
3315 4 4 5 -5 0.19 5.10 3.60 <
3316 4 4 5 -4 14.78 36.37 9.92 o
3317 4 4 5 -3 6.46 6.34 4.36 <
3318 4 4 5 -2 51.16 26.39 7.93 o
3319 4 4 5 -1 0.24 0.92 1.81 <
3320 4 4 5 0 5.83 -10.65 7.64 <
3321 4 4 5 1 5.57 -0.33 1.04 <
3322 4 4 5 2 46.63 12.33 8.57 <
3323 4 4 5 3 9.55 4.77 4.63 <
3324 4 4 5 4 24.00 15.75 9.58 <
3325 4 4 5 5 1.30 0.44 2.83 <
3326 4 4 5 6 30.37 57.98 9.98 o
3327 4 4 5 7 8.59 6.26 3.10 <
3328 4 4 5 8 31.18 21.19 9.38 <
3329 4 4 6 -4 20.73 13.57 6.83 <
3330 4 4 6 -3 0.06 -1.30 4.29 <
3331 4 4 6 -2 3.91 1.75 4.84 <
3332 4 4 6 -1 7.48 0.88 1.40 <
3333 4 4 6 0 91.54 32.29 14.80 <
3334 4 4 6 1 4.71 3.53 4.48 <
3335 4 4 6 2 7.48 0.90 3.13 <
3336 4 4 6 3 0.96 1.00 3.65 <
3337 4 4 6 4 25.44 16.41 9.03 <
3338 4 -5 -5 5 4.40 7.21 5.80 <
3339 4 -5 -5 4 23.06 28.71 11.00 <
3340 4 -5 -5 3 1.49 7.40 6.59 <
3341 4 -5 -5 2 10.11 2.91 2.85 <
3342 4 -5 -5 1 4.29 7.15 5.49 <
3343 4 -5 -5 0 54.41 57.73 12.96 o
3344 4 -5 -5 -1 11.41 11.64 6.15 <
3345 4 -5 -5 -2 8.21 3.38 2.23 <
3346 4 -5 -5 -3 0.04 0.87 4.23 <
3347 4 -5 -5 -4 27.56 20.33 7.55 <
3348 4 -5 -5 -5 8.08 7.53 4.89 <
3349 4 -5 -4 7 7.51 6.54 4.96 <
3349 3 5 4 -7 7.51 6.54 4.96 <
3350 4 -5 -4 6 15.47 19.07 7.93 <
3350 2 0 -4 -12 15.47 19.07 7.93 <
3351 4 -5 -4 5 0.36 7.92 5.35 <
3352 4 -5 -4 4 13.77 17.47 7.74 <
3353 4 -5 -4 3 14.04 19.81 8.39 <
3354 4 -5 -4 2 85.69 68.90 13.84 o
3355 4 -5 -4 1 12.05 5.56 3.76 <
3356 4 -5 -4 0 0.66 3.09 1.66 <
3357 4 -5 -4 -1 1.48 2.28 1.78 <
3358 4 -5 -4 -2 92.26 104.50 15.75 o
3359 4 -5 -4 -3 21.41 31.53 8.95 o
3360 4 -5 -4 -4 16.00 9.43 4.11 <
3361 4 -5 -4 -5 2.19 7.21 4.71 <
3362 4 -5 -4 -6 36.44 35.84 9.54 o
3362 2 5 -4 -6 36.44 35.84 9.54 o
3363 4 -5 -4 -7 9.46 13.37 6.11 <
3364 4 -5 -3 9 4.31 5.83 4.01 <
3365 4 -5 -3 8 7.21 6.42 4.12 <
3366 4 -5 -3 7 2.10 0.23 2.31 <
3366 3 5 3 -7 2.10 0.23 2.31 <
3367 4 -5 -3 6 74.44 37.54 9.90 o
3367 2 0 -3 -12 74.44 37.54 9.90 o
3368 4 -5 -3 5 6.31 16.11 6.55 <
3369 4 -5 -3 4 52.85 48.38 10.75 o
3370 4 -5 -3 3 22.56 10.64 4.68 <
3371 4 -5 -3 2 21.62 3.09 2.43 <
3372 4 -5 -3 1 10.60 15.25 6.29 <
3373 4 -5 -3 0 122.36 96.09 14.50 o
3374 4 -5 -3 -1 19.16 9.16 4.32 <
3375 4 -5 -3 -2 15.81 9.79 4.80 <
3376 4 -5 -2 10 3.64 7.25 4.17 <
3377 4 -5 -2 9 2.53 0.60 1.47 <
3378 4 -5 -2 8 22.31 19.93 6.57 o
3379 4 -5 -2 7 20.80 5.03 2.87 <
3379 3 5 2 -7 20.80 5.03 2.87 <
3380 4 -5 -2 6 20.43 4.74 2.31 <
3380 2 0 -2 -12 20.43 4.74 2.31 <
3381 4 -5 -2 5 9.78 6.40 3.55 <
3382 4 -5 -2 4 17.44 16.50 6.13 <
3383 4 -5 -2 3 8.87 10.11 4.27 <
3384 4 -5 -1 11 0.91 2.39 1.68 <
3385 4 -5 -1 10 9.27 4.19 2.72 <
3386 4 -5 -1 9 5.25 4.20 2.95 <
3387 4 -5 -1 8 0.37 -3.03 3.05 <
3388 4 -5 -1 7 0.13 2.56 2.18 <
3388 3 5 1 -7 0.13 2.56 2.18 <
3389 4 -5 0 11 1.54 3.45 2.03 <
3390 4 -5 0 10 0.37 1.44 2.00 <
3391 4 5 2 -10 3.66 7.34 3.81 <
3392 4 5 2 -9 2.55 0.44 1.02 <
3393 4 5 2 -8 22.40 14.85 5.15 <
3394 4 5 2 -7 20.81 5.30 2.96 <
3394 3 -5 -2 7 20.81 5.30 2.96 <
3395 4 5 2 -6 20.60 14.24 5.15 <
3395 2 0 2 12 20.60 14.24 5.15 <
3396 4 5 2 -5 9.76 3.75 1.97 <
3397 4 5 2 -4 18.63 12.19 5.02 <
3398 4 5 3 -9 4.23 9.54 4.82 <
3399 4 5 3 -8 7.22 8.09 3.95 <
3400 4 5 3 -7 2.10 2.04 1.94 <
3400 3 -5 -3 7 2.10 2.04 1.94 <
3401 4 5 3 -6 75.18 67.93 11.68 o
3401 2 0 3 12 75.18 67.93 11.68 o
3402 4 5 3 -5 6.17 21.95 6.61 o
3403 4 5 3 -4 52.01 56.80 9.99 o
3404 4 5 3 -3 22.45 21.30 5.95 o
3405 4 5 3 -2 21.36 -1.49 2.87 <
3406 4 5 3 -1 10.87 12.22 5.13 <
3407 4 5 3 0 122.58 116.27 14.62 o
3408 4 5 3 1 18.57 8.74 4.74 <
3409 4 5 4 -7 7.51 6.71 3.96 <
3409 3 -5 -4 7 7.51 6.71 3.96 <
3410 4 5 4 -6 15.36 20.85 6.57 o
3410 2 0 4 12 15.36 20.85 6.57 o
3411 4 5 4 -5 0.31 11.01 5.13 <
3412 4 5 4 -4 13.58 18.21 6.24 <
3413 4 5 4 -3 14.13 20.33 6.51 o
3414 4 5 4 -2 85.34 105.93 15.48 o
3415 4 5 4 -1 12.16 4.53 2.46 <
3416 4 5 4 0 0.61 0.01 3.44 <
3417 4 5 4 1 1.49 1.02 2.24 <
3418 4 5 4 2 92.57 31.30 16.22 <
3419 4 5 4 3 21.40 6.31 8.17 <
3420 4 5 4 4 16.05 4.81 6.64 <
3421 4 5 5 -5 4.57 14.92 6.16 <
3422 4 5 5 -4 23.42 28.50 8.37 o
3423 4 5 5 -3 1.61 6.22 4.34 <
3424 4 5 5 -2 9.98 0.90 3.50 <
3425 4 5 5 -1 4.22 2.68 4.58 <
3426 4 5 5 0 54.39 35.57 15.47 <
3427 4 5 5 1 11.56 5.06 5.11 <
3428 4 5 5 2 8.39 5.14 5.39 <
3429 4 5 5 3 0.04 0.63 3.58 <
3430 4 5 5 4 27.19 11.45 8.85 <
3431 4 5 5 5 8.03 2.15 4.11 <
3432 4 -6 -4 3 3.02 -1.36 1.84 <
3433 4 -6 -4 2 0.57 2.11 2.36 <
3434 4 -6 -4 1 30.44 22.35 8.54 <
3435 4 -6 -4 0 9.30 5.90 3.87 <
3436 4 -6 -4 -1 31.23 17.19 6.91 <
3437 4 -6 -4 -2 0.79 2.69 3.04 <
3438 4 -6 -3 6 1.87 -2.97 3.78 <
3439 4 -6 -3 5 0.12 1.83 2.95 <
3440 4 -6 -3 4 4.04 1.77 2.10 <
3441 4 -6 -3 3 23.72 14.29 6.51 <
3442 4 -6 -3 2 4.30 27.96 9.41 <
3443 4 -6 -2 7 1.53 0.13 1.01 <
3444 4 -6 -2 6 8.43 2.38 2.64 <
3445 4 6 3 -6 1.95 -1.16 1.60 <
3446 4 6 3 -5 0.12 -6.53 4.74 <
3447 4 6 3 -4 4.07 3.05 2.45 <
3448 4 6 3 -3 23.77 9.55 4.80 <
3449 4 6 4 -3 3.00 0.71 0.49 <
3450 4 6 4 -2 0.64 16.44 6.52 <
3451 4 6 4 -1 30.18 6.03 8.18 <
3452 4 6 4 0 9.28 3.61 6.07 <
3453 4 6 4 1 31.44 3.92 7.81 <
