#------------------------------------------------------------------------------
#$Date: 2019-11-17 15:32:33 +0200 (Sun, 17 Nov 2019) $
#$Revision: 230902 $
#$URL: file:///home/coder/svn-repositories/cod/cif/7/23/14/7231409.cif $
#------------------------------------------------------------------------------
#
# This file is available in the Crystallography Open Database (COD),
# http://www.crystallography.net/
#
# All data on this site have been placed in the public domain by the
# contributors.
#
data_7231409
loop_
_publ_author_name
'Collings, Ines E.'
'Manna, Rudra Sekhar'
'Tsirlin, Alexander A.'
'Bykov, Maxim'
'Bykova, Elena'
'Hanfland, Michael'
'Gegenwart, Philipp'
'van Smaalen, Sander'
'Dubrovinsky, Leonid'
'Dubrovinskaia, Natalia'
_publ_section_title
;
 Pressure dependence of spin canting in ammonium metal formate
 antiferromagnets.
;
_journal_issue                   37
_journal_name_full               'Physical chemistry chemical physics : PCCP'
_journal_page_first              24465
_journal_page_last               24476
_journal_paper_doi               10.1039/c8cp03761b
_journal_volume                  20
_journal_year                    2018
_chemical_formula_moiety         'C3 H3 Ni O6, N H4'
_chemical_formula_sum            'C3 H7 N Ni O6'
_chemical_formula_weight         211.8
_space_group_IT_number           4
_space_group_name_Hall           'P 2yb'
_space_group_name_H-M_alt        'P 1 21 1'
_symmetry_cell_setting           monoclinic
_symmetry_Int_Tables_number      4
_symmetry_space_group_name_Hall  'P 2yb'
_symmetry_space_group_name_H-M   'P 1 21 1'
_audit_creation_method           'Jana2006 Version : 25/10/2015'
_audit_update_record
;
2018-08-09 deposited with the CCDC.
2018-08-22 downloaded from the CCDC.
;
_cell_angle_alpha                90
_cell_angle_beta                 116.33(4)
_cell_angle_gamma                90
_cell_formula_units_Z            2
_cell_length_a                   6.470(2)
_cell_length_b                   8.0553(8)
_cell_length_c                   7.263(2)
_cell_measurement_reflns_used    118
_cell_measurement_temperature    293
_cell_measurement_theta_max      12.57
_cell_measurement_theta_min      2.03
_cell_volume                     339.26(19)
_computing_cell_refinement       'CrysAlisPro 1.171.38.46 (Rigaku OD, 2015)'
_computing_data_collection       'CrysAlisPro 1.171.38.46 (Rigaku OD, 2015)'
_computing_data_reduction        'CrysAlisPro 1.171.38.46 (Rigaku OD, 2015)'
_diffrn_ambient_pressure         '1.90 GPa'
_diffrn_ambient_temperature      293
_diffrn_detector                 'CCD plate'
_diffrn_measured_fraction_theta_full 0.98
_diffrn_measured_fraction_theta_max 0.98
_diffrn_measurement_device       'ID15B beamline, ESRF'
_diffrn_measurement_device_type
'esperanto-CrysAlisPro-abstract goniometer imported esperanto images'
_diffrn_measurement_method       '\w scans'
_diffrn_measurement_specimen_support 'diamond-anvil cell'
_diffrn_radiation_monochromator  synchrotron
_diffrn_radiation_probe          x-ray
_diffrn_radiation_source         synchrotron
_diffrn_radiation_type           synchrotron
_diffrn_radiation_wavelength     0.41128
_diffrn_reflns_av_R_equivalents  0.0340
_diffrn_reflns_av_unetI/netI     0.0782
_diffrn_reflns_limit_h_max       7
_diffrn_reflns_limit_h_min       -7
_diffrn_reflns_limit_k_max       8
_diffrn_reflns_limit_k_min       -8
_diffrn_reflns_limit_l_max       8
_diffrn_reflns_limit_l_min       -8
_diffrn_reflns_number            3405
_diffrn_reflns_theta_full        11.93
_diffrn_reflns_theta_max         13.23
_diffrn_reflns_theta_min         1.81
_diffrn_source                   synchrotron
_exptl_absorpt_coefficient_mu    0.63
_exptl_absorpt_correction_T_max  1
_exptl_absorpt_correction_T_min  0.779
_exptl_absorpt_correction_type   multi-scan
_exptl_absorpt_process_details
;
CrysAlisPro 1.171.38.46 (Rigaku Oxford Diffraction, 2015)
Empirical absorption correction using spherical harmonics,
 implemented in SCALE3 ABSPACK scaling algorithm.
;
_exptl_crystal_colour            green
_exptl_crystal_density_diffrn    2.0731
_exptl_crystal_description       'hexagonal bipyramid'
_exptl_crystal_F_000             216
_exptl_crystal_size_max          0.075
_exptl_crystal_size_mid          0.060
_exptl_crystal_size_min          0.050
_refine_ls_abs_structure_details
'  899 of Friedel pairs used in the refinement'
_refine_ls_extinction_method     none
_refine_ls_goodness_of_fit_gt    2.55
_refine_ls_goodness_of_fit_ref   2.12
_refine_ls_hydrogen_treatment    constr
_refine_ls_number_constraints    49
_refine_ls_number_parameters     69
_refine_ls_number_reflns         3405
_refine_ls_number_restraints     0
_refine_ls_R_factor_all          0.1163
_refine_ls_R_factor_gt           0.0896
_refine_ls_shift/su_max          0.0352
_refine_ls_shift/su_mean         0.0043
_refine_ls_structure_factor_coef F
_refine_ls_weighting_details     w=1/(\s^2^(F)+0.0001F^2^)
_refine_ls_weighting_scheme      sigma
_refine_ls_wR_factor_gt          0.1010
_refine_ls_wR_factor_ref         0.1075
_reflns_number_gt                2083
_reflns_number_total             3405
_reflns_threshold_expression     I>3\s(I)
_cod_data_source_file            c8cp03761b2.cif
_cod_data_source_block           ANiF_c2_p09
_cod_depositor_comments
;
The following automatic conversions were performed:

'_diffrn_radiation_probe' value 'X-ray' changed to 'x-ray' according
to
/home/data/users/saulius/crontab/automatic-downloads/rss-feeds/RSC/lib/dictionaries/cif_core.dic
dictionary named 'cif_core.dic' version 2.4.2 from 2011-04-26.

Automatic conversion script
Id: cif_fix_values 4973 2017-02-22 13:04:09Z antanas 

 Adding full bibliography for 7231402--7231432.cif.
;
_cod_original_formula_sum        'C3 H7 N1 Ni1 O6'
_cod_database_code               7231409
loop_
_space_group_symop_id
_space_group_symop_operation_xyz
1 x,y,z
2 -x,y+1/2,-z
loop_
_atom_site_label
_atom_site_type_symbol
_atom_site_fract_x
_atom_site_fract_y
_atom_site_fract_z
_atom_site_adp_type
_atom_site_U_iso_or_equiv
_atom_site_site_symmetry_multiplicity
_atom_site_occupancy
_atom_site_calc_flag
Ni1 Ni 0.6608(2) 0.2535(2) 0.31932(17) Uani 0.0543(6) 2 1 d
N1 N 0.9793(13) 0.2508(19) 0.9511(12) Uani 0.059(4) 2 1 d
O1 O 0.4063(13) 0.3982(10) 0.1081(10) Uani 0.060(2) 2 1 d
O2 O 0.6778(14) 0.3945(9) 0.5568(11) Uani 0.064(3) 2 1 d
C3 C 0.953(2) -0.0274(13) 0.5524(18) Uani 0.064(3) 2 1 d
O4 O 0.6976(13) 0.1104(10) 0.1064(10) Uani 0.060(2) 2 1 d
O5 O 0.3859(14) 0.1137(10) 0.2944(11) Uani 0.064(3) 2 1 d
C2 C 0.596(2) 0.5350(14) 0.5481(18) Uani 0.064(3) 2 1 d
O3 O 0.8817(14) 0.1125(9) 0.5575(11) Uani 0.064(3) 2 1 d
O6 O 0.9098(14) 0.3931(10) 0.2889(12) Uani 0.064(3) 2 1 d
C1 C 0.451(2) 0.5016(18) -0.006(2) Uani 0.060(2) 2 1 d
H1c1 H 0.594372 0.495678 -0.01502 Uiso 0.0717 2 1 d
H1c2 H 0.515395 0.586635 0.416017 Uiso 0.0773 2 1 d
H1c3 H 0.902648 -0.080165 0.420949 Uiso 0.0769 2 1 d
loop_
_atom_site_aniso_label
_atom_site_aniso_type_symbol
_atom_site_aniso_U_11
_atom_site_aniso_U_22
_atom_site_aniso_U_33
_atom_site_aniso_U_12
_atom_site_aniso_U_13
_atom_site_aniso_U_23
Ni1 Ni 0.0874(10) 0.0186(6) 0.0481(7) -0.0005(9) 0.0220(7) 0.0009(9)
N1 N 0.058(5) 0.032(5) 0.076(5) 0.002(7) 0.018(4) 0.006(9)
O1 O 0.080(4) 0.049(3) 0.034(3) -0.008(3) 0.011(3) 0.001(2)
O2 O 0.099(4) 0.031(3) 0.053(3) 0.004(3) 0.025(3) 0.002(3)
C3 C 0.089(4) 0.032(3) 0.053(3) 0.004(3) 0.015(3) -0.005(2)
O4 O 0.080(4) 0.049(3) 0.034(3) -0.008(3) 0.011(3) 0.001(2)
O5 O 0.099(4) 0.031(3) 0.053(3) 0.004(3) 0.025(3) 0.002(3)
C2 C 0.099(4) 0.031(3) 0.053(3) 0.004(3) 0.025(3) 0.002(3)
O3 O 0.089(4) 0.032(3) 0.053(3) 0.004(3) 0.015(3) -0.005(2)
O6 O 0.089(4) 0.032(3) 0.053(3) 0.004(3) 0.015(3) -0.005(2)
C1 C 0.080(4) 0.049(3) 0.034(3) -0.008(3) 0.011(3) 0.001(2)
loop_
_atom_type_symbol
_atom_type_scat_dispersion_real
_atom_type_scat_dispersion_imag
_atom_type_scat_source
C -0.0001 0.0005 'International Tables Vol C tables 4.2.6.8 and 6.1.1.1'
H 0.0000 0.0000 'International Tables Vol C tables 4.2.6.8 and 6.1.1.1'
N 0.0006 0.0010 'International Tables Vol C tables 4.2.6.8 and 6.1.1.1'
Ni 0.2309 0.4094 'International Tables Vol C tables 4.2.6.8 and 6.1.1.1'
O 0.0018 0.0018 'International Tables Vol C tables 4.2.6.8 and 6.1.1.1'
loop_
_geom_angle_atom_site_label_1
_geom_angle_atom_site_label_2
_geom_angle_atom_site_label_3
_geom_angle_site_symmetry_1
_geom_angle_site_symmetry_3
_geom_angle
O1 Ni1 O2 . . 92.3(3)
O1 Ni1 O4 . . 94.6(3)
O1 Ni1 O5 . . 82.4(3)
O1 Ni1 O3 . . 170.1(4)
O1 Ni1 O6 . . 90.9(3)
O2 Ni1 O4 . . 171.1(3)
O2 Ni1 O5 . . 95.8(4)
O2 Ni1 O3 . . 80.6(3)
O2 Ni1 O6 . . 92.1(4)
O4 Ni1 O5 . . 90.6(4)
O4 Ni1 O3 . . 93.2(3)
O4 Ni1 O6 . . 82.3(4)
O5 Ni1 O3 . . 91.3(3)
O5 Ni1 O6 . . 169.9(3)
O3 Ni1 O6 . . 96.2(3)
Ni1 O1 C1 . . 120.9(8)
Ni1 O2 C2 . . 127.4(7)
O3 C3 O6 . 2_746 123.8(11)
O3 C3 H1c3 . . 118.11
O6 C3 H1c3 2_746 . 118.11
Ni1 O4 C1 . 2_645 121.1(10)
Ni1 O5 C2 . 2_646 117.9(7)
O2 C2 O5 . 2_656 123.0(10)
O2 C2 H1c2 . . 118.5
O5 C2 H1c2 2_656 . 118.5
Ni1 O3 C3 . . 128.3(7)
Ni1 O6 C3 . 2_756 116.3(9)
O1 C1 O4 . 2_655 119.1(14)
O1 C1 H1c1 . . 120.46
O4 C1 H1c1 2_655 . 120.46
loop_
_geom_bond_atom_site_label_1
_geom_bond_atom_site_label_2
_geom_bond_site_symmetry_2
_geom_bond_distance
Ni1 O1 . 2.045(7)
Ni1 O2 . 2.027(8)
Ni1 O4 . 2.026(8)
Ni1 O5 . 2.044(9)
Ni1 O3 . 2.033(7)
Ni1 O6 . 2.055(10)
O1 C1 . 1.296(18)
O2 C2 . 1.239(14)
C3 O3 . 1.225(14)
C3 O6 2_746 1.273(12)
C3 H1c3 . 0.96
O4 C1 2_645 1.265(15)
O5 C2 2_646 1.267(16)
C2 H1c2 . 0.96
C1 H1c1 . 0.96
loop_
_geom_hbond_atom_site_label_D
_geom_hbond_atom_site_label_H
_geom_hbond_atom_site_label_A
_geom_hbond_site_symmetry_A
_geom_hbond_distance_DH
_geom_hbond_distance_HA
_geom_hbond_distance_DA
_geom_hbond_angle_DHA
C1 H1c1 O5 2_655 0.96 2.29 2.88(2) 118.20
C1 H1c1 O6 . 0.96 2.39 2.921(14) 114.27
loop_
_twin_individual_id
_twin_individual_mass_fraction_refined
_twin_individual_twin_matrix_11
_twin_individual_twin_matrix_12
_twin_individual_twin_matrix_13
_twin_individual_twin_matrix_21
_twin_individual_twin_matrix_22
_twin_individual_twin_matrix_23
_twin_individual_twin_matrix_31
_twin_individual_twin_matrix_32
_twin_individual_twin_matrix_33
1 0.188(4) 1 0 0 0 1 0 0 0 1
2 0.1772(15) 1 0 0 0 -1 0 0.789 0 -1
3 0.1518(14) -0.0714 0 -1.0864 0 1 0 0.8594 0 -0.9286
4 0.1679(17) -0.9286 0 1.0864 0 -1 0 0.1267 0 0.9286
5 0.1641(16) -0.9286 0 1.0864 0 1 0 -0.8594 0 -0.0714
6 0.1507(16) -0.0714 0 -1.0864 0 -1 0 -0.9157 0 0.0714
loop_
_twin_refln_datum_id
_twin_refln_individual_id
_twin_refln_index_h
_twin_refln_index_k
_twin_refln_index_l
_twin_refln_f_squared_calc
_twin_refln_f_squared_meas
_twin_refln_f_squared_sigma
_twin_refln_include_status
1 1 0 -3 -6 0.51 0.31 0.18 <
2 1 0 -2 -4 9.40 7.99 1.28 o
3 1 0 -2 -5 40.44 53.62 3.86 o
4 1 0 -2 -6 20.68 23.14 2.92 o
5 1 0 -2 -7 1.54 1.83 1.00 <
6 1 0 -1 -3 67.65 48.76 3.60 o
7 1 0 -1 -4 253.72 231.31 8.65 o
8 1 0 -1 -5 47.93 66.27 5.31 o
9 1 0 -1 -6 23.02 17.23 2.96 o
10 1 0 -1 -7 4.79 7.99 2.19 o
11 1 0 0 -2 4.34 5.10 1.02 o
12 1 0 0 -3 211.13 172.52 7.67 o
13 1 0 0 -4 0.67 0.25 0.47 <
14 1 0 0 -5 120.96 138.04 8.70 o
15 1 0 0 -6 6.01 6.62 1.95 o
16 1 0 5 3 1.62 0.63 0.50 <
17 1 0 6 4 5.40 1.25 0.52 <
18 1 0 7 4 96.37 60.42 5.14 o
19 1 -1 -4 2 319.45 343.25 15.55 o
20 1 -1 -4 1 37.40 40.68 4.59 o
21 2 -1 4 0 65.85 87.68 6.29 o
21 1 -1 -4 0 65.85 87.68 6.29 o
22 6 1 4 1 576.94 686.09 17.02 o
22 1 -1 -4 -1 576.94 686.09 17.02 o
23 1 1 -3 -7 9.24 4.09 1.51 <
24 1 -1 -3 3 285.33 274.72 14.06 o
25 1 -1 -3 2 26.63 30.90 3.92 o
26 1 -1 -3 1 101.10 105.18 6.50 o
27 2 -1 3 0 191.55 208.02 8.23 o
27 1 -1 -3 0 191.55 208.02 8.23 o
28 6 1 3 1 44.55 51.66 3.42 o
28 1 -1 -3 -1 44.55 51.66 3.42 o
29 1 -1 -3 -5 23.24 12.90 1.78 o
30 1 -1 -3 -6 12.30 6.41 1.52 o
31 1 1 -2 -7 14.04 11.73 2.78 o
32 1 1 -2 -6 1.83 1.06 0.70 <
33 1 1 -2 -5 61.60 67.62 5.44 o
34 1 -1 -2 4 29.42 29.33 4.55 o
35 1 1 -2 -4 29.42 21.50 2.79 o
36 1 -1 -2 3 178.74 173.32 9.98 o
37 1 -1 -2 2 684.91 635.63 16.71 o
38 1 -1 -2 1 12.20 7.17 1.44 o
39 2 -1 2 0 19.56 12.80 1.63 o
39 1 -1 -2 0 19.56 12.80 1.63 o
40 6 1 2 1 1254.82 1417.85 20.21 o
40 1 -1 -2 -1 1254.82 1417.85 20.21 o
41 1 1 -1 -7 6.89 4.66 1.91 <
42 1 1 -1 -6 37.11 35.35 4.48 o
43 1 -1 -1 5 41.39 57.20 6.50 o
44 1 1 -1 -5 41.39 61.32 5.41 o
45 1 -1 -1 4 112.92 108.94 7.84 o
46 1 1 -1 -4 112.92 111.07 6.56 o
47 1 -1 -1 3 74.96 64.95 5.15 o
48 1 1 -1 -3 74.96 71.33 4.60 o
49 1 -1 -1 2 233.45 250.58 9.67 o
50 1 -1 -1 1 595.36 570.83 12.91 o
51 2 -1 1 0 1167.65 1235.78 19.44 o
51 1 -1 -1 0 1167.65 1235.78 19.44 o
52 1 1 0 -7 8.39 6.48 2.29 <
53 1 1 0 -6 6.05 3.39 1.39 <
54 1 -1 0 5 173.08 190.09 10.71 o
55 1 1 0 -5 173.08 209.96 10.60 o
56 1 1 0 -4 151.68 147.36 7.96 o
57 1 -1 0 4 151.68 125.49 7.17 o
58 1 1 0 -3 1.49 1.03 0.61 <
59 1 -1 0 3 1.49 0.72 0.64 <
60 1 1 0 -2 86.61 100.69 5.28 o
61 1 -1 0 2 86.61 94.28 5.14 o
62 1 1 0 -1 242.00 165.95 6.32 o
63 1 -1 0 1 242.00 164.32 6.20 o
64 1 1 1 -7 6.36 6.30 2.49 <
65 1 1 1 -6 35.87 42.37 5.48 o
66 1 1 1 -5 39.84 70.36 6.91 o
67 1 -1 1 5 39.84 53.90 4.89 o
68 1 -1 1 4 111.52 109.53 6.30 o
69 1 1 1 -4 111.52 116.50 8.08 o
70 1 -1 1 3 79.99 64.89 4.11 o
71 1 1 1 -3 79.99 64.52 5.24 o
72 1 1 1 -2 236.05 236.71 9.34 o
73 1 -1 1 2 236.05 248.21 7.88 o
74 1 1 1 -1 595.59 569.83 13.19 o
75 2 1 -1 0 1167.61 1234.72 19.44 o
75 1 1 1 0 1167.61 1234.72 19.44 o
76 1 1 2 -7 14.42 18.14 4.51 o
77 1 -1 2 6 1.83 -0.84 0.92 <
78 1 1 2 -6 1.83 0.26 0.23 <
79 1 1 2 -5 59.74 78.93 8.37 o
80 1 -1 2 5 59.74 63.89 4.43 o
81 1 1 2 -4 28.23 30.99 4.65 o
82 1 -1 2 4 28.23 28.36 2.69 o
83 1 -1 2 3 174.38 175.24 6.94 o
84 1 1 2 -3 174.38 186.26 10.32 o
85 1 1 2 -2 684.92 605.56 18.41 o
86 1 1 2 -1 14.09 5.30 1.32 o
87 2 1 -2 0 19.46 13.18 1.76 o
87 1 1 2 0 19.46 13.18 1.76 o
88 6 -1 -2 -1 1254.69 1419.43 20.77 o
88 1 1 2 1 1254.69 1419.43 20.77 o
89 1 -1 3 6 25.46 14.84 2.06 o
90 1 -1 3 5 19.06 39.49 3.32 o
91 1 -1 3 4 66.22 61.30 3.89 o
92 1 1 3 -4 66.22 69.67 7.52 o
93 1 1 3 -3 285.04 261.23 13.39 o
94 1 1 3 -2 27.22 28.72 3.75 o
95 1 1 3 -1 100.78 106.88 6.82 o
96 2 1 -3 0 191.57 210.09 8.79 o
96 1 1 3 0 191.57 210.09 8.79 o
97 6 -1 -3 -1 44.44 50.74 3.57 o
97 1 1 3 1 44.44 50.74 3.57 o
98 1 -1 4 6 0.73 1.66 0.65 <
99 1 -1 4 5 12.84 10.54 1.34 o
100 1 1 4 -2 317.24 333.70 15.09 o
101 1 1 4 -1 35.77 39.60 4.44 o
102 2 1 -4 0 65.95 90.21 6.48 o
102 1 1 4 0 65.95 90.21 6.48 o
103 6 -1 -4 -1 577.41 692.05 16.99 o
103 1 1 4 1 577.41 692.05 16.99 o
104 1 1 4 2 42.84 36.27 3.04 o
105 1 -1 5 5 10.18 6.84 1.17 o
106 1 1 5 -1 80.07 103.02 8.33 o
107 2 1 -5 0 153.43 235.74 12.23 o
107 1 1 5 0 153.43 235.74 12.23 o
108 6 -1 -5 -1 80.02 80.65 6.23 o
108 1 1 5 1 80.02 80.65 6.23 o
109 1 1 5 2 112.59 124.73 6.36 o
110 2 1 -6 0 37.91 71.73 7.02 o
110 1 1 6 0 37.91 71.73 7.02 o
111 6 -1 -6 -1 227.37 299.16 14.30 o
111 1 1 6 1 227.37 299.16 14.30 o
112 1 1 6 2 31.48 31.37 3.43 o
113 1 1 6 3 19.54 14.22 2.07 o
114 6 -1 -7 -1 0.75 2.57 1.77 <
114 1 1 7 1 0.75 2.57 1.77 <
115 1 1 7 2 14.96 8.53 1.93 o
116 1 1 7 3 23.21 19.56 2.63 o
117 6 -1 -8 -1 77.33 75.44 7.74 o
117 1 1 8 1 77.33 75.44 7.74 o
118 1 1 8 2 11.57 9.20 2.00 o
119 1 -2 -6 4 32.51 40.64 7.15 o
120 1 -2 -6 3 25.56 23.64 5.13 o
121 1 -2 -6 2 19.62 22.75 4.51 o
122 1 -2 -6 1 76.59 71.33 7.29 o
123 2 -2 6 0 35.45 48.59 5.89 o
123 1 -2 -6 0 35.45 48.59 5.89 o
124 1 -2 -6 -1 21.06 24.94 3.77 o
125 6 2 6 2 60.75 60.19 5.19 o
125 1 -2 -6 -2 60.75 60.19 5.19 o
126 1 -2 -5 5 44.30 103.79 11.52 o
127 1 -2 -5 4 20.02 24.06 5.29 o
128 1 -2 -5 3 66.85 83.76 8.98 o
129 1 -2 -5 2 98.82 94.56 8.38 o
130 1 -2 -5 1 37.07 40.58 4.90 o
131 2 -2 5 0 192.01 178.88 9.89 o
131 1 -2 -5 0 192.01 178.88 9.89 o
132 1 -2 -5 -1 69.74 87.73 6.40 o
133 6 2 5 2 32.95 35.64 3.35 o
133 1 -2 -5 -2 32.95 35.64 3.35 o
134 1 -2 -5 -3 46.43 28.54 2.54 o
135 1 -2 -4 6 30.50 36.94 6.80 o
136 1 -2 -4 5 0.27 -0.90 1.34 <
137 1 -2 -4 4 161.92 193.14 13.40 o
138 1 -2 -4 3 93.74 90.12 8.08 o
139 1 -2 -4 2 1.79 2.63 1.20 <
140 1 -2 -4 1 369.69 362.19 14.93 o
141 2 -2 4 0 4.68 6.64 1.48 o
141 1 -2 -4 0 4.68 6.64 1.48 o
142 1 -2 -4 -1 84.98 91.26 6.04 o
143 6 2 4 2 318.46 315.60 9.82 o
143 1 -2 -4 -2 318.46 315.60 9.82 o
144 1 -2 -4 -3 0.51 -0.41 0.59 <
145 1 -2 -4 -4 30.83 18.71 1.89 o
146 1 -2 -4 -5 12.84 6.16 1.10 o
147 1 -2 -3 7 16.64 10.10 3.28 o
148 1 -2 -3 6 7.77 8.79 3.06 <
149 1 -2 -3 5 65.92 125.41 10.78 o
150 1 -2 -3 4 15.20 17.41 3.76 o
151 1 -2 -3 3 151.07 188.35 11.53 o
152 1 -2 -3 2 343.50 352.18 15.04 o
153 1 -2 -3 1 6.95 7.82 1.74 o
154 2 -2 3 0 660.20 692.47 17.96 o
154 1 -2 -3 0 660.20 692.47 17.96 o
155 1 -2 -3 -1 169.18 189.36 8.93 o
156 6 2 3 2 29.24 20.63 2.67 o
156 1 -2 -3 -2 29.24 20.63 2.67 o
157 1 -2 -2 7 7.99 7.94 3.10 <
158 1 2 -2 -7 7.99 8.98 2.79 o
159 1 2 -2 -6 44.63 36.15 5.08 o
160 1 -2 -2 6 44.63 53.16 7.17 o
161 1 -2 -2 5 18.92 30.16 4.60 o
162 1 2 -2 -5 18.92 23.09 3.74 o
163 1 -2 -2 4 92.82 110.61 8.87 o
164 1 -2 -2 3 125.10 129.50 9.04 o
165 1 -2 -2 2 65.25 53.67 5.24 o
166 1 -2 -2 1 468.76 438.27 14.97 o
167 2 -2 2 0 133.63 100.82 6.84 o
167 1 -2 -2 0 133.63 100.82 6.84 o
168 1 -2 -1 7 3.59 3.79 2.23 <
169 1 2 -1 -7 3.59 1.18 0.54 <
170 1 2 -1 -6 25.63 23.89 4.23 o
171 1 -2 -1 6 25.63 26.88 4.47 o
172 1 2 -1 -5 42.24 65.72 6.39 o
173 1 -2 -1 5 42.24 71.00 6.98 o
174 1 2 -1 -4 29.76 29.94 4.18 o
175 1 -2 -1 4 29.76 33.31 4.44 o
176 1 -2 -1 3 163.96 156.91 9.40 o
177 1 -2 -1 2 74.18 49.83 5.17 o
178 1 -2 -1 1 415.48 341.80 13.19 o
179 1 -2 0 7 20.26 11.89 2.87 o
180 1 2 0 -7 20.26 11.20 3.21 o
181 1 -2 0 6 2.52 3.94 1.77 <
182 1 2 0 -6 2.52 3.03 1.75 <
183 1 -2 0 5 0.94 3.09 1.28 <
184 1 2 0 -5 0.94 3.97 1.84 <
185 1 2 0 -4 133.23 135.03 8.90 o
186 1 -2 0 4 133.23 125.21 8.05 o
187 1 -2 0 3 0.74 -0.03 0.37 <
188 1 2 0 -3 0.74 -2.98 1.92 <
189 1 -2 0 2 0.47 1.67 1.07 <
190 1 2 0 -2 0.47 1.76 0.86 <
191 1 2 1 -7 3.99 2.24 1.86 <
192 1 -2 1 7 3.99 2.22 1.04 <
193 1 2 1 -6 26.21 26.45 4.49 o
194 1 -2 1 6 26.21 25.22 3.91 o
195 1 2 1 -5 41.42 70.02 7.08 o
196 1 -2 1 5 41.42 61.72 5.57 o
197 1 2 1 -4 30.74 32.72 4.54 o
198 1 -2 1 4 30.74 30.33 3.86 o
199 1 2 1 -3 158.19 165.44 9.88 o
200 1 -2 1 3 158.19 158.94 8.81 o
201 1 2 1 -2 69.67 51.38 5.33 o
202 1 2 1 -1 415.15 344.96 13.45 o
203 1 2 2 -7 8.38 7.55 3.00 <
204 1 -2 2 7 8.38 8.12 2.40 o
205 1 2 2 -6 43.68 52.94 6.93 o
206 1 -2 2 6 43.68 42.50 4.72 o
207 1 2 2 -5 19.42 35.63 5.06 o
208 1 -2 2 5 19.42 25.12 3.37 o
209 1 2 2 -4 92.72 105.05 8.59 o
210 1 -2 2 4 92.72 94.90 6.98 o
211 1 2 2 -3 130.61 125.26 8.77 o
212 1 2 2 -2 66.90 53.65 5.43 o
213 1 2 2 -1 468.77 440.24 15.37 o
214 2 2 -2 0 133.55 100.33 6.86 o
214 1 2 2 0 133.55 100.33 6.86 o
215 1 2 3 -7 16.81 13.43 3.91 o
216 1 -2 3 7 16.81 9.76 2.14 o
217 1 2 3 -6 8.17 9.93 3.27 o
218 1 -2 3 6 8.17 7.74 1.76 o
219 1 -2 3 5 64.94 98.33 7.03 o
220 1 2 3 -5 64.94 127.14 10.70 o
221 1 2 3 -4 15.43 20.49 4.17 o
222 1 2 3 -3 151.19 180.71 11.24 o
223 1 2 3 -2 344.42 351.24 14.86 o
224 1 2 3 -1 6.91 6.51 1.76 o
225 2 2 -3 0 660.15 692.38 18.98 o
225 1 2 3 0 660.15 692.38 18.98 o
226 1 2 4 -7 12.91 10.47 3.76 <
227 1 -2 4 7 12.91 7.40 1.75 o
228 1 -2 4 6 30.48 24.86 3.34 o
229 1 2 4 -6 30.48 30.69 5.85 o
230 1 -2 4 5 0.21 -0.18 0.68 <
231 1 2 4 -5 0.21 1.94 1.92 <
232 1 2 4 -4 162.48 183.96 13.47 o
233 1 2 4 -3 92.76 90.27 8.36 o
234 1 2 4 -2 1.26 3.30 0.94 o
235 1 2 4 -1 369.41 374.05 15.31 o
236 2 2 -4 0 4.72 6.04 1.58 o
236 1 2 4 0 4.72 6.04 1.58 o
237 1 2 4 1 86.23 89.91 6.85 o
238 1 2 5 -6 13.23 13.22 4.69 <
239 1 -2 5 6 13.23 9.77 2.31 o
240 1 2 5 -5 45.44 99.97 11.33 o
241 1 2 5 -4 19.65 28.43 5.80 o
242 1 2 5 -3 67.52 75.85 8.34 o
243 1 2 5 -2 99.33 96.80 8.70 o
244 1 2 5 -1 37.16 43.75 5.10 o
245 2 2 -5 0 191.98 184.51 10.60 o
245 1 2 5 0 191.98 184.51 10.60 o
246 1 2 5 1 68.71 84.64 7.14 o
247 6 -2 -5 -2 33.03 26.08 3.31 o
247 1 2 5 2 33.03 26.08 3.31 o
248 1 2 6 -4 31.61 36.74 6.68 o
249 1 2 6 -3 23.58 22.84 4.85 o
250 1 2 6 -2 19.50 21.41 4.09 o
251 1 2 6 -1 76.54 73.83 7.16 o
252 2 2 -6 0 35.46 50.56 5.81 o
252 1 2 6 0 35.46 50.56 5.81 o
253 1 2 6 1 23.01 22.60 3.77 o
254 6 -2 -6 -2 60.94 64.49 5.49 o
254 1 2 6 2 60.94 64.49 5.49 o
255 1 2 7 -3 27.30 21.52 5.55 o
256 1 2 7 -2 18.50 17.83 4.18 o
257 1 2 7 -1 0.25 -0.11 1.50 <
258 2 2 -7 0 34.31 41.72 5.50 o
258 1 2 7 0 34.31 41.72 5.50 o
259 1 2 7 1 27.44 25.65 3.97 o
260 6 -2 -7 -2 1.85 0.41 0.77 <
260 1 2 7 2 1.85 0.41 0.77 <
261 1 2 7 3 6.88 4.35 1.40 o
262 1 2 8 -2 2.13 1.71 1.03 <
263 1 2 8 -1 41.41 33.75 5.70 o
264 2 2 -8 0 4.70 2.50 1.43 <
264 1 2 8 0 4.70 2.50 1.43 <
265 1 2 8 1 5.71 9.75 2.79 o
266 1 -3 -8 2 6.27 4.70 2.28 <
267 1 -3 -8 1 5.44 3.82 1.97 <
268 1 -3 -7 4 41.82 51.92 8.73 o
269 1 -3 -7 3 3.12 2.52 2.03 <
270 1 -3 -7 2 11.51 5.24 2.10 <
271 1 -3 -7 1 11.17 6.61 2.57 <
272 2 -3 7 0 4.01 2.74 0.70 o
272 1 -3 -7 0 4.01 2.74 0.70 o
273 1 -3 -7 -1 41.00 39.44 5.05 o
274 1 -3 -6 5 15.90 51.60 9.07 o
275 1 -3 -6 4 0.43 0.14 1.19 <
276 1 -3 -6 3 68.16 52.30 7.33 o
277 1 -3 -6 2 11.22 5.38 2.12 <
278 1 -3 -6 1 9.40 4.39 1.97 <
279 2 -3 6 0 135.51 124.46 9.53 o
279 1 -3 -6 0 135.51 124.46 9.53 o
280 1 -3 -6 -1 0.64 1.92 1.48 <
281 1 -3 -6 -2 13.19 15.73 2.77 o
282 1 -3 -5 6 8.16 9.52 3.74 <
283 1 -3 -5 5 18.02 19.31 4.70 o
284 1 -3 -5 4 25.67 23.18 4.77 o
285 1 -3 -5 3 0.50 -0.50 0.61 <
286 1 -3 -5 2 79.77 78.26 8.70 o
287 1 -3 -5 1 79.18 82.56 8.07 o
288 2 -3 5 0 1.60 1.58 1.04 <
288 1 -3 -5 0 1.60 1.58 1.04 <
289 1 -3 -5 -1 22.69 22.06 3.52 o
290 1 -3 -5 -2 20.07 14.85 2.54 o
291 1 -3 -5 -3 12.42 15.30 2.36 o
292 1 -3 -4 7 0.06 0.08 1.42 <
293 1 -3 -4 6 22.89 20.89 4.60 o
294 1 -3 -4 5 7.90 14.15 3.75 o
295 1 -3 -4 4 4.24 3.65 1.94 <
296 1 -3 -4 3 53.92 50.60 7.01 o
297 1 -3 -4 2 45.38 41.26 5.48 o
298 1 -3 -4 1 42.51 40.16 5.08 o
299 2 -3 4 0 110.53 94.50 7.83 o
299 1 -3 -4 0 110.53 94.50 7.83 o
300 1 -3 -4 -1 4.35 1.78 1.06 <
301 1 -3 -4 -2 5.78 6.03 1.63 o
302 1 -3 -4 -3 27.14 41.24 4.61 o
303 1 -3 -3 7 15.08 18.37 4.88 o
304 1 -3 -3 6 9.02 9.33 3.14 <
305 1 -3 -3 5 43.87 64.93 8.28 o
306 1 -3 -3 4 17.55 21.76 4.21 o
307 1 -3 -3 3 24.99 24.65 4.49 o
308 1 -3 -3 2 82.85 81.66 7.92 o
309 1 -3 -3 1 78.05 77.61 7.52 o
310 2 -3 3 0 39.64 41.98 5.27 o
310 1 -3 -3 0 39.64 41.98 5.27 o
311 1 -3 -3 -1 18.57 14.01 2.87 o
312 1 3 -2 -7 0.40 1.03 1.13 <
313 1 -3 -2 7 0.40 1.67 1.73 <
314 1 -3 -2 6 50.25 69.90 8.41 o
315 1 -3 -2 5 25.20 66.22 7.60 o
316 1 -3 -2 4 0.23 0.91 1.21 <
317 1 -3 -2 3 117.34 120.62 9.90 o
318 1 -3 -2 2 91.92 69.83 7.70 o
319 1 -3 -2 1 93.52 84.15 7.84 o
320 1 3 -1 -8 3.41 6.26 2.90 <
321 1 -3 -1 8 3.41 2.44 0.89 <
322 1 3 -1 -7 10.41 10.02 3.21 o
323 1 -3 -1 7 10.41 10.27 3.28 o
324 1 -3 -1 6 12.51 12.29 3.16 o
325 1 3 -1 -6 12.51 10.00 2.72 o
326 1 -3 -1 5 33.98 69.23 7.26 o
327 1 3 -1 -5 33.98 61.37 7.14 o
328 1 -3 -1 4 124.94 122.04 9.78 o
329 1 -3 -1 3 0.84 -0.28 0.84 <
330 1 -3 -1 2 109.62 97.59 8.73 o
331 1 3 0 -8 16.88 19.27 5.46 o
332 1 -3 0 8 16.88 17.80 4.17 o
333 1 3 0 -7 0.05 -2.71 1.83 <
334 1 -3 0 7 0.05 -0.13 0.40 <
335 1 -3 0 6 1.02 2.49 1.27 <
336 1 3 0 -6 1.02 1.04 0.11 o
337 1 3 0 -5 46.11 128.42 10.45 o
338 1 -3 0 5 46.11 116.74 9.62 o
339 1 -3 0 4 24.43 31.16 4.89 o
340 1 3 0 -4 24.43 29.54 4.76 o
341 1 -3 0 3 294.00 245.05 14.22 o
342 1 3 0 -3 294.00 235.99 14.36 o
343 1 -3 1 8 3.45 3.80 1.57 <
344 1 3 1 -8 3.45 1.92 0.94 <
345 1 -3 1 7 10.42 12.14 3.13 o
346 1 3 1 -7 10.42 10.92 3.26 o
347 1 3 1 -6 12.09 13.36 3.69 o
348 1 -3 1 6 12.09 12.32 3.10 o
349 1 -3 1 5 35.61 62.82 6.87 o
350 1 3 1 -5 35.61 65.19 7.48 o
351 1 3 1 -4 126.41 118.99 10.14 o
352 1 -3 1 4 126.41 115.84 9.27 o
353 1 3 1 -3 0.85 0.66 0.71 <
354 1 3 1 -2 112.96 94.54 8.69 o
355 1 -3 2 7 0.40 2.10 1.79 <
356 1 3 2 -7 0.40 2.25 1.79 <
357 1 -3 2 6 51.00 58.21 6.55 o
358 1 3 2 -6 51.00 66.98 8.51 o
359 1 3 2 -5 25.11 64.82 7.84 o
360 1 -3 2 5 25.11 53.35 6.47 o
361 1 3 2 -4 0.21 0.73 0.86 <
362 1 3 2 -3 116.80 117.68 10.15 o
363 1 3 2 -2 87.54 78.43 7.96 o
364 1 3 2 -1 97.85 75.08 7.51 o
365 1 -3 3 7 15.24 10.80 2.62 o
366 1 3 3 -7 15.24 16.05 4.72 o
367 1 -3 3 6 8.60 6.02 2.28 <
368 1 3 3 -6 8.60 9.29 3.19 <
369 1 3 3 -5 44.37 61.03 8.06 o
370 1 3 3 -4 18.97 14.92 3.71 o
371 1 3 3 -3 24.87 20.44 4.17 o
372 1 3 3 -2 83.51 78.85 8.21 o
373 1 3 3 -1 77.50 76.68 7.66 o
374 1 3 4 -7 0.07 -1.28 1.17 <
375 1 -3 4 7 0.07 -0.67 0.87 <
376 1 3 4 -6 22.75 22.93 5.15 o
377 1 3 4 -5 7.79 14.77 3.99 o
378 1 3 4 -4 4.25 2.47 1.70 <
379 1 3 4 -3 54.26 48.20 7.03 o
380 1 3 4 -2 46.58 39.35 5.86 o
381 1 3 4 -1 41.37 46.25 6.14 o
382 2 3 -4 0 110.50 91.09 8.20 o
382 1 3 4 0 110.50 91.09 8.20 o
383 1 3 5 -6 8.61 7.31 3.28 <
384 1 3 5 -5 17.13 19.30 4.97 o
385 1 3 5 -4 24.10 22.08 4.74 o
386 1 3 5 -3 0.57 0.27 1.12 <
387 1 3 5 -2 78.83 83.19 8.95 o
388 1 3 5 -1 79.96 84.06 8.74 o
389 2 3 -5 0 1.60 0.98 1.04 <
389 1 3 5 0 1.60 0.98 1.04 <
390 1 3 5 1 24.37 18.27 3.84 o
391 1 3 6 -5 16.00 40.58 7.59 o
392 1 3 6 -4 0.43 1.50 1.80 <
393 1 3 6 -3 68.05 61.59 8.61 o
394 1 3 6 -2 12.48 4.06 2.04 <
395 1 3 6 -1 8.33 7.32 2.59 <
396 2 3 -6 0 135.51 135.58 10.72 o
396 1 3 6 0 135.51 135.58 10.72 o
397 1 3 6 1 0.71 0.97 1.25 <
398 1 3 7 -4 42.14 42.41 7.39 o
399 1 3 7 -3 3.12 1.76 2.21 <
400 1 3 7 -2 11.10 6.60 2.65 <
401 1 3 7 -1 11.52 6.00 2.76 <
402 2 3 -7 0 4.01 1.79 0.84 <
402 1 3 7 0 4.01 1.79 0.84 <
403 1 3 7 1 40.87 46.14 6.26 o
404 1 3 8 -2 5.78 5.14 2.47 <
405 1 3 8 -1 5.91 6.33 3.18 <
406 1 -4 -7 4 20.45 16.01 4.70 o
407 1 -4 -7 3 17.37 11.84 4.30 <
408 1 -4 -7 2 0.11 0.24 1.24 <
409 1 -4 -7 1 17.33 14.64 4.16 o
410 2 -4 7 0 45.30 53.09 6.95 o
410 1 -4 -7 0 45.30 53.09 6.95 o
411 1 -4 -6 5 16.08 31.52 6.74 o
412 1 -4 -6 4 11.26 11.54 4.20 <
413 1 -4 -6 3 2.11 2.81 2.03 <
414 1 -4 -6 2 21.90 16.79 4.11 o
415 1 -4 -6 1 2.94 1.69 1.81 <
416 2 -4 6 0 18.35 20.05 4.12 o
416 1 -4 -6 0 18.35 20.05 4.12 o
417 1 -4 -6 -1 19.57 21.57 3.93 o
418 1 -4 -5 6 9.53 13.72 5.09 <
419 1 -4 -5 5 3.42 4.30 2.26 <
420 1 -4 -5 4 9.57 10.44 3.71 <
421 1 -4 -5 3 20.61 17.30 4.29 o
422 1 -4 -5 2 0.33 -1.99 2.20 <
423 1 -4 -5 1 20.90 15.77 3.70 o
424 2 -4 5 0 19.51 14.21 3.14 o
424 1 -4 -5 0 19.51 14.21 3.14 o
425 1 -4 -5 -1 2.53 0.52 0.85 <
426 1 -4 -5 -2 7.74 7.44 2.05 o
427 1 -4 -4 7 4.60 3.71 2.44 <
428 1 -4 -4 6 1.75 2.79 1.76 <
429 1 -4 -4 5 10.17 8.56 3.28 <
430 1 -4 -4 4 0.25 -1.50 1.60 <
431 1 -4 -4 3 2.61 1.21 1.50 <
432 1 -4 -4 2 73.26 72.00 8.38 o
433 1 -4 -4 1 1.83 0.39 0.77 <
434 2 -4 4 0 0.50 -0.49 1.02 <
434 1 -4 -4 0 0.50 -0.49 1.02 <
435 1 -4 -4 -1 9.79 5.95 2.10 <
436 1 -4 -3 7 7.04 7.71 2.91 <
437 1 -4 -3 6 13.78 10.70 3.52 o
438 1 -4 -3 5 1.37 3.43 1.80 <
439 1 -4 -3 4 4.88 3.15 2.11 <
440 1 -4 -3 3 27.14 21.31 4.51 o
441 1 -4 -3 2 0.27 0.02 0.75 <
442 1 -4 -3 1 24.80 21.27 4.49 o
443 2 -4 3 0 6.42 3.81 1.85 <
443 1 -4 -3 0 6.42 3.81 1.85 <
444 1 -4 -2 7 8.38 8.41 3.21 <
445 1 -4 -2 6 1.18 1.80 1.21 <
446 1 -4 -2 5 23.16 39.45 6.51 o
447 1 -4 -2 4 8.32 5.49 2.71 <
448 1 -4 -2 3 10.19 5.34 2.87 <
449 1 -4 -2 2 86.74 72.90 8.66 o
450 1 -4 -1 7 3.32 4.20 2.23 <
451 1 4 -1 -7 3.32 2.97 2.11 <
452 1 -4 -1 6 12.64 13.84 3.91 o
453 1 4 -1 -6 12.64 7.54 2.40 o
454 1 -4 -1 5 11.86 24.87 4.65 o
455 1 -4 -1 4 70.72 77.68 9.22 o
456 1 -4 -1 3 52.25 45.46 7.00 o
457 1 4 0 -8 8.04 9.57 3.61 <
458 1 -4 0 8 8.04 9.73 3.26 <
459 1 -4 0 7 6.09 8.71 3.16 <
460 1 4 0 -7 6.09 7.70 3.07 <
461 1 4 0 -6 2.03 -0.04 0.46 <
462 1 -4 0 6 2.03 0.96 1.22 <
463 1 -4 0 5 81.92 130.62 11.76 o
464 1 4 0 -5 81.92 127.92 11.91 o
465 1 -4 0 4 57.87 65.03 8.17 o
466 1 -4 1 7 3.07 3.57 2.26 <
467 1 4 1 -7 3.07 2.28 1.38 <
468 1 -4 1 6 12.92 10.09 3.22 o
469 1 4 1 -6 12.92 10.14 3.39 <
470 1 4 1 -5 11.70 25.54 4.90 o
471 1 -4 1 5 11.70 23.54 4.55 o
472 1 4 1 -4 70.41 73.46 9.20 o
473 1 4 1 -3 52.60 40.80 6.87 o
474 1 4 2 -7 8.15 8.30 3.74 <
475 1 -4 2 7 8.15 5.02 2.48 <
476 1 4 2 -6 1.19 2.31 1.75 <
477 1 -4 2 6 1.19 1.03 0.54 <
478 1 4 2 -5 23.90 33.21 5.95 o
479 1 4 2 -4 8.35 4.15 2.47 <
480 1 4 2 -3 9.61 5.08 2.46 <
481 1 4 2 -2 86.78 65.75 8.74 o
482 1 -4 3 7 7.04 7.87 3.17 <
483 1 4 3 -7 7.04 5.50 2.64 <
484 1 4 3 -6 13.76 9.98 3.42 <
485 1 4 3 -5 1.53 2.40 1.85 <
486 1 4 3 -4 4.53 2.22 1.90 <
487 1 4 3 -3 25.79 21.13 4.83 o
488 1 4 3 -2 0.26 0.64 1.07 <
489 1 4 4 -7 4.76 6.25 3.83 <
490 1 4 4 -6 1.72 3.75 2.88 <
491 1 4 4 -5 9.68 8.52 3.52 <
492 1 4 4 -4 0.15 -0.46 0.95 <
493 1 4 4 -3 2.93 0.49 0.80 <
494 1 4 4 -2 73.22 73.17 8.92 o
495 1 4 4 -1 1.57 2.48 1.61 <
496 1 4 5 -6 9.51 14.90 5.27 <
497 1 4 5 -5 3.30 3.91 2.54 <
498 1 4 5 -4 9.91 4.94 2.16 <
499 1 4 5 -3 21.83 12.75 3.71 o
500 1 4 5 -2 0.33 1.09 1.62 <
501 1 4 5 -1 19.75 16.69 4.13 o
502 2 4 -5 0 19.49 17.62 4.36 o
502 1 4 5 0 19.49 17.62 4.36 o
503 1 4 6 -5 16.17 32.15 7.07 o
504 1 4 6 -4 11.36 6.33 3.03 <
505 1 4 6 -3 2.20 -0.47 1.52 <
506 1 4 6 -2 21.85 17.17 4.69 o
507 1 4 6 -1 2.83 2.48 1.41 <
508 2 4 -6 0 18.34 22.55 4.77 o
508 1 4 6 0 18.34 22.55 4.77 o
509 1 4 7 -4 20.45 17.93 5.40 o
510 1 4 7 -3 17.10 14.81 4.68 o
511 1 4 7 -2 0.11 0.33 1.21 <
512 1 4 7 -1 17.60 14.49 4.58 o
513 2 4 -7 0 45.29 49.17 7.31 o
513 1 4 7 0 45.29 49.17 7.31 o
514 1 -5 -6 4 9.23 6.57 3.20 <
515 1 -5 -6 3 2.46 2.10 1.94 <
516 1 -5 -6 2 2.31 2.92 1.54 <
517 1 -5 -6 1 10.28 7.69 2.89 <
518 1 -5 -5 5 4.97 7.04 3.42 <
519 1 -5 -5 4 1.00 2.46 2.61 <
520 1 -5 -5 3 10.08 7.39 3.11 <
521 1 -5 -5 2 10.39 10.96 3.74 <
522 1 -5 -5 1 0.69 0.41 0.66 <
523 2 -5 5 0 9.64 7.00 4.35 <
523 1 -5 -5 0 9.64 7.00 4.35 <
524 1 -5 -4 6 7.83 5.95 3.09 <
525 1 -5 -4 5 0.10 1.45 2.28 <
526 1 -5 -4 4 12.09 11.24 3.58 o
527 1 -5 -4 3 2.81 2.90 1.91 <
528 1 -5 -4 2 1.56 0.64 0.51 <
529 1 -5 -4 1 12.96 9.35 3.24 <
530 2 -5 4 0 0.60 0.20 0.76 <
530 1 -5 -4 0 0.60 0.20 0.76 <
531 1 -5 -3 7 1.70 1.09 0.92 <
532 1 -5 -3 6 3.04 3.86 2.57 <
533 1 -5 -3 5 5.78 6.62 2.85 <
534 1 -5 -3 4 0.02 0.39 1.03 <
535 1 -5 -3 3 29.92 24.41 5.34 o
536 1 -5 -3 2 29.77 27.14 5.48 o
537 1 -5 -2 7 3.94 7.64 3.00 <
538 1 -5 -2 6 4.08 2.26 1.07 <
539 1 -5 -2 5 0.43 2.18 2.14 <
540 1 -5 -2 4 26.00 13.85 4.04 o
541 1 -5 -2 3 4.42 4.27 2.03 <
542 1 -5 -1 7 2.77 1.22 1.22 <
543 1 -5 -1 6 5.81 4.84 2.63 <
544 1 -5 -1 5 12.95 15.33 4.29 o
545 1 -5 -1 4 2.92 0.90 1.34 <
546 1 5 0 -7 2.51 1.81 0.24 o
547 1 -5 0 7 2.51 5.39 3.07 <
548 1 -5 0 6 2.00 1.74 1.62 <
549 1 5 0 -6 2.00 2.12 1.63 <
550 1 5 1 -7 2.93 5.43 3.13 <
551 1 -5 1 7 2.93 3.02 1.77 <
552 1 5 1 -6 5.82 4.67 2.02 <
553 1 5 1 -5 12.55 19.63 5.17 o
554 1 5 2 -7 3.79 9.24 4.01 <
555 1 -5 2 7 3.79 2.99 2.16 <
556 1 5 2 -6 4.25 2.69 1.64 <
557 1 5 2 -5 0.46 0.08 0.29 <
558 1 5 2 -4 25.26 18.32 4.93 o
559 1 5 3 -7 1.70 7.16 3.99 <
560 1 5 3 -6 3.00 2.86 1.96 <
561 1 5 3 -5 5.96 6.32 3.20 <
562 1 5 3 -4 0.02 0.02 1.04 <
563 1 5 3 -3 29.43 26.99 6.00 o
564 1 5 4 -6 7.75 10.87 4.69 <
565 1 5 4 -5 0.11 -0.31 1.68 <
566 1 5 4 -4 12.45 11.37 4.17 <
567 1 5 4 -3 2.80 1.45 1.42 <
568 1 5 4 -2 1.57 0.50 1.11 <
569 1 5 5 -5 4.93 9.47 4.29 <
570 1 5 5 -4 1.01 1.67 1.67 <
571 1 5 5 -3 10.61 7.75 3.38 <
572 1 5 5 -2 9.83 8.94 3.78 <
573 1 5 5 -1 0.68 1.01 1.28 <
574 1 5 6 -4 9.30 7.94 3.73 <
575 1 5 6 -3 2.25 5.94 3.40 <
576 1 5 6 -2 2.53 1.38 1.78 <
577 1 5 6 -1 10.16 8.45 3.72 <
578 1 -6 -4 5 0.92 -2.20 2.85 <
579 1 -6 -4 4 1.73 -0.77 1.52 <
580 1 -6 -4 3 9.03 4.85 2.48 <
581 1 -6 -4 2 2.17 1.57 1.40 <
582 1 -6 -3 6 2.65 3.19 2.86 <
583 1 -6 -3 5 3.68 -2.19 2.78 <
584 1 -6 -3 4 2.62 1.48 1.43 <
585 1 -6 -3 3 0.60 2.94 2.96 <
586 1 -6 -2 6 4.00 4.89 3.26 <
587 1 -6 -2 5 2.49 1.03 0.55 <
588 1 -6 -1 6 0.34 3.51 2.43 <
589 1 6 1 -6 0.30 3.29 2.51 <
590 1 6 2 -6 4.07 7.05 3.53 <
591 1 6 2 -5 2.37 2.29 1.23 <
592 1 6 3 -6 2.64 1.10 1.42 <
593 1 6 3 -5 3.79 1.82 1.99 <
594 1 6 3 -4 2.60 1.81 0.25 o
595 1 6 4 -5 0.96 -2.05 2.64 <
596 1 6 4 -4 1.72 6.96 4.08 <
597 1 6 4 -3 9.00 4.00 1.98 <
598 2 0 -8 3 40.63 33.54 5.17 o
599 2 0 -7 3 27.62 10.44 2.75 o
600 2 0 -7 4 90.60 83.73 8.49 o
601 2 0 -6 2 45.26 45.80 5.00 o
602 2 0 -6 3 61.38 35.96 4.69 o
603 2 0 -6 4 5.09 1.36 1.04 <
604 2 0 -6 5 33.10 34.92 5.87 o
605 2 0 -5 2 137.22 125.32 7.62 o
606 2 0 -5 3 1.57 1.25 0.83 <
607 2 0 -5 4 14.40 6.80 2.29 <
608 2 0 -5 5 4.92 5.39 2.13 <
609 2 0 -4 1 2.00 1.83 1.03 <
610 2 0 -4 2 14.83 20.16 2.74 o
611 2 0 -4 3 158.56 138.75 8.38 o
612 2 0 -4 4 1.39 -0.11 0.27 <
613 2 0 -4 5 0.92 5.82 2.58 <
614 2 0 -4 6 31.77 12.57 3.32 o
615 2 0 -3 1 26.80 26.52 2.60 o
616 2 0 -3 2 376.09 345.96 10.76 o
617 2 0 -3 3 8.47 4.17 1.49 <
618 2 0 -3 4 4.31 3.19 1.20 <
619 2 0 -3 5 11.95 4.79 1.68 <
620 2 0 -3 6 0.48 1.49 2.04 <
621 2 0 -2 1 1.36 0.42 0.17 <
622 2 0 -2 2 246.58 189.47 7.27 o
623 2 0 -2 3 216.86 202.93 9.27 o
624 2 0 -2 4 8.85 5.05 1.51 o
625 2 0 -2 5 38.07 44.48 5.50 o
626 2 0 -2 6 19.46 11.69 2.90 o
627 2 0 -2 7 1.45 -1.07 1.59 <
628 2 0 -1 1 745.13 606.73 9.22 o
629 2 0 -1 2 92.75 102.58 5.18 o
630 2 0 -1 -3 63.68 41.72 3.90 o
631 2 0 -1 3 63.68 53.60 4.69 o
632 2 0 -1 4 238.81 212.06 10.56 o
633 2 0 -1 -4 238.81 208.60 10.16 o
634 2 0 -1 -5 45.11 49.93 5.58 o
635 2 0 -1 5 45.11 53.17 5.82 o
636 2 0 -1 6 21.67 12.75 3.69 o
637 2 0 -1 -6 21.67 8.70 2.34 o
638 2 0 -1 -7 4.51 2.66 1.67 <
639 2 0 -1 7 4.51 3.32 1.51 <
640 2 0 0 -1 192.14 139.67 4.12 o
641 2 0 0 1 192.14 140.78 4.06 o
642 2 0 0 -2 4.08 4.42 1.16 o
643 2 0 0 2 4.08 4.30 1.00 o
644 2 0 0 -3 198.73 161.51 7.92 o
645 2 0 0 3 198.73 163.61 8.33 o
646 2 0 0 -4 0.63 -0.32 0.64 <
647 2 0 0 4 0.63 1.63 0.79 <
648 2 0 0 -5 113.85 149.52 9.82 o
649 2 0 0 5 113.85 156.74 10.75 o
650 2 0 0 6 5.66 6.92 2.54 <
651 2 0 0 -6 5.66 4.94 1.88 <
652 2 0 0 -7 10.31 3.45 1.96 <
653 2 0 0 7 10.31 4.10 2.36 <
654 2 0 1 -1 745.21 606.10 9.07 o
655 2 0 1 -2 92.93 101.37 5.10 o
656 2 0 1 -3 63.80 52.89 4.50 o
657 2 0 1 -4 238.33 201.04 9.83 o
658 2 0 1 -5 45.16 50.03 5.45 o
659 2 0 1 -6 21.74 11.46 3.14 o
660 2 0 1 -7 4.36 2.48 1.20 <
661 2 0 2 -1 1.30 0.40 0.39 <
662 2 0 2 -2 246.74 179.93 6.91 o
663 2 0 2 -3 216.67 205.19 8.97 o
664 2 0 2 -4 8.80 3.54 1.17 o
665 2 0 2 -5 37.96 47.55 5.44 o
666 2 0 2 -6 19.42 11.62 3.24 o
667 2 0 2 -7 1.45 0.28 1.25 <
668 2 0 3 -1 26.94 27.98 2.71 o
669 2 0 3 -2 375.67 381.42 11.78 o
670 2 0 3 -3 8.43 4.92 1.50 o
671 2 0 3 -4 4.56 3.58 1.12 o
672 2 0 3 -5 11.83 5.70 2.06 <
673 2 0 3 -6 0.42 0.63 0.85 <
674 2 0 4 -2 14.88 23.24 2.89 o
675 2 0 4 -3 158.64 147.62 8.77 o
676 2 0 4 -4 1.41 -1.74 1.08 <
677 2 0 4 -5 0.91 4.82 1.88 <
678 2 0 4 -6 31.82 15.64 3.70 o
679 2 0 5 -2 137.32 132.81 8.07 o
680 2 0 5 -3 1.53 0.60 0.16 o
681 2 0 5 -4 14.45 7.49 2.51 <
682 2 0 5 -5 5.00 7.27 2.16 o
683 2 0 6 -3 61.54 41.84 5.07 o
684 2 0 6 -4 5.08 2.97 1.53 <
685 2 0 6 -5 33.05 43.34 6.44 o
686 2 0 7 -3 27.60 13.89 3.17 o
687 2 0 7 -4 90.71 95.83 10.46 o
688 3 -1 8 -1 74.85 64.58 6.49 o
688 2 1 -8 1 74.85 64.58 6.49 o
689 2 1 -8 2 10.17 7.78 2.32 o
690 3 -1 7 -1 0.71 0.53 0.85 <
690 2 1 -7 1 0.71 0.53 0.85 <
691 2 1 -7 2 13.97 5.82 1.78 o
692 2 1 -7 3 21.74 13.57 3.18 o
693 2 -1 -6 5 45.18 52.81 6.80 o
694 2 -1 -6 4 18.28 19.18 4.13 o
695 3 -1 6 -1 221.21 264.81 11.42 o
695 2 1 -6 1 221.21 264.81 11.42 o
696 2 1 -6 2 31.17 24.81 3.43 o
697 2 1 -6 3 18.13 12.38 2.97 o
698 2 1 -6 4 46.70 37.99 5.59 o
699 2 -1 -5 6 17.49 13.80 3.58 o
700 2 -1 -5 5 9.22 14.42 3.49 o
701 2 -1 -5 4 52.41 50.25 5.64 o
702 2 -1 -5 3 109.59 114.33 8.43 o
703 3 -1 5 -1 77.56 86.86 5.82 o
703 2 1 -5 1 77.56 86.86 5.82 o
704 2 1 -5 2 105.00 119.46 7.76 o
705 2 1 -5 3 59.04 46.71 5.43 o
706 2 1 -5 4 12.03 4.05 1.88 <
707 2 1 -5 5 15.95 12.51 3.57 o
708 2 -1 -4 6 0.69 0.46 1.41 <
709 2 -1 -4 5 11.47 21.42 3.89 o
710 2 -1 -4 4 57.14 62.43 6.23 o
711 2 -1 -4 3 38.35 38.59 4.29 o
712 3 -1 4 -1 560.14 699.90 15.84 o
712 2 1 -4 1 560.14 699.90 15.84 o
713 2 1 -4 2 41.14 37.51 4.11 o
714 2 1 -4 3 50.07 50.00 5.39 o
715 2 1 -4 4 9.99 8.01 2.30 o
716 2 1 -4 5 1.05 0.44 1.43 <
717 2 -1 -3 7 8.70 6.25 2.20 <
718 2 -1 -3 6 23.73 15.33 3.37 o
719 2 -1 -3 5 17.94 47.14 5.49 o
720 2 -1 -3 4 64.55 63.21 5.53 o
721 2 -1 -3 3 268.57 234.13 9.78 o
722 3 -1 3 -1 43.23 49.11 3.76 o
722 2 1 -3 1 43.23 49.11 3.76 o
723 2 1 -3 2 259.78 257.18 10.34 o
724 2 1 -3 3 63.96 64.93 6.23 o
725 2 1 -3 4 14.41 9.17 2.34 o
726 2 1 -3 5 21.88 17.79 4.07 o
727 2 1 -3 6 11.58 6.01 2.67 <
728 2 1 -2 -7 13.21 8.64 2.66 o
729 2 -1 -2 7 13.21 9.11 2.82 o
730 2 1 -2 -6 1.72 -0.63 1.05 <
731 2 -1 -2 6 1.72 1.71 1.44 <
732 2 1 -2 -5 57.98 62.67 5.50 o
733 2 -1 -2 5 57.98 67.59 6.12 o
734 2 1 -2 -4 27.69 26.80 3.13 o
735 2 -1 -2 4 27.69 26.23 3.36 o
736 2 1 -2 -3 168.24 148.05 6.24 o
737 2 -1 -2 3 168.24 153.60 7.00 o
738 2 -1 -2 2 644.66 666.37 13.77 o
739 3 -1 2 -1 1218.10 1422.61 20.29 o
739 2 1 -2 1 1218.10 1422.61 20.29 o
740 2 1 -2 2 174.82 163.56 8.17 o
741 2 1 -2 3 23.73 22.11 3.44 o
742 2 1 -2 4 58.42 51.00 5.93 o
743 2 1 -2 5 0.95 1.73 0.80 <
744 2 1 -2 6 12.82 3.98 1.41 <
745 2 -1 -1 7 6.48 3.56 2.00 <
746 2 1 -1 -7 6.48 4.13 1.80 <
747 2 -1 -1 6 34.93 29.22 4.41 o
748 2 1 -1 -6 34.93 28.94 3.95 o
749 2 1 -1 -5 38.96 52.25 4.95 o
750 2 -1 -1 5 38.96 57.77 5.59 o
751 2 -1 -1 4 106.28 102.53 6.23 o
752 2 1 -1 -4 106.28 107.42 5.86 o
753 2 1 -1 -3 70.56 62.30 3.64 o
754 2 -1 -1 3 70.56 60.67 4.10 o
755 2 1 -1 -2 219.73 231.93 4.70 o
756 2 -1 -1 2 219.73 231.37 6.94 o
757 3 -1 1 -1 467.38 525.71 12.28 o
757 2 1 -1 1 467.38 525.71 12.28 o
758 2 1 -1 2 71.32 57.40 4.82 o
759 2 1 -1 3 112.11 100.71 7.65 o
760 2 1 -1 4 36.25 25.27 4.04 o
761 2 1 -1 5 36.37 38.04 5.80 o
762 2 1 -1 6 5.29 2.73 1.87 <
763 2 -1 0 7 7.89 2.09 0.94 <
764 2 1 0 -7 7.89 4.85 2.02 <
765 2 1 0 -6 5.70 3.43 1.53 <
766 2 -1 0 6 5.70 2.57 1.08 <
767 2 1 0 -5 162.91 180.09 9.09 o
768 2 -1 0 5 162.91 183.37 9.72 o
769 2 -1 0 4 142.77 143.76 7.19 o
770 2 1 0 -4 142.77 139.66 6.75 o
771 2 1 0 -3 1.40 0.87 0.31 <
772 2 -1 0 3 1.40 1.75 0.71 <
773 2 -1 0 2 81.52 84.59 3.29 o
774 2 1 0 -2 81.52 85.11 3.37 o
775 2 -1 0 -4 174.46 123.26 8.79 o
776 2 -1 0 -5 3.17 1.82 0.85 <
777 2 -1 1 7 5.99 0.75 8.40 <
778 2 1 1 -7 5.99 3.31 1.88 <
779 2 -1 1 6 33.76 30.30 4.65 o
780 2 1 1 -6 33.76 34.97 4.54 o
781 2 -1 1 5 37.50 59.02 5.88 o
782 2 1 1 -5 37.50 58.27 5.35 o
783 2 1 1 -4 104.97 103.31 6.11 o
784 2 -1 1 4 104.97 108.19 6.47 o
785 2 -1 1 3 75.29 58.98 3.81 o
786 2 1 1 -3 75.29 60.78 4.13 o
787 2 -1 1 2 222.18 239.19 5.19 o
788 2 1 1 -2 222.18 236.70 7.21 o
789 3 1 -1 1 467.04 489.67 11.52 o
789 2 -1 1 -1 467.04 489.67 11.52 o
790 2 -1 1 -2 67.07 61.34 4.79 o
791 2 -1 1 -3 112.88 98.09 7.04 o
792 2 -1 1 -4 37.54 25.00 3.97 o
793 2 -1 1 -5 37.98 31.82 4.81 o
794 2 -1 1 -6 5.76 2.20 1.76 <
795 2 1 2 -7 13.58 8.65 2.38 o
796 2 1 2 -6 1.72 12.97 6.00 <
797 2 1 2 -5 56.22 71.73 6.18 o
798 2 1 2 -4 26.57 26.61 3.52 o
799 2 1 2 -3 164.14 178.27 8.00 o
800 2 1 2 -2 644.66 673.66 13.75 o
801 3 1 -2 1 1218.01 1333.27 18.69 o
801 2 -1 2 -1 1218.01 1333.27 18.69 o
802 2 -1 2 -2 179.24 156.66 7.94 o
803 2 -1 2 -3 24.86 19.94 3.10 o
804 2 -1 2 -4 60.23 44.51 5.17 o
805 2 -1 2 -5 0.97 -1.82 1.49 <
806 2 -1 2 -6 12.46 5.68 2.21 <
807 2 1 3 -7 8.62 8.37 3.17 <
808 2 1 3 -6 23.96 18.52 3.60 o
809 2 1 3 -5 17.94 49.29 5.59 o
810 2 1 3 -4 62.33 68.91 5.88 o
811 2 1 3 -3 268.29 270.84 11.00 o
812 3 1 -3 1 43.16 48.12 3.52 o
812 2 -1 3 -1 43.16 48.12 3.52 o
813 2 -1 3 -2 260.07 240.69 9.42 o
814 2 -1 3 -3 66.42 61.23 5.50 o
815 2 -1 3 -4 14.47 10.56 2.54 o
816 2 -1 3 -5 21.37 17.35 3.54 o
817 2 -1 3 -6 11.71 9.60 3.03 o
818 2 1 4 -6 0.68 1.52 1.40 <
819 2 1 4 -5 12.09 17.39 3.38 o
820 2 1 4 -4 57.92 68.10 6.92 o
821 2 1 4 -3 39.05 42.30 4.56 o
822 3 1 -4 1 560.46 703.88 16.14 o
822 2 -1 4 -1 560.46 703.88 16.14 o
823 2 -1 4 -2 40.32 39.10 3.90 o
824 2 -1 4 -3 49.24 49.72 5.11 o
825 2 -1 4 -4 9.48 10.23 2.59 o
826 2 -1 4 -5 1.05 1.07 0.80 <
827 2 1 5 -6 17.57 21.44 4.64 o
828 2 1 5 -5 9.58 17.55 3.86 o
829 2 1 5 -4 54.29 55.42 6.21 o
830 3 1 -5 1 77.66 89.67 6.12 o
830 2 -1 5 -1 77.66 89.67 6.12 o
831 2 -1 5 -2 105.97 117.25 7.62 o
832 2 -1 5 -3 56.84 49.25 5.18 o
833 2 -1 5 -4 11.59 5.97 2.19 <
834 2 -1 5 -5 16.00 12.26 3.12 o
835 2 1 6 -5 45.77 69.02 7.86 o
836 2 1 6 -4 18.05 24.77 4.63 o
837 3 1 -6 1 220.81 281.72 12.09 o
837 2 -1 6 -1 220.81 281.72 12.09 o
838 2 -1 6 -2 29.63 31.23 4.07 o
839 2 -1 6 -3 18.39 11.33 2.82 o
840 2 -1 6 -4 46.12 37.49 5.38 o
841 2 -1 7 -2 14.08 7.85 1.95 o
842 2 -1 7 -3 21.85 11.82 3.06 o
843 2 2 -8 -1 39.12 33.19 3.69 o
844 2 2 -8 1 6.20 5.63 1.83 o
845 2 2 -7 -1 0.23 -0.49 0.67 <
846 2 2 -7 1 26.25 22.26 3.73 o
847 3 -2 7 -2 1.80 1.57 1.00 <
847 2 2 -7 2 1.80 1.57 1.00 <
848 2 2 -7 3 6.16 4.37 1.88 <
849 2 2 -6 -2 18.47 24.28 2.61 o
850 2 2 -6 -1 72.09 69.73 4.50 o
851 2 2 -6 1 19.82 23.23 3.36 o
852 3 -2 6 -2 59.00 65.18 6.52 o
852 2 2 -6 2 59.00 65.18 6.52 o
853 2 2 -6 3 7.36 3.71 1.12 o
854 2 -2 -5 6 12.92 11.05 3.03 o
855 2 -2 -5 5 41.70 91.55 8.23 o
856 2 2 -5 -2 93.01 91.32 4.43 o
857 2 2 -5 -1 34.89 41.94 3.17 o
858 2 2 -5 1 65.64 89.38 6.66 o
859 3 -2 5 -2 32.00 32.78 4.41 o
859 2 2 -5 2 32.00 32.78 4.41 o
860 2 2 -5 3 43.70 46.91 5.95 o
861 2 2 -5 4 14.29 9.70 2.83 o
862 2 2 -4 -7 12.44 6.45 2.11 o
863 2 -2 -4 7 12.44 5.30 1.55 o
864 2 -2 -4 6 28.71 32.28 4.59 o
865 2 2 -4 -6 28.71 23.18 3.30 o
866 2 2 -4 -5 0.25 0.74 0.58 <
867 2 -2 -4 5 0.25 0.66 0.79 <
868 2 2 -4 -2 1.69 2.11 0.48 o
869 2 2 -4 -1 347.96 344.73 8.59 o
870 2 2 -4 1 79.99 110.77 7.21 o
871 3 -2 4 -2 309.12 359.97 14.59 o
871 2 2 -4 2 309.12 359.97 14.59 o
872 2 2 -4 3 0.48 -0.06 0.78 <
873 2 2 -4 4 29.02 29.36 5.11 o
874 2 2 -4 5 12.09 9.33 3.45 <
875 2 -2 -3 7 15.67 11.39 3.05 o
876 2 2 -3 -7 15.67 6.37 1.89 o
877 2 -2 -3 6 7.32 9.70 2.56 o
878 2 2 -3 -6 7.32 5.18 1.55 o
879 2 -2 -3 5 62.05 111.89 7.70 o
880 2 2 -3 -5 62.05 95.59 5.43 o
881 2 2 -3 -4 14.31 12.90 1.54 o
882 2 -2 -3 4 14.31 16.47 2.99 o
883 2 2 -3 -1 6.54 6.72 0.90 o
884 2 2 -3 1 159.24 206.87 9.84 o
885 3 -2 3 -2 28.38 23.65 3.55 o
885 2 2 -3 2 28.38 23.65 3.55 o
886 2 2 -3 3 59.02 64.31 6.70 o
887 2 2 -3 4 9.62 8.60 2.80 o
888 2 2 -3 5 18.28 14.13 3.65 o
889 2 -2 -2 7 7.52 4.61 2.07 <
890 2 2 -2 -7 7.52 3.57 1.12 o
891 2 2 -2 -6 42.01 39.95 4.03 o
892 2 -2 -2 6 42.01 43.17 5.00 o
893 2 2 -2 -5 17.81 27.22 2.75 o
894 2 -2 -2 5 17.81 33.02 3.84 o
895 2 2 -2 -4 87.37 94.17 4.03 o
896 2 -2 -2 4 87.37 91.83 6.09 o
897 2 2 -2 1 123.04 150.32 8.38 o
898 3 -2 2 -2 171.20 206.05 10.91 o
898 2 2 -2 2 171.20 206.05 10.91 o
899 2 2 -2 3 19.57 16.39 3.54 o
900 2 2 -2 4 38.05 37.90 5.99 o
901 2 2 -2 5 7.85 6.65 2.78 <
902 2 2 -1 -7 3.38 1.01 0.87 <
903 2 -2 -1 7 3.38 -1.08 1.40 <
904 2 2 -1 -6 24.12 23.34 3.13 o
905 2 -2 -1 6 24.12 22.24 3.42 o
906 2 2 -1 -5 39.75 60.58 4.22 o
907 2 -2 -1 5 39.75 66.84 5.07 o
908 2 -2 -1 4 28.01 34.54 3.28 o
909 2 2 -1 -4 28.01 30.96 2.54 o
910 2 2 -1 -3 154.32 144.18 4.59 o
911 2 -2 -1 3 154.32 147.09 6.49 o
912 2 2 0 -7 19.07 11.68 2.52 o
913 2 -2 0 7 19.07 11.17 2.88 o
914 2 2 0 -6 2.37 2.90 1.15 <
915 2 -2 0 6 2.37 4.29 1.68 <
916 2 -2 0 5 0.89 3.03 1.23 <
917 2 2 0 -5 0.89 3.42 1.26 <
918 2 -2 0 4 125.40 123.82 5.51 o
919 2 2 0 -4 125.40 117.46 5.98 o
920 2 2 0 -3 0.69 -0.46 0.20 <
921 2 -2 0 3 0.69 0.23 0.25 <
922 2 -2 1 7 3.76 1.48 1.03 <
923 2 2 1 -7 3.76 -1.22 1.43 <
924 2 2 1 -6 24.67 25.91 3.63 o
925 2 -2 1 6 24.67 21.83 3.33 o
926 2 -2 1 5 38.98 65.86 4.80 o
927 2 2 1 -5 38.98 66.44 5.40 o
928 2 -2 1 4 28.93 31.11 2.75 o
929 2 2 1 -4 28.93 34.24 3.63 o
930 2 -2 1 3 148.89 151.39 4.30 o
931 2 2 2 -7 7.89 8.02 2.75 <
932 2 -2 2 6 41.11 38.07 4.67 o
933 2 2 2 -6 41.11 54.17 5.79 o
934 2 -2 2 5 18.28 26.30 3.11 o
935 2 2 2 -5 18.28 30.31 3.92 o
936 2 -2 2 4 87.27 88.62 4.75 o
937 2 2 2 -4 87.27 99.99 6.66 o
938 2 -2 2 1 441.22 395.86 7.49 o
939 2 -2 2 -1 117.60 143.73 7.72 o
940 3 2 -2 2 171.27 186.03 9.69 o
940 2 -2 2 -2 171.27 186.03 9.69 o
941 2 -2 2 -3 18.99 14.63 3.05 o
942 2 -2 2 -4 38.96 34.01 5.07 o
943 2 -2 2 -5 7.60 6.12 2.61 <
944 2 2 3 -7 15.82 12.91 3.47 o
945 2 2 3 -6 7.69 9.07 2.45 o
946 2 2 3 -5 61.12 126.92 8.99 o
947 2 2 3 -4 14.52 17.56 2.96 o
948 2 -2 3 1 6.51 6.64 0.89 o
949 2 -2 3 -1 158.84 181.30 8.45 o
950 3 2 -3 2 28.34 21.81 3.23 o
950 2 -2 3 -2 28.34 21.81 3.23 o
951 2 -2 3 -3 60.35 58.23 5.84 o
952 2 -2 3 -4 9.12 8.20 2.34 o
953 2 -2 3 -5 18.05 11.17 3.38 o
954 2 2 4 -7 12.15 13.30 3.65 o
955 2 2 4 -6 28.69 40.54 6.07 o
956 2 2 4 -5 0.20 -1.39 1.24 <
957 2 -2 4 1 347.70 324.15 8.48 o
958 2 -2 4 -1 81.16 98.23 6.11 o
959 3 2 -4 2 309.00 332.73 12.77 o
959 2 -2 4 -2 309.00 332.73 12.77 o
960 2 -2 4 -3 0.58 2.03 1.70 <
961 2 -2 4 -4 28.98 26.31 4.37 o
962 2 -2 4 -5 12.32 12.00 3.33 o
963 2 2 5 -6 12.45 14.13 3.77 o
964 2 2 5 -5 42.77 104.00 9.04 o
965 2 -2 5 -1 64.67 83.17 6.01 o
966 3 2 -5 2 32.05 28.13 3.77 o
966 2 -2 5 -2 32.05 28.13 3.77 o
967 2 -2 5 -3 42.46 41.48 5.12 o
968 2 -2 5 -4 14.77 8.23 2.33 o
969 2 -2 6 -1 21.66 21.10 3.17 o
970 3 2 -6 2 59.13 60.74 6.14 o
970 2 -2 6 -2 59.13 60.74 6.14 o
971 2 -2 6 -3 7.65 6.45 1.94 o
972 2 -2 7 -1 25.83 24.69 3.96 o
973 3 2 -7 2 1.79 2.69 1.35 <
973 2 -2 7 -2 1.79 2.69 1.35 <
974 2 -2 7 -3 6.48 4.65 1.69 <
975 2 -2 8 -1 5.37 6.88 2.01 o
976 2 3 -8 -2 5.90 7.41 1.80 o
977 2 3 -8 -1 5.12 6.90 2.13 o
978 2 3 -7 -4 39.36 33.16 2.79 o
979 2 3 -7 -3 2.94 2.19 0.67 o
980 2 3 -7 -2 10.84 6.27 1.60 o
981 2 3 -7 -1 10.51 5.34 1.49 o
982 2 3 -7 1 38.59 47.13 5.90 o
983 2 3 -6 -4 0.40 0.42 0.23 <
984 2 3 -6 -3 64.15 60.13 3.42 o
985 2 3 -6 -2 10.56 5.47 1.21 o
986 2 3 -6 -1 8.85 3.35 1.11 o
987 2 3 -6 1 0.60 -0.30 1.10 <
988 2 3 -6 2 12.41 18.04 3.75 o
989 2 3 -5 -6 7.68 4.75 1.05 o
990 2 3 -5 -5 16.96 8.34 0.96 o
991 2 3 -5 -3 0.47 0.27 0.13 <
992 2 3 -5 -2 75.08 78.07 4.29 o
993 2 3 -5 -1 74.53 74.76 5.27 o
994 2 3 -5 1 21.36 26.83 4.04 o
995 2 3 -5 2 18.89 18.27 3.87 o
996 2 3 -5 3 11.69 17.29 3.85 o
997 2 -3 -4 7 0.06 -0.80 1.05 <
998 2 3 -4 -7 0.06 -2.48 1.16 <
999 2 3 -4 -6 21.54 17.63 1.97 o
1000 2 -3 -4 6 21.54 24.16 4.00 o
1001 2 3 -4 -5 7.44 6.91 0.82 o
1002 2 3 -4 -2 42.72 43.49 3.01 o
1003 2 3 -4 -1 40.01 40.54 3.77 o
1004 2 3 -4 1 4.09 3.28 1.42 <
1005 2 3 -4 2 5.44 7.67 3.02 <
1006 2 3 -4 3 25.55 59.22 8.20 o
1007 2 3 -4 4 0.22 0.08 0.67 <
1008 2 3 -3 -7 14.19 12.61 2.24 o
1009 2 -3 -3 7 14.19 17.58 3.54 o
1010 2 3 -3 -6 8.49 5.33 1.21 o
1011 2 -3 -3 6 8.49 6.01 2.18 <
1012 2 3 -3 -5 41.30 50.59 2.77 o
1013 2 3 -3 1 17.48 19.11 3.37 o
1014 2 3 -3 2 49.20 58.54 6.83 o
1015 2 3 -3 3 10.59 13.27 3.25 o
1016 2 3 -3 4 13.17 12.69 3.85 o
1017 2 -3 -2 7 0.37 0.21 0.75 <
1018 2 3 -2 -7 0.37 0.74 0.45 <
1019 2 -3 -2 6 47.29 64.38 5.73 o
1020 2 3 -2 -6 47.29 60.26 4.19 o
1021 2 3 -2 -5 23.72 58.44 3.50 o
1022 2 -3 -2 5 23.72 63.79 5.62 o
1023 2 -3 -1 8 3.21 2.15 0.77 <
1024 2 3 -1 -8 3.21 2.57 1.20 <
1025 2 -3 -1 7 9.80 13.30 2.74 o
1026 2 3 -1 -7 9.80 11.07 2.25 o
1027 2 -3 -1 6 11.78 13.46 2.52 o
1028 2 3 -1 -6 11.78 14.01 2.15 o
1029 2 3 -1 -5 31.98 58.78 4.13 o
1030 2 -3 -1 5 31.98 62.41 4.91 o
1031 2 -3 0 8 15.89 12.64 3.26 o
1032 2 3 0 -8 15.89 20.90 3.78 o
1033 2 -3 0 7 0.05 0.04 0.34 <
1034 2 3 0 -7 0.05 2.20 1.32 <
1035 2 -3 0 6 0.96 2.43 1.04 <
1036 2 3 0 -6 0.96 2.63 1.34 <
1037 2 -3 0 5 43.40 113.55 5.88 o
1038 2 3 0 -5 43.40 115.96 6.65 o
1039 2 -3 0 4 23.00 27.88 2.87 o
1040 2 -3 1 8 3.25 3.79 1.83 <
1041 2 3 1 -8 3.25 3.92 1.49 <
1042 2 3 1 -7 9.81 12.57 2.83 o
1043 2 -3 1 7 9.81 11.57 2.75 o
1044 2 -3 1 6 11.38 12.99 2.37 o
1045 2 3 1 -6 11.38 11.96 2.48 o
1046 2 -3 1 5 33.51 60.72 3.87 o
1047 2 -3 1 4 118.98 108.61 4.48 o
1048 2 -3 2 7 0.37 2.78 1.19 <
1049 2 3 2 -7 0.37 -0.29 1.25 <
1050 2 -3 2 6 48.00 56.79 4.51 o
1051 2 3 2 -6 48.00 71.32 6.51 o
1052 2 -3 2 5 23.63 56.01 3.55 o
1053 2 -3 2 4 0.20 0.76 0.37 <
1054 2 3 3 -7 14.34 15.83 3.16 o
1055 2 3 3 -6 8.10 9.50 2.56 o
1056 2 -3 3 2 78.60 62.75 2.87 o
1057 2 -3 3 1 72.95 72.71 4.37 o
1058 2 -3 3 -1 16.02 18.00 2.85 o
1059 2 -3 3 -2 48.64 56.61 6.07 o
1060 2 -3 3 -3 11.02 15.46 3.74 o
1061 2 -3 3 -4 12.97 11.47 3.00 o
1062 2 3 4 -7 0.06 1.30 1.21 <
1063 2 -3 4 2 43.85 31.05 2.29 o
1064 2 -3 4 1 38.94 36.61 3.02 o
1065 2 -3 4 -1 4.04 2.83 1.31 <
1066 2 -3 4 -2 5.41 5.58 1.97 <
1067 2 -3 4 -3 25.82 46.04 5.96 o
1068 2 -3 4 -4 0.22 0.10 0.25 <
1069 2 -3 5 1 75.26 74.11 4.47 o
1070 2 -3 5 -1 22.94 18.46 2.83 o
1071 2 -3 5 -2 19.72 14.62 2.93 o
1072 2 -3 5 -3 11.21 13.02 3.14 o
1073 2 -3 6 1 7.84 7.58 1.54 o
1074 2 -3 6 -1 0.67 1.37 0.23 o
1075 2 -3 6 -2 12.28 13.72 3.03 o
1076 2 -3 7 -1 38.47 43.05 5.05 o
1077 2 4 -7 -3 16.35 16.84 2.15 o
1078 2 4 -7 -2 0.10 2.19 1.28 <
1079 2 4 -7 -1 16.32 18.95 3.33 o
1080 2 4 -6 -2 20.62 16.40 2.49 o
1081 2 4 -6 -1 2.77 4.07 1.86 <
1082 2 4 -6 1 18.42 21.23 4.13 o
1083 2 4 -5 -1 19.67 15.67 3.60 o
1084 2 4 -5 1 2.38 1.94 1.45 <
1085 2 4 -5 2 7.28 13.31 3.99 o
1086 2 4 -4 -7 4.33 5.85 1.20 o
1087 2 4 -3 -7 6.62 7.59 1.34 o
1088 2 -4 -3 7 6.62 6.19 1.43 o
1089 2 -4 -2 7 7.88 7.46 1.85 o
1090 2 4 -2 -7 7.88 11.30 2.13 o
1091 2 -4 -1 7 3.13 1.99 0.97 <
1092 2 4 -1 -7 3.13 2.59 0.73 o
1093 2 -4 -1 6 11.89 11.56 2.31 o
1094 2 -4 0 7 5.73 9.27 2.06 o
1095 2 4 0 -7 5.73 13.76 2.62 o
1096 2 -4 0 6 1.91 -10.18 2.91 <
1097 2 -4 1 7 2.89 5.79 1.75 o
1098 2 -4 1 6 12.16 15.72 2.09 o
1099 2 -4 1 5 11.02 25.57 2.56 o
1100 2 -4 2 7 7.67 6.35 1.62 o
1101 2 -4 2 6 1.12 1.26 0.51 <
1102 2 -4 2 5 22.50 32.27 2.23 o
1103 2 -4 3 6 12.95 11.62 1.65 o
1104 2 -4 3 3 24.27 18.64 1.78 o
1105 2 -4 3 2 0.25 0.79 0.59 <
1106 2 -4 3 1 24.68 21.56 2.87 o
1107 2 -4 4 3 2.76 1.31 0.41 o
1108 2 -4 4 2 68.91 56.95 3.67 o
1109 2 -4 4 1 1.48 0.96 0.56 <
1110 2 -4 4 -1 9.68 5.66 2.01 <
1111 2 -4 4 -2 2.42 2.19 0.98 <
1112 2 -4 4 -3 3.96 4.19 1.89 <
1113 2 -4 5 2 0.31 0.55 0.22 <
1114 2 -4 5 1 18.59 14.36 2.22 o
1115 2 -4 5 -1 2.46 2.36 1.25 <
1116 2 -4 5 -2 7.33 8.78 2.65 o
1117 2 -4 6 2 20.57 12.44 1.83 o
1118 2 -4 6 1 2.66 1.71 0.70 <
1119 2 -4 6 -1 18.41 18.57 3.30 o
1120 2 -4 7 1 16.56 11.22 2.33 o
1121 2 -5 0 7 2.36 4.99 1.41 o
1122 2 -5 1 7 2.76 3.82 1.18 o
1123 2 -5 1 6 5.48 7.73 1.75 o
1124 2 -5 2 7 3.57 9.23 1.59 o
1125 2 -5 2 6 4.00 4.62 1.12 o
1126 2 -5 3 7 1.60 2.43 0.61 o
1127 2 -5 3 6 2.83 3.40 0.79 o
1128 2 -5 3 5 5.61 2.89 0.67 o
1129 2 -5 4 4 11.72 5.72 0.75 o
1130 2 -5 4 3 2.64 1.69 0.76 <
1131 2 -5 4 2 1.48 3.32 1.43 <
1132 2 -5 4 1 11.90 9.28 2.25 o
1133 2 -5 5 3 9.98 7.82 1.25 o
1134 2 -5 5 2 9.25 6.33 1.56 o
1135 2 -5 5 1 0.64 1.37 0.89 <
1136 2 -5 6 3 2.12 2.08 0.78 <
1137 2 -5 6 2 2.38 1.59 0.17 o
1138 2 -5 6 1 9.57 7.01 1.84 o
1139 2 -6 3 6 2.49 1.70 0.64 <
1140 2 -6 4 5 0.90 -0.41 0.27 <
1141 3 0 -7 3 23.65 11.72 2.16 o
1142 3 0 -7 4 77.59 70.21 5.53 o
1143 3 0 -6 2 38.76 35.81 3.43 o
1144 3 0 -6 3 52.57 35.39 3.44 o
1145 3 0 -6 4 4.36 3.16 1.14 <
1146 3 0 -6 5 28.35 33.49 4.08 o
1147 3 0 -5 2 117.52 111.76 5.65 o
1148 3 0 -5 3 1.34 1.66 0.95 <
1149 3 0 -5 4 12.33 3.90 0.79 o
1150 3 0 -5 5 4.22 4.47 1.46 o
1151 3 0 -4 2 12.70 18.66 2.05 o
1152 3 0 -4 3 135.80 123.65 5.98 o
1153 3 0 -4 4 1.19 0.40 0.15 <
1154 3 0 -4 5 0.79 2.49 1.11 <
1155 3 0 -3 1 22.95 20.20 1.86 o
1156 3 0 -3 2 322.10 360.21 8.43 o
1157 3 0 -3 3 7.26 4.16 1.26 o
1158 3 0 -3 4 3.69 3.46 1.05 o
1159 3 0 -2 1 1.17 0.38 0.06 o
1160 3 0 -2 2 211.18 178.01 5.74 o
1161 3 0 -2 3 185.73 174.04 6.98 o
1162 3 0 -1 1 638.18 681.72 8.24 o
1163 3 0 1 -1 638.24 681.85 8.35 o
1164 3 0 2 -1 1.11 0.30 0.27 <
1165 3 0 2 -2 211.32 175.52 5.91 o
1166 3 0 3 -1 23.07 21.20 2.01 o
1167 3 0 3 -2 321.75 362.79 8.91 o
1168 3 0 3 -3 7.22 2.77 0.87 o
1169 3 0 4 -1 1.93 1.74 0.48 o
1170 3 0 4 -2 12.75 18.81 2.17 o
1171 3 0 4 -3 135.87 120.36 6.57 o
1172 3 0 5 -1 92.72 129.81 6.65 o
1173 3 0 5 -2 117.61 109.10 5.78 o
1174 3 0 5 -3 1.31 1.31 0.99 <
1175 3 0 5 -4 12.37 4.80 1.48 o
1176 3 0 6 -1 16.68 24.91 2.93 o
1177 3 0 6 -2 38.75 44.71 3.83 o
1178 3 0 6 -3 52.70 35.56 3.97 o
1179 3 0 6 -4 4.35 2.15 1.06 <
1180 3 0 6 -5 28.30 32.05 4.42 o
1181 3 0 7 -2 10.67 4.52 1.25 o
1182 3 0 7 -3 23.64 8.57 2.00 o
1183 3 0 7 -4 77.69 65.49 6.03 o
1184 3 0 8 -2 9.00 15.85 3.41 o
1185 3 0 8 -3 34.66 29.45 3.76 o
1186 3 1 -8 2 8.71 6.70 2.06 o
1187 3 -1 -7 4 17.28 14.77 2.25 o
1188 3 1 -7 2 11.97 6.85 1.87 o
1189 3 1 -7 3 18.62 15.72 2.94 o
1190 3 -1 -6 5 38.70 41.18 3.64 o
1191 3 -1 -6 4 15.66 16.07 2.16 o
1192 3 1 -6 1 220.81 269.88 10.98 o
1192 2 -1 6 -1 220.81 269.88 10.98 o
1193 3 1 -6 2 26.70 19.91 2.91 o
1194 3 1 -6 3 15.53 10.38 2.26 o
1195 3 1 -6 4 40.00 33.79 4.10 o
1196 3 -1 -5 6 14.98 11.49 2.31 o
1197 3 -1 -5 5 7.89 11.11 2.04 o
1198 3 -1 -5 4 44.89 41.61 3.18 o
1199 3 -1 -5 3 93.86 98.23 4.54 o
1200 3 1 -5 1 77.66 84.09 5.36 o
1200 2 -1 5 -1 77.66 84.09 5.36 o
1201 3 1 -5 2 89.92 99.15 6.11 o
1202 3 1 -5 3 50.57 40.14 4.20 o
1203 3 1 -5 4 10.30 2.97 1.07 <
1204 3 1 -5 5 13.66 13.68 2.72 o
1205 3 -1 -4 5 9.82 12.09 2.30 o
1206 3 -1 -4 4 48.94 49.53 3.59 o
1207 3 -1 -4 3 32.84 34.25 2.36 o
1208 4 1 4 0 57.70 78.28 4.99 o
1208 3 1 -4 0 57.70 78.28 4.99 o
1209 3 1 -4 1 560.46 708.03 15.28 o
1209 2 -1 4 -1 560.46 708.03 15.28 o
1210 3 1 -4 2 35.23 35.15 3.27 o
1211 3 1 -4 3 42.88 41.77 4.19 o
1212 3 1 -4 4 8.55 6.52 1.61 o
1213 3 1 -4 5 0.90 0.03 0.34 <
1214 3 -1 -3 4 55.29 49.32 3.55 o
1215 3 -1 -3 3 230.02 226.35 5.85 o
1216 3 -1 -3 2 21.47 19.74 1.49 o
1217 4 1 3 0 167.54 215.97 7.38 o
1217 3 1 -3 0 167.54 215.97 7.38 o
1218 3 1 -3 1 43.16 52.12 3.57 o
1218 2 -1 3 -1 43.16 52.12 3.57 o
1219 3 1 -3 2 222.49 212.27 8.41 o
1220 3 1 -3 3 54.78 54.93 4.66 o
1221 3 1 -3 4 12.34 8.35 1.97 o
1222 4 1 2 0 16.99 11.99 1.50 o
1222 3 1 -2 0 16.99 11.99 1.50 o
1223 3 1 -2 1 1218.01 1438.91 18.85 o
1223 2 -1 2 -1 1218.01 1438.91 18.85 o
1224 3 1 -2 2 149.73 145.21 6.71 o
1225 3 1 -2 3 20.32 16.98 2.48 o
1226 4 1 1 0 1021.07 1062.17 12.21 o
1226 3 1 -1 0 1021.07 1062.17 12.21 o
1227 3 1 -1 1 467.04 482.72 10.52 o
1227 2 -1 1 -1 467.04 482.72 10.52 o
1228 4 1 0 0 399.61 312.02 6.15 o
1228 3 1 0 0 399.61 312.02 6.15 o
1229 4 -1 0 0 399.61 312.54 6.10 o
1229 3 -1 0 0 399.61 312.54 6.10 o
1230 4 -1 -1 0 1021.14 1062.64 12.40 o
1230 3 -1 1 0 1021.14 1062.64 12.40 o
1231 3 -1 1 -1 467.38 486.00 10.53 o
1231 2 1 -1 1 467.38 486.00 10.53 o
1232 4 -1 -2 0 17.13 11.59 1.49 o
1232 3 -1 2 0 17.13 11.59 1.49 o
1233 3 -1 2 -1 1218.10 1444.27 19.24 o
1233 2 1 -2 1 1218.10 1444.27 19.24 o
1234 3 -1 2 -2 153.51 141.99 6.73 o
1235 3 1 3 -2 21.95 19.96 1.57 o
1236 4 -1 -3 0 167.50 212.59 7.45 o
1236 3 -1 3 0 167.50 212.59 7.45 o
1237 3 -1 3 -1 43.23 50.39 3.65 o
1237 2 1 -3 1 43.23 50.39 3.65 o
1238 3 -1 3 -2 222.74 214.97 8.73 o
1239 3 -1 3 -3 56.89 54.65 4.74 o
1240 3 1 4 -3 33.44 32.05 2.54 o
1241 3 1 4 -2 255.74 271.35 6.79 o
1242 4 -1 -4 0 57.56 75.69 4.90 o
1242 3 -1 4 0 57.56 75.69 4.90 o
1243 3 -1 4 -1 560.14 714.52 15.53 o
1243 2 1 -4 1 560.14 714.52 15.53 o
1244 3 -1 4 -2 34.53 35.78 3.57 o
1245 3 -1 4 -3 42.17 42.97 4.40 o
1246 3 -1 4 -4 8.12 6.36 1.63 o
1247 3 1 5 -4 46.50 31.64 3.64 o
1248 3 1 5 -3 93.52 88.70 4.73 o
1249 3 1 5 -2 39.91 36.93 2.71 o
1250 4 -1 -5 0 134.19 211.18 9.14 o
1250 3 -1 5 0 134.19 211.18 9.14 o
1251 3 -1 5 -1 77.56 86.93 5.56 o
1251 2 1 -5 1 77.56 86.93 5.56 o
1252 3 -1 5 -2 90.76 100.24 6.50 o
1253 3 -1 5 -3 48.68 40.39 4.50 o
1254 3 -1 5 -4 9.92 3.78 1.38 <
1255 3 1 6 -4 15.46 5.78 1.94 <
1256 3 1 6 -3 29.06 20.55 2.46 o
1257 3 1 6 -2 98.86 118.29 5.71 o
1258 3 -1 6 -1 221.21 273.72 11.31 o
1258 2 1 -6 1 221.21 273.72 11.31 o
1259 3 -1 6 -2 25.38 23.25 3.21 o
1260 3 -1 6 -3 15.75 11.86 3.00 o
1261 3 -1 6 -4 39.50 36.21 4.82 o
1262 3 1 7 -4 17.14 12.89 2.19 o
1263 3 1 7 -3 11.04 8.40 1.65 o
1264 3 1 7 -2 0.48 1.13 0.84 <
1265 3 -1 7 -1 0.71 0.38 0.80 <
1265 2 1 -7 1 0.71 0.38 0.80 <
1266 3 -1 7 -2 12.06 5.92 1.66 o
1267 3 -1 7 -3 18.71 11.04 2.81 o
1268 3 1 8 -3 8.00 9.10 1.98 o
1269 3 -1 8 -1 74.85 65.92 6.04 o
1269 2 1 -8 1 74.85 65.92 6.04 o
1270 3 -1 8 -2 9.33 7.94 2.38 o
1271 3 2 -8 1 5.31 7.64 2.49 o
1272 3 2 -7 1 22.48 19.93 3.28 o
1273 3 2 -7 2 1.79 2.74 1.25 <
1273 2 -2 7 -2 1.79 2.74 1.25 <
1274 3 2 -7 3 5.27 1.59 0.69 <
1275 3 -2 -6 5 6.86 9.94 1.28 o
1276 4 2 6 0 31.01 47.99 4.69 o
1276 3 2 -6 0 31.01 47.99 4.69 o
1277 3 2 -6 1 16.97 19.07 2.98 o
1278 3 2 -6 2 59.13 64.73 5.88 o
1278 2 -2 6 -2 59.13 64.73 5.88 o
1279 3 2 -6 3 6.30 6.85 1.80 o
1280 3 -2 -5 6 11.06 8.14 1.43 o
1281 3 -2 -5 5 35.71 68.99 3.69 o
1282 3 -2 -5 4 16.14 12.91 1.37 o
1283 4 2 5 0 167.88 176.47 8.79 o
1283 3 2 -5 0 167.88 176.47 8.79 o
1284 3 2 -5 1 56.22 83.92 6.33 o
1285 3 2 -5 2 32.05 32.04 3.82 o
1285 2 -2 5 -2 32.05 32.04 3.82 o
1286 3 2 -5 3 37.43 42.30 4.85 o
1287 3 2 -5 4 12.23 9.13 2.27 o
1288 3 -2 -4 6 24.59 21.19 2.52 o
1289 3 -2 -4 5 0.22 -0.27 0.36 <
1290 3 -2 -4 4 130.53 119.23 3.59 o
1291 4 2 4 0 4.14 5.86 1.30 o
1291 3 2 -4 0 4.14 5.86 1.30 o
1292 3 2 -4 1 68.51 93.66 6.23 o
1293 3 2 -4 2 309.00 363.28 12.79 o
1293 2 -2 4 -2 309.00 363.28 12.79 o
1294 3 2 -4 3 0.41 -0.63 0.73 <
1295 3 2 -4 4 24.86 19.63 3.50 o
1296 3 -2 -3 4 12.25 12.87 1.31 o
1297 3 2 -3 -1 5.60 4.94 1.13 o
1298 4 2 3 0 577.30 633.04 14.47 o
1298 3 2 -3 0 577.30 633.04 14.47 o
1299 3 2 -3 1 136.38 187.06 8.48 o
1300 3 2 -3 2 28.34 23.44 3.18 o
1300 2 -2 3 -2 28.34 23.44 3.18 o
1301 3 2 -3 3 50.55 53.75 5.18 o
1302 3 2 -2 -1 377.88 362.39 9.47 o
1303 4 2 2 0 116.77 99.69 5.27 o
1303 3 2 -2 0 116.77 99.69 5.27 o
1304 3 2 -2 1 105.38 119.29 6.82 o
1305 3 2 -2 2 171.27 182.54 8.76 o
1305 2 -2 2 -2 171.27 182.54 8.76 o
1306 3 -2 -1 1 334.93 294.20 6.49 o
1307 3 2 -1 -1 334.93 291.20 7.69 o
1308 4 2 1 0 118.98 91.91 5.00 o
1308 3 2 -1 0 118.98 91.91 5.00 o
1309 3 2 -1 1 134.82 147.42 7.29 o
1310 3 -2 0 2 0.38 1.46 0.40 o
1311 3 2 0 -1 96.43 89.08 3.77 o
1312 3 -2 0 1 96.43 91.86 3.92 o
1313 4 2 0 0 2.75 4.11 0.91 o
1313 3 2 0 0 2.75 4.11 0.91 o
1314 4 -2 0 0 2.75 3.66 0.82 o
1314 3 -2 0 0 2.75 3.66 0.82 o
1315 3 -2 1 1 334.66 294.16 7.74 o
1316 3 2 1 -1 334.66 294.33 6.53 o
1317 4 -2 -1 0 118.63 94.51 5.03 o
1317 3 -2 1 0 118.63 94.51 5.03 o
1318 3 -2 1 -1 140.15 145.04 7.34 o
1319 3 -2 2 1 377.89 362.72 9.55 o
1320 4 -2 -2 0 116.89 99.46 5.52 o
1320 3 -2 2 0 116.89 99.46 5.52 o
1321 3 -2 2 -1 100.72 123.03 7.07 o
1322 3 -2 2 -2 171.20 181.21 8.79 o
1322 2 2 -2 2 171.20 181.21 8.79 o
1323 3 -2 3 1 5.57 5.89 1.36 o
1324 4 -2 -3 0 577.36 625.23 14.56 o
1324 3 -2 3 0 577.36 625.23 14.56 o
1325 3 -2 3 -1 136.04 191.24 9.13 o
1326 3 -2 3 -2 28.38 24.10 3.34 o
1326 2 2 -3 2 28.38 24.10 3.34 o
1327 3 -2 3 -3 51.69 56.10 5.48 o
1328 3 -2 4 1 297.79 300.14 10.81 o
1329 4 -2 -4 0 4.08 7.01 1.63 o
1329 3 -2 4 0 4.08 7.01 1.63 o
1330 3 -2 4 -1 69.51 90.34 6.48 o
1331 3 -2 4 -2 309.12 354.83 13.28 o
1331 2 2 -4 2 309.12 354.83 13.28 o
1332 3 -2 4 -3 0.50 -0.56 0.31 <
1333 3 -2 4 -4 24.82 19.37 3.35 o
1334 3 2 5 -4 15.84 11.61 1.58 o
1335 3 2 5 -3 54.43 58.63 3.06 o
1336 4 -2 -5 0 167.92 185.06 8.95 o
1336 3 -2 5 0 167.92 185.06 8.95 o
1337 3 -2 5 -1 55.39 88.83 6.76 o
1338 3 -2 5 -2 32.00 34.13 4.21 o
1338 2 2 -5 2 32.00 34.13 4.21 o
1339 3 -2 5 -3 36.36 42.71 5.24 o
1340 3 -2 5 -4 12.65 9.37 2.76 o
1341 3 2 6 -4 25.48 19.43 2.17 o
1342 3 2 6 -3 19.01 18.94 1.84 o
1343 4 -2 -6 0 31.00 47.56 4.71 o
1343 3 -2 6 0 31.00 47.56 4.71 o
1344 3 -2 6 -1 18.55 22.54 3.49 o
1345 3 -2 6 -2 59.00 67.81 6.31 o
1345 2 2 -6 2 59.00 67.81 6.31 o
1346 3 -2 6 -3 6.55 5.40 2.21 <
1347 3 2 7 -5 7.10 8.90 1.77 o
1348 3 2 7 -4 1.16 1.27 0.99 <
1349 3 2 7 -3 22.01 20.65 2.28 o
1350 4 -2 -7 0 30.00 34.61 4.25 o
1350 3 -2 7 0 30.00 34.61 4.25 o
1351 3 -2 7 -1 22.12 25.28 3.95 o
1352 3 -2 7 -2 1.80 1.49 0.93 <
1352 2 2 -7 2 1.80 1.49 0.93 <
1353 3 -2 7 -3 5.55 3.06 1.55 <
1354 3 2 8 -3 6.23 6.21 1.53 o
1355 3 -2 8 -1 4.60 6.54 2.38 <
1356 4 3 7 0 3.51 2.99 1.47 <
1356 3 3 -7 0 3.51 2.99 1.47 <
1357 3 3 -7 1 33.05 33.26 4.58 o
1358 3 3 -6 -1 7.58 4.49 1.43 o
1359 4 3 6 0 118.50 131.58 8.90 o
1359 3 3 -6 0 118.50 131.58 8.90 o
1360 3 3 -6 1 0.51 -0.48 0.77 <
1361 3 3 -6 2 10.63 8.90 2.63 o
1362 3 -3 -5 6 6.58 3.96 0.59 o
1363 3 3 -5 -1 63.83 73.67 6.21 o
1364 4 3 5 0 1.40 2.63 1.36 <
1364 3 3 -5 0 1.40 2.63 1.36 <
1365 3 3 -5 1 18.29 19.05 3.16 o
1366 3 3 -5 2 16.18 15.15 3.05 o
1367 3 3 -5 3 10.01 13.51 3.01 o
1368 3 -3 -4 6 18.45 13.43 1.46 o
1369 3 3 -4 -1 34.27 32.30 3.29 o
1370 4 3 4 0 96.62 102.40 7.06 o
1370 3 3 -4 0 96.62 102.40 7.06 o
1371 3 3 -4 1 3.51 2.28 0.82 <
1372 3 3 -4 2 4.66 4.69 1.75 <
1373 3 3 -4 3 21.88 49.61 5.87 o
1374 3 3 -4 4 0.18 0.60 1.59 <
1375 3 3 -3 -2 66.79 64.20 5.08 o
1376 3 3 -3 -1 62.92 70.92 5.32 o
1377 4 3 3 0 34.67 39.31 4.07 o
1377 3 3 -3 0 34.67 39.31 4.07 o
1378 3 3 -3 1 14.97 14.96 2.71 o
1379 3 3 -3 2 42.14 48.28 5.33 o
1380 3 3 -3 3 9.07 16.28 3.58 o
1381 3 -3 -2 4 0.19 0.09 0.06 <
1382 3 -3 -2 3 94.59 88.38 2.85 o
1383 3 3 -2 -2 74.10 69.19 4.69 o
1384 3 3 -2 -1 75.39 72.17 4.98 o
1385 4 3 2 0 210.88 223.10 9.42 o
1385 3 3 -2 0 210.88 223.10 9.42 o
1386 3 3 -2 1 0.29 3.39 2.68 <
1387 3 3 -2 2 18.16 26.55 3.81 o
1388 3 -3 -1 3 0.67 0.64 0.11 o
1389 3 -3 -1 2 88.37 98.08 4.13 o
1390 3 3 -1 -2 88.37 92.48 4.90 o
1391 3 -3 -1 1 91.63 86.62 4.70 o
1392 3 3 -1 -1 91.63 86.49 5.12 o
1393 4 3 1 0 0.31 0.76 0.39 <
1393 3 3 -1 0 0.31 0.76 0.39 <
1394 3 3 -1 1 95.07 95.97 6.77 o
1395 3 -3 0 3 237.00 229.22 7.10 o
1396 3 -3 0 2 3.16 1.40 0.51 <
1397 3 3 0 -2 3.16 1.73 0.59 <
1398 3 3 0 -1 0.91 1.15 0.49 <
1399 3 -3 0 1 0.91 0.96 0.40 <
1400 4 3 0 0 543.88 498.92 13.58 o
1400 3 3 0 0 543.88 498.92 13.58 o
1401 4 -3 0 0 543.88 507.22 13.50 o
1401 3 -3 0 0 543.88 507.22 13.50 o
1402 3 3 1 -2 91.06 88.40 3.81 o
1403 3 -3 1 2 91.06 87.86 4.73 o
1404 3 -3 1 1 89.02 92.00 5.51 o
1405 3 3 1 -1 89.02 88.68 4.78 o
1406 4 -3 -1 0 0.31 0.51 0.26 <
1406 3 -3 1 0 0.31 0.51 0.26 <
1407 3 -3 1 -1 94.19 96.90 6.85 o
1408 3 3 2 -2 70.57 68.17 3.26 o
1409 3 -3 2 2 70.57 71.13 4.86 o
1410 3 -3 2 1 78.88 73.57 5.01 o
1411 4 -3 -2 0 210.83 218.80 9.67 o
1411 3 -3 2 0 210.83 218.80 9.67 o
1412 3 -3 2 -1 0.34 -0.05 0.53 <
1413 3 -3 2 -2 18.41 26.61 3.94 o
1414 3 -3 3 2 67.32 62.82 5.25 o
1415 3 -3 3 1 62.48 69.59 5.37 o
1416 4 -3 -3 0 34.67 39.63 4.24 o
1416 3 -3 3 0 34.67 39.63 4.24 o
1417 3 -3 3 -1 13.72 14.27 2.60 o
1418 3 -3 3 -2 41.65 46.35 5.30 o
1419 3 -3 3 -3 9.44 10.93 2.29 o
1420 3 -3 4 1 33.35 38.65 4.17 o
1421 4 -3 -4 0 96.67 96.21 7.14 o
1421 3 -3 4 0 96.67 96.21 7.14 o
1422 3 -3 4 -1 3.46 1.98 0.51 o
1423 3 -3 4 -2 4.63 5.74 1.93 <
1424 3 -3 4 -3 22.12 54.51 6.80 o
1425 3 -3 5 1 64.46 68.07 6.12 o
1426 4 -3 -5 0 1.40 1.46 0.89 <
1426 3 -3 5 0 1.40 1.46 0.89 <
1427 3 -3 5 -1 19.65 13.48 2.84 o
1428 3 -3 5 -2 16.89 9.81 2.64 o
1429 3 -3 5 -3 9.60 18.03 3.81 o
1430 3 3 6 -4 0.35 0.64 0.26 <
1431 3 -3 6 1 6.72 6.29 2.20 <
1432 4 -3 -6 0 118.51 122.29 8.63 o
1432 3 -3 6 0 118.51 122.29 8.63 o
1433 3 -3 6 -1 0.57 1.09 1.32 <
1434 3 -3 6 -2 10.52 8.14 2.20 o
1435 3 3 7 -4 33.97 27.93 2.43 o
1436 4 -3 -7 0 3.51 1.87 1.22 <
1436 3 -3 7 0 3.51 1.87 1.22 <
1437 3 -3 7 -1 32.94 32.73 4.51 o
1438 3 4 -7 -1 13.97 13.39 3.41 o
1439 4 4 7 0 39.61 53.93 6.61 o
1439 3 4 -7 0 39.61 53.93 6.61 o
1440 3 4 -6 -1 2.37 3.53 1.83 <
1441 4 4 6 0 16.04 20.61 3.77 o
1441 3 4 -6 0 16.04 20.61 3.77 o
1442 3 4 -6 1 15.77 14.62 3.39 o
1443 3 4 -5 -2 0.27 -3.15 1.67 <
1444 3 4 -5 -1 16.85 14.60 3.08 o
1445 4 4 5 0 17.04 16.77 3.35 o
1445 3 4 -5 0 17.04 16.77 3.35 o
1446 3 4 -5 1 2.04 0.61 0.77 <
1447 3 4 -5 2 6.24 9.34 2.89 o
1448 3 4 -4 -2 59.05 66.88 6.08 o
1449 3 4 -4 -1 1.47 2.05 0.87 <
1450 4 4 4 0 0.45 1.87 1.23 <
1450 3 4 -4 0 0.45 1.87 1.23 <
1451 3 4 -4 1 7.89 9.48 2.40 o
1452 3 4 -4 2 2.04 -0.97 1.13 <
1453 3 4 -4 3 3.52 4.18 2.34 <
1454 3 4 -3 -2 0.22 -0.88 0.91 <
1455 3 4 -3 -1 19.99 19.40 2.99 o
1456 4 4 3 0 5.64 6.94 1.94 o
1456 3 4 -3 0 5.64 6.94 1.94 o
1457 3 4 -3 1 1.61 1.53 1.18 <
1458 3 4 -3 2 9.96 8.94 2.62 o
1459 3 4 -3 3 7.60 4.95 2.11 <
1460 3 -4 -2 5 18.67 29.87 2.34 o
1461 3 -4 -2 4 6.71 4.03 0.81 o
1462 3 4 -2 -3 8.22 4.65 1.44 o
1463 3 -4 -2 3 8.22 4.24 0.99 o
1464 3 4 -2 -2 69.92 76.81 5.70 o
1465 3 4 -2 -1 7.17 4.40 1.23 o
1466 4 4 2 0 7.47 10.79 2.36 o
1466 3 4 -2 0 7.47 10.79 2.36 o
1467 3 4 -2 1 22.86 16.48 3.27 o
1468 3 4 -2 2 0.94 0.18 0.79 <
1469 3 -4 -1 4 57.01 78.33 3.89 o
1470 3 -4 -1 3 42.12 50.30 3.50 o
1471 3 4 -1 -3 42.12 47.29 4.02 o
1472 3 -4 -1 2 3.19 1.79 0.84 <
1473 3 4 -1 -2 3.19 1.04 0.73 <
1474 3 4 -1 -1 44.95 44.79 4.26 o
1475 3 -4 -1 1 44.95 39.95 3.98 o
1476 4 4 1 0 136.58 159.85 9.44 o
1476 3 4 -1 0 136.58 159.85 9.44 o
1477 3 4 -1 1 9.42 7.16 2.19 o
1478 3 -4 0 4 46.65 61.61 4.21 o
1479 3 -4 0 3 1.49 2.87 0.87 o
1480 3 4 0 -3 1.49 2.45 0.77 o
1481 3 -4 0 2 36.19 30.94 3.22 o
1482 3 4 0 -2 36.19 30.50 3.03 o
1483 3 -4 0 1 3.40 3.35 1.08 o
1484 3 4 0 -1 3.40 1.64 0.83 <
1485 4 4 0 0 88.99 107.24 7.34 o
1485 3 4 0 0 88.99 107.24 7.34 o
1486 4 -4 0 0 88.99 120.12 7.78 o
1486 3 -4 0 0 88.99 120.12 7.78 o
1487 3 4 1 -3 42.40 42.24 3.08 o
1488 3 -4 1 3 42.40 49.45 4.04 o
1489 3 4 1 -2 3.22 0.84 0.34 <
1490 3 -4 1 2 3.22 1.86 1.01 <
1491 3 4 1 -1 44.64 39.73 3.86 o
1492 3 -4 1 1 44.64 44.93 4.29 o
1493 4 -4 -1 0 136.57 162.82 9.44 o
1493 3 -4 1 0 136.57 162.82 9.44 o
1494 3 -4 1 -1 9.55 5.10 1.69 o
1495 3 -4 2 3 7.74 5.39 1.53 o
1496 3 4 2 -3 7.74 6.19 1.06 o
1497 3 -4 2 2 69.95 80.85 5.99 o
1498 3 4 2 -2 69.95 60.22 4.37 o
1499 3 4 2 -1 7.68 3.47 1.14 o
1500 3 -4 2 1 7.68 6.06 1.73 o
1501 4 -4 -2 0 7.47 9.04 2.19 o
1501 3 -4 2 0 7.47 9.04 2.19 o
1502 3 -4 2 -1 22.17 16.92 3.30 o
1503 3 -4 2 -2 0.91 1.16 0.96 <
1504 3 4 3 -3 20.79 14.67 1.55 o
1505 3 -4 3 3 20.79 21.28 3.27 o
1506 3 4 3 -2 0.21 -0.34 0.41 <
1507 3 -4 3 2 0.21 0.99 1.06 <
1508 3 -4 3 1 21.14 20.94 3.28 o
1509 4 -4 -3 0 5.61 5.22 1.82 <
1509 3 -4 3 0 5.61 5.22 1.82 <
1510 3 -4 3 -1 1.48 1.09 0.42 <
1511 3 -4 3 -2 10.04 24.33 4.63 o
1512 3 -4 3 -3 7.57 5.31 2.12 <
1513 3 4 4 -3 2.36 1.49 0.64 <
1514 3 -4 4 2 59.02 66.39 6.08 o
1515 3 -4 4 1 1.26 1.61 1.11 <
1516 4 -4 -4 0 0.43 0.30 0.59 <
1516 3 -4 4 0 0.43 0.30 0.59 <
1517 3 -4 4 -1 8.29 4.58 1.72 <
1518 3 -4 4 -2 2.07 2.95 1.50 <
1519 3 -4 4 -3 3.39 5.13 2.42 <
1520 3 -4 5 2 0.27 0.33 0.75 <
1521 3 -4 5 1 15.92 13.65 3.11 o
1522 4 -4 -5 0 17.06 12.75 3.18 o
1522 3 -4 5 0 17.06 12.75 3.18 o
1523 3 -4 5 -1 2.11 3.28 2.04 <
1524 3 -4 5 -2 6.28 7.77 2.53 o
1525 3 -4 6 2 17.62 13.41 3.38 o
1526 3 -4 6 1 2.28 1.75 0.97 <
1527 4 -4 -6 0 16.05 17.38 3.73 o
1527 3 -4 6 0 16.05 17.38 3.73 o
1528 3 -4 6 -1 15.77 11.43 3.32 o
1529 3 4 7 -4 16.48 6.65 1.01 o
1530 3 -4 7 1 14.19 9.86 2.74 o
1531 4 -4 -7 0 39.61 51.62 6.59 o
1531 3 -4 7 0 39.61 51.62 6.59 o
1532 3 5 -6 -2 1.86 2.75 1.61 <
1533 3 5 -6 -1 8.28 5.86 2.27 <
1534 3 5 -5 -3 8.13 8.04 2.69 <
1535 3 5 -5 -2 8.38 7.92 2.74 <
1536 3 5 -5 -1 0.55 -0.31 0.60 <
1537 4 5 5 0 8.44 5.47 2.54 <
1537 3 5 -5 0 8.44 5.47 2.54 <
1538 3 5 -4 -3 2.26 5.23 2.03 <
1539 3 5 -4 -2 1.26 0.74 0.68 <
1540 3 5 -4 -1 10.45 11.25 2.82 o
1541 4 5 4 0 0.52 0.21 0.27 <
1541 3 5 -4 0 0.52 0.21 0.27 <
1542 3 5 -4 1 4.83 2.76 1.55 <
1543 3 -5 -3 7 1.37 1.41 0.45 o
1544 3 -5 -3 6 2.45 1.82 0.61 <
1545 3 -5 -3 5 4.66 1.94 0.52 o
1546 3 5 -3 -3 24.12 29.25 3.93 o
1547 3 5 -3 -2 24.00 28.91 4.18 o
1548 3 5 -3 -1 0.09 -0.10 0.58 <
1549 4 5 3 0 7.65 6.40 1.81 o
1549 3 5 -3 0 7.65 6.40 1.81 o
1550 3 5 -3 1 3.40 1.66 0.92 <
1551 3 5 -3 2 1.45 2.10 1.39 <
1552 3 -5 -2 6 3.29 3.59 0.97 o
1553 3 -5 -2 5 0.35 -0.01 0.51 <
1554 3 -5 -2 4 20.96 17.25 2.25 o
1555 3 5 -2 -3 3.56 5.08 1.78 <
1556 3 -5 -2 3 3.56 3.60 1.07 o
1557 3 5 -2 -2 2.68 2.95 1.38 <
1558 3 5 -2 -1 21.36 21.27 3.53 o
1559 4 5 2 0 0.91 2.62 1.80 <
1559 3 5 -2 0 0.91 2.62 1.80 <
1560 3 5 -2 1 2.78 1.59 1.43 <
1561 3 5 -2 2 3.20 4.96 2.34 <
1562 3 -5 -1 5 10.44 20.58 2.29 o
1563 3 5 -1 -4 2.35 0.43 0.27 <
1564 3 -5 -1 4 2.35 0.29 0.52 <
1565 3 5 -1 -3 6.26 5.57 1.63 o
1566 3 -5 -1 3 6.26 4.83 1.48 o
1567 3 5 -1 -2 5.57 5.35 1.65 o
1568 3 -5 -1 2 5.57 5.17 1.73 <
1569 3 -5 -1 1 1.54 1.04 0.84 <
1570 3 5 -1 -1 1.54 1.34 1.16 <
1571 4 5 1 0 19.98 18.65 3.34 o
1571 3 5 -1 0 19.98 18.65 3.34 o
1572 3 5 -1 1 5.73 1.97 0.74 <
1573 3 -5 0 5 1.54 2.34 1.16 <
1574 3 -5 0 4 18.05 21.13 2.56 o
1575 3 5 0 -4 18.05 19.08 2.59 o
1576 3 5 0 -3 1.18 0.86 0.67 <
1577 3 -5 0 3 1.18 0.32 0.39 <
1578 3 5 0 -2 0.79 0.92 0.25 o
1579 3 -5 0 2 0.79 0.88 0.68 <
1580 3 5 0 -1 22.09 13.90 2.80 o
1581 3 -5 0 1 22.09 15.95 3.08 o
1582 4 -5 0 0 2.69 1.09 0.62 <
1582 3 -5 0 0 2.69 1.09 0.62 <
1583 4 5 0 0 2.69 1.10 0.80 <
1583 3 5 0 0 2.69 1.10 0.80 <
1584 3 5 1 -4 2.38 1.57 0.67 <
1585 3 -5 1 4 2.38 1.94 0.73 <
1586 3 -5 1 3 5.89 6.80 1.56 o
1587 3 5 1 -3 5.89 5.82 1.57 o
1588 3 -5 1 2 5.94 3.93 1.40 <
1589 3 5 1 -2 5.94 3.52 1.34 <
1590 3 5 1 -1 1.53 1.23 0.31 o
1591 3 -5 1 1 1.53 0.86 1.12 <
1592 4 -5 -1 0 19.95 23.68 4.12 o
1592 3 -5 1 0 19.95 23.68 4.12 o
1593 3 -5 1 -1 5.72 3.85 1.77 <
1594 3 5 2 -4 20.36 19.05 2.09 o
1595 3 -5 2 4 20.36 22.94 3.31 o
1596 3 5 2 -3 3.83 2.89 0.87 o
1597 3 -5 2 3 3.83 2.91 1.26 <
1598 3 -5 2 2 2.47 3.38 1.44 <
1599 3 5 2 -2 2.47 1.74 0.95 <
1600 3 -5 2 1 21.89 15.14 3.15 o
1601 3 5 2 -1 21.89 10.46 2.23 o
1602 4 -5 -2 0 0.91 0.51 0.88 <
1602 3 -5 2 0 0.91 0.51 0.88 <
1603 3 -5 2 -1 2.60 2.40 1.15 <
1604 3 -5 2 -2 3.36 3.80 1.65 <
1605 3 5 3 -4 0.01 0.34 0.50 <
1606 3 -5 3 4 0.01 0.40 1.06 <
1607 3 5 3 -3 23.73 16.82 2.45 o
1608 3 -5 3 3 23.73 27.24 3.95 o
1609 3 -5 3 2 24.41 20.82 3.58 o
1610 3 5 3 -2 24.41 17.05 2.88 o
1611 3 -5 3 1 0.09 0.11 0.19 <
1612 4 -5 -3 0 7.67 7.89 2.76 <
1612 3 -5 3 0 7.67 7.89 2.76 <
1613 3 -5 3 -1 3.43 3.15 1.65 <
1614 3 -5 3 -2 1.45 0.12 0.63 <
1615 3 5 4 -4 10.04 4.81 0.86 o
1616 3 5 4 -3 2.26 0.16 0.60 <
1617 3 -5 4 3 2.26 2.23 1.24 <
1618 3 -5 4 2 1.27 1.69 1.72 <
1619 3 -5 4 1 10.19 11.29 3.23 o
1620 4 -5 -4 0 0.52 -0.70 0.49 <
1620 3 -5 4 0 0.52 -0.70 0.49 <
1621 3 -5 4 -1 4.90 6.45 2.49 <
1622 3 5 5 -4 0.81 0.49 0.32 <
1623 3 -5 5 3 8.55 8.27 2.66 o
1624 3 -5 5 2 7.93 8.18 2.66 o
1625 3 -5 5 1 0.55 0.16 0.78 <
1626 4 -5 -5 0 8.43 11.29 3.04 o
1626 3 -5 5 0 8.43 11.29 3.04 o
1627 3 5 6 -4 7.50 2.43 0.63 o
1628 3 -5 6 2 2.04 2.99 1.76 <
1629 3 -5 6 1 8.19 7.32 2.73 <
1630 3 6 -4 -3 7.28 5.35 1.89 <
1631 3 6 -4 -2 1.75 1.77 1.60 <
1632 3 6 -4 -1 0.50 0.87 0.55 <
1633 3 -6 -3 6 2.13 3.89 0.94 o
1634 3 -6 -3 5 2.97 0.13 0.48 <
1635 3 6 -3 -4 2.12 2.77 0.91 o
1636 3 6 -3 -3 0.49 0.31 0.87 <
1637 3 6 -3 -2 2.26 1.85 0.71 <
1638 3 6 -3 -1 3.58 3.27 1.77 <
1639 4 6 3 0 4.68 3.70 1.79 <
1639 3 6 -3 0 4.68 3.70 1.79 <
1640 3 -6 -2 6 3.23 10.14 1.78 o
1641 3 -6 -2 5 2.01 0.35 0.56 <
1642 3 6 -2 -4 0.06 -0.83 0.44 <
1643 3 -6 -2 4 0.06 -0.26 0.33 <
1644 3 6 -2 -3 4.88 5.20 1.84 <
1645 3 -6 -2 3 4.88 4.30 1.71 <
1646 3 6 -2 -2 0.09 0.13 0.75 <
1647 3 6 -2 -1 1.32 3.16 1.92 <
1648 4 6 2 0 9.11 10.63 3.21 o
1648 3 6 -2 0 9.11 10.63 3.21 o
1649 3 -6 -1 6 0.27 3.09 0.84 o
1650 3 -6 -1 5 1.92 0.56 0.23 <
1651 3 6 -1 -4 2.92 2.61 1.03 <
1652 3 -6 -1 4 2.92 0.25 0.37 <
1653 3 -6 -1 3 0.01 -1.32 0.60 <
1654 3 6 -1 -3 0.01 -2.95 1.73 <
1655 3 -6 -1 2 2.91 3.82 1.57 <
1656 3 6 -1 -2 2.91 2.81 1.30 <
1657 3 6 -1 -1 2.07 1.24 1.02 <
1658 4 6 1 0 0.47 0.15 1.03 <
1658 3 6 -1 0 0.47 0.15 1.03 <
1659 3 -6 0 6 1.39 6.57 1.79 o
1660 3 -6 0 5 0.37 1.40 0.78 <
1661 3 6 0 -4 0.01 -2.34 1.48 <
1662 3 -6 0 4 0.01 1.59 1.41 <
1663 3 -6 0 3 6.28 4.12 1.42 <
1664 3 6 0 -3 6.28 6.36 1.79 o
1665 3 6 0 -2 0.03 -0.13 0.35 <
1666 3 -6 0 2 0.03 0.45 0.57 <
1667 3 6 0 -1 0.05 -0.52 1.13 <
1668 3 -6 0 1 0.05 -1.61 1.39 <
1669 4 6 0 0 3.02 2.48 1.90 <
1669 3 6 0 0 3.02 2.48 1.90 <
1670 3 -6 1 5 1.93 0.34 0.76 <
1671 3 -6 1 4 2.93 2.89 1.42 <
1672 3 6 1 -4 2.93 3.06 1.07 <
1673 3 -6 1 3 0.01 -2.94 1.74 <
1674 3 6 1 -3 0.01 -0.78 0.51 <
1675 3 6 1 -2 2.92 1.43 0.30 o
1676 3 -6 1 2 2.92 1.76 0.78 <
1677 3 -6 1 1 2.06 1.79 1.49 <
1678 3 6 1 -1 2.06 0.80 0.92 <
1679 4 -6 -1 0 0.47 2.43 1.68 <
1679 3 -6 1 0 0.47 2.43 1.68 <
1680 3 -6 2 5 1.91 2.71 0.80 o
1681 3 -6 2 4 0.06 0.27 0.34 <
1682 3 6 2 -4 0.06 0.17 0.34 <
1683 3 6 2 -3 4.89 3.50 1.62 <
1684 3 -6 2 3 4.89 4.02 1.81 <
1685 3 -6 2 2 0.08 0.54 1.16 <
1686 3 6 2 -2 0.08 -1.03 1.08 <
1687 3 6 2 -1 1.42 -0.01 0.49 <
1688 3 -6 2 1 1.42 2.80 1.85 <
1689 4 -6 -2 0 9.12 9.42 2.81 o
1689 3 -6 2 0 9.12 9.42 2.81 o
1690 3 6 3 -4 2.09 0.34 0.74 <
1691 3 -6 3 4 2.09 2.37 1.19 <
1692 3 -6 3 3 0.49 0.02 0.58 <
1693 3 6 3 -3 0.49 0.38 0.46 <
1694 3 6 3 -2 2.29 2.46 1.56 <
1695 3 -6 3 2 2.29 2.56 1.71 <
1696 3 -6 3 1 3.47 2.61 1.37 <
1697 4 -6 -3 0 4.68 4.09 2.18 <
1697 3 -6 3 0 4.68 4.09 2.18 <
1698 3 6 4 -5 0.77 0.11 0.04 <
1699 3 -6 4 4 1.39 -0.78 1.03 <
1700 3 6 4 -4 1.39 0.97 0.66 <
1701 3 -6 4 3 7.26 8.00 2.70 <
1702 3 6 4 -3 7.26 2.83 1.20 <
1703 3 -6 4 2 1.76 1.11 1.12 <
1704 3 -6 4 1 0.48 0.31 0.65 <
1705 3 -7 -1 4 1.13 6.38 2.09 o
1706 3 7 -1 -4 1.13 5.35 1.89 <
1707 3 -7 -1 3 1.04 1.52 1.19 <
1708 3 7 -1 -3 1.04 1.57 1.25 <
1709 3 7 0 -5 1.35 5.77 1.48 o
1710 3 -7 0 5 1.35 6.43 1.85 o
1711 3 -7 0 4 0.52 1.57 0.28 o
1712 3 7 0 -4 0.52 1.34 0.81 <
1713 3 -7 0 3 0.36 -1.01 1.45 <
1714 3 7 0 -3 0.36 -0.78 1.17 <
1715 3 -7 0 2 1.59 2.20 2.57 <
1716 3 7 0 -2 1.59 1.85 1.18 <
1717 3 7 1 -4 1.17 2.25 0.92 <
1718 3 -7 1 4 1.17 4.86 2.23 <
1719 3 -7 1 3 1.01 2.56 1.39 <
1720 3 7 1 -3 1.01 2.80 1.52 <
1721 4 0 -8 3 38.49 38.18 4.57 o
1722 4 0 -7 3 26.16 14.70 2.62 o
1723 4 0 -7 4 85.81 66.03 5.58 o
1724 4 0 -6 3 58.14 38.37 3.74 o
1725 4 0 -5 2 129.97 90.21 5.65 o
1726 4 0 -5 3 1.49 1.29 0.66 <
1727 4 0 -4 2 14.05 13.69 1.98 o
1728 4 0 2 -4 8.34 2.26 0.75 o
1729 4 0 2 -5 35.95 31.49 3.07 o
1730 4 0 2 -6 18.39 14.83 2.30 o
1731 4 0 2 -7 1.37 0.49 0.77 <
1732 4 0 3 -6 0.40 0.27 0.07 o
1733 4 -1 -8 3 9.49 7.95 2.25 o
1734 4 -1 -8 2 38.33 29.64 5.00 o
1735 4 -1 -7 4 19.11 18.30 2.89 o
1736 4 -1 -7 3 12.35 10.20 2.52 o
1737 4 -1 -7 2 0.62 -0.13 0.09 <
1738 4 -1 -6 4 17.32 13.00 2.36 o
1739 4 -1 -6 3 30.67 31.40 4.00 o
1740 4 -1 -6 2 107.06 123.97 8.67 o
1741 4 -1 -6 1 18.40 28.45 4.17 o
1742 4 -1 -5 4 49.64 39.18 3.45 o
1743 4 -1 -5 3 103.80 120.95 7.26 o
1744 4 -1 -5 2 44.90 41.35 4.20 o
1745 4 -1 -5 1 71.30 90.51 7.41 o
1746 4 -1 -4 3 36.32 37.35 3.38 o
1747 4 -1 -4 2 284.80 303.99 11.77 o
1748 4 -1 -4 1 33.34 37.11 3.94 o
1749 4 -1 -3 2 23.74 27.50 2.94 o
1750 4 -1 -3 1 90.13 97.08 5.90 o
1751 5 1 3 1 43.59 47.25 4.68 o
1751 4 -1 -3 -1 43.59 47.25 4.68 o
1752 4 -1 -2 2 610.60 709.56 13.23 o
1753 4 -1 -2 1 10.88 7.44 1.34 o
1754 5 1 2 1 1228.87 1280.18 23.20 o
1754 4 -1 -2 -1 1228.87 1280.18 23.20 o
1755 4 -1 -2 -2 165.59 144.30 8.33 o
1756 4 1 -2 2 165.59 142.67 5.55 o
1757 4 1 -2 3 22.48 18.27 1.84 o
1758 4 -1 -1 1 530.77 609.49 11.83 o
1759 5 1 1 1 471.38 485.67 12.79 o
1759 4 -1 -1 -1 471.38 485.67 12.79 o
1760 5 -1 1 -1 471.38 488.59 10.48 o
1760 4 1 -1 1 471.38 488.59 10.48 o
1761 4 1 -1 2 67.56 58.94 3.71 o
1762 4 -1 -1 -2 67.56 52.39 4.47 o
1763 4 1 -1 3 106.19 85.47 5.30 o
1764 4 -1 -1 -3 106.19 84.52 6.63 o
1765 4 -1 -1 -4 34.33 23.14 3.59 o
1766 5 1 0 1 167.67 196.23 7.31 o
1766 4 -1 0 -1 167.67 196.23 7.31 o
1767 5 -1 0 -1 167.67 197.13 7.09 o
1767 4 1 0 1 167.67 197.13 7.09 o
1768 4 -1 0 -2 1.44 0.41 0.29 <
1769 4 1 0 2 1.44 0.65 0.33 <
1770 4 -1 0 -3 136.19 115.36 6.72 o
1771 4 1 0 3 136.19 110.57 7.08 o
1772 4 -1 0 -4 165.25 133.74 8.20 o
1773 4 -1 0 -5 3.00 2.29 0.82 <
1774 4 -1 0 -6 8.50 5.88 1.95 o
1775 4 1 1 -1 530.97 584.14 11.74 o
1776 5 -1 -1 -1 471.33 460.41 12.19 o
1776 4 1 1 1 471.33 460.41 12.19 o
1777 5 1 -1 1 471.33 460.44 10.27 o
1777 4 -1 1 -1 471.33 460.44 10.27 o
1778 4 -1 1 -2 63.52 66.15 4.08 o
1779 4 1 1 2 63.52 60.93 4.97 o
1780 4 -1 1 -3 106.92 93.98 5.59 o
1781 4 -1 1 -4 35.56 30.15 3.27 o
1782 4 -1 1 -5 35.97 37.76 4.14 o
1783 4 -1 1 -6 5.46 3.89 1.50 <
1784 4 1 2 -2 610.60 714.80 13.29 o
1785 4 1 2 -1 12.56 5.50 1.08 o
1786 5 -1 -2 -1 1228.85 1312.75 23.28 o
1786 4 1 2 1 1228.85 1312.75 23.28 o
1787 4 1 2 2 169.77 159.33 9.19 o
1788 4 -1 2 -3 23.54 20.64 2.28 o
1789 4 -1 2 -4 57.05 49.54 3.86 o
1790 4 -1 2 -5 0.92 -0.53 0.63 <
1791 4 -1 2 -6 11.80 16.80 2.78 o
1792 4 1 3 -4 59.04 40.60 3.03 o
1793 4 1 3 -3 254.11 221.33 6.93 o
1794 4 1 3 -2 24.27 24.32 2.39 o
1795 4 1 3 -1 89.84 92.20 5.25 o
1796 5 -1 -3 -1 43.58 52.48 5.06 o
1796 4 1 3 1 43.58 52.48 5.06 o
1797 4 -1 3 -5 20.24 13.68 1.92 o
1798 4 -1 3 -6 11.09 5.59 1.45 o
1799 4 1 4 -4 54.86 27.88 2.25 o
1800 4 1 4 -3 36.99 29.23 2.45 o
1801 4 1 4 -2 282.82 260.15 9.27 o
1802 4 1 4 -1 31.89 37.45 3.77 o
1803 4 -2 -8 3 6.02 5.76 2.17 <
1804 4 -2 -8 2 1.81 0.29 1.14 <
1805 4 -2 -8 1 37.06 31.20 6.16 o
1806 4 -2 -7 5 8.02 6.91 1.99 o
1807 4 -2 -7 4 1.32 4.03 2.16 <
1808 4 -2 -7 3 24.01 19.67 4.14 o
1809 4 -2 -7 2 16.37 14.95 3.64 o
1810 4 -2 -7 1 0.22 0.90 1.02 <
1811 4 -2 -6 4 28.98 28.92 4.38 o
1812 4 -2 -6 3 22.79 20.58 4.06 o
1813 4 -2 -6 2 17.49 22.64 4.36 o
1814 4 -2 -6 1 68.28 64.77 7.43 o
1815 4 -2 -6 -1 18.77 21.34 4.35 o
1816 4 -2 -5 4 17.85 16.95 3.27 o
1817 4 -2 -5 3 59.59 70.15 6.93 o
1818 4 -2 -5 2 88.10 90.60 8.10 o
1819 4 -2 -5 1 33.05 41.73 5.33 o
1820 4 -2 -5 -1 62.18 86.80 8.90 o
1821 5 2 5 2 32.31 38.60 6.11 o
1821 4 -2 -5 -2 32.31 38.60 6.11 o
1822 4 2 -5 4 13.53 6.55 1.24 o
1823 4 -2 -4 3 83.57 77.66 6.85 o
1824 4 -2 -4 2 1.60 2.58 1.44 <
1825 4 -2 -4 1 329.58 361.81 15.55 o
1826 4 -2 -4 -1 75.76 97.77 8.90 o
1827 5 2 4 2 311.81 357.58 18.09 o
1827 4 -2 -4 -2 311.81 357.58 18.09 o
1828 4 2 -4 3 0.46 0.59 0.73 <
1829 4 -2 -4 -3 0.46 0.28 0.80 <
1830 4 2 -4 4 27.49 21.48 2.38 o
1831 4 -2 -3 3 134.68 148.54 8.85 o
1832 4 -2 -3 2 306.23 315.53 13.23 o
1833 4 -2 -3 1 6.20 7.10 1.93 o
1834 4 -2 -3 -1 150.83 191.79 11.61 o
1835 5 -2 3 -2 28.61 15.58 2.61 o
1835 4 2 -3 2 28.61 15.58 2.61 o
1836 5 2 3 2 28.61 24.41 4.05 o
1836 4 -2 -3 -2 28.61 24.41 4.05 o
1837 4 2 -3 3 55.90 57.28 4.66 o
1838 4 -2 -3 -3 55.90 59.76 7.09 o
1839 4 2 -3 4 9.11 5.69 1.38 o
1840 4 -2 -3 -4 9.11 5.91 2.40 <
1841 4 -2 -2 2 58.17 47.51 4.99 o
1842 4 -2 -2 1 417.90 432.81 15.81 o
1843 4 -2 -2 -1 116.54 130.19 9.08 o
1844 5 2 2 2 172.75 196.35 11.40 o
1844 4 -2 -2 -2 172.75 196.35 11.40 o
1845 5 -2 2 -2 172.75 182.25 9.13 o
1845 4 2 -2 2 172.75 182.25 9.13 o
1846 4 -2 -2 -3 18.54 15.11 3.13 o
1847 4 2 -2 3 18.54 14.17 2.31 o
1848 4 -2 -2 -4 36.04 34.70 5.58 o
1849 4 2 -2 4 36.04 34.74 3.73 o
1850 4 -2 -2 -5 7.43 6.29 2.31 <
1851 4 -2 -1 1 370.40 339.54 13.11 o
1852 4 -2 -1 -1 149.10 164.14 10.10 o
1853 4 2 -1 1 149.10 166.42 8.99 o
1854 5 -2 1 -2 50.33 57.20 5.03 o
1854 4 2 -1 2 50.33 57.20 5.03 o
1855 5 2 1 2 50.33 57.72 5.69 o
1855 4 -2 -1 -2 50.33 57.72 5.69 o
1856 4 -2 -1 -3 31.71 38.12 4.89 o
1857 4 2 -1 3 31.71 33.87 3.94 o
1858 4 -2 -1 -4 25.89 24.17 4.22 o
1859 4 2 -1 4 25.89 19.12 3.15 o
1860 4 -2 -1 -5 3.27 1.35 0.95 <
1861 4 2 0 1 0.12 1.25 1.05 <
1862 4 -2 0 -1 0.12 -0.24 0.43 <
1863 5 -2 0 -2 240.38 242.91 10.95 o
1863 4 2 0 2 240.38 242.91 10.95 o
1864 5 2 0 2 240.38 242.75 11.53 o
1864 4 -2 0 -2 240.38 242.75 11.53 o
1865 4 2 0 3 1.47 1.63 0.48 o
1866 4 -2 0 -3 1.47 1.16 1.04 <
1867 4 2 0 4 1.29 2.98 1.35 <
1868 4 -2 0 -4 1.29 2.92 1.36 <
1869 4 -2 0 -5 16.99 12.72 3.12 o
1870 4 2 1 -1 370.11 329.39 13.08 o
1871 4 2 1 1 154.99 154.85 9.17 o
1872 4 -2 1 -1 154.99 165.03 8.66 o
1873 5 2 -1 2 50.31 49.47 4.82 o
1873 4 -2 1 -2 50.31 49.47 4.82 o
1874 5 -2 -1 -2 50.31 57.40 5.55 o
1874 4 2 1 2 50.31 57.40 5.55 o
1875 4 -2 1 -3 32.46 33.44 4.27 o
1876 4 2 1 3 32.46 33.71 4.53 o
1877 4 2 1 4 25.50 22.07 4.30 o
1878 4 -2 1 -4 25.50 24.96 3.85 o
1879 4 -2 1 -5 2.94 3.60 1.87 <
1880 4 2 2 -3 116.44 75.50 6.36 o
1881 4 2 2 -2 59.64 46.92 4.92 o
1882 4 2 2 -1 417.91 408.62 15.04 o
1883 4 2 2 1 111.39 135.16 9.04 o
1884 5 -2 -2 -2 172.76 191.79 10.83 o
1884 4 2 2 2 172.76 191.79 10.83 o
1885 4 2 2 3 17.98 14.90 3.18 o
1886 4 -2 2 -3 17.98 12.49 2.47 o
1887 4 -2 2 -4 36.90 36.29 4.41 o
1888 4 -2 2 -5 7.20 6.98 2.09 o
1889 4 2 3 -4 13.75 12.43 2.66 o
1890 4 2 3 -3 134.78 145.45 8.69 o
1891 4 2 3 -2 307.05 328.89 12.64 o
1892 4 2 3 -1 6.16 9.48 2.90 o
1893 4 2 3 1 150.45 181.25 10.91 o
1894 5 -2 -3 -2 28.61 27.71 4.32 o
1894 4 2 3 2 28.61 27.71 4.32 o
1895 4 2 3 3 57.16 66.63 7.72 o
1896 4 -2 3 -5 17.10 9.81 2.10 o
1897 4 2 4 -6 27.18 17.26 2.80 o
1898 4 2 4 -5 0.19 0.88 0.75 <
1899 4 2 4 -4 144.85 139.50 7.85 o
1900 4 2 4 -3 82.69 77.59 5.95 o
1901 4 2 4 -2 1.13 3.16 1.37 <
1902 4 2 4 -1 329.33 326.11 13.53 o
1903 4 2 4 1 76.87 94.65 8.52 o
1904 5 -2 -4 -2 311.79 383.62 18.49 o
1904 4 2 4 2 311.79 383.62 18.49 o
1905 4 2 5 -6 11.79 7.46 1.45 o
1906 4 2 5 -5 40.51 49.93 4.13 o
1907 4 2 5 -4 17.52 16.26 2.69 o
1908 4 2 5 -3 60.19 59.58 5.38 o
1909 4 2 5 -2 88.55 78.32 6.40 o
1910 4 2 5 -1 33.13 33.28 4.30 o
1911 4 2 5 1 61.26 88.56 8.85 o
1912 4 2 6 -5 7.32 13.60 2.24 o
1913 4 2 6 -4 28.18 21.46 3.06 o
1914 4 2 6 -3 21.02 17.05 2.86 o
1915 4 2 6 -2 17.38 17.63 3.47 o
1916 4 2 6 -1 68.23 66.19 7.08 o
1917 4 2 7 -4 1.28 2.01 1.27 <
1918 4 2 7 -3 24.34 16.21 3.23 o
1919 4 2 7 -2 16.49 14.89 3.34 o
1920 4 -3 -8 2 5.59 6.98 3.55 <
1921 4 -3 -8 1 4.85 3.19 1.15 <
1922 4 -3 -7 4 37.28 30.62 6.33 o
1923 4 -3 -7 3 2.78 0.74 0.93 <
1924 4 -3 -7 2 10.26 3.98 2.13 <
1925 4 -3 -7 1 9.96 6.60 3.09 <
1926 4 -3 -7 -1 36.55 44.51 8.02 o
1927 4 -3 -6 4 0.38 -0.28 0.97 <
1928 4 -3 -6 3 60.76 55.95 7.80 o
1929 4 -3 -6 2 10.00 5.67 2.47 <
1930 4 -3 -6 1 8.38 4.80 1.83 <
1931 4 -3 -6 -1 0.57 0.67 0.86 <
1932 4 -3 -6 -2 11.76 11.77 4.19 <
1933 4 -3 -5 4 22.88 15.21 3.47 o
1934 4 -3 -5 3 0.44 0.53 1.02 <
1935 4 -3 -5 2 71.11 72.93 8.63 o
1936 4 -3 -5 1 70.59 74.36 9.03 o
1937 4 -3 -5 -1 20.23 23.73 5.27 o
1938 4 -3 -5 -2 17.89 12.28 3.99 o
1939 4 3 -5 3 11.07 4.44 1.55 <
1940 4 -3 -5 -3 11.07 20.29 5.33 o
1941 4 -3 -4 3 48.07 42.77 6.33 o
1942 4 -3 -4 2 40.46 40.49 6.13 o
1943 4 -3 -4 1 37.90 38.37 6.06 o
1944 4 -3 -4 -1 3.88 3.56 1.96 <
1945 4 -3 -4 -2 5.16 5.68 2.08 <
1946 4 -3 -4 -3 24.20 58.19 8.14 o
1947 4 3 -4 3 24.20 39.36 5.14 o
1948 4 -3 -4 -4 0.20 -0.44 1.88 <
1949 4 3 -4 4 0.20 -0.11 0.41 <
1950 4 -3 -3 3 22.27 19.65 3.85 o
1951 4 -3 -3 2 73.86 71.36 7.89 o
1952 4 -3 -3 1 69.58 78.55 8.56 o
1953 4 -3 -3 -1 16.55 15.39 3.82 o
1954 4 -3 -3 -2 46.60 55.89 7.52 o
1955 4 3 -3 2 46.60 43.24 5.49 o
1956 4 -3 -3 -3 10.03 17.72 4.36 o
1957 4 3 -3 3 10.03 10.35 2.57 o
1958 4 -3 -3 -4 12.47 15.60 4.57 o
1959 4 3 -3 4 12.47 12.13 2.86 o
1960 4 -3 -2 2 81.94 68.77 7.28 o
1961 4 -3 -2 1 83.38 86.93 10.34 o
1962 4 3 -2 1 0.32 0.07 0.30 <
1963 4 -3 -2 -1 0.32 -0.62 1.01 <
1964 4 -3 -2 -2 20.08 30.42 5.26 o
1965 4 3 -2 2 20.08 25.78 4.23 o
1966 4 3 -2 3 49.07 123.27 9.04 o
1967 4 -3 -2 -3 49.07 142.47 12.05 o
1968 4 -3 -2 -4 0.61 0.28 0.64 <
1969 4 3 -2 4 0.61 0.75 0.80 <
1970 4 -3 -1 1 101.33 81.15 8.22 o
1971 4 -3 -1 -1 105.14 121.96 10.11 o
1972 4 3 -1 1 105.14 103.33 9.17 o
1973 4 3 -1 2 36.45 43.02 5.60 o
1974 4 -3 -1 -2 36.45 48.42 6.46 o
1975 4 -3 -1 -3 10.04 21.44 4.24 o
1976 4 3 -1 3 10.04 27.30 4.29 o
1977 4 -3 -1 -4 7.21 12.08 3.63 o
1978 4 3 -1 4 7.21 12.73 3.11 o
1979 4 -3 -1 -5 4.78 4.21 2.39 <
1980 4 3 -1 5 4.78 4.15 2.08 <
1981 4 3 0 1 20.61 32.32 4.95 o
1982 4 -3 0 -1 20.61 28.26 4.41 o
1983 4 3 0 2 28.77 37.20 5.20 o
1984 4 -3 0 -2 28.77 32.86 5.03 o
1985 4 -3 0 -3 0.54 2.96 1.86 <
1986 4 3 0 3 0.54 4.25 1.75 <
1987 4 3 0 4 0.19 -0.91 0.71 <
1988 4 -3 0 -4 0.19 -0.22 0.61 <
1989 4 3 0 5 14.57 17.72 4.21 o
1990 4 -3 0 -5 14.57 11.57 3.51 o
1991 4 3 1 -1 98.45 79.75 8.26 o
1992 4 3 1 1 104.17 118.19 9.49 o
1993 4 -3 1 -1 104.17 109.51 8.91 o
1994 4 -3 1 -2 34.76 42.18 5.88 o
1995 4 3 1 2 34.76 51.10 6.28 o
1996 4 3 1 3 10.38 26.58 4.55 o
1997 4 -3 1 -3 10.38 19.32 3.91 o
1998 4 3 1 4 7.17 10.90 3.05 o
1999 4 -3 1 -4 7.17 7.36 2.70 <
2000 4 -3 1 -5 4.69 2.66 1.58 <
2001 4 3 1 5 4.69 2.48 1.56 <
2002 4 3 2 -3 104.12 95.68 8.39 o
2003 4 3 2 -2 78.04 77.17 7.69 o
2004 4 3 2 -1 87.23 63.36 7.73 o
2005 4 3 2 1 0.38 0.29 0.64 <
2006 4 3 2 2 20.36 32.13 5.10 o
2007 4 -3 2 -3 48.32 93.70 8.69 o
2008 4 3 2 3 48.32 132.09 10.78 o
2009 4 3 2 4 0.59 1.43 0.93 <
2010 4 -3 2 -4 0.59 0.19 0.68 <
2011 4 3 3 -4 16.91 12.09 3.07 o
2012 4 3 3 -3 22.17 18.86 3.75 o
2013 4 3 3 -2 74.45 69.05 7.47 o
2014 4 3 3 -1 69.10 76.43 7.76 o
2015 4 3 3 1 15.18 19.98 4.06 o
2016 4 3 3 2 46.07 54.65 7.12 o
2017 4 3 3 3 10.44 17.54 4.48 o
2018 4 3 3 4 12.29 18.10 4.62 o
2019 4 3 4 -6 20.28 11.67 3.15 o
2020 4 3 4 -5 6.94 6.95 2.61 <
2021 4 3 4 -4 3.79 5.66 4.30 <
2022 4 3 4 -3 48.37 43.45 5.71 o
2023 4 3 4 -2 41.53 37.11 5.21 o
2024 4 3 4 -1 36.88 38.86 5.68 o
2025 4 3 4 1 3.83 3.01 1.78 <
2026 4 3 4 2 5.12 7.13 2.54 <
2027 4 3 4 3 24.46 65.40 8.70 o
2028 4 3 4 4 0.20 -1.99 2.29 <
2029 4 3 5 -6 7.68 4.46 2.00 <
2030 4 3 5 -5 15.27 12.10 3.21 o
2031 4 3 5 -4 21.48 17.91 3.68 o
2032 4 3 5 -3 0.51 0.58 0.54 <
2033 4 3 5 -2 70.27 63.42 7.25 o
2034 4 3 5 -1 71.29 66.05 7.49 o
2035 4 3 5 1 21.73 18.87 4.03 o
2036 4 3 5 2 18.68 17.01 4.28 o
2037 4 3 5 3 10.62 26.66 5.90 o
2038 4 3 6 -5 14.27 21.89 3.78 o
2039 4 3 6 -4 0.39 0.84 0.89 <
2040 4 3 6 -3 60.67 45.38 6.02 o
2041 4 3 6 -2 11.13 3.66 2.22 <
2042 4 3 6 -1 7.43 4.30 1.74 <
2043 4 3 6 1 0.63 1.29 1.47 <
2044 4 3 6 2 11.63 15.79 4.75 o
2045 4 3 7 -4 37.56 26.12 4.43 o
2046 4 3 7 -3 2.78 1.01 0.83 <
2047 4 3 7 -2 9.90 5.69 2.48 <
2048 4 3 7 -1 10.27 5.34 2.34 <
2049 4 3 7 1 36.43 48.11 8.17 o
2050 4 3 8 -2 5.15 3.35 1.92 <
2051 4 3 8 -1 5.27 4.64 2.40 <
2052 4 -4 -7 4 18.23 18.80 5.56 o
2053 4 -4 -7 3 15.48 11.67 4.46 <
2054 4 -4 -7 2 0.09 0.68 1.41 <
2055 4 -4 -7 1 15.45 9.32 4.01 <
2056 4 -4 -6 5 14.34 22.71 5.33 o
2057 4 -4 -6 4 10.04 6.03 2.41 <
2058 4 -4 -6 3 1.88 1.55 1.95 <
2059 4 -4 -6 2 19.53 13.05 4.40 <
2060 4 -4 -6 1 2.62 1.95 1.87 <
2061 4 -4 -6 -1 17.44 19.09 6.07 o
2062 4 -4 -5 4 8.54 4.80 2.59 <
2063 4 -4 -5 3 18.38 15.72 4.51 o
2064 4 -4 -5 2 0.30 -0.85 0.93 <
2065 4 -4 -5 1 18.63 16.34 4.99 o
2066 4 -4 -5 -1 2.25 4.67 3.14 <
2067 4 -4 -5 -2 6.90 10.26 4.37 <
2068 4 -4 -4 4 0.22 1.21 1.35 <
2069 4 -4 -4 3 2.33 0.90 1.41 <
2070 4 -4 -4 2 65.31 67.82 9.04 o
2071 4 -4 -4 1 1.63 0.65 0.57 <
2072 4 -4 -4 -1 8.73 7.48 3.42 <
2073 4 -4 -4 -2 2.25 0.06 1.70 <
2074 4 -4 -4 -3 3.89 5.00 2.96 <
2075 4 4 -4 3 3.89 2.91 1.83 <
2076 4 -4 -3 3 24.19 19.71 4.56 o
2077 4 -4 -3 2 0.24 0.65 1.20 <
2078 4 -4 -3 1 22.11 20.29 4.81 o
2079 4 -4 -3 -1 1.78 1.58 1.49 <
2080 4 4 -3 2 11.02 10.92 3.41 o
2081 4 -4 -3 -2 11.02 9.89 4.10 <
2082 4 4 -3 3 8.40 5.55 2.06 <
2083 4 -4 -3 -3 8.40 4.83 2.57 <
2084 4 -4 -2 2 77.33 71.70 8.82 o
2085 4 -4 -2 1 7.93 6.63 2.82 <
2086 4 4 -2 1 25.28 18.10 4.14 o
2087 4 -4 -2 -1 25.28 16.48 4.29 o
2088 4 4 -2 2 1.04 -6.17 3.90 <
2089 4 -4 -2 -2 1.04 1.48 1.61 <
2090 4 4 -2 3 5.60 6.03 2.35 <
2091 4 -4 -2 -3 5.60 8.78 3.81 <
2092 4 -4 -1 1 49.71 39.54 6.50 o
2093 4 4 -1 1 10.42 5.89 2.66 <
2094 4 -4 -1 -1 10.42 8.09 2.88 <
2095 4 -4 -1 -2 8.85 9.23 3.47 <
2096 4 4 -1 2 8.85 7.55 2.95 <
2097 4 4 -1 3 3.97 2.79 1.42 <
2098 4 -4 -1 -3 3.97 2.77 1.59 <
2099 4 4 0 1 81.12 95.38 10.19 o
2100 4 -4 0 -1 81.12 87.11 9.62 o
2101 4 -4 0 -2 2.15 2.34 2.11 <
2102 4 4 0 2 2.15 0.25 0.63 <
2103 4 -4 0 -3 4.94 7.71 2.75 <
2104 4 4 0 3 4.94 8.64 2.94 <
2105 4 -4 0 -4 8.29 18.79 4.75 o
2106 4 4 0 4 8.29 29.80 5.73 o
2107 4 4 1 -1 49.37 43.51 7.01 o
2108 4 4 1 1 10.56 7.88 2.97 <
2109 4 -4 1 -1 10.56 7.78 2.64 <
2110 4 -4 1 -2 8.57 12.66 3.53 o
2111 4 4 1 2 8.57 11.97 3.86 o
2112 4 -4 1 -3 4.25 0.50 1.48 <
2113 4 4 1 3 4.25 4.66 2.15 <
2114 4 4 2 -2 77.36 67.15 8.83 o
2115 4 4 2 -1 8.49 4.23 2.03 <
2116 4 4 2 1 24.52 20.01 4.51 o
2117 4 4 2 2 1.01 0.42 1.37 <
2118 4 4 2 3 5.79 6.29 2.65 <
2119 4 -4 2 -3 5.79 4.14 1.89 <
2120 4 4 3 -4 4.04 3.74 2.36 <
2121 4 4 3 -3 22.99 15.40 4.10 o
2122 4 4 3 -2 0.23 -0.65 0.95 <
2123 4 4 3 -1 23.38 18.53 4.59 o
2124 4 4 3 1 1.63 -0.92 1.35 <
2125 4 4 3 2 11.10 11.04 3.90 <
2126 4 4 3 3 8.37 9.28 3.39 <
2127 4 4 4 -5 8.63 4.43 1.94 <
2128 4 4 4 -4 0.13 -1.15 1.55 <
2129 4 4 4 -3 2.61 0.18 1.11 <
2130 4 4 4 -2 65.27 66.64 8.41 o
2131 4 4 4 -1 1.40 2.51 1.99 <
2132 4 4 4 1 9.17 7.08 2.63 <
2133 4 4 4 2 2.29 3.90 1.92 <
2134 4 4 4 3 3.75 3.76 2.36 <
2135 4 4 5 -6 8.47 4.04 2.38 <
2136 4 4 5 -5 2.94 4.01 2.43 <
2137 4 4 5 -4 8.84 4.54 1.74 <
2138 4 4 5 -3 19.46 15.14 4.03 o
2139 4 4 5 -2 0.29 -0.75 1.60 <
2140 4 4 5 -1 17.60 12.73 3.81 o
2141 4 4 5 1 2.33 2.11 1.40 <
2142 4 4 5 2 6.94 9.46 3.51 <
2143 4 4 6 -5 14.42 19.52 4.37 o
2144 4 4 6 -4 10.13 7.68 3.08 <
2145 4 4 6 -3 1.96 2.32 1.79 <
2146 4 4 6 -2 19.48 10.35 3.23 o
2147 4 4 6 -1 2.52 2.20 1.97 <
2148 4 4 6 1 17.44 15.84 4.72 o
2149 4 4 7 -4 18.23 13.21 3.78 o
2150 4 4 7 -3 15.25 9.45 3.62 <
2151 4 4 7 -2 0.10 -0.02 1.25 <
2152 4 4 7 -1 15.69 10.32 3.87 <
2153 4 -5 -6 4 8.23 6.91 3.51 <
2154 4 -5 -6 3 2.19 4.94 3.43 <
2155 4 -5 -6 2 2.06 1.71 1.70 <
2156 4 -5 -6 1 9.16 10.66 4.71 <
2157 4 -5 -5 4 0.90 -0.61 1.57 <
2158 4 -5 -5 3 8.99 6.99 2.62 <
2159 4 -5 -5 2 9.27 5.36 3.21 <
2160 4 -5 -5 1 0.61 1.30 1.14 <
2161 4 -5 -4 4 10.78 8.18 3.11 <
2162 4 -5 -4 3 2.50 0.96 0.70 <
2163 4 -5 -4 2 1.39 1.71 1.29 <
2164 4 -5 -4 1 11.56 9.40 3.70 <
2165 4 -5 -4 -1 5.34 5.46 3.06 <
2166 4 -5 -3 3 26.68 23.58 5.32 o
2167 4 -5 -3 2 26.54 23.81 5.89 o
2168 4 -5 -3 1 0.10 0.96 2.27 <
2169 4 -5 -3 -1 3.76 1.59 0.34 o
2170 4 -5 -3 -2 1.60 2.24 2.92 <
2171 4 5 -3 2 1.60 2.06 2.16 <
2172 4 -5 -2 2 2.97 1.35 0.84 <
2173 4 -5 -2 1 23.62 18.06 4.96 o
2174 4 5 -2 1 3.07 2.49 2.08 <
2175 4 -5 -2 -1 3.07 3.74 2.64 <
2176 4 -5 -2 -2 3.54 3.38 1.85 <
2177 4 5 -2 2 3.54 -0.07 0.85 <
2178 4 -5 -1 1 1.71 -0.43 1.03 <
2179 4 5 -1 1 6.33 -0.34 1.49 <
2180 4 -5 -1 -1 6.33 3.23 1.92 <
2181 4 -5 -1 -2 3.84 2.96 2.38 <
2182 4 5 -1 2 3.84 1.97 1.94 <
2183 4 -5 0 -1 0.74 23.60 7.44 o
2184 4 5 0 1 0.74 16.07 5.99 <
2185 4 5 0 2 2.79 3.56 2.61 <
2186 4 -5 0 -2 2.79 0.18 0.22 <
2187 4 5 1 -1 1.69 1.36 1.94 <
2188 4 5 1 1 6.33 4.87 2.95 <
2189 4 5 1 2 3.69 2.55 2.47 <
2190 4 -5 1 -2 3.69 2.35 1.78 <
2191 4 5 2 -2 2.73 2.45 2.22 <
2192 4 5 2 -1 24.20 9.48 3.57 <
2193 4 5 2 1 2.87 1.61 1.36 <
2194 4 5 2 2 3.72 2.60 1.92 <
2195 4 5 3 -4 0.01 0.94 0.85 <
2196 4 5 3 -3 26.24 23.66 5.82 o
2197 4 5 3 -2 27.00 19.84 5.60 o
2198 4 5 3 -1 0.10 0.73 0.39 <
2199 4 5 3 1 3.80 3.38 2.39 <
2200 4 5 3 2 1.60 -0.46 0.93 <
2201 4 5 4 -5 0.10 0.50 1.06 <
2202 4 5 4 -4 11.10 7.20 3.25 <
2203 4 5 4 -3 2.50 0.84 0.86 <
2204 4 5 4 -2 1.40 2.45 1.94 <
2205 4 5 4 -1 11.27 6.50 2.73 <
2206 4 5 4 1 5.41 8.07 3.60 <
2207 4 5 5 -5 4.39 6.48 3.16 <
2208 4 5 5 -4 0.90 -0.17 1.53 <
2209 4 5 5 -3 9.46 7.61 3.37 <
2210 4 5 5 -2 8.77 9.62 3.91 <
2211 4 5 5 -1 0.61 -2.17 1.74 <
2212 4 5 6 -4 8.29 5.12 3.08 <
2213 4 5 6 -3 2.01 3.65 2.53 <
2214 4 5 6 -2 2.26 0.79 0.99 <
2215 4 5 6 -1 9.06 7.21 3.39 <
2216 4 -6 -4 3 8.05 7.72 4.02 <
2217 4 -6 -4 2 1.94 0.35 1.73 <
2218 4 -6 -4 1 0.55 1.40 1.68 <
2219 4 -6 -3 3 0.54 0.58 0.73 <
2220 4 -6 -3 2 2.50 2.63 2.01 <
2221 4 -6 -3 1 3.95 2.80 2.08 <
2222 4 -6 -2 2 0.10 -2.37 2.80 <
2223 4 -6 -2 1 1.46 2.35 2.64 <
2224 4 -6 -1 1 2.29 0.70 0.61 <
2225 4 -6 0 -1 0.38 2.65 1.97 <
2226 4 6 0 1 0.38 1.04 2.08 <
2227 4 6 1 -1 2.28 3.41 2.94 <
2228 4 6 2 -2 0.09 0.68 1.29 <
2229 4 6 2 -1 1.57 0.54 0.95 <
2230 4 6 3 -3 0.55 0.15 0.99 <
2231 4 6 3 -2 2.53 0.12 1.05 <
2232 4 6 3 -1 3.84 2.67 2.02 <
2233 4 6 4 -4 1.53 0.21 0.48 <
2234 4 6 4 -3 8.02 3.86 2.54 <
2235 4 6 4 -2 1.95 0.42 1.19 <
2236 4 6 4 -1 0.53 2.07 2.53 <
2237 5 0 -7 -3 25.57 12.86 3.81 o
2238 5 0 -7 -4 83.87 82.41 10.77 o
2239 5 0 -6 -2 41.90 44.11 6.09 o
2240 5 0 -6 -3 56.82 38.44 6.15 o
2241 5 0 -6 -4 4.71 4.10 2.08 <
2242 5 0 -6 -5 30.65 40.31 8.07 o
2243 5 0 -5 -2 127.03 129.46 9.98 o
2244 5 0 -5 -3 1.45 1.03 0.55 <
2245 5 0 -5 -4 13.33 5.88 2.49 <
2246 5 0 -5 -5 4.56 4.80 2.49 <
2247 5 0 -4 -2 13.73 20.04 3.53 o
2248 5 0 -4 -3 146.79 149.82 11.56 o
2249 5 0 -4 -4 1.29 -0.37 1.40 <
2250 5 0 -4 -5 0.85 3.29 1.57 <
2251 5 0 -4 -6 29.41 13.42 4.48 <
2252 5 0 -3 -1 24.81 25.74 3.36 o
2253 5 0 -3 -2 348.17 388.62 15.75 o
2254 5 0 -3 -3 7.84 3.40 1.61 <
2255 5 0 -3 -4 3.99 4.07 1.97 <
2256 5 0 -3 -5 11.07 6.27 3.05 <
2257 5 0 -3 -6 0.45 0.78 2.01 <
2258 5 0 -2 -1 1.26 0.53 0.53 <
2259 5 0 -2 -2 228.27 186.66 9.60 o
2260 5 0 -2 -3 200.76 195.64 12.50 o
2261 5 0 -2 -4 8.19 2.79 1.29 <
2262 5 0 -2 -5 35.24 34.59 6.83 o
2263 5 0 -2 -6 18.02 9.92 4.39 <
2264 5 0 -2 -7 1.34 -0.58 0.73 <
2265 5 0 -1 -1 689.81 635.35 12.53 o
2266 5 0 -1 -2 85.87 99.02 7.26 o
2267 5 0 -1 -3 58.95 49.41 6.40 o
2268 5 0 -1 -4 221.08 179.04 13.76 o
2269 5 0 -1 -5 41.76 37.15 6.84 o
2270 5 0 -1 -6 20.06 4.58 2.71 <
2271 5 0 -1 -7 4.18 0.03 1.23 <
2272 5 0 0 -1 177.88 132.14 5.53 o
2273 5 0 0 1 177.88 131.92 5.59 o
2274 5 0 0 2 3.78 3.98 1.32 o
2275 5 0 0 -2 3.78 4.44 1.37 o
2276 5 0 0 -3 183.97 132.36 10.69 o
2277 5 0 0 3 183.97 129.74 11.03 o
2278 5 0 0 4 0.58 1.12 0.78 <
2279 5 0 0 -4 0.58 0.19 0.65 <
2280 5 0 0 -5 105.40 90.08 11.23 o
2281 5 0 0 5 105.40 103.12 12.63 o
2282 5 0 0 -6 5.24 3.14 2.29 <
2283 5 0 0 -7 9.54 -0.64 1.64 <
2284 5 0 1 1 689.89 642.74 12.98 o
2285 5 0 1 2 86.03 96.23 7.19 o
2286 5 0 1 3 59.06 48.54 6.49 o
2287 5 0 1 4 220.63 177.54 13.93 o
2288 5 0 1 5 41.81 54.78 9.32 o
2289 5 0 1 6 20.13 11.21 4.93 <
2290 5 0 1 7 4.04 6.12 4.23 <
2291 5 0 2 1 1.20 0.42 0.39 <
2292 5 0 2 2 228.42 183.86 10.16 o
2293 5 0 2 3 200.58 187.38 13.06 o
2294 5 0 2 4 8.15 3.51 2.04 <
2295 5 0 2 5 35.14 39.47 7.78 o
2296 5 0 2 6 17.97 10.75 4.66 <
2297 5 0 2 7 1.34 -0.60 1.21 <
2298 5 0 3 1 24.94 24.89 3.50 o
2299 5 0 3 2 347.78 337.75 14.36 o
2300 5 0 3 3 7.80 2.83 1.38 <
2301 5 0 3 4 4.22 2.63 1.57 <
2302 5 0 3 5 10.95 2.68 1.97 <
2303 5 0 3 6 0.39 -0.64 2.25 <
2304 5 0 4 1 2.08 1.83 1.22 <
2305 5 0 4 2 13.78 17.36 3.23 o
2306 5 0 4 3 146.86 138.40 11.42 o
2307 5 0 4 4 1.31 0.15 1.22 <
2308 5 0 4 5 0.85 3.12 2.06 <
2309 5 0 4 6 29.46 14.59 5.68 <
2310 5 0 5 2 127.12 127.87 10.29 o
2311 5 0 5 3 1.41 0.46 0.53 <
2312 5 0 5 4 13.38 6.17 3.11 <
2313 5 0 5 5 4.63 6.22 3.67 <
2314 5 0 6 2 41.88 44.10 6.27 o
2315 5 0 6 3 56.97 37.26 6.12 o
2316 5 0 6 4 4.70 3.70 2.64 <
2317 5 0 6 5 30.59 33.97 7.67 o
2318 5 0 7 2 11.53 3.96 1.99 <
2319 5 0 7 3 25.55 12.56 3.67 o
2320 5 0 7 4 83.97 77.60 11.09 o
2321 5 0 8 3 37.46 33.28 6.68 o
2322 5 1 -8 -3 9.27 6.45 2.30 <
2323 5 1 -7 -4 18.68 16.04 4.43 o
2324 5 1 -7 -3 12.07 7.31 2.47 <
2325 5 -1 -7 -3 20.12 19.70 4.99 o
2326 5 1 -6 -5 41.83 54.52 8.58 o
2327 5 1 -6 -4 16.93 15.92 4.26 o
2328 5 1 -6 -3 29.98 25.93 4.80 o
2329 5 1 -6 -2 104.64 110.60 9.20 o
2330 5 -1 -6 -3 16.79 154.06 17.40 o
2331 5 -1 -6 -4 43.24 42.57 7.40 o
2332 5 1 -5 -6 16.19 13.34 4.17 o
2333 5 1 -5 -5 8.53 13.28 4.35 o
2334 5 1 -5 -4 48.52 53.41 7.48 o
2335 5 1 -5 -3 101.46 116.78 10.12 o
2336 5 1 -5 -2 43.89 38.23 4.75 o
2337 5 -1 -5 -2 97.20 113.10 10.37 o
2338 5 -1 -5 -3 54.66 48.80 6.90 o
2339 5 -1 -5 -4 11.14 8.16 3.47 <
2340 5 -1 -5 -5 14.76 16.25 5.11 o
2341 5 1 -4 -6 0.64 -0.27 1.18 <
2342 5 1 -4 -5 10.62 12.41 3.60 o
2343 5 1 -4 -4 52.90 58.85 7.82 o
2344 5 1 -4 -3 35.50 38.95 5.37 o
2345 5 1 -4 -2 278.36 317.36 13.71 o
2346 5 1 -4 -1 32.59 35.75 3.65 o
2347 5 -1 -4 -2 38.08 39.39 5.40 o
2348 5 -1 -4 -3 46.35 53.01 7.11 o
2349 5 -1 -4 -4 9.24 9.91 3.74 <
2350 5 -1 -4 -5 0.97 1.27 1.63 <
2351 5 1 -3 -7 8.05 4.47 2.92 <
2352 5 1 -3 -6 21.96 10.40 3.84 <
2353 5 1 -3 -5 16.61 38.03 7.21 o
2354 5 1 -3 -4 59.76 59.53 7.56 o
2355 5 1 -3 -3 248.63 250.12 13.41 o
2356 5 1 -3 -2 23.21 26.40 3.31 o
2357 5 1 -3 -1 88.10 93.64 5.23 o
2358 5 -1 -3 -1 43.58 48.42 5.12 o
2358 4 1 3 1 43.58 48.42 5.12 o
2359 5 -1 -3 -2 240.50 246.30 13.03 o
2360 5 -1 -3 -3 59.21 69.27 7.93 o
2361 5 -1 -3 -4 13.34 13.59 3.98 o
2362 5 -1 -3 -5 20.25 12.60 4.04 o
2363 5 -1 -3 -6 10.72 7.20 3.91 <
2364 5 1 -2 -7 12.23 4.59 2.94 <
2365 5 1 -2 -6 1.59 2.76 1.88 <
2366 5 1 -2 -5 53.68 49.91 8.14 o
2367 5 1 -2 -4 25.64 21.22 4.66 o
2368 5 1 -2 -3 155.75 157.46 10.72 o
2369 5 1 -2 -2 596.80 660.98 18.17 o
2370 5 1 -2 -1 10.63 6.64 1.14 o
2371 5 -1 -2 -1 1228.85 1365.49 24.74 o
2371 4 1 2 1 1228.85 1365.49 24.74 o
2372 5 -1 -2 -2 161.84 173.62 10.53 o
2373 5 -1 -2 -3 21.97 20.38 3.92 o
2374 5 -1 -2 -4 54.08 44.69 6.65 o
2375 5 -1 -2 -5 0.88 -0.62 1.42 <
2376 5 -1 -2 -6 11.87 6.15 3.28 <
2377 5 1 -1 -6 32.34 17.66 4.85 o
2378 5 1 -1 -5 36.06 34.55 6.55 o
2379 5 1 -1 -4 98.39 83.63 9.06 o
2380 5 1 -1 -3 65.32 53.26 6.25 o
2381 5 1 -1 -2 203.42 222.71 10.39 o
2382 5 1 -1 -1 518.77 546.27 11.03 o
2383 5 1 -1 1 471.33 501.68 11.85 o
2383 4 -1 1 -1 471.33 501.68 11.85 o
2384 5 -1 -1 -1 471.33 498.09 13.67 o
2384 4 1 1 1 471.33 498.09 13.67 o
2385 5 -1 -1 -2 66.03 51.87 5.31 o
2386 5 1 -1 2 66.03 52.88 5.17 o
2387 5 -1 -1 -3 103.79 94.93 8.19 o
2388 5 1 -1 3 103.79 79.34 8.31 o
2389 5 -1 -1 -4 33.56 22.43 4.44 o
2390 5 -1 -1 -5 33.67 25.97 5.59 o
2391 5 -1 -1 -6 4.89 1.39 1.55 <
2392 5 1 0 1 167.67 187.16 7.41 o
2392 4 -1 0 -1 167.67 187.16 7.41 o
2393 5 -1 0 -1 167.67 187.81 7.04 o
2393 4 1 0 1 167.67 187.81 7.04 o
2394 5 -1 0 -2 1.40 0.70 0.79 <
2395 5 1 0 2 1.40 0.39 0.48 <
2396 5 1 0 3 133.11 116.08 9.51 o
2397 5 -1 0 -3 133.11 118.50 9.31 o
2398 5 -1 0 -4 161.51 133.16 11.77 o
2399 5 1 0 4 161.51 127.00 11.94 o
2400 5 -1 0 -5 2.93 1.71 1.47 <
2401 5 1 0 5 2.93 0.41 1.52 <
2402 5 -1 0 -6 8.30 2.58 2.46 <
2403 5 1 0 6 8.30 3.45 3.02 <
2404 5 -1 1 5 34.72 40.39 7.64 o
2405 5 -1 1 4 97.17 86.88 9.61 o
2406 5 -1 1 3 69.70 49.86 6.29 o
2407 5 -1 1 2 205.68 230.12 10.74 o
2408 5 -1 1 1 518.97 532.22 11.20 o
2409 5 -1 1 -1 471.38 485.72 10.96 o
2409 4 1 -1 1 471.38 485.72 10.96 o
2410 5 1 1 1 471.38 481.96 13.48 o
2410 4 -1 -1 -1 471.38 481.96 13.48 o
2411 5 1 1 2 62.09 56.30 5.76 o
2412 5 -1 1 -2 62.09 55.93 5.08 o
2413 5 1 1 3 104.50 93.23 8.67 o
2414 5 -1 1 -3 104.50 83.58 7.77 o
2415 5 -1 1 -4 34.75 15.75 3.56 o
2416 5 1 1 4 34.75 21.83 4.62 o
2417 5 1 1 5 35.16 26.43 6.03 o
2418 5 -1 1 -5 35.16 20.36 5.14 o
2419 5 -1 1 -6 5.33 0.40 0.94 <
2420 5 1 1 6 5.33 2.18 1.76 <
2421 5 -1 2 7 12.57 8.64 4.67 <
2422 5 -1 2 6 1.59 -1.22 1.88 <
2423 5 -1 2 5 52.05 53.84 9.08 o
2424 5 -1 2 4 24.60 19.31 4.59 o
2425 5 -1 2 3 151.95 157.25 11.09 o
2426 5 -1 2 2 596.80 629.20 18.13 o
2427 5 -1 2 1 12.28 4.88 1.14 o
2428 5 1 2 1 1228.87 1364.99 25.71 o
2428 4 -1 -2 -1 1228.87 1364.99 25.71 o
2429 5 1 2 2 165.94 144.99 9.51 o
2430 5 1 2 3 23.01 22.59 4.52 o
2431 5 1 2 4 55.76 48.64 7.42 o
2432 5 1 2 5 0.90 -0.31 0.95 <
2433 5 1 2 6 11.53 2.78 0.75 o
2434 5 -1 3 7 7.98 5.49 3.29 <
2435 5 -1 3 6 22.18 10.59 4.31 <
2436 5 -1 3 5 16.61 39.27 7.48 o
2437 5 -1 3 4 57.70 60.70 8.14 o
2438 5 -1 3 3 248.37 241.82 14.24 o
2439 5 -1 3 2 23.72 27.27 3.86 o
2440 5 -1 3 1 87.81 96.01 5.78 o
2441 5 1 3 1 43.59 45.34 4.88 o
2441 4 -1 -3 -1 43.59 45.34 4.88 o
2442 5 1 3 2 240.76 239.37 13.21 o
2443 5 1 3 3 61.49 60.92 7.43 o
2444 5 1 3 4 13.39 9.01 3.14 <
2445 5 1 3 5 19.79 11.40 3.44 o
2446 5 1 3 6 10.84 5.10 3.32 <
2447 5 -1 4 6 0.63 0.52 0.99 <
2448 5 -1 4 5 11.19 10.36 3.95 <
2449 5 -1 4 4 53.62 49.43 7.70 o
2450 5 -1 4 3 36.15 36.55 5.76 o
2451 5 -1 4 2 276.43 309.06 13.78 o
2452 5 -1 4 1 31.17 36.50 4.10 o
2453 5 1 4 2 37.33 37.69 5.46 o
2454 5 1 4 3 45.58 49.06 6.98 o
2455 5 1 4 4 8.77 9.48 3.32 <
2456 5 1 4 5 0.97 -2.14 2.47 <
2457 5 -1 5 6 16.27 10.08 4.27 <
2458 5 -1 5 5 8.87 9.08 3.95 <
2459 5 -1 5 4 50.26 46.69 7.60 o
2460 5 -1 5 3 101.09 111.44 10.42 o
2461 5 -1 5 2 43.14 39.96 5.14 o
2462 5 -1 5 1 69.77 93.36 7.50 o
2463 5 1 5 2 98.10 110.76 10.48 o
2464 5 1 5 3 52.62 47.85 7.08 o
2465 5 1 5 4 10.73 4.90 2.57 <
2466 5 1 5 5 14.82 11.06 4.30 <
2467 5 -1 6 5 42.37 46.60 9.06 o
2468 5 -1 6 4 16.71 12.68 4.09 o
2469 5 -1 6 3 31.41 22.15 4.51 o
2470 5 -1 6 2 106.86 112.07 9.62 o
2471 5 -1 6 1 19.07 29.51 4.44 o
2472 5 1 6 2 27.43 29.88 5.54 o
2473 5 1 6 3 17.02 135.07 16.68 o
2474 5 1 6 4 42.70 38.66 7.47 o
2475 5 -1 7 4 18.53 15.85 4.72 o
2476 5 -1 7 3 11.93 7.29 3.18 <
2477 5 -1 7 2 0.51 1.02 0.39 <
2478 5 1 7 3 20.23 15.97 4.65 o
2479 5 -1 8 3 8.65 4.73 2.19 <
2480 5 -1 8 2 36.31 28.52 5.27 o
2481 5 2 -8 -3 5.88 5.46 2.25 <
2482 5 2 -7 -5 7.83 8.32 3.68 <
2483 5 2 -7 -4 1.29 2.49 1.33 <
2484 5 2 -7 -3 23.47 20.89 4.40 o
2485 5 2 -6 -5 7.41 9.76 3.46 <
2486 5 2 -6 -4 28.33 30.95 5.53 o
2487 5 2 -6 -3 22.28 19.28 3.62 o
2488 5 2 -6 -2 17.10 20.11 3.53 o
2489 5 -2 -6 -3 6.81 9.22 3.81 <
2490 5 2 -5 -6 11.96 7.36 2.76 <
2491 5 2 -5 -5 38.60 72.88 9.21 o
2492 5 2 -5 -4 17.44 19.05 4.22 o
2493 5 2 -5 -3 58.25 70.49 7.14 o
2494 5 2 -5 -2 86.11 84.37 6.39 o
2495 5 -2 -5 -3 40.46 54.16 8.01 o
2496 5 -2 -5 -4 13.22 16.16 4.53 o
2497 5 2 -4 -7 11.51 10.48 4.81 <
2498 5 2 -4 -6 26.58 25.68 5.97 o
2499 5 2 -4 -5 0.23 0.61 0.78 <
2500 5 2 -4 -4 141.09 164.60 12.34 o
2501 5 2 -4 -3 81.68 78.82 7.13 o
2502 5 2 -4 -2 1.56 3.45 1.33 <
2503 5 2 -4 -1 322.13 282.11 9.58 o
2504 5 -2 -4 -2 311.79 374.95 19.10 o
2504 4 2 4 2 311.79 374.95 19.10 o
2505 5 -2 -4 -3 0.45 0.09 0.64 <
2506 5 -2 -4 -4 26.87 30.28 6.19 o
2507 5 -2 -4 -5 11.19 14.40 5.00 <
2508 5 2 -3 -7 14.50 8.37 4.08 <
2509 5 2 -3 -6 6.77 5.66 2.79 <
2510 5 2 -3 -5 57.44 95.11 10.77 o
2511 5 2 -3 -4 13.24 11.11 3.26 o
2512 5 2 -3 -3 131.64 146.92 10.31 o
2513 5 2 -3 -2 299.31 316.22 11.84 o
2514 5 2 -3 -1 6.06 7.71 1.26 o
2515 5 -2 -3 -2 28.61 26.98 4.67 o
2515 4 2 3 2 28.61 26.98 4.67 o
2516 5 -2 -3 -3 54.63 70.49 8.15 o
2517 5 -2 -3 -4 8.91 8.68 3.54 <
2518 5 -2 -3 -5 16.92 11.18 4.19 <
2519 5 2 -2 -6 38.89 30.25 6.55 o
2520 5 2 -2 -5 16.49 21.55 4.99 o
2521 5 2 -2 -4 80.88 81.03 8.78 o
2522 5 2 -2 -3 109.01 104.67 8.70 o
2523 5 2 -2 -2 56.86 45.53 4.58 o
2524 5 2 -2 -1 408.45 342.83 8.46 o
2525 5 -2 -2 -1 113.90 127.39 8.86 o
2526 5 -2 -2 -2 172.76 190.26 11.42 o
2526 4 2 2 2 172.76 190.26 11.42 o
2527 5 -2 -2 -3 18.12 19.07 4.11 o
2528 5 -2 -2 -4 35.23 44.82 7.06 o
2529 5 -2 -2 -5 7.27 3.06 1.27 <
2530 5 2 -1 1 145.73 170.80 7.37 o
2531 5 -2 -1 -1 145.73 167.58 8.90 o
2532 5 -2 -1 -2 50.31 59.36 6.06 o
2532 4 2 1 2 50.31 59.36 6.06 o
2533 5 2 -1 2 50.31 51.21 5.16 o
2533 4 -2 1 -2 50.31 51.21 5.16 o
2534 5 2 -1 3 30.99 27.45 4.78 o
2535 5 -2 -1 -3 30.99 34.88 5.20 o
2536 5 2 -1 4 25.31 14.48 4.06 o
2537 5 -2 -1 -4 25.31 21.45 4.72 o
2538 5 -2 -1 -5 3.19 1.31 1.48 <
2539 5 2 -1 5 3.19 0.58 0.68 <
2540 5 2 0 1 0.12 0.32 0.45 <
2541 5 -2 0 -1 0.12 0.11 0.29 <
2542 5 2 0 2 240.38 239.26 12.03 o
2542 4 -2 0 -2 240.38 239.26 12.03 o
2543 5 -2 0 -2 240.38 234.92 11.18 o
2543 4 2 0 2 240.38 234.92 11.18 o
2544 5 -2 0 -3 1.44 0.87 0.97 <
2545 5 2 0 3 1.44 1.41 1.15 <
2546 5 2 0 4 1.26 5.48 2.82 <
2547 5 -2 0 -4 1.26 2.61 1.67 <
2548 5 -2 0 -5 16.60 8.70 3.51 <
2549 5 2 0 5 16.60 5.42 2.73 <
2550 5 2 1 1 151.48 157.44 8.68 o
2551 5 -2 1 -1 151.48 163.75 6.71 o
2552 5 -2 1 -2 50.33 53.49 5.01 o
2552 4 2 -1 2 50.33 53.49 5.01 o
2553 5 2 1 2 50.33 53.53 5.63 o
2553 4 -2 -1 -2 50.33 53.53 5.63 o
2554 5 -2 1 -3 31.73 30.43 4.51 o
2555 5 2 1 3 31.73 34.85 6.64 o
2556 5 2 1 4 24.92 16.88 4.31 o
2557 5 -2 1 -4 24.92 19.40 4.43 o
2558 5 2 1 5 2.88 -2.05 2.61 <
2559 5 -2 1 -5 2.88 2.48 2.19 <
2560 5 -2 2 5 16.92 22.76 5.36 o
2561 5 -2 2 4 80.79 78.18 9.07 o
2562 5 -2 2 3 113.81 100.65 9.01 o
2563 5 -2 2 -1 108.87 118.87 5.41 o
2564 5 2 2 1 108.87 126.48 8.65 o
2565 5 2 2 2 172.75 181.74 11.12 o
2565 4 -2 -2 -2 172.75 181.74 11.12 o
2566 5 -2 2 -2 172.75 168.34 9.07 o
2566 4 2 -2 2 172.75 168.34 9.07 o
2567 5 -2 2 -3 17.58 12.85 2.83 o
2568 5 2 2 3 17.58 15.53 3.59 o
2569 5 -2 2 -4 36.07 29.97 5.49 o
2570 5 2 2 4 36.07 37.37 6.79 o
2571 5 2 2 5 7.04 5.63 3.36 <
2572 5 -2 2 -5 7.04 5.34 2.87 <
2573 5 -2 3 7 14.65 11.15 5.52 <
2574 5 -2 3 6 7.12 1.45 0.75 <
2575 5 -2 3 5 56.59 96.37 11.81 o
2576 5 -2 3 4 13.44 12.41 3.97 o
2577 5 -2 3 3 131.74 150.69 11.16 o
2578 5 -2 3 2 300.11 282.80 12.55 o
2579 5 -2 3 1 6.02 6.82 1.39 o
2580 5 2 3 2 28.61 23.19 4.23 o
2580 4 -2 -3 -2 28.61 23.19 4.23 o
2581 5 -2 3 -2 28.61 16.96 2.85 o
2581 4 2 -3 2 28.61 16.96 2.85 o
2582 5 2 3 3 55.87 61.80 7.67 o
2583 5 -2 3 -3 55.87 48.13 6.07 o
2584 5 2 3 4 8.44 7.23 3.32 <
2585 5 -2 3 -4 8.44 3.73 1.71 <
2586 5 2 3 5 16.71 7.77 3.81 <
2587 5 -2 3 -5 16.71 9.28 3.66 <
2588 5 -2 4 7 11.25 7.29 4.29 <
2589 5 -2 4 6 26.56 21.85 6.40 o
2590 5 -2 4 5 0.19 -0.78 1.67 <
2591 5 -2 4 4 141.58 157.65 13.32 o
2592 5 -2 4 3 80.82 81.99 8.21 o
2593 5 -2 4 2 1.10 2.66 1.31 <
2594 5 -2 4 1 321.89 313.98 10.59 o
2595 6 -2 -4 0 4.07 5.01 0.95 o
2595 5 -2 4 0 4.07 5.01 0.95 o
2596 5 2 4 2 311.81 352.15 19.34 o
2596 4 -2 -4 -2 311.81 352.15 19.34 o
2597 5 2 4 3 0.54 0.21 1.08 <
2598 5 2 4 4 26.83 25.63 6.16 o
2599 5 2 4 5 11.40 10.41 4.49 <
2600 5 -2 5 6 11.52 9.97 4.77 <
2601 5 -2 5 5 39.59 74.58 10.72 o
2602 5 -2 5 4 17.12 18.46 5.00 o
2603 5 -2 5 3 58.83 65.92 7.68 o
2604 5 -2 5 2 86.55 88.91 7.56 o
2605 5 -2 5 1 32.38 39.31 4.03 o
2606 5 2 5 2 32.31 39.65 6.58 o
2606 4 -2 -5 -2 32.31 39.65 6.58 o
2607 5 2 5 3 39.30 43.16 7.01 o
2608 5 2 5 4 13.68 8.69 3.76 <
2609 5 -2 6 5 7.16 9.47 3.97 <
2610 5 -2 6 4 27.54 28.45 6.15 o
2611 5 -2 6 3 20.55 21.40 4.51 o
2612 5 -2 6 2 16.99 21.08 3.91 o
2613 5 -2 6 1 66.69 73.86 6.24 o
2614 5 2 6 3 7.08 7.20 3.42 <
2615 5 -2 7 5 7.68 4.62 2.91 <
2616 5 -2 7 4 1.25 2.00 2.24 <
2617 5 -2 7 3 23.79 20.53 4.55 o
2618 5 -2 7 2 16.12 19.30 3.85 o
2619 5 -2 7 1 0.22 -0.37 0.76 <
2620 5 -2 8 3 6.74 5.69 2.85 <
2621 5 -2 8 2 1.86 1.54 1.54 <
2622 5 -2 8 1 36.09 37.32 5.26 o
2623 5 3 -7 -4 36.44 38.57 6.40 o
2624 5 3 -7 -3 2.72 1.03 0.75 <
2625 5 3 -6 -5 13.85 28.49 5.82 o
2626 5 3 -6 -4 0.37 -1.36 1.77 <
2627 5 3 -6 -3 59.39 55.91 6.26 o
2628 5 3 -6 -2 9.77 16.57 2.76 o
2629 5 3 -5 -6 7.11 9.77 4.05 <
2630 5 3 -5 -5 15.70 13.82 4.06 o
2631 5 3 -5 -4 22.37 16.66 3.64 o
2632 5 3 -5 -3 0.43 0.75 0.43 <
2633 5 3 -5 -2 69.51 65.43 5.22 o
2634 5 -3 -5 -3 10.82 24.82 5.98 o
2635 5 3 -4 -7 0.06 1.05 1.76 <
2636 5 3 -4 -6 19.94 17.55 4.92 o
2637 5 3 -4 -5 6.89 10.54 3.78 <
2638 5 3 -4 -4 3.70 2.36 1.68 <
2639 5 3 -4 -3 46.98 39.39 5.16 o
2640 5 3 -4 -2 39.54 35.88 3.54 o
2641 5 -3 -4 -3 23.65 63.17 8.98 o
2642 5 -3 -4 -4 0.20 -1.18 2.31 <
2643 5 3 -3 -6 7.86 5.09 2.71 <
2644 5 3 -3 -5 38.23 41.52 6.94 o
2645 5 3 -3 -4 15.29 12.29 3.49 o
2646 5 3 -3 -3 21.77 16.60 3.50 o
2647 5 3 -3 -2 72.19 63.36 5.14 o
2648 5 -3 -3 -2 45.55 58.88 7.39 o
2649 5 -3 -3 -3 9.80 18.11 4.81 o
2650 5 -3 -3 -4 12.19 22.32 5.38 o
2651 5 3 -2 1 0.31 -0.12 0.27 <
2652 5 -3 -2 -2 19.63 35.59 5.39 o
2653 5 3 -2 2 19.63 22.06 3.82 o
2654 5 3 -2 3 47.96 88.88 9.90 o
2655 5 -3 -2 -3 47.96 130.22 11.46 o
2656 5 -3 -2 -4 0.59 1.76 0.98 <
2657 5 3 -2 4 0.59 0.32 0.66 <
2658 6 3 1 0 0.31 0.45 0.23 <
2658 5 3 -1 0 0.31 0.45 0.23 <
2659 5 3 -1 1 102.76 121.70 6.62 o
2660 5 3 -1 2 35.63 42.46 5.08 o
2661 5 -3 -1 -2 35.63 51.94 6.06 o
2662 5 3 -1 3 9.81 19.07 4.33 o
2663 5 -3 -1 -3 9.81 28.54 5.12 o
2664 5 3 -1 4 7.05 8.34 3.35 <
2665 5 -3 -1 -4 7.05 11.86 3.92 o
2666 5 3 -1 5 4.67 0.83 1.66 <
2667 5 -3 -1 -5 4.67 3.75 2.82 <
2668 5 -3 0 -1 20.15 30.45 3.89 o
2669 5 3 0 1 20.15 31.74 3.82 o
2670 5 3 0 2 28.12 39.66 4.96 o
2671 5 -3 0 -2 28.12 40.83 4.98 o
2672 5 3 0 3 0.53 2.60 1.66 <
2673 5 -3 0 -3 0.53 4.39 2.13 <
2674 5 3 0 4 0.18 0.53 1.81 <
2675 5 -3 0 -4 0.18 0.11 1.37 <
2676 5 3 0 5 14.24 11.22 4.27 <
2677 5 -3 0 -5 14.24 15.41 4.18 o
2678 5 -3 1 -1 101.81 116.34 6.57 o
2679 5 3 1 1 101.81 118.20 8.57 o
2680 5 3 1 2 33.98 49.02 5.84 o
2681 5 -3 1 -2 33.98 54.39 5.41 o
2682 5 3 1 3 10.14 22.86 4.68 o
2683 5 -3 1 -3 10.14 26.54 4.38 o
2684 5 -3 1 -4 7.01 10.44 3.28 o
2685 5 3 1 4 7.01 8.45 3.57 <
2686 5 -3 1 -5 4.58 2.64 1.93 <
2687 5 3 1 5 4.58 1.71 1.73 <
2688 5 -3 2 -1 0.37 0.00 0.40 <
2689 5 3 2 1 0.37 -0.20 0.36 <
2690 5 3 2 2 19.90 32.74 5.13 o
2691 5 -3 2 -2 19.90 31.09 3.70 o
2692 5 -3 2 -3 47.22 112.00 8.67 o
2693 5 3 2 3 47.22 129.01 11.77 o
2694 5 -3 2 -4 0.58 0.22 0.79 <
2695 5 3 2 4 0.58 0.97 2.07 <
2696 5 -3 3 -1 14.84 14.37 1.55 o
2697 5 -3 3 -2 45.03 45.77 4.29 o
2698 5 3 3 2 45.03 54.36 7.40 o
2699 5 3 3 3 10.20 16.62 4.31 o
2700 5 -3 3 -3 10.20 10.05 2.60 o
2701 5 3 3 4 12.01 7.57 3.22 <
2702 5 -3 3 -4 12.01 10.13 3.37 o
2703 5 -3 4 7 0.06 -1.75 2.79 <
2704 5 -3 4 6 19.83 20.10 5.82 o
2705 5 -3 4 5 6.79 8.57 4.02 <
2706 5 -3 4 4 3.70 3.63 1.86 <
2707 5 -3 4 3 47.28 35.82 5.64 o
2708 5 -3 4 2 40.59 31.68 4.22 o
2709 5 -3 4 1 36.05 29.00 2.80 o
2710 5 3 4 2 5.01 10.71 3.38 o
2711 5 -3 4 -2 5.01 3.63 1.24 <
2712 5 3 4 3 23.91 53.66 7.88 o
2713 5 -3 4 -3 23.91 35.20 5.02 o
2714 5 3 4 4 0.20 0.22 0.93 <
2715 5 -3 4 -4 0.20 -0.25 1.17 <
2716 5 -3 5 6 7.50 7.46 3.63 <
2717 5 -3 5 5 14.93 13.78 4.41 o
2718 5 -3 5 4 21.00 17.92 4.51 o
2719 5 -3 5 3 0.50 0.36 0.90 <
2720 5 -3 5 2 68.69 62.99 6.04 o
2721 5 -3 5 1 69.68 73.95 5.16 o
2722 5 -3 5 -2 18.26 4.56 1.55 <
2723 5 -3 5 -3 10.38 6.87 2.30 <
2724 5 3 5 3 10.38 19.68 5.39 o
2725 5 -3 6 5 13.94 31.86 7.70 o
2726 5 -3 6 4 0.38 0.62 0.72 <
2727 5 -3 6 3 59.30 46.24 6.93 o
2728 5 -3 6 2 10.87 4.15 1.74 <
2729 5 -3 6 1 7.26 5.62 1.65 o
2730 6 -3 -6 0 116.67 93.54 6.48 o
2730 5 -3 6 0 116.67 93.54 6.48 o
2731 5 -3 7 4 36.72 33.09 6.57 o
2732 5 -3 7 3 2.72 0.91 0.90 <
2733 5 -3 7 2 9.67 5.72 2.23 <
2734 5 -3 7 1 10.04 6.98 1.85 o
2735 6 -3 -7 0 3.45 1.90 1.05 <
2735 5 -3 7 0 3.45 1.90 1.05 <
2736 5 -3 8 2 5.04 5.21 1.79 <
2737 5 -3 8 1 5.15 4.54 1.49 o
2738 5 4 -7 -4 17.82 18.85 4.32 o
2739 5 4 -7 -3 15.13 15.34 3.14 o
2740 5 4 -6 -5 14.01 20.23 4.79 o
2741 5 4 -6 -4 9.81 8.00 2.87 <
2742 5 4 -6 -3 1.84 3.28 1.55 <
2743 5 4 -5 -6 8.31 6.94 3.52 <
2744 5 4 -5 -5 2.98 2.78 2.09 <
2745 5 4 -5 -4 8.34 4.89 2.68 <
2746 5 4 -5 -3 17.96 13.65 2.79 o
2747 5 4 -5 -2 0.29 0.27 0.36 <
2748 5 4 -4 -7 4.01 3.63 2.97 <
2749 5 4 -4 -6 1.53 -0.46 2.05 <
2750 5 4 -4 -5 8.86 5.41 2.68 <
2751 5 4 -4 -4 0.22 -0.79 1.22 <
2752 5 4 -4 -3 2.28 4.29 2.09 <
2753 5 4 -4 -2 63.83 53.20 4.17 o
2754 5 -4 -4 -3 3.81 6.60 3.35 <
2755 5 4 -3 -2 0.23 -0.58 0.72 <
2756 5 -4 -3 -3 8.21 10.58 4.01 <
2757 6 4 2 0 7.36 11.91 1.73 o
2757 5 4 -2 0 7.36 11.91 1.73 o
2758 5 4 -2 1 24.71 21.37 2.92 o
2759 5 4 -2 2 1.02 1.24 1.19 <
2760 5 -4 -2 -3 5.47 9.80 3.35 <
2761 5 4 -2 3 5.47 5.73 2.54 <
2762 6 4 1 0 134.46 134.45 7.17 o
2762 5 4 -1 0 134.46 134.45 7.17 o
2763 5 4 -1 1 10.19 10.60 2.05 o
2764 5 -4 -1 -2 8.65 18.88 4.18 o
2765 5 4 -1 2 8.65 9.50 2.43 o
2766 5 -4 -1 -3 3.88 3.63 1.26 <
2767 5 4 -1 3 3.88 1.31 0.91 <
2768 5 4 0 1 79.28 118.06 8.41 o
2769 5 4 0 2 2.11 -0.56 0.92 <
2770 5 -4 0 -2 2.11 0.55 0.98 <
2771 5 -4 0 -3 4.83 9.22 2.76 o
2772 5 4 0 3 4.83 9.26 3.18 <
2773 5 4 0 4 8.10 13.58 4.18 o
2774 5 -4 0 -4 8.10 26.78 5.84 o
2775 5 4 1 1 10.32 9.28 2.52 o
2776 5 4 1 2 8.38 13.80 3.32 o
2777 5 -4 1 -2 8.38 17.44 3.25 o
2778 5 4 1 3 4.15 5.63 2.83 <
2779 5 -4 1 -3 4.15 3.91 2.14 <
2780 5 -4 2 -2 0.98 1.99 0.97 <
2781 5 4 2 2 0.98 1.40 1.35 <
2782 5 4 2 3 5.66 7.28 3.08 <
2783 5 -4 2 -3 5.66 8.54 2.64 o
2784 5 -4 3 -2 10.85 13.58 2.32 o
2785 5 4 3 2 10.85 17.01 4.55 o
2786 5 4 3 3 8.18 9.13 3.41 <
2787 5 -4 3 -3 8.18 8.79 2.40 o
2788 5 -4 4 -2 2.24 2.10 0.99 <
2789 5 -4 4 -3 3.67 11.17 3.24 o
2790 5 4 4 3 3.67 4.19 3.11 <
2791 5 -4 5 -2 6.78 6.33 1.29 o
2792 5 -4 6 5 14.09 18.57 5.93 o
2793 5 -4 6 4 9.90 4.39 2.17 <
2794 5 -4 6 3 1.92 2.62 1.62 <
2795 5 -4 6 2 19.04 12.44 2.54 o
2796 5 -4 7 4 17.82 13.82 4.38 o
2797 5 -4 7 3 14.90 17.06 4.39 o
2798 5 -4 7 2 0.10 0.52 1.11 <
2799 5 -4 7 1 15.33 9.89 2.06 o
2800 5 5 -6 -4 8.04 5.05 1.80 <
2801 5 5 -6 -3 2.14 1.22 0.49 <
2802 5 5 -5 -5 4.33 2.54 1.53 <
2803 5 5 -5 -4 0.88 1.84 1.44 <
2804 5 5 -5 -3 8.79 5.58 1.80 o
2805 5 5 -5 -2 9.06 3.72 0.75 o
2806 5 5 -4 -4 10.54 6.90 3.05 <
2807 5 5 -4 -3 2.44 1.29 0.96 <
2808 5 5 -4 -2 1.36 1.11 0.43 <
2809 6 5 3 0 7.55 6.64 1.35 o
2809 5 5 -3 0 7.55 6.64 1.35 o
2810 5 5 -3 1 3.67 3.25 1.42 <
2811 5 5 -3 2 1.57 2.15 1.48 <
2812 6 5 2 0 0.90 2.30 0.91 <
2812 5 5 -2 0 0.90 2.30 0.91 <
2813 5 5 -2 1 3.00 3.60 1.17 o
2814 5 5 -2 2 3.46 2.31 1.49 <
2815 6 5 1 0 19.64 27.84 3.65 o
2815 5 5 -1 0 19.64 27.84 3.65 o
2816 5 5 -1 1 6.19 6.73 1.83 o
2817 5 5 -1 2 3.75 2.87 1.69 <
2818 5 5 0 1 0.72 2.80 1.28 <
2819 5 5 0 2 2.73 4.16 1.87 <
2820 5 5 1 1 6.18 5.91 2.16 <
2821 5 5 1 2 3.60 4.89 2.45 <
2822 5 5 2 2 3.63 4.95 2.15 <
2823 5 6 -4 -2 1.89 1.32 0.77 <
2824 5 6 -3 -1 3.87 1.82 0.83 <
2825 6 6 3 0 4.61 3.30 1.12 <
2825 5 6 -3 0 4.61 3.30 1.12 <
2826 6 6 2 0 8.98 15.23 2.73 o
2826 5 6 -2 0 8.98 15.23 2.73 o
2827 6 6 1 0 0.46 1.29 1.05 <
2827 5 6 -1 0 0.46 1.29 1.05 <
2828 6 0 -8 -2 8.90 5.58 2.46 <
2829 6 0 -8 -3 34.54 27.80 5.73 o
2830 6 0 -7 -2 10.72 5.17 2.14 <
2831 6 0 -7 -3 23.47 9.33 3.19 <
2832 6 0 -7 -4 77.00 67.62 9.67 o
2833 6 0 -6 -1 16.56 25.34 4.07 o
2834 6 0 -6 -2 38.47 39.28 5.49 o
2835 6 0 -6 -3 52.17 34.86 5.89 o
2836 6 0 -6 -4 4.32 1.68 0.91 <
2837 6 0 -6 -5 28.14 27.52 6.75 o
2838 6 0 -5 -1 92.03 132.13 9.60 o
2839 6 0 -5 -2 116.63 113.31 8.61 o
2840 6 0 -5 -3 1.33 -0.11 0.92 <
2841 6 0 -5 -4 12.24 3.65 2.03 <
2842 6 0 -5 -5 4.18 3.08 2.71 <
2843 6 0 -4 -1 1.70 1.96 0.95 <
2844 6 0 -4 -2 12.60 18.05 3.10 o
2845 6 0 -4 -3 134.77 117.23 10.24 o
2846 6 0 -4 -4 1.18 -0.24 1.18 <
2847 6 0 -3 -1 22.77 24.99 3.14 o
2848 6 0 -3 -2 319.65 346.27 13.81 o
2849 6 0 -3 -3 7.20 3.05 1.58 <
2850 6 0 -2 -1 1.16 0.35 0.41 <
2851 6 0 -2 -2 209.58 178.48 9.55 o
2852 6 0 -1 -1 633.32 637.64 12.46 o
2853 6 0 1 1 633.39 633.54 12.72 o
2854 6 0 2 1 1.10 0.47 0.32 <
2855 6 0 2 2 209.72 173.79 9.61 o
2856 6 0 2 3 184.16 201.55 12.89 o
2857 6 0 3 1 22.90 23.96 2.97 o
2858 6 0 3 2 319.30 349.95 12.63 o
2859 6 0 3 3 7.17 2.59 1.29 <
2860 6 0 3 4 3.88 3.44 2.11 <
2861 6 0 4 1 1.91 2.45 1.23 <
2862 6 0 4 2 12.65 18.97 2.99 o
2863 6 0 4 3 134.84 122.09 9.14 o
2864 6 0 4 4 1.20 -0.16 0.72 <
2865 6 0 4 5 0.78 4.46 3.13 <
2866 6 0 5 2 116.71 112.62 8.48 o
2867 6 0 5 3 1.30 0.52 0.57 <
2868 6 0 5 4 12.28 4.17 2.00 <
2869 6 0 5 5 4.25 5.91 2.84 <
2870 6 0 6 2 38.45 38.83 5.53 o
2871 6 0 6 3 52.30 36.40 5.19 o
2872 6 0 6 4 4.32 3.50 2.11 <
2873 6 0 6 5 28.09 30.07 6.57 o
2874 6 0 7 3 23.46 11.83 3.16 o
2875 6 0 7 4 77.10 65.51 8.35 o
2876 6 0 8 3 34.39 30.03 5.76 o
2877 6 1 -8 -3 8.51 4.61 2.47 <
2878 6 1 -8 -2 34.40 26.73 5.37 o
2879 6 -1 -8 -1 77.33 67.95 7.18 o
2879 1 1 8 1 77.33 67.95 7.18 o
2880 6 -1 -8 -2 8.64 6.41 2.06 o
2881 6 1 -7 -4 17.15 11.94 4.23 <
2882 6 1 -7 -3 11.08 4.65 1.97 <
2883 6 1 -7 -2 0.55 1.10 1.59 <
2884 6 -1 -7 -1 0.75 2.07 1.64 <
2884 1 1 7 1 0.75 2.07 1.64 <
2885 6 -1 -7 -2 11.88 9.89 2.76 o
2886 6 -1 -7 -3 18.48 14.21 3.71 o
2887 6 1 -6 -5 38.40 43.14 8.33 o
2888 6 1 -6 -4 15.54 11.88 4.05 <
2889 6 1 -6 -3 27.53 23.53 5.09 o
2890 6 1 -6 -2 96.07 112.69 10.25 o
2891 6 -1 -6 -1 227.37 259.77 12.55 o
2891 1 1 6 1 227.37 259.77 12.55 o
2892 6 -1 -6 -2 26.50 21.92 4.01 o
2893 6 -1 -6 -3 15.41 10.44 3.42 o
2894 6 -1 -6 -4 39.69 28.71 5.66 o
2895 6 1 -5 -6 14.86 9.86 4.75 <
2896 6 1 -5 -5 7.83 8.24 4.05 <
2897 6 1 -5 -4 44.55 42.49 7.58 o
2898 6 1 -5 -3 93.15 96.72 9.78 o
2899 6 1 -5 -2 40.30 37.71 5.42 o
2900 6 -1 -5 -1 80.02 85.99 6.41 o
2900 1 1 5 1 80.02 85.99 6.41 o
2901 6 -1 -5 -2 89.24 100.29 8.02 o
2902 6 -1 -5 -3 50.18 35.13 5.71 o
2903 6 1 -4 -5 9.75 10.56 4.00 <
2904 6 1 -4 -4 48.57 52.00 8.83 o
2905 6 1 -4 -3 32.59 35.22 5.57 o
2906 6 1 -4 -2 255.56 279.80 14.01 o
2907 6 1 -4 -1 29.92 32.49 4.52 o
2908 6 -1 -4 -1 577.41 662.80 16.61 o
2908 1 1 4 1 577.41 662.80 16.61 o
2909 6 -1 -4 -2 34.97 31.40 4.14 o
2910 6 -1 -4 -3 42.56 29.28 5.18 o
2911 6 1 -3 -4 54.87 51.79 7.73 o
2912 6 1 -3 -3 228.27 221.52 14.25 o
2913 6 1 -3 -2 21.31 24.26 3.77 o
2914 6 1 -3 -1 80.88 89.83 6.72 o
2915 6 -1 -3 -1 44.44 50.70 3.84 o
2915 1 1 3 1 44.44 50.70 3.84 o
2916 6 -1 -3 -2 220.80 203.67 9.90 o
2917 6 1 -2 -3 142.99 142.82 10.88 o
2918 6 1 -2 -2 547.93 620.63 18.73 o
2919 6 1 -2 -1 9.76 5.76 1.48 o
2920 6 -1 -2 -1 1254.69 1465.24 19.58 o
2920 1 1 2 1 1254.69 1465.24 19.58 o
2921 6 1 -1 -2 186.76 204.30 10.40 o
2922 6 1 -1 -1 476.29 461.20 11.63 o
2923 6 -1 0 1 193.60 143.73 6.19 o
2924 6 1 0 -1 193.60 144.46 6.12 o
2925 6 -1 1 3 63.99 51.77 6.59 o
2926 6 -1 1 2 188.84 210.21 10.55 o
2927 6 -1 1 1 476.47 460.40 11.50 o
2928 6 -1 2 4 22.59 22.95 5.32 o
2929 6 -1 2 3 139.51 150.34 10.91 o
2930 6 -1 2 2 547.93 618.08 17.63 o
2931 6 -1 2 1 11.27 4.89 1.34 o
2932 6 1 2 1 1254.82 1463.19 18.39 o
2932 1 -1 -2 -1 1254.82 1463.19 18.39 o
2933 6 1 2 2 152.35 122.98 8.85 o
2934 6 -1 3 5 15.25 29.27 6.94 o
2935 6 -1 3 4 52.98 58.61 7.84 o
2936 6 -1 3 3 228.03 214.96 12.91 o
2937 6 -1 3 2 21.78 24.33 3.51 o
2938 6 -1 3 1 80.62 95.26 6.91 o
2939 6 1 3 1 44.55 46.84 3.47 o
2939 1 -1 -3 -1 44.55 46.84 3.47 o
2940 6 1 3 2 221.05 204.01 9.94 o
2941 6 1 3 3 56.45 47.01 6.38 o
2942 6 -1 4 6 0.58 -0.17 1.49 <
2943 6 -1 4 5 10.27 10.44 3.62 <
2944 6 -1 4 4 49.22 55.89 8.55 o
2945 6 -1 4 3 33.19 34.56 5.07 o
2946 6 -1 4 2 253.79 292.60 13.80 o
2947 6 1 4 1 576.94 652.92 17.20 o
2947 1 -1 -4 -1 576.94 652.92 17.20 o
2948 6 1 4 2 34.27 32.60 3.60 o
2949 6 1 4 3 41.85 37.21 5.14 o
2950 6 1 4 4 8.05 8.39 2.92 <
2951 6 -1 5 6 14.93 13.06 4.36 <
2952 6 -1 5 5 8.14 8.93 3.66 <
2953 6 -1 5 4 46.15 46.09 6.75 o
2954 6 -1 5 3 92.81 102.07 9.22 o
2955 6 -1 5 2 39.60 39.50 5.23 o
2956 6 1 5 2 90.07 102.29 7.22 o
2957 6 1 5 3 48.31 39.72 5.13 o
2958 6 1 5 4 9.85 4.36 1.85 <
2959 6 1 5 5 13.60 15.08 4.60 o
2960 6 -1 6 5 38.90 46.83 7.70 o
2961 6 -1 6 4 15.34 13.64 3.74 o
2962 6 -1 6 3 28.84 21.47 4.36 o
2963 6 -1 6 2 98.11 118.56 10.67 o
2964 6 1 6 2 25.19 25.05 3.91 o
2965 6 1 6 3 15.63 12.20 2.86 o
2966 6 1 6 4 39.20 34.81 5.61 o
2967 6 -1 7 4 17.01 16.52 4.13 o
2968 6 -1 7 3 10.96 4.88 2.22 <
2969 6 1 7 3 18.57 14.33 3.27 o
2970 6 -1 8 3 7.94 6.22 2.52 <
2971 6 2 -8 -3 5.40 1.61 1.77 <
2972 6 -2 -8 -1 5.27 7.13 2.18 o
2973 6 2 -7 -5 7.19 8.62 4.25 <
2974 6 2 -7 -4 1.19 0.44 1.54 <
2975 6 2 -7 -3 21.55 18.86 5.02 o
2976 6 -2 -7 -1 22.31 25.10 3.42 o
2977 6 -2 -7 -2 1.85 0.38 0.20 <
2977 1 2 7 2 1.85 0.38 0.20 <
2978 6 -2 -7 -3 5.23 16.08 8.75 <
2979 6 2 -6 -5 6.81 6.95 3.07 <
2980 6 2 -6 -4 26.01 26.83 6.14 o
2981 6 2 -6 -3 20.45 17.57 4.10 o
2982 6 2 -6 -2 15.70 16.53 3.98 o
2983 6 -2 -6 -1 16.84 25.87 3.29 o
2984 6 -2 -6 -2 60.94 65.48 5.93 o
2984 1 2 6 2 60.94 65.48 5.93 o
2985 6 2 -5 -6 10.98 12.83 5.41 <
2986 6 2 -5 -5 35.44 67.70 10.81 o
2987 6 2 -5 -4 16.02 17.34 5.49 o
2988 6 2 -5 -3 53.48 61.43 7.84 o
2989 6 2 -5 -2 79.05 80.69 8.62 o
2990 6 -2 -5 -1 55.79 77.23 5.56 o
2991 6 -2 -5 -2 33.03 29.00 3.67 o
2991 1 2 5 2 33.03 29.00 3.67 o
2992 6 2 -4 -6 24.40 24.04 6.66 o
2993 6 2 -4 -5 0.22 0.90 2.11 <
2994 6 2 -4 -4 129.53 155.17 13.88 o
2995 6 2 -4 -3 74.99 73.64 8.44 o
2996 6 2 -4 -2 1.43 1.36 0.55 <
2997 6 -2 -4 -1 67.99 77.21 4.97 o
2998 6 2 -3 -5 52.74 90.05 11.50 o
2999 6 2 -3 -4 12.16 12.88 4.29 o
3000 6 2 -3 -3 120.86 145.47 11.51 o
3001 6 2 -3 -2 274.80 281.38 14.28 o
3002 6 2 -3 -1 5.56 5.83 2.06 <
3003 6 2 -2 -5 15.14 19.74 5.26 o
3004 6 2 -2 -4 74.26 80.28 9.56 o
3005 6 2 -2 -3 100.08 102.53 9.59 o
3006 6 2 -2 -2 52.20 46.80 5.34 o
3007 6 2 -2 -1 375.00 348.15 13.57 o
3008 6 2 -1 -4 23.81 29.09 6.92 o
3009 6 2 -1 -3 131.17 126.81 10.52 o
3010 6 2 -1 -2 59.34 42.35 5.01 o
3011 6 2 -1 -1 332.38 306.40 11.18 o
3012 6 -2 -1 1 332.38 305.11 8.81 o
3013 6 2 0 -3 0.59 0.38 0.25 <
3014 6 -2 0 3 0.59 0.21 0.30 <
3015 6 -2 0 2 0.38 1.49 0.84 <
3016 6 2 0 -2 0.38 1.52 0.98 <
3017 6 2 0 -1 95.70 91.16 5.21 o
3018 6 -2 0 1 95.70 87.87 5.13 o
3019 6 -2 1 4 24.59 24.17 5.52 o
3020 6 -2 1 3 126.55 132.91 10.32 o
3021 6 -2 1 2 55.73 46.65 5.02 o
3022 6 -2 1 1 332.12 299.58 11.03 o
3023 6 2 1 -1 332.12 305.96 9.71 o
3024 6 -2 2 5 15.53 21.37 5.55 o
3025 6 -2 2 4 74.18 80.93 9.24 o
3026 6 -2 2 3 104.49 98.09 8.97 o
3027 6 -2 2 2 53.52 44.53 5.15 o
3028 6 -2 2 1 375.02 352.50 13.87 o
3029 6 -2 3 6 6.54 3.21 1.55 <
3030 6 -2 3 5 51.95 101.16 11.59 o
3031 6 -2 3 4 12.34 12.90 4.05 o
3032 6 -2 3 3 120.95 145.18 10.59 o
3033 6 -2 3 2 275.54 284.36 14.09 o
3034 6 -2 3 1 5.53 7.15 2.27 o
3035 6 2 3 2 29.24 24.70 3.45 o
3035 1 -2 -3 -2 29.24 24.70 3.45 o
3036 6 -2 4 7 10.33 8.50 4.37 <
3037 6 -2 4 6 24.39 32.77 9.53 o
3038 6 -2 4 5 0.17 0.39 1.27 <
3039 6 -2 4 4 129.98 154.35 12.57 o
3040 6 -2 4 3 74.21 80.90 8.35 o
3041 6 -2 4 2 1.01 1.96 0.96 <
3042 6 2 4 2 318.46 308.02 10.34 o
3042 1 -2 -4 -2 318.46 308.02 10.34 o
3043 6 2 4 3 0.49 0.11 0.50 <
3044 6 2 4 4 24.63 22.67 5.12 o
3045 6 -2 5 6 10.58 10.64 3.91 <
3046 6 -2 5 5 36.35 70.28 9.34 o
3047 6 -2 5 4 15.72 16.48 4.56 o
3048 6 -2 5 3 54.01 68.30 8.09 o
3049 6 -2 5 2 79.46 91.27 9.25 o
3050 6 2 5 2 32.95 32.75 3.53 o
3050 1 -2 -5 -2 32.95 32.75 3.53 o
3051 6 2 5 3 36.08 36.97 4.52 o
3052 6 2 5 4 12.56 9.30 3.03 o
3053 6 -2 6 5 6.57 10.00 3.90 <
3054 6 -2 6 4 25.29 31.50 6.22 o
3055 6 -2 6 3 18.87 19.00 4.31 o
3056 6 2 6 2 60.75 56.19 5.52 o
3056 1 -2 -6 -2 60.75 56.19 5.52 o
3057 6 2 6 3 6.50 4.61 1.48 o
3058 6 -2 7 5 7.05 9.00 3.78 <
3059 6 -2 7 4 1.15 2.78 2.53 <
3060 6 -2 7 3 21.84 21.06 5.30 o
3061 6 2 7 3 5.50 32.89 5.25 o
3062 6 3 -7 -4 33.46 38.88 7.84 o
3063 6 3 -7 -3 2.50 2.18 2.49 <
3064 6 -3 -7 -1 32.80 41.79 4.16 o
3065 6 3 -6 -5 12.72 34.37 7.98 o
3066 6 3 -6 -4 0.34 0.77 0.98 <
3067 6 3 -6 -3 54.52 54.31 8.60 o
3068 6 -3 -6 -1 0.51 0.65 0.54 <
3069 6 3 -5 -6 6.53 5.48 3.18 <
3070 6 3 -5 -5 14.41 10.04 4.54 <
3071 6 3 -5 -4 20.54 12.53 4.27 <
3072 6 3 -5 -3 0.40 1.20 1.31 <
3073 6 3 -5 -2 63.81 66.20 8.83 o
3074 6 3 -4 -7 0.05 1.18 1.01 <
3075 6 3 -4 -6 18.31 14.02 5.53 <
3076 6 3 -4 -5 6.32 8.38 3.61 <
3077 6 3 -4 -4 3.39 2.33 1.95 <
3078 6 3 -4 -3 43.13 44.48 6.89 o
3079 6 3 -4 -2 36.31 37.70 5.99 o
3080 6 3 -3 -6 7.22 6.52 4.13 <
3081 6 3 -3 -5 35.10 47.34 8.47 o
3082 6 3 -3 -4 14.04 16.26 4.61 o
3083 6 3 -3 -3 19.99 22.14 4.76 o
3084 6 3 -3 -2 66.28 72.49 7.92 o
3085 6 -3 -3 1 62.44 39.46 3.38 o
3086 6 3 -2 -6 40.20 47.30 9.25 o
3087 6 3 -2 -5 20.16 40.89 8.01 o
3088 6 3 -2 -4 0.19 -0.61 1.51 <
3089 6 3 -2 -3 93.87 96.87 9.52 o
3090 6 -3 -2 2 73.53 53.24 5.39 o
3091 6 3 -2 -2 73.53 68.97 7.05 o
3092 6 3 -2 -1 74.82 75.20 7.07 o
3093 6 -3 -2 1 74.82 51.14 3.65 o
3094 6 3 -1 -5 27.18 46.91 8.18 o
3095 6 3 -1 -4 99.95 95.75 10.28 o
3096 6 -3 -1 3 0.67 1.02 0.92 <
3097 6 3 -1 -3 0.67 0.70 1.02 <
3098 6 3 -1 -2 87.70 89.82 7.66 o
3099 6 -3 -1 2 87.70 88.53 6.77 o
3100 6 3 -1 -1 90.93 88.22 7.02 o
3101 6 -3 -1 1 90.93 87.75 5.02 o
3102 6 3 0 -4 19.55 21.93 4.70 o
3103 6 -3 0 4 19.55 24.27 5.05 o
3104 6 -3 0 3 235.20 221.87 13.59 o
3105 6 3 0 -3 235.20 217.40 14.31 o
3106 6 3 0 -2 3.13 1.32 0.62 <
3107 6 -3 0 2 3.13 1.07 0.58 <
3108 6 -3 0 1 0.91 1.29 0.76 <
3109 6 3 0 -1 0.91 1.43 0.91 <
3110 6 -3 1 5 28.48 42.33 7.68 o
3111 6 -3 1 4 101.13 97.05 10.12 o
3112 6 -3 1 3 0.68 0.13 0.43 <
3113 6 3 1 -2 90.37 86.59 7.29 o
3114 6 -3 1 2 90.37 86.26 7.33 o
3115 6 3 1 -1 88.34 92.06 5.45 o
3116 6 -3 1 1 88.34 93.88 7.25 o
3117 6 -3 2 6 40.80 50.08 9.15 o
3118 6 -3 2 5 20.09 39.53 7.39 o
3119 6 -3 2 4 0.17 -0.52 0.95 <
3120 6 -3 2 3 93.44 98.29 8.89 o
3121 6 -3 2 2 70.03 73.18 7.17 o
3122 6 -3 3 7 12.19 8.08 3.87 <
3123 6 -3 3 6 6.88 3.98 2.49 <
3124 6 -3 3 5 35.50 45.79 7.66 o
3125 6 -3 3 4 15.18 12.10 3.42 o
3126 6 -3 3 3 19.90 17.95 3.91 o
3127 6 -3 3 2 66.81 70.17 7.75 o
3128 6 -3 4 7 0.05 0.16 0.55 <
3129 6 -3 4 6 18.20 16.61 5.04 o
3130 6 -3 4 5 6.23 8.56 3.42 <
3131 6 -3 4 4 3.40 2.45 1.29 <
3132 6 -3 4 3 43.41 47.07 6.75 o
3133 6 -3 4 2 37.27 40.33 6.17 o
3134 6 3 4 2 4.60 3.32 1.00 o
3135 6 3 4 3 21.95 50.59 6.22 o
3136 6 -3 5 6 6.89 8.30 3.74 <
3137 6 -3 5 5 13.71 18.10 5.15 o
3138 6 -3 5 4 19.28 20.17 4.80 o
3139 6 -3 5 3 0.46 1.12 1.30 <
3140 6 -3 5 2 63.06 77.32 9.88 o
3141 6 3 5 2 16.76 8.85 1.53 o
3142 6 3 5 3 9.53 16.36 2.76 o
3143 6 -3 6 5 12.80 32.53 6.92 o
3144 6 -3 6 4 0.35 1.51 1.33 <
3145 6 -3 6 3 54.44 59.88 8.51 o
3146 6 -3 7 4 33.71 43.05 7.99 o
3147 6 -3 7 3 2.50 2.38 2.39 <
3148 6 4 -7 -4 16.36 14.33 5.21 <
3149 6 4 -7 -3 13.89 8.62 3.90 <
3150 6 4 -6 -5 12.87 18.83 6.42 <
3151 6 4 -6 -4 9.01 9.56 4.22 <
3152 6 4 -6 -3 1.69 0.89 0.84 <
3153 6 4 -5 -6 7.63 13.09 6.03 <
3154 6 4 -5 -5 2.74 3.18 2.22 <
3155 6 4 -5 -4 7.66 6.94 3.45 <
3156 6 4 -5 -3 16.49 13.51 4.18 o
3157 6 4 -4 -7 3.68 0.52 1.70 <
3158 6 4 -4 -6 1.40 4.43 3.59 <
3159 6 4 -4 -5 8.13 10.01 4.25 <
3160 6 4 -4 -4 0.20 0.35 0.27 <
3161 6 4 -4 -3 2.09 1.07 0.64 <
3162 6 4 -4 -2 58.60 71.10 9.24 o
3163 6 4 -3 -7 5.63 4.99 1.79 <
3164 6 4 -3 -6 11.02 5.97 3.36 <
3165 6 4 -3 -5 1.10 2.24 2.63 <
3166 6 4 -3 -4 3.90 1.32 1.07 <
3167 6 4 -3 -3 21.71 19.63 4.42 o
3168 6 -4 -3 2 0.22 -0.08 0.18 <
3169 6 4 -3 -2 0.22 0.05 0.54 <
3170 6 -4 -3 1 19.84 14.24 1.55 o
3171 6 4 -2 -7 6.70 6.64 4.27 <
3172 6 4 -2 -6 0.94 1.20 2.33 <
3173 6 4 -2 -5 18.53 23.90 6.02 o
3174 6 4 -2 -4 6.66 4.64 2.66 <
3175 6 4 -2 -3 8.15 5.88 2.20 <
3176 6 -4 -2 3 8.15 3.91 1.89 <
3177 6 -4 -2 2 69.39 66.27 5.46 o
3178 6 4 -2 -2 69.39 73.87 8.06 o
3179 6 -4 -2 1 7.11 6.78 1.30 o
3180 6 4 -1 -6 10.11 7.71 3.83 <
3181 6 4 -1 -5 9.49 27.46 6.30 o
3182 6 -4 -1 4 56.57 57.40 7.95 o
3183 6 4 -1 -4 56.57 62.01 8.79 o
3184 6 -4 -1 3 41.80 38.53 5.46 o
3185 6 4 -1 -3 41.80 47.58 6.70 o
3186 6 4 -1 -2 3.16 1.43 1.20 <
3187 6 -4 -1 2 3.16 1.49 0.87 <
3188 6 -4 -1 1 44.60 45.01 4.40 o
3189 6 4 -1 -1 44.60 53.27 6.03 o
3190 6 -4 0 5 65.53 90.62 11.49 o
3191 6 4 0 -5 65.53 78.71 11.46 o
3192 6 -4 0 4 46.30 51.80 7.43 o
3193 6 4 0 -4 46.30 52.22 8.10 o
3194 6 -4 0 3 1.48 3.29 1.87 <
3195 6 4 0 -3 1.48 2.70 1.25 <
3196 6 4 0 -2 35.92 31.19 4.44 o
3197 6 -4 0 2 35.92 29.83 4.13 o
3198 6 4 0 -1 3.38 2.07 0.98 <
3199 6 -4 1 6 10.33 9.32 3.80 <
3200 6 -4 1 5 9.36 12.23 4.09 <
3201 6 -4 1 4 56.32 62.98 8.30 o
3202 6 4 1 -3 42.08 36.85 6.12 o
3203 6 -4 1 3 42.08 45.25 5.91 o
3204 6 -4 1 2 3.19 1.52 0.95 <
3205 6 4 1 -2 3.19 0.60 0.63 <
3206 6 4 1 -1 44.30 45.75 4.45 o
3207 6 -4 2 7 6.52 4.99 3.06 <
3208 6 -4 2 6 0.95 -0.33 1.00 <
3209 6 -4 2 5 19.12 20.22 5.00 o
3210 6 -4 2 4 6.68 5.22 2.54 <
3211 6 -4 2 3 7.68 6.82 2.63 <
3212 6 4 2 -2 69.42 53.70 6.50 o
3213 6 -4 2 2 69.42 78.57 8.01 o
3214 6 4 2 -1 7.62 4.55 1.51 o
3215 6 -4 3 7 5.63 4.37 2.96 <
3216 6 -4 3 6 11.01 10.49 3.89 <
3217 6 -4 3 5 1.22 1.91 1.72 <
3218 6 -4 3 4 3.62 2.64 1.84 <
3219 6 -4 3 3 20.63 24.47 4.97 o
3220 6 -4 3 2 0.21 0.07 0.96 <
3221 6 -4 4 7 3.81 16.76 7.11 <
3222 6 -4 4 6 1.38 1.61 1.41 <
3223 6 -4 4 5 7.74 6.43 2.94 <
3224 6 -4 4 4 0.12 0.67 1.46 <
3225 6 -4 4 3 2.34 4.44 2.74 <
3226 6 -4 4 2 58.57 74.79 9.60 o
3227 6 4 4 2 2.06 0.83 0.37 <
3228 6 -4 5 6 7.60 9.54 4.21 <
3229 6 -4 5 5 2.64 2.38 1.95 <
3230 6 -4 5 4 7.93 6.29 2.95 <
3231 6 -4 5 3 17.46 15.35 4.12 o
3232 6 -4 6 5 12.94 25.33 6.67 o
3233 6 -4 6 4 9.09 8.46 3.92 <
3234 6 -4 6 3 1.76 2.31 1.68 <
3235 6 -4 7 4 16.36 20.88 5.93 o
3236 6 5 -6 -4 7.38 7.36 3.82 <
3237 6 5 -6 -3 1.97 3.87 2.75 <
3238 6 5 -5 -5 3.98 4.36 2.72 <
3239 6 5 -5 -4 0.80 1.85 2.53 <
3240 6 5 -5 -3 8.07 11.04 4.79 <
3241 6 -5 -5 2 8.31 3.83 1.31 <
3242 6 5 -4 -6 6.26 7.37 3.89 <
3243 6 5 -4 -5 0.08 0.88 0.57 <
3244 6 5 -4 -4 9.67 14.12 4.92 <
3245 6 -5 -4 3 2.24 0.81 0.86 <
3246 6 5 -4 -3 2.24 1.74 2.10 <
3247 6 -5 -4 2 1.25 1.29 0.62 <
3248 6 5 -3 -7 1.36 -0.46 2.25 <
3249 6 5 -3 -6 2.43 0.48 1.91 <
3250 6 5 -3 -5 4.63 9.13 3.52 <
3251 6 5 -3 -4 0.02 -0.48 0.65 <
3252 6 -5 -3 4 0.02 0.70 0.85 <
3253 6 5 -3 -3 23.94 28.54 5.81 o
3254 6 -5 -3 3 23.94 19.13 3.73 o
3255 6 5 -3 -2 23.82 36.23 6.43 o
3256 6 -5 -3 2 23.82 14.50 3.06 o
3257 6 5 -2 -7 3.15 7.39 4.17 <
3258 6 5 -2 -6 3.26 7.57 4.35 <
3259 6 5 -2 -5 0.35 0.23 0.83 <
3260 6 -5 -2 4 20.80 10.04 3.12 o
3261 6 5 -2 -4 20.80 16.15 4.57 o
3262 6 5 -2 -3 3.54 2.15 1.56 <
3263 6 -5 -2 3 3.54 3.78 1.73 <
3264 6 -5 -2 2 2.66 2.90 1.04 <
3265 6 5 -2 -2 2.66 5.76 2.40 <
3266 6 5 -1 -7 2.21 4.44 3.63 <
3267 6 5 -1 -6 4.65 3.74 1.86 <
3268 6 -5 -1 5 10.36 7.90 3.04 <
3269 6 5 -1 -5 10.36 7.20 2.96 <
3270 6 5 -1 -4 2.33 1.69 1.34 <
3271 6 -5 -1 4 2.33 0.04 0.47 <
3272 6 -5 -1 3 6.21 4.17 1.81 <
3273 6 5 -1 -3 6.21 4.76 2.48 <
3274 6 5 -1 -2 5.53 8.06 2.74 <
3275 6 -5 -1 2 5.53 7.75 2.01 o
3276 6 5 -1 -1 1.53 0.20 1.24 <
3277 6 -5 0 6 1.60 1.17 1.49 <
3278 6 5 0 -5 1.53 0.53 0.57 <
3279 6 -5 0 5 1.53 0.79 1.16 <
3280 6 -5 0 4 17.91 18.53 4.11 o
3281 6 5 0 -4 17.91 14.28 4.26 o
3282 6 5 0 -3 1.18 2.29 1.80 <
3283 6 -5 0 3 1.18 0.31 0.78 <
3284 6 5 0 -2 0.78 -0.59 0.81 <
3285 6 -5 0 2 0.78 -0.07 0.72 <
3286 6 5 0 -1 21.92 28.90 4.34 o
3287 6 -5 1 7 2.34 1.67 2.52 <
3288 6 -5 1 6 4.66 1.56 0.26 o
3289 6 -5 1 5 10.04 10.42 4.01 <
3290 6 -5 1 4 2.36 0.69 0.99 <
3291 6 5 1 -4 2.36 1.56 1.23 <
3292 6 5 1 -3 5.85 2.36 1.02 <
3293 6 -5 1 3 5.85 4.98 2.10 <
3294 6 -5 1 2 5.90 6.45 2.26 <
3295 6 5 1 -2 5.90 4.94 2.02 <
3296 6 5 1 -1 1.52 0.82 0.66 <
3297 6 -5 2 7 3.03 8.19 4.30 <
3298 6 -5 2 6 3.40 5.29 3.07 <
3299 6 -5 2 5 0.37 0.24 0.85 <
3300 6 -5 2 4 20.21 20.66 4.75 o
3301 6 5 2 -3 3.80 3.29 1.86 <
3302 6 -5 2 3 3.80 4.14 2.14 <
3303 6 -5 2 2 2.45 4.12 2.12 <
3304 6 5 2 -2 2.45 2.82 1.43 <
3305 6 5 2 -1 21.72 12.77 3.06 o
3306 6 -5 3 7 1.36 6.23 4.18 <
3307 6 -5 3 6 2.40 3.65 2.58 <
3308 6 -5 3 5 4.77 5.43 3.23 <
3309 6 -5 3 4 0.01 -0.07 0.39 <
3310 6 -5 3 3 23.55 28.20 5.63 o
3311 6 5 3 1 3.41 1.84 1.01 <
3312 6 -5 4 6 6.20 6.53 3.76 <
3313 6 -5 4 5 0.09 -1.66 2.65 <
3314 6 -5 4 4 9.96 8.65 2.99 <
3315 6 -5 4 3 2.24 2.69 1.64 <
3316 6 -5 5 5 3.94 6.97 3.06 <
3317 6 -5 5 4 0.81 0.78 0.58 <
3318 6 -5 5 3 8.49 10.86 4.58 <
3319 6 -5 6 4 7.44 11.90 4.93 <
3320 6 6 -4 -5 0.74 -0.64 2.03 <
3321 6 -6 -4 4 1.38 1.29 1.65 <
3322 6 6 -4 -4 1.38 1.60 1.12 <
3323 6 -6 -4 3 7.22 5.47 1.61 o
3324 6 6 -4 -3 7.22 8.36 3.54 <
3325 6 -6 -4 2 1.74 1.37 0.59 <
3326 6 6 -3 -6 2.12 4.58 3.91 <
3327 6 6 -3 -5 2.95 2.56 1.99 <
3328 6 -6 -3 5 2.95 1.19 1.70 <
3329 6 6 -3 -4 2.10 1.40 1.62 <
3330 6 -6 -3 4 2.10 2.05 1.25 <
3331 6 6 -3 -3 0.48 0.52 1.37 <
3332 6 -6 -3 3 0.48 -1.40 1.33 <
3333 6 -6 -3 2 2.24 1.92 0.81 <
3334 6 6 -3 -2 2.24 2.45 2.09 <
3335 6 6 -2 -6 3.20 8.67 4.66 <
3336 6 -6 -2 6 3.20 0.81 1.00 <
3337 6 6 -2 -5 2.00 -2.01 2.80 <
3338 6 -6 -2 5 2.00 2.28 1.87 <
3339 6 -6 -2 4 0.06 -2.01 1.98 <
3340 6 6 -2 -4 0.06 0.58 0.86 <
3341 6 6 -2 -3 4.84 6.33 2.54 <
3342 6 -6 -2 3 4.84 5.16 2.01 <
3343 6 -6 -2 2 0.09 0.47 0.22 <
3344 6 6 -2 -2 0.09 -0.54 1.34 <
3345 6 -6 -1 6 0.27 2.84 2.30 <
3346 6 6 -1 -6 0.27 3.32 2.74 <
3347 6 6 -1 -5 1.90 2.42 2.70 <
3348 6 -6 -1 5 1.90 1.30 0.96 <
3349 6 -6 -1 4 2.89 4.64 2.25 <
3350 6 6 -1 -4 2.89 0.03 0.67 <
3351 6 6 -1 -3 0.01 0.22 1.19 <
3352 6 -6 -1 3 0.01 -0.52 0.94 <
3353 6 -6 -1 2 2.89 4.05 1.94 <
3354 6 6 -1 -2 2.89 4.47 1.98 <
3355 6 6 0 -6 1.38 0.50 1.55 <
3356 6 -6 0 6 1.38 2.91 2.19 <
3357 6 -6 0 5 0.37 -1.52 2.22 <
3358 6 6 0 -5 0.37 -1.21 1.57 <
3359 6 6 0 -4 0.01 1.10 1.05 <
3360 6 -6 0 4 0.01 -0.97 0.34 <
3361 6 -6 0 3 6.23 8.29 3.18 <
3362 6 6 0 -3 6.23 3.54 2.18 <
3363 6 6 0 -2 0.03 0.03 1.22 <
3364 6 -6 0 2 0.03 0.41 0.56 <
3365 6 6 0 -1 0.05 0.64 1.40 <
3366 6 -6 1 6 0.24 2.92 2.25 <
3367 6 -6 1 5 1.91 2.16 1.37 <
3368 6 6 1 -5 1.91 1.27 1.86 <
3369 6 -6 1 4 2.91 1.07 0.91 <
3370 6 6 1 -4 2.91 2.43 2.04 <
3371 6 -6 1 3 0.01 0.78 0.54 <
3372 6 6 1 -3 0.01 -0.06 0.14 <
3373 6 6 1 -2 2.90 2.55 1.55 <
3374 6 6 1 -1 2.04 3.72 1.37 <
3375 6 -6 2 6 3.26 7.02 3.25 <
3376 6 -6 2 5 1.90 1.37 0.99 <
3377 6 -6 2 4 0.06 -1.76 2.16 <
3378 6 6 2 -4 0.06 0.05 1.27 <
3379 6 -6 2 3 4.85 6.48 2.73 <
3380 6 6 2 -3 4.85 4.38 2.41 <
3381 6 6 2 -2 0.08 -0.06 0.85 <
3382 6 6 2 -1 1.41 0.76 0.58 <
3383 6 -6 3 6 2.11 2.28 2.07 <
3384 6 -6 3 5 3.03 1.41 0.74 <
3385 6 -6 3 4 2.08 2.60 1.32 <
3386 6 -6 3 3 0.49 0.33 0.36 <
3387 6 6 3 -1 3.45 2.14 1.11 <
3388 6 -6 4 5 0.77 -1.04 1.29 <
3389 6 -6 4 4 1.38 2.26 1.65 <
3390 6 -6 4 3 7.20 8.83 3.47 <
3391 6 7 -1 -4 1.13 4.71 2.82 <
3392 6 -7 -1 4 1.13 2.17 1.54 <
3393 6 7 -1 -3 1.04 0.99 0.86 <
3394 6 -7 -1 3 1.04 2.32 1.20 <
3395 6 7 0 -5 1.34 6.21 3.46 <
3396 6 -7 0 5 1.34 8.05 3.58 <
3397 6 7 0 -4 0.51 2.35 1.97 <
3398 6 -7 0 4 0.51 0.31 1.03 <
3399 6 -7 0 3 0.36 -0.17 1.25 <
3400 6 7 0 -3 0.36 1.02 1.14 <
3401 6 7 0 -2 1.57 4.62 2.31 <
3402 6 7 1 -4 1.16 4.32 2.93 <
3403 6 -7 1 4 1.16 4.61 2.19 <
3404 6 -7 1 3 1.00 2.07 0.23 o
3405 6 7 1 -3 1.00 1.03 1.14 <
