#------------------------------------------------------------------------------
#$Date: 2019-11-17 15:32:33 +0200 (Sun, 17 Nov 2019) $
#$Revision: 230902 $
#$URL: file:///home/coder/svn-repositories/cod/cif/7/23/14/7231432.cif $
#------------------------------------------------------------------------------
#
# This file is available in the Crystallography Open Database (COD),
# http://www.crystallography.net/
#
# All data on this site have been placed in the public domain by the
# contributors.
#
data_7231432
loop_
_publ_author_name
'Collings, Ines E.'
'Manna, Rudra Sekhar'
'Tsirlin, Alexander A.'
'Bykov, Maxim'
'Bykova, Elena'
'Hanfland, Michael'
'Gegenwart, Philipp'
'van Smaalen, Sander'
'Dubrovinsky, Leonid'
'Dubrovinskaia, Natalia'
_publ_section_title
;
 Pressure dependence of spin canting in ammonium metal formate
 antiferromagnets.
;
_journal_issue                   37
_journal_name_full               'Physical chemistry chemical physics : PCCP'
_journal_page_first              24465
_journal_page_last               24476
_journal_paper_doi               10.1039/c8cp03761b
_journal_volume                  20
_journal_year                    2018
_chemical_formula_moiety         'C3 H3 Ni O6, N H4'
_chemical_formula_sum            'C3 H7 N Ni O6'
_chemical_formula_weight         211.8
_space_group_IT_number           4
_space_group_name_Hall           'P 2yb'
_space_group_name_H-M_alt        'P 1 21 1'
_symmetry_cell_setting           monoclinic
_symmetry_Int_Tables_number      4
_symmetry_space_group_name_Hall  'P 2yb'
_symmetry_space_group_name_H-M   'P 1 21 1'
_audit_creation_method           'Jana2006 Version : 25/10/2015'
_audit_update_record
;
2018-08-09 deposited with the CCDC.
2018-08-22 downloaded from the CCDC.
;
_cell_angle_alpha                90
_cell_angle_beta                 115.83(9)
_cell_angle_gamma                90
_cell_formula_units_Z            2
_cell_length_a                   6.373(5)
_cell_length_b                   8.036(2)
_cell_length_c                   7.247(5)
_cell_measurement_reflns_used    114
_cell_measurement_temperature    293
_cell_measurement_theta_max      12.2
_cell_measurement_theta_min      2.06
_cell_volume                     334.1(4)
_computing_cell_refinement       'CrysAlisPro 1.171.38.46 (Rigaku OD, 2015)'
_computing_data_collection       'CrysAlisPro 1.171.38.46 (Rigaku OD, 2015)'
_computing_data_reduction        'CrysAlisPro 1.171.38.46 (Rigaku OD, 2015)'
_diffrn_ambient_pressure         '2.19 GPa'
_diffrn_ambient_temperature      293
_diffrn_detector                 'CCD plate'
_diffrn_measured_fraction_theta_full 0.98
_diffrn_measured_fraction_theta_max 0.98
_diffrn_measurement_device       'ID15B beamline, ESRF'
_diffrn_measurement_device_type
'esperanto-CrysAlisPro-abstract goniometer imported esperanto images'
_diffrn_measurement_method       '\w scans'
_diffrn_measurement_specimen_support 'diamond-anvil cell'
_diffrn_radiation_monochromator  synchrotron
_diffrn_radiation_probe          x-ray
_diffrn_radiation_source         synchrotron
_diffrn_radiation_type           synchrotron
_diffrn_radiation_wavelength     0.41128
_diffrn_reflns_av_R_equivalents  0.0417
_diffrn_reflns_av_unetI/netI     0.0736
_diffrn_reflns_limit_h_max       7
_diffrn_reflns_limit_h_min       -7
_diffrn_reflns_limit_k_max       8
_diffrn_reflns_limit_k_min       -8
_diffrn_reflns_limit_l_max       8
_diffrn_reflns_limit_l_min       -8
_diffrn_reflns_number            3348
_diffrn_reflns_theta_full        11.95
_diffrn_reflns_theta_max         13.21
_diffrn_reflns_theta_min         1.81
_diffrn_source                   synchrotron
_exptl_absorpt_coefficient_mu    0.639
_exptl_absorpt_correction_T_max  1
_exptl_absorpt_correction_T_min  0.71
_exptl_absorpt_correction_type   multi-scan
_exptl_absorpt_process_details
;
CrysAlisPro 1.171.38.46 (Rigaku Oxford Diffraction, 2015)
Empirical absorption correction using spherical harmonics,
 implemented in SCALE3 ABSPACK scaling algorithm.
;
_exptl_crystal_colour            green
_exptl_crystal_density_diffrn    2.1053
_exptl_crystal_description       'hexagonal bipyramid'
_exptl_crystal_F_000             208
_exptl_crystal_size_max          0.075
_exptl_crystal_size_mid          0.060
_exptl_crystal_size_min          0.050
_refine_ls_abs_structure_details
'  883 of Friedel pairs used in the refinement'
_refine_ls_extinction_method     none
_refine_ls_goodness_of_fit_gt    3.07
_refine_ls_goodness_of_fit_ref   2.59
_refine_ls_hydrogen_treatment    constr
_refine_ls_number_constraints    49
_refine_ls_number_parameters     64
_refine_ls_number_reflns         3348
_refine_ls_number_restraints     0
_refine_ls_R_factor_all          0.1304
_refine_ls_R_factor_gt           0.1037
_refine_ls_shift/su_max          0.0418
_refine_ls_shift/su_mean         0.0081
_refine_ls_structure_factor_coef F
_refine_ls_weighting_details     w=1/(\s^2^(F)+0.0001F^2^)
_refine_ls_weighting_scheme      sigma
_refine_ls_wR_factor_gt          0.1186
_refine_ls_wR_factor_ref         0.1251
_reflns_number_gt                2143
_reflns_number_total             3348
_reflns_threshold_expression     I>3\s(I)
_cod_data_source_file            c8cp03761b3.cif
_cod_data_source_block           ANiF_c2_p11
_cod_depositor_comments
;
The following automatic conversions were performed:

'_diffrn_radiation_probe' value 'X-ray' changed to 'x-ray' according
to
/home/data/users/saulius/crontab/automatic-downloads/rss-feeds/RSC/lib/dictionaries/cif_core.dic
dictionary named 'cif_core.dic' version 2.4.2 from 2011-04-26.

Automatic conversion script
Id: cif_fix_values 4973 2017-02-22 13:04:09Z antanas 

 Adding full bibliography for 7231402--7231432.cif.
;
_cod_original_formula_sum        'C3 H7 N1 Ni1 O6'
_cod_database_code               7231432
loop_
_space_group_symop_id
_space_group_symop_operation_xyz
1 x,y,z
2 -x,y+1/2,-z
loop_
_atom_site_label
_atom_site_type_symbol
_atom_site_fract_x
_atom_site_fract_y
_atom_site_fract_z
_atom_site_adp_type
_atom_site_U_iso_or_equiv
_atom_site_site_symmetry_multiplicity
_atom_site_occupancy
_atom_site_calc_flag
Ni1 Ni 0.6609(3) 0.2535(3) 0.3177(2) Uani 0.0589(7) 2 1 d
N1 N 0.9812(18) 0.253(2) 0.9403(13) Uani 0.064(5) 2 1 d
O1 O 0.4051(16) 0.4004(13) 0.1103(12) Uani 0.068(3) 2 1 d
O2 O 0.6731(18) 0.3949(12) 0.5562(13) Uani 0.071(3) 2 1 d
C3 C 0.944(3) -0.0289(17) 0.547(2) Uani 0.084(4) 2 1 d
O4 O 0.6974(18) 0.1082(12) 0.1090(13) Uani 0.068(3) 2 1 d
O5 O 0.3823(18) 0.1131(12) 0.2951(14) Uani 0.071(3) 2 1 d
C2 C 0.608(2) 0.5378(18) 0.549(2) Uani 0.071(3) 2 1 d
O3 O 0.8807(18) 0.1113(12) 0.5531(14) Uani 0.084(4) 2 1 d
O6 O 0.9173(17) 0.3916(13) 0.2914(15) Uani 0.084(4) 2 1 d
C1 C 0.444(3) 0.501(2) -0.001(3) Uani 0.068(3) 2 1 d
H1c1 H 0.593215 0.496394 -0.004483 Uiso 0.0816 2 1 d
H1c2 H 0.54616 0.595173 0.419849 Uiso 0.0852 2 1 d
H1c3 H 0.887682 -0.083846 0.41682 Uiso 0.1003 2 1 d
loop_
_atom_site_aniso_label
_atom_site_aniso_type_symbol
_atom_site_aniso_U_11
_atom_site_aniso_U_22
_atom_site_aniso_U_33
_atom_site_aniso_U_12
_atom_site_aniso_U_13
_atom_site_aniso_U_23
Ni1 Ni 0.0960(12) 0.0225(8) 0.0508(9) 0.0028(11) 0.0251(8) 0.0007(13)
N1 N 0.098(8) 0.039(5) 0.061(6) -0.001(10) 0.039(6) 0.008(11)
O1 O 0.098(5) 0.046(4) 0.046(4) -0.001(4) 0.018(4) -0.005(3)
O2 O 0.103(5) 0.048(4) 0.066(4) -0.005(4) 0.040(4) 0.012(4)
C3 C 0.103(6) 0.035(4) 0.078(5) 0.004(4) 0.008(4) -0.008(4)
O4 O 0.098(5) 0.046(4) 0.046(4) -0.001(4) 0.018(4) -0.005(3)
O5 O 0.103(5) 0.048(4) 0.066(4) -0.005(4) 0.040(4) 0.012(4)
C2 C 0.103(5) 0.048(4) 0.066(4) -0.005(4) 0.040(4) 0.012(4)
O3 O 0.103(6) 0.035(4) 0.078(5) 0.004(4) 0.008(4) -0.008(4)
O6 O 0.103(6) 0.035(4) 0.078(5) 0.004(4) 0.008(4) -0.008(4)
C1 C 0.098(5) 0.046(4) 0.046(4) -0.001(4) 0.018(4) -0.005(3)
loop_
_atom_type_symbol
_atom_type_scat_dispersion_real
_atom_type_scat_dispersion_imag
_atom_type_scat_source
C -0.0001 0.0005 'International Tables Vol C tables 4.2.6.8 and 6.1.1.1'
H 0.0000 0.0000 'International Tables Vol C tables 4.2.6.8 and 6.1.1.1'
N 0.0006 0.0010 'International Tables Vol C tables 4.2.6.8 and 6.1.1.1'
Ni 0.2309 0.4094 'International Tables Vol C tables 4.2.6.8 and 6.1.1.1'
O 0.0018 0.0018 'International Tables Vol C tables 4.2.6.8 and 6.1.1.1'
loop_
_geom_angle_atom_site_label_1
_geom_angle_atom_site_label_2
_geom_angle_atom_site_label_3
_geom_angle_site_symmetry_1
_geom_angle_site_symmetry_3
_geom_angle
O1 Ni1 O2 . . 91.4(4)
O1 Ni1 O4 . . 95.7(4)
O1 Ni1 O5 . . 82.7(4)
O1 Ni1 O3 . . 169.6(5)
O1 Ni1 O6 . . 91.8(4)
O2 Ni1 O4 . . 171.8(4)
O2 Ni1 O5 . . 95.0(5)
O2 Ni1 O3 . . 81.0(4)
O2 Ni1 O6 . . 92.3(5)
O4 Ni1 O5 . . 90.0(5)
O4 Ni1 O3 . . 92.4(4)
O4 Ni1 O6 . . 83.5(5)
O5 Ni1 O3 . . 90.8(4)
O5 Ni1 O6 . . 171.0(4)
O3 Ni1 O6 . . 95.6(4)
Ni1 O1 C1 . . 122.2(10)
Ni1 O2 C2 . . 127.1(10)
O3 C3 O6 . 2_746 122.7(15)
O3 C3 H1c3 . . 118.63
O6 C3 H1c3 2_746 . 118.63
Ni1 O4 C1 . 2_645 125.8(13)
Ni1 O5 C2 . 2_646 119.3(8)
O2 C2 O5 . 2_656 122.2(13)
O2 C2 H1c2 . . 118.89
O5 C2 H1c2 2_656 . 118.88
Ni1 O3 C3 . . 128.2(10)
Ni1 O6 C3 . 2_756 116.4(12)
O1 C1 O4 . 2_655 124.1(18)
O1 C1 H1c1 . . 117.95
O4 C1 H1c1 2_655 . 117.94
loop_
_geom_bond_atom_site_label_1
_geom_bond_atom_site_label_2
_geom_bond_site_symmetry_2
_geom_bond_distance
Ni1 O1 . 2.044(9)
Ni1 O2 . 2.041(11)
Ni1 O4 . 2.003(11)
Ni1 O5 . 2.049(12)
Ni1 O3 . 2.024(9)
Ni1 O6 . 2.052(12)
O1 C1 . 1.25(2)
O2 C2 . 1.215(18)
C3 O3 . 1.203(17)
C3 O6 2_746 1.288(17)
C3 H1c3 . 0.96
O4 C1 2_645 1.244(18)
O5 C2 2_646 1.26(2)
C2 H1c2 . 0.96
C1 H1c1 . 0.96
loop_
_geom_hbond_atom_site_label_D
_geom_hbond_atom_site_label_H
_geom_hbond_atom_site_label_A
_geom_hbond_site_symmetry_A
_geom_hbond_distance_DH
_geom_hbond_distance_HA
_geom_hbond_distance_DA
_geom_hbond_angle_DHA
C1 H1c1 O5 2_655 0.96 2.37 2.93(2) 116.92
C1 H1c1 O6 . 0.96 2.39 2.965(18) 118.03
loop_
_twin_individual_id
_twin_individual_mass_fraction_refined
_twin_individual_twin_matrix_11
_twin_individual_twin_matrix_12
_twin_individual_twin_matrix_13
_twin_individual_twin_matrix_21
_twin_individual_twin_matrix_22
_twin_individual_twin_matrix_23
_twin_individual_twin_matrix_31
_twin_individual_twin_matrix_32
_twin_individual_twin_matrix_33
1 0.184698 1 0 0 0 1 0 0 0 1
2 0.182594 1 0 0 0 -1 0 0.7663 0 -1
3 0.148724 -0.0808 0 -1.0941 0 1 0 0.8461 0 -0.9192
4 0.182207 -0.9192 0 1.0941 0 -1 0 0.1417 0 0.9192
5 0.182907 -0.9192 0 1.0941 0 1 0 -0.8461 0 -0.0808
6 0.11887 -0.0808 0 -1.0941 0 -1 0 -0.908 0 0.0808
loop_
_twin_refln_datum_id
_twin_refln_individual_id
_twin_refln_index_h
_twin_refln_index_k
_twin_refln_index_l
_twin_refln_f_squared_calc
_twin_refln_f_squared_meas
_twin_refln_f_squared_sigma
_twin_refln_include_status
1 1 0 -3 -6 1.38 0.93 0.43 <
2 1 0 -2 -4 7.65 6.15 0.82 o
3 1 0 -2 -5 43.02 34.85 2.17 o
4 1 0 -2 -6 14.37 15.25 1.80 o
5 1 0 -2 -7 0.69 3.96 1.13 o
6 1 0 -1 -3 70.93 44.87 2.38 o
7 1 0 -1 -4 208.90 223.74 5.79 o
8 1 0 -1 -5 42.14 42.19 2.85 o
9 1 0 -1 -6 21.24 14.61 1.88 o
10 1 0 -1 -7 5.16 4.54 1.38 o
11 1 0 0 -2 2.00 3.07 0.53 o
12 1 0 0 -3 178.05 148.95 4.83 o
13 1 0 0 -4 0.69 8.44 1.38 o
14 1 0 0 -5 116.84 90.47 4.87 o
15 1 0 0 -6 7.51 4.51 1.25 o
16 1 0 0 -7 5.59 6.02 1.47 o
17 1 0 5 3 3.70 1.92 0.64 <
18 1 0 6 4 5.66 2.68 0.59 o
19 1 0 7 4 66.55 58.92 3.73 o
20 1 -1 -4 2 287.15 273.92 9.26 o
21 1 -1 -4 1 36.25 30.41 2.69 o
22 2 -1 4 0 62.92 65.56 3.56 o
22 1 -1 -4 0 62.92 65.56 3.56 o
23 6 1 4 1 464.24 524.30 9.03 o
23 1 -1 -4 -1 464.24 524.30 9.03 o
24 1 1 -3 -7 5.71 4.59 1.17 o
25 1 -1 -3 3 254.62 219.16 8.43 o
26 1 -1 -3 2 25.83 26.93 2.60 o
27 1 -1 -3 1 103.16 104.78 4.69 o
28 2 -1 3 0 205.56 219.82 6.08 o
28 1 -1 -3 0 205.56 219.82 6.08 o
29 6 1 3 1 38.15 47.78 2.30 o
29 1 -1 -3 -1 38.15 47.78 2.30 o
30 1 -1 -3 -5 19.51 9.25 1.00 o
31 1 -1 -3 -6 7.07 5.20 1.01 o
32 1 1 -2 -7 13.65 11.08 1.86 o
33 1 1 -2 -6 0.62 2.73 1.09 <
34 1 1 -2 -5 45.66 35.94 2.81 o
35 1 -1 -2 4 36.80 81.78 5.18 o
36 1 1 -2 -4 36.80 65.10 3.68 o
37 1 -1 -2 3 167.46 158.11 6.68 o
38 1 -1 -2 2 647.10 666.99 12.44 o
39 1 -1 -2 1 10.77 7.25 1.17 o
40 2 -1 2 0 20.65 14.55 1.27 o
40 1 -1 -2 0 20.65 14.55 1.27 o
41 6 1 2 1 1094.78 1370.58 11.09 o
41 1 -1 -2 -1 1094.78 1370.58 11.09 o
42 1 1 -1 -7 4.22 4.16 1.28 o
43 1 1 -1 -6 34.36 26.61 2.68 o
44 1 -1 -1 5 37.74 25.37 2.84 o
45 1 1 -1 -5 37.74 27.18 2.51 o
46 1 -1 -1 4 110.96 113.23 5.67 o
47 1 1 -1 -4 110.96 115.02 4.61 o
48 1 -1 -1 3 64.34 64.96 3.81 o
49 1 1 -1 -3 64.34 68.29 3.25 o
50 1 -1 -1 2 219.97 230.35 6.53 o
51 1 -1 -1 1 569.81 542.96 8.48 o
52 2 -1 1 0 1093.16 1177.13 11.50 o
52 1 -1 -1 0 1093.16 1177.13 11.50 o
53 1 1 0 -7 14.55 8.51 1.99 o
54 1 1 0 -6 3.70 3.59 1.01 o
55 1 -1 0 5 138.82 138.95 6.36 o
56 1 1 0 -5 138.82 144.89 6.33 o
57 1 -1 0 4 143.79 208.04 7.00 o
58 1 1 0 -4 143.79 211.39 6.75 o
59 1 1 0 -3 0.79 1.28 0.47 <
60 1 -1 0 3 0.79 1.10 0.41 <
61 1 -1 0 2 86.52 95.09 3.59 o
62 1 1 0 -2 86.52 98.05 3.69 o
63 1 -1 0 1 221.19 164.54 4.53 o
64 1 1 0 -1 221.19 167.20 4.55 o
65 1 1 1 -7 3.93 4.95 1.50 o
66 1 1 1 -6 33.27 33.92 3.47 o
67 1 -1 1 5 36.38 27.03 2.54 o
68 1 1 1 -5 36.38 27.35 2.85 o
69 1 1 1 -4 109.84 117.89 5.59 o
70 1 -1 1 4 109.84 116.98 4.64 o
71 1 -1 1 3 68.61 61.71 2.92 o
72 1 1 1 -3 68.61 57.21 3.50 o
73 1 -1 1 2 222.75 242.35 5.63 o
74 1 1 1 -2 222.75 236.39 6.64 o
75 1 1 1 -1 570.69 553.92 8.47 o
76 2 1 -1 0 1093.15 1194.07 11.73 o
76 1 1 1 0 1093.15 1194.07 11.73 o
77 1 1 2 -7 13.97 10.17 2.23 o
78 1 1 2 -6 0.62 0.50 0.74 <
79 1 -1 2 6 0.62 0.90 0.61 <
80 1 -1 2 5 44.43 40.72 2.70 o
81 1 1 2 -5 44.43 44.01 4.14 o
82 1 1 2 -4 36.16 84.70 5.32 o
83 1 -1 2 4 36.16 87.87 3.61 o
84 1 1 2 -3 163.75 160.37 6.57 o
85 1 -1 2 3 163.75 160.80 4.68 o
86 1 1 2 -2 647.50 547.81 11.45 o
87 1 1 2 -1 12.34 5.68 0.97 o
88 2 1 -2 0 20.63 14.52 1.26 o
88 1 1 2 0 20.63 14.52 1.26 o
89 6 -1 -2 -1 1094.52 1434.01 12.47 o
89 1 1 2 1 1094.52 1434.01 12.47 o
90 1 -1 3 6 19.35 13.12 1.48 o
91 1 1 3 -5 23.01 11.81 2.20 o
92 1 -1 3 5 23.01 11.44 1.24 o
93 1 1 3 -4 57.04 69.07 5.19 o
94 1 -1 3 4 57.04 49.94 2.78 o
95 1 1 3 -3 254.94 233.95 8.80 o
96 1 1 3 -2 26.39 24.46 2.56 o
97 1 1 3 -1 102.71 103.68 4.80 o
98 2 1 -3 0 205.57 231.22 6.50 o
98 1 1 3 0 205.57 231.22 6.50 o
99 6 -1 -3 -1 37.97 52.50 2.49 o
99 1 1 3 1 37.97 52.50 2.49 o
100 1 -1 4 6 0.45 0.43 0.23 <
101 1 -1 4 5 11.75 7.71 0.99 o
102 1 1 4 -2 285.43 300.66 10.35 o
103 1 1 4 -1 34.98 35.43 3.07 o
104 2 1 -4 0 62.93 81.06 4.29 o
104 1 1 4 0 62.93 81.06 4.29 o
105 6 -1 -4 -1 465.10 715.93 11.75 o
105 1 1 4 1 465.10 715.93 11.75 o
106 1 1 4 2 34.30 29.39 1.93 o
107 1 -1 5 5 14.72 2.59 0.59 o
108 1 1 5 -1 82.16 96.75 5.85 o
109 2 1 -5 0 142.86 209.99 8.22 o
109 1 1 5 0 142.86 209.99 8.22 o
110 6 -1 -5 -1 66.28 74.45 4.28 o
110 1 1 5 1 66.28 74.45 4.28 o
111 1 1 5 2 98.84 114.46 4.36 o
112 2 1 -6 0 40.60 59.80 4.59 o
112 1 1 6 0 40.60 59.80 4.59 o
113 6 -1 -6 -1 174.07 241.62 8.74 o
113 1 1 6 1 174.07 241.62 8.74 o
114 1 1 6 2 24.09 25.40 2.53 o
115 1 1 6 3 18.08 13.19 1.45 o
116 6 -1 -7 -1 0.28 2.56 1.23 <
116 1 1 7 1 0.28 2.56 1.23 <
117 1 1 7 2 12.66 3.36 0.76 o
118 1 1 7 3 19.80 14.58 1.72 o
119 6 -1 -8 -1 56.32 58.44 5.03 o
119 1 1 8 1 56.32 58.44 5.03 o
120 1 1 8 2 10.24 9.77 1.99 o
121 1 -2 -6 4 30.27 32.95 4.21 o
122 1 -2 -6 3 22.49 13.92 2.54 o
123 1 -2 -6 2 14.49 14.46 2.54 o
124 1 -2 -6 1 62.48 47.35 4.08 o
125 2 -2 6 0 26.74 31.22 3.13 o
125 1 -2 -6 0 26.74 31.22 3.13 o
126 1 -2 -6 -1 18.74 14.40 1.95 o
127 6 2 6 2 47.28 39.76 2.72 o
127 1 -2 -6 -2 47.28 39.76 2.72 o
128 1 -2 -5 5 36.33 43.19 5.19 o
129 1 -2 -5 4 16.07 45.90 4.75 o
130 1 -2 -5 3 60.12 70.44 5.71 o
131 1 -2 -5 2 89.56 77.56 5.44 o
132 1 -2 -5 1 36.90 34.89 3.39 o
133 2 -2 5 0 178.46 147.46 6.48 o
133 1 -2 -5 0 178.46 147.46 6.48 o
134 1 -2 -5 -1 60.32 65.73 3.84 o
135 6 2 5 2 23.89 25.82 2.01 o
135 1 -2 -5 -2 23.89 25.82 2.01 o
136 1 -2 -5 -3 36.07 20.94 1.55 o
137 1 -2 -4 6 31.11 29.21 4.15 o
138 1 -2 -4 5 0.35 0.74 0.71 <
139 1 -2 -4 4 125.97 195.53 9.84 o
140 1 -2 -4 3 83.16 81.57 5.78 o
141 1 -2 -4 2 3.10 4.19 1.22 o
142 1 -2 -4 1 341.15 299.65 9.45 o
143 2 -2 4 0 8.13 8.27 1.34 o
143 1 -2 -4 0 8.13 8.27 1.34 o
144 1 -2 -4 -1 69.68 75.35 4.00 o
145 6 2 4 2 231.66 242.09 5.98 o
145 1 -2 -4 -2 231.66 242.09 5.98 o
146 1 -2 -4 -3 0.52 -0.35 0.29 <
147 1 -2 -4 -4 25.15 14.91 1.26 o
148 1 -2 -4 -5 9.13 3.75 0.63 o
149 1 -2 -3 7 13.68 12.93 2.50 o
150 1 -2 -3 6 9.67 9.79 2.47 o
151 1 -2 -3 5 53.16 68.73 5.87 o
152 1 -2 -3 4 22.93 59.44 5.09 o
153 1 -2 -3 3 144.87 155.94 7.48 o
154 1 -2 -3 2 296.92 300.64 9.80 o
155 1 -2 -3 1 4.93 7.91 1.41 o
156 2 -2 3 0 605.35 603.77 11.36 o
156 1 -2 -3 0 605.35 603.77 11.36 o
157 1 -2 -3 -1 149.31 157.65 5.49 o
158 6 2 3 2 22.74 18.65 1.86 o
158 1 -2 -3 -2 22.74 18.65 1.86 o
159 1 2 -2 -7 6.76 8.31 1.41 o
160 1 -2 -2 7 6.76 6.28 1.96 o
161 1 2 -2 -6 46.10 27.38 3.12 o
162 1 -2 -2 6 46.10 37.73 4.28 o
163 1 -2 -2 5 9.16 17.10 2.85 o
164 1 -2 -2 4 75.52 112.13 6.35 o
165 1 -2 -2 3 119.28 116.53 6.12 o
166 1 -2 -2 2 58.08 47.47 3.52 o
167 1 -2 -2 1 408.63 392.04 9.58 o
168 2 -2 2 0 123.60 89.41 4.62 o
168 1 -2 -2 0 123.60 89.41 4.62 o
169 1 2 -1 -7 4.53 2.41 1.23 <
170 1 -2 -1 7 4.53 2.99 1.41 <
171 1 -2 -1 6 18.38 20.61 2.99 o
172 1 2 -1 -6 18.38 17.74 2.67 o
173 1 2 -1 -5 36.47 34.42 3.41 o
174 1 -2 -1 5 36.47 36.87 3.75 o
175 1 -2 -1 4 42.30 100.06 5.62 o
176 1 2 -1 -4 42.30 91.51 5.39 o
177 1 -2 -1 3 153.08 141.95 6.33 o
178 1 -2 -1 2 61.55 50.67 3.62 o
179 1 -2 -1 1 423.43 361.96 9.85 o
180 1 -2 0 7 9.42 12.29 2.42 o
181 1 2 0 -7 9.42 10.00 2.05 o
182 1 2 0 -6 4.69 4.16 1.25 o
183 1 -2 0 6 4.69 4.95 1.36 o
184 1 2 0 -5 2.15 1.83 0.87 <
185 1 -2 0 5 2.15 1.62 0.76 <
186 1 -2 0 4 135.26 208.58 7.58 o
187 1 2 0 -4 135.26 211.31 7.90 o
188 1 2 0 -3 6.57 -0.02 0.16 <
189 1 -2 0 3 6.57 0.44 0.49 <
190 1 2 0 -2 0.58 1.07 0.54 <
191 1 -2 0 2 0.58 0.87 0.58 <
192 1 -2 1 7 4.86 4.64 1.79 <
193 1 2 1 -7 4.86 1.45 0.69 <
194 1 2 1 -6 18.75 20.26 3.07 o
195 1 -2 1 6 18.75 17.41 2.43 o
196 1 2 1 -5 36.09 41.62 3.97 o
197 1 -2 1 5 36.09 37.59 3.37 o
198 1 -2 1 4 43.38 97.52 4.98 o
199 1 2 1 -4 43.38 101.40 5.64 o
200 1 2 1 -3 148.12 150.94 6.53 o
201 1 -2 1 3 148.12 144.51 6.14 o
202 1 2 1 -2 57.64 48.95 3.75 o
203 1 2 1 -1 422.84 352.05 9.64 o
204 1 2 2 -7 7.08 5.97 1.76 o
205 1 -2 2 7 7.08 8.19 1.65 o
206 1 -2 2 6 45.38 32.35 3.13 o
207 1 2 2 -6 45.38 35.84 4.11 o
208 1 -2 2 5 9.40 14.26 1.97 o
209 1 2 2 -5 9.40 17.62 2.74 o
210 1 2 2 -4 75.71 106.83 6.15 o
211 1 -2 2 4 75.71 92.54 4.98 o
212 1 2 2 -3 124.44 114.90 6.09 o
213 1 2 2 -2 59.85 47.96 3.57 o
214 1 2 2 -1 408.80 395.43 10.18 o
215 2 2 -2 0 123.58 91.99 4.64 o
215 1 2 2 0 123.58 91.99 4.64 o
216 1 2 3 -7 13.82 13.35 2.69 o
217 1 -2 3 7 13.82 9.92 1.67 o
218 1 -2 3 6 10.08 6.87 1.38 o
219 1 2 3 -6 10.08 7.60 2.58 <
220 1 2 3 -5 52.50 70.35 5.94 o
221 1 -2 3 5 52.50 52.64 3.76 o
222 1 2 3 -4 23.21 62.61 5.20 o
223 1 2 3 -3 145.47 152.58 7.56 o
224 1 2 3 -2 297.30 306.35 9.88 o
225 1 2 3 -1 4.86 7.18 1.41 o
226 2 2 -3 0 605.34 613.71 12.36 o
226 1 2 3 0 605.34 613.71 12.36 o
227 1 -2 4 7 8.54 7.88 1.39 o
228 1 2 4 -7 8.54 7.05 2.17 o
229 1 2 4 -6 31.07 27.34 4.06 o
230 1 -2 4 6 31.07 20.43 2.32 o
231 1 2 4 -5 0.32 -0.37 0.61 <
232 1 2 4 -4 126.65 186.12 9.64 o
233 1 2 4 -3 81.65 78.89 5.77 o
234 1 2 4 -2 2.48 5.75 1.61 o
235 1 2 4 -1 341.19 328.58 10.23 o
236 2 2 -4 0 8.14 9.25 1.54 o
236 1 2 4 0 8.14 9.25 1.54 o
237 1 2 4 1 70.75 81.01 4.70 o
238 1 2 5 -6 11.13 10.42 2.78 o
239 1 -2 5 6 11.13 6.31 1.37 o
240 1 2 5 -5 37.34 47.78 5.56 o
241 1 2 5 -4 15.59 53.79 5.50 o
242 1 2 5 -3 60.37 63.63 5.60 o
243 1 2 5 -2 89.91 83.69 6.02 o
244 1 2 5 -1 37.04 40.55 3.83 o
245 2 2 -5 0 178.46 168.40 7.20 o
245 1 2 5 0 178.46 168.40 7.20 o
246 1 2 5 1 59.56 75.88 4.79 o
247 6 -2 -5 -2 24.04 25.46 2.51 o
247 1 2 5 2 24.04 25.46 2.51 o
248 1 2 6 -4 29.59 42.31 5.09 o
249 1 2 6 -3 20.97 16.91 3.02 o
250 1 2 6 -2 14.25 18.97 3.13 o
251 1 2 6 -1 62.57 57.58 4.64 o
252 2 2 -6 0 26.74 38.97 3.73 o
252 1 2 6 0 26.74 38.97 3.73 o
253 1 2 6 1 20.29 19.81 2.58 o
254 6 -2 -6 -2 47.59 50.02 3.47 o
254 1 2 6 2 47.59 50.02 3.47 o
255 1 2 7 -3 25.40 15.65 3.17 o
256 1 2 7 -2 16.18 14.51 2.86 o
257 1 2 7 -1 0.46 4.23 2.27 <
258 2 2 -7 0 29.36 36.41 4.08 o
258 1 2 7 0 29.36 36.41 4.08 o
259 1 2 7 1 19.07 20.69 2.73 o
260 6 -2 -7 -2 3.43 3.73 1.30 <
260 1 2 7 2 3.43 3.73 1.30 <
261 1 2 7 3 7.19 4.70 1.07 o
262 1 2 8 -2 1.84 0.66 1.19 <
263 1 2 8 -1 34.06 25.49 3.87 o
264 2 2 -8 0 4.87 2.81 1.38 <
264 1 2 8 0 4.87 2.81 1.38 <
265 1 2 8 1 6.39 8.15 2.04 o
266 1 -3 -8 2 4.02 5.30 2.07 <
267 1 -3 -8 1 4.35 3.75 1.59 <
268 1 -3 -7 4 34.53 79.06 7.40 o
269 1 -3 -7 3 3.42 3.32 1.50 <
270 1 -3 -7 2 8.92 6.33 1.71 o
271 1 -3 -7 1 9.51 6.95 1.92 o
272 2 -3 7 0 3.32 3.79 1.16 o
272 1 -3 -7 0 3.32 3.79 1.16 o
273 1 -3 -7 -1 33.41 23.07 2.63 o
274 1 -3 -6 5 12.83 14.38 3.32 o
275 1 -3 -6 4 0.91 2.51 1.68 <
276 1 -3 -6 3 54.99 46.71 5.17 o
277 1 -3 -6 2 11.10 5.53 1.68 o
278 1 -3 -6 1 8.60 2.85 1.20 <
279 2 -3 6 0 105.31 79.59 5.49 o
279 1 -3 -6 0 105.31 79.59 5.49 o
280 1 -3 -6 -1 0.82 1.85 1.00 <
281 1 -3 -6 -2 11.32 8.96 1.45 o
282 1 -3 -5 6 8.19 10.31 2.83 o
283 1 -3 -5 5 13.15 12.88 2.83 o
284 1 -3 -5 4 17.28 21.41 3.64 o
285 1 -3 -5 3 1.77 1.32 1.03 <
286 1 -3 -5 2 62.55 57.00 5.12 o
287 1 -3 -5 1 59.69 54.45 5.19 o
288 2 -3 5 0 3.37 0.95 0.69 <
288 1 -3 -5 0 3.37 0.95 0.69 <
289 1 -3 -5 -1 16.88 14.79 2.24 o
290 1 -3 -5 -2 13.45 9.62 1.55 o
291 1 -3 -5 -3 8.33 10.05 1.43 o
292 1 -3 -4 7 0.06 0.29 1.32 <
293 1 -3 -4 6 19.59 16.04 3.13 o
294 1 -3 -4 5 7.66 7.87 2.41 o
295 1 -3 -4 4 3.46 4.02 1.61 <
296 1 -3 -4 3 48.03 36.61 4.22 o
297 1 -3 -4 2 36.42 31.05 3.69 o
298 1 -3 -4 1 34.57 31.09 3.29 o
299 2 -3 4 0 86.94 77.25 4.93 o
299 1 -3 -4 0 86.94 77.25 4.93 o
300 1 -3 -4 -1 4.46 4.04 1.36 <
301 1 -3 -4 -2 4.71 6.18 1.44 o
302 1 -3 -4 -3 18.85 30.72 2.85 o
303 1 -3 -3 7 15.76 20.74 3.74 o
304 1 -3 -3 6 9.12 8.99 2.50 o
305 1 -3 -3 5 35.33 36.92 4.35 o
306 1 -3 -3 4 10.80 14.58 2.61 o
307 1 -3 -3 3 21.15 18.77 2.84 o
308 1 -3 -3 2 81.47 66.14 5.00 o
309 1 -3 -3 1 60.64 64.50 4.77 o
310 2 -3 3 0 31.46 39.07 3.66 o
310 1 -3 -3 0 31.46 39.07 3.66 o
311 1 -3 -3 -1 14.16 10.30 1.97 o
312 1 -3 -2 7 0.45 3.61 1.75 <
313 1 3 -2 -7 0.45 2.72 1.34 <
314 1 -3 -2 6 37.13 46.45 5.09 o
315 1 -3 -2 5 30.70 26.99 3.52 o
316 1 -3 -2 4 0.12 2.13 1.32 <
317 1 -3 -2 3 103.96 103.80 6.40 o
318 1 -3 -2 2 76.32 62.91 5.05 o
319 1 -3 -2 1 69.49 69.57 5.03 o
320 1 3 -1 -8 1.82 4.65 1.72 <
321 1 -3 -1 8 1.82 8.62 2.52 o
322 1 3 -1 -7 6.69 9.60 2.44 o
323 1 -3 -1 7 6.69 16.50 3.09 o
324 1 3 -1 -6 13.97 9.67 2.32 o
325 1 -3 -1 6 13.97 10.64 2.17 o
326 1 -3 -1 5 33.72 38.18 4.04 o
327 1 3 -1 -5 33.72 32.79 3.93 o
328 1 -3 -1 4 112.13 176.32 8.48 o
329 1 -3 -1 3 6.47 2.96 1.30 <
330 1 -3 -1 2 95.15 94.42 6.21 o
331 1 3 0 -8 14.38 23.52 4.12 o
332 1 -3 0 8 14.38 29.90 4.09 o
333 1 3 0 -7 0.07 3.47 1.76 <
334 1 -3 0 7 0.07 1.73 1.23 <
335 1 -3 0 6 0.45 4.19 1.39 o
336 1 3 0 -6 0.45 4.57 1.64 <
337 1 -3 0 5 52.36 37.24 3.89 o
338 1 3 0 -5 52.36 42.21 4.52 o
339 1 3 0 -4 11.79 23.79 3.25 o
340 1 -3 0 4 11.79 24.35 3.05 o
341 1 -3 0 3 233.85 229.68 9.71 o
342 1 3 0 -3 233.85 222.16 9.91 o
343 1 -3 1 8 1.87 6.70 1.83 o
344 1 3 1 -8 1.87 8.66 2.56 o
345 1 -3 1 7 6.64 11.63 2.54 o
346 1 3 1 -7 6.64 9.87 2.39 o
347 1 3 1 -6 13.57 10.03 2.43 o
348 1 -3 1 6 13.57 8.53 1.89 o
349 1 -3 1 5 35.06 32.86 3.60 o
350 1 3 1 -5 35.06 36.75 4.09 o
351 1 3 1 -4 113.56 172.26 9.29 o
352 1 -3 1 4 113.56 174.42 8.33 o
353 1 3 1 -3 6.61 1.17 0.53 <
354 1 3 1 -2 97.60 89.17 6.14 o
355 1 -3 2 7 0.44 0.66 0.77 <
356 1 3 2 -7 0.44 3.62 1.56 <
357 1 -3 2 6 37.64 37.31 3.81 o
358 1 3 2 -6 37.64 39.48 4.38 o
359 1 -3 2 5 30.47 19.61 2.81 o
360 1 3 2 -5 30.47 24.95 3.28 o
361 1 3 2 -4 0.07 2.28 1.34 <
362 1 3 2 -3 103.59 97.71 6.58 o
363 1 3 2 -2 72.54 69.14 5.55 o
364 1 3 2 -1 72.87 58.49 4.81 o
365 1 -3 3 7 15.82 12.64 2.40 o
366 1 3 3 -7 15.82 20.50 3.75 o
367 1 -3 3 6 8.78 4.95 1.39 o
368 1 3 3 -6 8.78 5.05 1.85 <
369 1 3 3 -5 35.56 37.71 4.45 o
370 1 3 3 -4 11.57 13.09 2.55 o
371 1 3 3 -3 20.86 20.53 3.09 o
372 1 3 3 -2 81.79 65.99 5.30 o
373 1 3 3 -1 60.45 67.03 5.28 o
374 1 3 4 -7 0.06 -0.39 0.26 <
375 1 -3 4 7 0.06 0.73 0.76 <
376 1 3 4 -6 19.47 17.58 3.72 o
377 1 3 4 -5 7.62 7.12 2.04 o
378 1 3 4 -4 3.49 2.45 1.01 <
379 1 3 4 -3 47.83 36.02 4.19 o
380 1 3 4 -2 37.30 30.68 3.61 o
381 1 3 4 -1 33.70 33.70 3.71 o
382 2 3 -4 0 86.94 76.02 5.38 o
382 1 3 4 0 86.94 76.02 5.38 o
383 1 3 5 -6 8.55 4.84 1.95 <
384 1 3 5 -5 12.73 11.24 2.43 o
385 1 3 5 -4 16.09 21.75 3.53 o
386 1 3 5 -3 1.88 0.10 0.69 <
387 1 3 5 -2 61.90 61.48 5.39 o
388 1 3 5 -1 60.39 64.09 6.46 o
389 2 3 -5 0 3.37 3.50 1.37 <
389 1 3 5 0 3.37 3.50 1.37 <
390 1 3 5 1 17.91 11.55 2.32 o
391 1 3 6 -5 12.90 15.01 3.25 o
392 1 3 6 -4 0.86 3.57 1.81 <
393 1 3 6 -3 55.25 47.66 5.45 o
394 1 3 6 -2 12.12 5.48 1.81 o
395 1 3 6 -1 7.68 6.19 2.09 <
396 2 3 -6 0 105.31 98.04 6.53 o
396 1 3 6 0 105.31 98.04 6.53 o
397 1 3 6 1 0.87 2.67 1.18 <
398 1 3 7 -4 34.90 87.56 8.46 o
399 1 3 7 -3 3.40 0.93 0.35 <
400 1 3 7 -2 8.62 7.06 1.98 o
401 1 3 7 -1 9.72 7.03 2.35 <
402 2 3 -7 0 3.32 3.03 1.36 <
402 1 3 7 0 3.32 3.03 1.36 <
403 1 3 7 1 33.33 34.83 3.92 o
404 1 3 8 -2 3.67 5.17 2.14 <
405 1 3 8 -1 4.70 6.12 2.08 <
406 1 -4 -7 3 11.52 10.94 2.92 o
407 1 -4 -7 2 0.37 1.90 1.20 <
408 1 -4 -7 1 12.14 13.03 2.82 o
409 1 -4 -6 5 11.51 13.86 3.19 o
410 1 -4 -6 4 8.82 9.89 3.25 o
411 1 -4 -6 3 1.60 3.82 1.82 <
412 1 -4 -6 2 15.36 13.12 2.84 o
413 1 -4 -6 1 2.90 4.85 1.91 <
414 2 -4 6 0 14.52 13.99 2.61 o
414 1 -4 -6 0 14.52 13.99 2.61 o
415 1 -4 -6 -1 13.90 13.99 2.29 o
416 1 -4 -5 6 6.48 11.00 3.07 o
417 1 -4 -5 5 4.04 3.73 2.02 <
418 1 -4 -5 4 8.36 8.66 2.56 o
419 1 -4 -5 3 16.42 8.44 2.22 o
420 1 -4 -5 2 0.73 1.08 0.92 <
421 1 -4 -5 1 14.60 10.91 2.31 o
422 2 -4 5 0 14.80 11.42 2.24 o
422 1 -4 -5 0 14.80 11.42 2.24 o
423 1 -4 -5 -1 1.91 2.38 1.03 <
424 1 -4 -5 -2 6.27 8.01 1.75 o
425 1 -4 -4 7 6.17 2.03 0.99 <
426 1 -4 -4 6 0.95 1.15 0.64 <
427 1 -4 -4 5 5.50 7.37 2.23 o
428 1 -4 -4 4 1.34 0.11 0.30 <
429 1 -4 -4 3 1.19 1.85 1.16 <
430 1 -4 -4 2 51.13 60.55 5.42 o
431 1 -4 -4 1 1.41 2.28 1.26 <
432 2 -4 4 0 0.19 0.78 0.52 <
432 1 -4 -4 0 0.19 0.78 0.52 <
433 1 -4 -4 -1 6.66 5.03 1.31 o
434 1 -4 -3 7 5.67 12.17 3.27 o
435 1 -4 -3 6 9.55 10.77 2.67 o
436 1 -4 -3 5 2.67 2.99 1.64 <
437 1 -4 -3 4 5.77 3.88 1.57 <
438 1 -4 -3 3 23.70 18.19 3.10 o
439 1 -4 -3 2 0.31 1.50 1.38 <
440 1 -4 -3 1 19.56 21.23 3.08 o
441 1 -4 -2 7 7.52 9.30 2.37 o
442 1 -4 -2 6 1.23 2.80 1.67 <
443 1 -4 -2 5 18.21 16.90 3.30 o
444 1 -4 -2 4 7.39 9.23 2.37 o
445 1 -4 -2 3 12.42 9.49 2.33 o
446 1 -4 -2 2 80.27 76.15 6.31 o
447 1 -4 -1 7 3.58 5.59 2.03 <
448 1 4 -1 -7 3.58 7.74 2.63 <
449 1 -4 -1 6 10.71 11.84 2.73 o
450 1 -4 -1 5 13.70 8.35 2.16 o
451 1 -4 -1 4 57.48 61.26 5.63 o
452 1 -4 -1 3 37.18 39.77 4.58 o
453 1 -4 0 7 8.43 7.20 2.11 o
454 1 4 0 -7 8.43 7.48 2.45 o
455 1 4 0 -6 0.55 2.85 1.48 <
456 1 -4 0 6 0.55 2.40 1.59 <
457 1 -4 0 5 64.60 70.56 5.91 o
458 1 4 0 -5 64.60 68.56 6.24 o
459 1 -4 0 4 53.14 67.32 5.82 o
460 1 4 1 -7 3.35 5.38 1.84 <
461 1 -4 1 7 3.35 5.45 1.79 o
462 1 -4 1 6 10.61 8.87 2.22 o
463 1 4 1 -6 10.61 10.90 2.76 o
464 1 -4 1 5 13.41 4.90 1.62 o
465 1 4 1 -5 13.41 9.48 2.30 o
466 1 4 1 -4 57.26 54.84 5.63 o
467 1 4 2 -7 7.31 7.76 2.20 o
468 1 -4 2 7 7.31 6.13 1.82 o
469 1 4 2 -6 1.25 0.11 0.68 <
470 1 -4 2 6 1.25 1.37 1.17 <
471 1 4 2 -5 18.64 13.99 3.01 o
472 1 4 2 -4 7.39 5.72 2.01 <
473 1 4 2 -3 11.83 9.08 2.45 o
474 1 4 2 -2 79.97 64.36 6.15 o
475 1 4 3 -7 5.68 7.24 2.26 o
476 1 -4 3 7 5.68 3.56 1.18 o
477 1 4 3 -6 9.52 9.90 2.74 o
478 1 4 3 -5 2.84 3.18 1.80 <
479 1 4 3 -4 5.40 7.38 2.48 <
480 1 4 3 -3 22.60 20.65 3.56 o
481 1 4 3 -2 0.31 0.75 1.27 <
482 1 4 4 -7 6.27 5.09 2.16 <
483 1 4 4 -6 0.94 -0.14 0.56 <
484 1 4 4 -5 5.29 7.40 2.53 <
485 1 4 4 -4 1.30 1.05 0.89 <
486 1 4 4 -3 1.35 1.37 0.66 <
487 1 4 4 -2 51.32 57.80 5.89 o
488 1 4 4 -1 1.28 2.36 1.68 <
489 1 4 5 -6 6.57 7.63 2.26 o
490 1 4 5 -5 3.98 4.48 1.68 <
491 1 4 5 -4 8.56 7.36 2.50 <
492 1 4 5 -3 17.34 14.47 3.04 o
493 1 4 5 -2 0.70 0.34 0.96 <
494 1 4 5 -1 13.85 12.86 3.03 o
495 2 4 -5 0 14.80 14.09 3.18 o
495 1 4 5 0 14.80 14.09 3.18 o
496 1 4 6 -5 11.56 11.53 2.89 o
497 1 4 6 -4 8.87 15.38 3.96 o
498 1 4 6 -3 1.72 6.58 2.51 <
499 1 4 6 -2 15.37 13.76 3.05 o
500 1 4 6 -1 2.78 1.43 0.44 o
501 2 4 -6 0 14.52 15.30 3.09 o
501 1 4 6 0 14.52 15.30 3.09 o
502 1 4 7 -3 11.37 10.28 2.72 o
503 1 4 7 -2 0.37 0.37 0.93 <
504 1 4 7 -1 12.24 8.97 2.11 o
505 1 -5 -6 4 6.52 9.33 2.78 o
506 1 -5 -6 3 1.86 1.26 1.03 <
507 1 -5 -6 2 1.04 1.93 0.54 o
508 1 -5 -6 1 5.71 5.38 1.76 o
509 1 -5 -5 5 4.43 4.42 1.86 <
510 1 -5 -5 4 0.87 -1.68 1.10 <
511 1 -5 -5 3 7.49 6.62 2.14 o
512 1 -5 -5 2 6.82 11.02 2.86 o
513 1 -5 -5 1 0.24 0.88 1.14 <
514 2 -5 5 0 8.54 26.50 4.96 o
514 1 -5 -5 0 8.54 26.50 4.96 o
515 1 -5 -4 6 5.98 14.38 3.67 o
516 1 -5 -4 5 0.18 2.24 1.49 <
517 1 -5 -4 4 10.53 10.25 2.89 o
518 1 -5 -4 3 3.22 3.86 1.43 <
519 1 -5 -4 2 0.88 2.16 1.19 <
520 1 -5 -4 1 10.06 7.90 2.09 o
521 2 -5 4 0 0.09 -0.59 0.44 <
521 1 -5 -4 0 0.09 -0.59 0.44 <
522 1 -5 -3 6 1.91 5.42 2.16 <
523 1 -5 -3 5 4.32 9.10 2.77 o
524 1 -5 -3 4 0.66 -1.30 1.15 <
525 1 -5 -3 3 20.72 22.78 3.69 o
526 1 -5 -3 2 21.71 23.51 3.63 o
527 1 -5 -2 7 2.46 4.52 1.72 <
528 1 -5 -2 6 4.78 6.00 2.09 <
529 1 -5 -2 5 0.17 4.42 2.05 <
530 1 -5 -2 4 12.67 10.92 2.41 o
531 1 -5 -2 3 4.22 3.28 1.77 <
532 1 -5 -1 7 2.76 3.03 1.50 <
533 1 -5 -1 6 5.64 4.16 1.64 <
534 1 -5 -1 5 8.33 6.06 1.70 o
535 1 5 0 -7 1.99 2.43 1.65 <
536 1 -5 0 7 1.99 1.86 1.09 <
537 1 -5 0 6 1.44 2.17 1.24 <
538 1 5 0 -6 1.44 4.40 2.19 <
539 1 -5 1 7 2.92 2.56 1.45 <
540 1 5 1 -7 2.92 2.45 1.53 <
541 1 5 1 -6 5.64 9.25 3.34 <
542 1 5 1 -5 8.06 8.14 2.63 o
543 1 5 2 -7 2.34 4.40 1.51 <
544 1 5 2 -6 4.84 5.75 2.26 <
545 1 5 2 -5 0.19 2.75 1.67 <
546 1 5 2 -4 12.32 14.52 3.19 o
547 1 5 3 -6 1.94 7.09 2.70 <
548 1 5 3 -5 4.57 6.63 2.56 <
549 1 5 3 -4 0.68 1.98 1.56 <
550 1 5 3 -3 20.40 20.26 3.81 o
551 1 5 4 -6 5.97 9.79 2.92 o
552 1 5 4 -5 0.16 -0.15 0.89 <
553 1 5 4 -4 10.76 11.92 3.24 o
554 1 5 4 -3 3.20 3.52 1.81 <
555 1 5 4 -2 0.88 1.33 1.04 <
556 1 5 5 -5 4.37 5.40 1.74 o
557 1 5 5 -4 0.85 2.18 1.46 <
558 1 5 5 -3 7.84 5.93 2.42 <
559 1 5 5 -2 6.47 11.63 3.29 o
560 1 5 5 -1 0.25 1.59 1.29 <
561 1 5 6 -4 6.54 5.34 2.38 <
562 1 5 6 -3 1.69 1.94 1.78 <
563 1 5 6 -2 1.15 2.14 1.41 <
564 1 5 6 -1 5.68 8.78 3.11 <
565 1 -6 -4 4 1.36 0.50 0.80 <
566 1 -6 -4 3 4.92 6.63 2.21 <
567 1 -6 -4 2 1.65 5.13 2.07 <
568 1 -6 -3 5 2.32 2.29 1.31 <
569 1 -6 -3 4 1.31 1.09 0.86 <
570 1 -6 -2 6 3.06 1.63 1.57 <
571 1 -6 -2 5 1.91 4.54 1.98 <
572 1 -6 -1 6 0.28 0.27 1.00 <
573 1 6 2 -6 3.12 4.36 1.94 <
574 1 6 2 -5 1.86 8.91 3.05 <
575 1 6 3 -5 2.39 6.31 2.72 <
576 1 6 3 -4 1.30 0.07 0.27 <
577 1 6 4 -4 1.36 1.17 0.75 <
578 1 6 4 -3 4.91 6.01 1.80 o
579 2 0 -8 3 32.94 27.96 5.55 o
580 2 0 -7 3 21.78 11.15 3.35 o
581 2 0 -7 4 65.68 86.25 10.15 o
582 2 0 -6 2 45.40 38.50 5.50 o
583 2 0 -6 3 49.34 29.23 5.15 o
584 2 0 -6 4 5.62 6.05 2.76 <
585 2 0 -6 5 30.09 21.51 5.03 o
586 2 0 -5 2 116.67 112.55 8.91 o
587 2 0 -5 3 3.70 4.05 2.20 <
588 2 0 -5 4 16.24 12.69 3.87 o
589 2 0 -5 5 4.00 6.32 2.84 <
590 2 0 -4 1 1.29 1.03 0.59 <
591 2 0 -4 2 18.71 22.56 3.57 o
592 2 0 -4 3 152.81 127.62 9.42 o
593 2 0 -4 4 1.83 0.48 0.98 <
594 2 0 -4 5 3.12 3.63 2.04 <
595 2 0 -4 6 20.96 15.59 4.59 o
596 2 0 -3 1 22.93 28.93 3.15 o
597 2 0 -3 2 382.29 337.05 12.63 o
598 2 0 -3 3 17.28 7.19 2.36 o
599 2 0 -3 4 7.30 9.25 2.67 o
600 2 0 -3 5 10.42 9.71 3.39 <
601 2 0 -3 6 1.37 0.93 1.45 <
602 2 0 -2 1 2.45 1.24 0.53 <
603 2 0 -2 2 258.34 198.40 8.65 o
604 2 0 -2 3 209.95 208.32 10.65 o
605 2 0 -2 4 7.57 5.32 1.93 <
606 2 0 -2 5 42.53 30.28 5.49 o
607 2 0 -2 6 14.21 10.40 3.57 <
608 2 0 -2 7 0.68 0.80 1.29 <
609 2 0 -1 1 759.13 653.36 11.14 o
610 2 0 -1 2 111.01 109.35 6.08 o
611 2 0 -1 -3 70.13 49.15 4.83 o
612 2 0 -1 3 70.13 55.42 5.51 o
613 2 0 -1 4 206.52 233.84 13.15 o
614 2 0 -1 -4 206.52 227.11 12.33 o
615 2 0 -1 5 41.66 35.51 5.48 o
616 2 0 -1 -5 41.66 32.65 4.97 o
617 2 0 -1 6 21.00 16.67 4.73 o
618 2 0 -1 -6 21.00 6.72 2.47 <
619 2 0 -1 7 5.11 4.61 2.91 <
620 2 0 -1 -7 5.11 4.37 2.41 <
621 2 0 0 1 200.23 152.51 4.95 o
622 2 0 0 -1 200.23 149.77 4.91 o
623 2 0 0 2 1.98 3.89 1.17 o
624 2 0 0 -2 1.98 3.84 1.13 o
625 2 0 0 3 176.03 152.43 9.28 o
626 2 0 0 -3 176.03 148.88 8.51 o
627 2 0 0 4 0.68 6.15 2.26 <
628 2 0 0 -4 0.68 6.93 2.24 o
629 2 0 0 -5 115.51 92.36 8.36 o
630 2 0 0 5 115.51 92.52 9.30 o
631 2 0 0 6 7.43 5.60 2.71 <
632 2 0 0 -6 7.43 5.25 2.28 <
633 2 0 0 -7 5.53 3.00 1.41 <
634 2 0 0 7 5.53 3.01 2.36 <
635 2 0 1 -1 758.93 659.18 11.25 o
636 2 0 1 -2 110.64 111.32 6.15 o
637 2 0 1 -3 70.23 56.92 5.27 o
638 2 0 1 -4 206.50 224.97 11.96 o
639 2 0 1 -5 41.74 38.28 5.49 o
640 2 0 1 -6 20.95 10.40 3.16 o
641 2 0 1 -7 5.03 2.48 1.68 <
642 2 0 2 -1 2.28 0.70 0.27 <
643 2 0 2 -2 258.47 196.37 8.61 o
644 2 0 2 -3 209.88 208.79 10.56 o
645 2 0 2 -4 7.55 4.26 1.69 <
646 2 0 2 -5 42.32 32.17 5.22 o
647 2 0 2 -6 14.19 9.63 3.29 <
648 2 0 2 -7 0.68 2.84 2.14 <
649 2 0 3 -1 23.27 30.13 3.27 o
650 2 0 3 -2 382.15 355.93 13.28 o
651 2 0 3 -3 17.35 6.64 1.94 o
652 2 0 3 -4 7.19 11.08 3.19 o
653 2 0 3 -5 10.44 8.66 3.07 <
654 2 0 3 -6 1.37 0.50 1.26 <
655 2 0 4 -2 18.83 24.96 4.06 o
656 2 0 4 -3 152.71 131.98 9.56 o
657 2 0 4 -4 1.83 0.06 0.56 <
658 2 0 4 -5 3.11 1.48 0.91 <
659 2 0 4 -6 21.01 14.67 4.44 o
660 2 0 5 -2 116.68 114.51 8.99 o
661 2 0 5 -3 3.66 0.02 0.48 <
662 2 0 5 -4 16.25 10.18 3.35 o
663 2 0 5 -5 4.03 5.11 2.64 <
664 2 0 6 -3 49.44 29.92 5.35 o
665 2 0 6 -4 5.59 4.38 2.34 <
666 2 0 6 -5 30.08 25.09 5.92 o
667 2 0 7 -3 21.74 13.34 3.92 o
668 2 0 7 -4 65.79 75.81 9.72 o
669 3 -1 8 -1 61.21 55.35 7.00 o
669 2 1 -8 1 61.21 55.35 7.00 o
670 2 1 -8 2 9.56 4.28 2.35 <
671 3 -1 7 -1 0.29 1.39 1.29 <
671 2 1 -7 1 0.29 1.39 1.29 <
672 2 1 -7 2 12.61 10.45 2.99 o
673 2 1 -7 3 19.49 12.71 3.88 o
674 2 -1 -6 5 38.08 37.11 6.58 o
675 2 -1 -6 4 18.36 42.59 6.86 o
676 3 -1 6 -1 190.63 237.86 12.93 o
676 2 1 -6 1 190.63 237.86 12.93 o
677 2 1 -6 2 25.06 20.49 3.93 o
678 2 1 -6 3 17.50 14.83 4.48 o
679 2 1 -6 4 37.23 34.17 6.23 o
680 2 -1 -5 6 15.98 11.33 3.34 o
681 2 -1 -5 5 14.04 7.74 3.35 <
682 2 -1 -5 4 53.14 58.89 7.26 o
683 2 -1 -5 3 97.10 101.54 9.07 o
684 3 -1 5 -1 72.12 72.73 6.17 o
684 2 1 -5 1 72.12 72.73 6.17 o
685 2 1 -5 2 96.73 99.76 8.24 o
686 2 1 -5 3 50.82 37.93 5.66 o
687 2 1 -5 4 11.86 3.84 1.62 <
688 2 1 -5 5 12.50 11.67 3.54 o
689 2 -1 -4 6 0.44 -0.36 0.41 <
690 2 -1 -4 5 10.97 11.08 3.31 o
691 2 -1 -4 4 67.38 153.63 11.49 o
692 2 -1 -4 3 30.89 35.45 5.05 o
693 3 -1 4 -1 506.92 660.97 18.17 o
693 2 1 -4 1 506.92 660.97 18.17 o
694 2 1 -4 2 34.74 31.17 4.24 o
695 2 1 -4 3 59.12 47.55 6.15 o
696 2 1 -4 4 8.92 8.07 3.09 <
697 2 1 -4 5 0.80 0.81 0.36 <
698 2 1 -3 -7 5.65 1.24 0.51 <
699 2 -1 -3 7 5.65 6.39 2.89 <
700 2 -1 -3 6 18.81 13.86 4.03 o
701 2 -1 -3 5 22.79 17.09 4.06 o
702 2 -1 -3 4 58.41 70.46 6.81 o
703 2 -1 -3 3 251.73 238.63 11.96 o
704 2 1 -3 -1 101.98 87.27 4.05 o
705 3 -1 3 -1 41.58 52.75 4.55 o
705 2 1 -3 1 41.58 52.75 4.55 o
706 2 1 -3 2 251.98 239.34 11.19 o
707 2 1 -3 3 58.29 58.40 6.44 o
708 2 1 -3 4 16.66 9.62 3.04 o
709 2 1 -3 5 19.29 15.08 4.02 o
710 2 1 -3 6 6.99 5.26 2.79 <
711 2 -1 -2 7 13.50 9.98 3.64 <
712 2 1 -2 -7 13.50 8.19 2.80 <
713 2 -1 -2 6 0.61 0.38 0.88 <
714 2 1 -2 -6 0.61 0.44 0.98 <
715 2 -1 -2 5 45.14 38.87 5.25 o
716 2 1 -2 -5 45.14 34.13 4.59 o
717 2 1 -2 -4 36.38 82.20 6.13 o
718 2 -1 -2 4 36.38 84.91 7.30 o
719 2 -1 -2 3 165.55 155.82 8.54 o
720 2 1 -2 -3 165.55 140.15 6.89 o
721 2 -1 -2 2 639.73 667.73 16.25 o
722 3 -1 2 -1 1194.78 1434.01 22.68 o
722 2 1 -2 1 1194.78 1434.01 22.68 o
723 2 1 -2 2 166.52 149.62 9.03 o
724 2 1 -2 3 26.31 22.89 4.19 o
725 2 1 -2 4 47.76 45.29 6.75 o
726 2 1 -2 5 0.95 0.17 1.26 <
727 2 1 -2 6 13.53 11.00 4.27 <
728 2 1 -1 -7 4.17 3.63 1.81 <
729 2 -1 -1 7 4.17 4.60 2.90 <
730 2 -1 -1 6 33.97 21.81 4.67 o
731 2 1 -1 -6 33.97 22.95 4.04 o
732 2 1 -1 -5 37.31 23.58 3.77 o
733 2 -1 -1 5 37.31 27.78 4.32 o
734 2 1 -1 -4 109.69 111.45 6.72 o
735 2 -1 -1 4 109.69 114.19 7.54 o
736 2 1 -1 -3 63.60 59.00 3.98 o
737 2 -1 -1 3 63.60 59.30 4.73 o
738 2 -1 -1 2 217.46 226.70 8.00 o
739 2 1 -1 -2 217.46 228.12 5.19 o
740 3 -1 1 -1 438.92 511.65 14.06 o
740 2 1 -1 1 438.92 511.65 14.06 o
741 2 1 -1 2 68.24 54.76 5.59 o
742 2 1 -1 3 103.43 90.60 8.33 o
743 2 1 -1 4 34.01 33.23 5.86 o
744 2 1 -1 5 32.17 29.27 6.25 o
745 2 1 -1 6 3.25 5.38 3.49 <
746 2 -1 0 7 14.38 7.03 3.08 <
747 2 1 0 -7 14.38 4.55 1.81 <
748 2 1 0 -6 3.66 4.85 2.09 <
749 2 -1 0 6 3.66 3.83 1.81 <
750 2 -1 0 5 137.24 138.24 10.04 o
751 2 1 0 -5 137.24 134.40 9.05 o
752 2 -1 0 4 142.16 205.40 10.14 o
753 2 1 0 -4 142.16 201.91 9.49 o
754 2 1 0 -3 0.78 0.88 0.38 <
755 2 -1 0 3 0.78 1.31 0.86 <
756 2 -1 0 2 85.53 86.17 3.93 o
757 2 1 0 -2 85.53 86.41 3.98 o
758 2 -1 0 -4 146.30 127.03 10.58 o
759 2 -1 0 -5 3.35 1.33 1.35 <
760 2 -1 0 -6 9.77 0.61 0.45 <
761 2 1 1 -7 3.88 1.72 0.78 <
762 2 -1 1 7 3.88 3.24 2.02 <
763 2 1 1 -6 32.89 25.59 4.59 o
764 2 -1 1 6 32.89 24.25 4.88 o
765 2 1 1 -5 35.96 28.87 4.34 o
766 2 -1 1 5 35.96 29.02 4.74 o
767 2 -1 1 4 108.58 118.01 7.95 o
768 2 1 1 -4 108.58 112.77 7.56 o
769 2 -1 1 3 67.83 56.22 4.30 o
770 2 1 1 -3 67.83 61.40 4.89 o
771 2 -1 1 2 220.21 227.81 5.98 o
772 2 1 1 -2 220.21 225.47 8.17 o
773 3 1 -1 1 438.47 505.89 13.86 o
773 2 -1 1 -1 438.47 505.89 13.86 o
774 2 -1 1 -2 64.06 59.35 5.48 o
775 2 -1 1 -3 104.45 86.39 7.53 o
776 2 -1 1 -4 35.19 30.14 5.02 o
777 2 -1 1 -5 33.22 25.73 5.11 o
778 2 -1 1 -6 3.53 0.40 1.54 <
779 2 1 2 -7 13.81 8.82 3.01 <
780 2 1 2 -6 0.61 7.91 3.44 <
781 2 1 2 -5 43.92 42.16 5.50 o
782 2 1 2 -4 35.74 86.53 7.39 o
783 2 1 2 -3 161.88 165.01 8.80 o
784 2 1 2 -2 640.12 668.99 16.16 o
785 3 1 -2 1 1194.64 1431.11 22.41 o
785 2 -1 2 -1 1194.64 1431.11 22.41 o
786 2 -1 2 -2 170.51 151.91 8.82 o
787 2 -1 2 -3 27.03 21.55 3.65 o
788 2 -1 2 -4 49.18 37.45 5.41 o
789 2 -1 2 -5 0.95 1.04 0.91 <
790 2 -1 2 -6 13.24 8.27 3.15 <
791 2 1 3 -7 5.58 9.22 3.47 <
792 2 1 3 -6 19.13 17.17 4.57 o
793 2 1 3 -5 22.75 16.17 3.74 o
794 2 1 3 -4 56.39 75.09 7.23 o
795 2 1 3 -3 252.03 252.43 12.30 o
796 3 1 -3 1 41.49 50.81 4.32 o
796 2 -1 3 -1 41.49 50.81 4.32 o
797 2 -1 3 -2 251.98 235.58 10.99 o
798 2 -1 3 -3 60.30 56.43 6.18 o
799 2 -1 3 -4 16.67 15.50 4.06 o
800 2 -1 3 -5 18.96 13.83 3.87 o
801 2 -1 3 -6 7.06 3.02 1.50 <
802 2 1 4 -6 0.45 1.90 2.11 <
803 2 1 4 -5 11.61 10.18 3.33 o
804 2 1 4 -4 68.19 169.27 12.23 o
805 2 1 4 -3 31.47 32.66 4.78 o
806 3 1 -4 1 507.37 648.94 18.24 o
806 2 -1 4 -1 507.37 648.94 18.24 o
807 2 -1 4 -2 33.91 32.92 4.31 o
808 2 -1 4 -3 58.22 49.02 6.04 o
809 2 -1 4 -4 8.53 10.07 3.06 o
810 2 -1 4 -5 0.79 0.92 0.83 <
811 2 1 5 -6 15.98 18.81 4.94 o
812 2 1 5 -5 14.55 9.30 3.46 <
813 2 1 5 -4 54.71 58.09 7.38 o
814 3 1 -5 1 72.26 76.12 6.58 o
814 2 -1 5 -1 72.26 76.12 6.58 o
815 2 -1 5 -2 97.71 101.62 8.31 o
816 2 -1 5 -3 49.03 38.55 5.61 o
817 2 -1 5 -4 11.46 5.46 2.28 <
818 2 -1 5 -5 12.56 10.74 3.72 <
819 2 1 6 -5 38.40 38.57 7.09 o
820 2 1 6 -4 17.94 29.99 5.83 o
821 3 1 -6 1 190.21 236.52 13.21 o
821 2 -1 6 -1 190.21 236.52 13.21 o
822 2 -1 6 -2 23.81 20.69 4.23 o
823 2 -1 6 -3 17.87 15.71 4.19 o
824 2 -1 6 -4 36.91 31.18 6.04 o
825 2 -1 7 -2 12.51 10.00 3.20 o
826 2 -1 7 -3 19.58 13.13 3.92 o
827 2 2 -8 -1 33.77 24.63 3.85 o
828 2 2 -8 1 7.11 4.65 1.98 <
829 2 2 -7 -2 15.70 27.88 4.00 o
830 2 2 -7 -1 0.45 0.90 1.25 <
831 2 2 -7 1 19.02 18.95 4.09 o
832 3 -2 7 -2 3.76 3.76 2.27 <
832 2 2 -7 2 3.76 3.76 2.27 <
833 2 2 -7 3 6.80 7.79 3.40 <
834 2 2 -6 -2 14.32 18.78 2.82 o
835 2 2 -6 -1 61.77 56.04 4.93 o
836 2 2 -6 1 18.53 19.41 3.96 o
837 3 -2 6 -2 51.69 53.76 6.80 o
837 2 2 -6 2 51.69 53.76 6.80 o
838 2 2 -6 3 5.88 7.08 2.69 <
839 2 -2 -5 6 11.33 6.75 2.57 <
840 2 -2 -5 5 35.91 54.78 7.79 o
841 2 2 -5 -2 88.54 80.92 4.78 o
842 2 2 -5 -1 36.48 36.02 3.37 o
843 2 2 -5 1 59.63 75.47 6.87 o
844 3 -2 5 -2 26.12 29.54 4.72 o
844 2 2 -5 2 26.12 29.54 4.72 o
845 2 2 -5 3 35.66 37.37 6.18 o
846 2 2 -5 4 10.90 12.80 4.39 <
847 2 2 -4 -7 8.62 3.09 1.04 <
848 2 -2 -4 7 8.62 4.72 1.71 <
849 2 -2 -4 6 30.76 26.40 5.17 o
850 2 2 -4 -6 30.76 17.59 3.15 o
851 2 2 -4 -5 0.35 0.33 0.19 <
852 2 -2 -4 5 0.35 0.07 0.84 <
853 2 2 -4 -2 3.07 3.13 0.88 o
854 2 2 -4 -1 337.26 302.38 9.15 o
855 2 2 -4 1 68.89 88.92 7.07 o
856 3 -2 4 -2 252.75 291.77 15.12 o
856 2 2 -4 2 252.75 291.77 15.12 o
857 2 2 -4 3 0.51 -0.07 0.32 <
858 2 2 -4 4 24.86 29.28 6.04 o
859 2 2 -4 5 9.02 7.03 3.17 <
860 2 -2 -3 7 13.53 11.81 3.84 o
861 2 2 -3 -7 13.53 6.92 2.29 o
862 2 -2 -3 6 9.56 7.08 2.75 <
863 2 2 -3 -6 9.56 4.16 1.46 <
864 2 -2 -3 5 52.56 66.64 7.36 o
865 2 2 -3 -5 52.56 49.23 4.24 o
866 2 2 -3 -4 22.67 46.91 3.34 o
867 2 -2 -3 4 22.67 58.75 6.67 o
868 2 2 -3 -1 4.87 6.69 1.11 o
869 2 2 -3 1 147.61 169.79 10.25 o
870 3 -2 3 -2 24.80 23.64 4.42 o
870 2 2 -3 2 24.80 23.64 4.42 o
871 2 2 -3 3 52.48 52.51 7.09 o
872 2 2 -3 4 8.28 9.82 4.67 <
873 2 2 -3 5 13.34 8.53 3.57 <
874 2 2 -2 -7 6.69 5.07 2.07 <
875 2 -2 -2 7 6.69 5.64 2.79 <
876 2 2 -2 -6 45.57 32.84 4.20 o
877 2 -2 -2 6 45.57 39.11 5.60 o
878 2 -2 -2 5 9.06 16.70 3.28 o
879 2 2 -2 -5 9.06 14.25 2.27 o
880 2 2 -2 -4 74.66 93.90 4.54 o
881 2 -2 -2 4 74.66 107.48 7.93 o
882 2 2 -2 1 115.39 123.80 8.75 o
883 3 -2 2 -2 151.14 176.64 11.71 o
883 2 2 -2 2 151.14 176.64 11.71 o
884 2 2 -2 3 14.35 13.72 3.68 o
885 2 2 -2 4 36.22 31.85 6.41 o
886 2 2 -2 5 6.53 5.40 2.47 <
887 2 2 -1 -7 4.48 4.12 1.92 <
888 2 -2 -1 7 4.48 4.00 2.44 <
889 2 2 -1 -6 18.17 17.58 3.13 o
890 2 -2 -1 6 18.17 16.08 3.44 o
891 2 2 -1 -5 36.05 34.28 3.77 o
892 2 -2 -1 5 36.05 39.55 4.69 o
893 2 -2 -1 4 41.81 100.35 6.85 o
894 2 2 -1 -4 41.81 93.95 5.33 o
895 2 2 -1 -3 151.34 141.34 5.29 o
896 2 -2 -1 3 151.34 144.67 7.50 o
897 2 2 0 -7 9.31 9.60 2.78 o
898 2 -2 0 7 9.31 10.69 3.52 o
899 2 -2 0 6 4.63 6.46 2.13 o
900 2 2 0 -6 4.63 3.97 1.83 <
901 2 2 0 -5 2.13 3.62 1.57 <
902 2 -2 0 5 2.13 1.71 1.33 <
903 2 -2 0 4 133.71 211.64 8.56 o
904 2 2 0 -4 133.71 191.74 8.80 o
905 2 -2 0 3 6.49 0.65 0.46 <
906 2 2 1 -7 4.80 2.18 1.11 <
907 2 -2 1 7 4.80 1.21 1.11 <
908 2 -2 1 6 18.53 18.15 3.77 o
909 2 2 1 -6 18.53 16.17 3.24 o
910 2 -2 1 5 35.68 35.06 4.34 o
911 2 2 1 -5 35.68 39.42 4.77 o
912 2 -2 1 4 42.89 102.52 5.62 o
913 2 2 1 -4 42.89 95.36 6.92 o
914 2 -2 1 3 146.43 148.04 4.96 o
915 2 2 2 -7 7.00 9.77 3.42 <
916 2 -2 2 6 44.86 31.80 4.91 o
917 2 2 2 -6 44.86 38.54 5.64 o
918 2 2 2 -5 9.29 17.10 3.52 o
919 2 -2 2 5 9.29 11.76 2.56 o
920 2 -2 2 4 74.85 92.84 5.67 o
921 2 2 2 -4 74.85 107.39 8.12 o
922 2 -2 2 1 404.14 383.40 8.86 o
923 2 -2 2 -1 110.54 131.21 8.57 o
924 3 2 -2 2 151.20 164.45 10.57 o
924 2 -2 2 -2 151.20 164.45 10.57 o
925 2 -2 2 -3 13.94 11.47 2.93 o
926 2 -2 2 -4 36.92 29.21 5.36 o
927 2 -2 2 -5 6.29 3.25 1.99 <
928 2 2 3 -7 13.66 9.77 3.42 <
929 2 2 3 -6 9.96 5.34 2.36 <
930 2 2 3 -5 51.90 71.18 7.78 o
931 2 2 3 -4 22.95 55.00 6.40 o
932 2 -2 3 1 4.81 6.52 1.08 o
933 2 -2 3 -1 146.92 163.82 9.30 o
934 3 2 -3 2 24.75 21.46 3.78 o
934 2 -2 3 -2 24.75 21.46 3.78 o
935 2 -2 3 -3 53.38 50.28 6.41 o
936 2 -2 3 -4 7.91 7.32 2.62 <
937 2 -2 3 -5 13.21 9.28 3.94 <
938 2 2 4 -7 8.44 8.77 3.06 <
939 2 2 4 -6 30.72 27.71 5.49 o
940 2 2 4 -5 0.31 -1.03 1.48 <
941 2 -2 4 1 337.30 297.02 9.51 o
942 2 -2 4 -1 69.94 82.52 6.60 o
943 3 2 -4 2 252.59 290.01 14.09 o
943 2 -2 4 -2 252.59 290.01 14.09 o
944 2 -2 4 -3 0.59 0.42 0.95 <
945 2 -2 4 -4 24.86 25.50 5.24 o
946 2 -2 4 -5 9.23 8.32 3.38 <
947 2 2 5 -6 11.00 10.42 3.72 <
948 2 -2 5 -1 58.88 72.56 6.73 o
949 3 2 -5 2 26.19 25.40 4.25 o
949 2 -2 5 -2 26.19 25.40 4.25 o
950 2 -2 5 -3 34.71 33.09 5.28 o
951 2 -2 5 -4 11.31 8.66 2.62 o
952 2 -2 6 -1 20.06 13.89 3.10 o
953 3 2 -6 2 51.85 49.14 6.47 o
953 2 -2 6 -2 51.85 49.14 6.47 o
954 2 -2 6 -3 6.06 9.62 3.45 <
955 2 -2 7 -1 18.85 18.25 3.99 o
956 3 2 -7 2 3.75 4.93 2.75 <
956 2 -2 7 -2 3.75 4.93 2.75 <
957 2 -2 7 -3 7.11 5.55 2.52 <
958 2 -2 8 -1 6.32 7.66 3.04 <
959 2 3 -8 -2 3.98 8.05 2.43 o
960 2 3 -8 -1 4.30 7.42 2.45 o
961 2 3 -7 -4 34.14 49.87 4.21 o
962 2 3 -7 -3 3.38 3.67 1.33 <
963 2 3 -7 -2 8.82 6.31 1.54 o
964 2 3 -7 -1 9.40 7.72 2.07 o
965 2 3 -7 1 33.03 32.68 5.36 o
966 2 3 -6 -4 0.90 1.53 0.57 <
967 2 3 -6 -3 54.37 44.67 3.22 o
968 2 3 -6 -2 10.98 4.85 1.14 o
969 2 3 -6 -1 8.50 5.04 1.65 o
970 2 3 -6 1 0.81 1.66 1.62 <
971 2 3 -6 2 11.19 9.97 3.38 <
972 2 3 -5 -6 8.10 5.94 1.31 o
973 2 3 -5 -3 1.75 0.74 0.43 <
974 2 3 -5 -2 61.84 57.88 4.15 o
975 2 3 -5 -1 59.01 55.78 5.29 o
976 2 3 -5 1 16.68 17.24 3.90 o
977 2 3 -5 2 13.29 17.37 4.34 o
978 2 3 -5 3 8.24 14.24 4.51 o
979 2 -3 -4 7 0.06 -0.76 1.21 <
980 2 3 -4 -7 0.06 0.31 3.70 <
981 2 3 -4 -6 19.36 10.23 1.72 o
982 2 -3 -4 6 19.36 21.16 4.61 o
983 2 3 -4 -5 7.57 2.50 0.47 o
984 2 3 -4 -2 36.01 27.02 2.78 o
985 2 3 -4 -1 34.17 27.53 3.64 o
986 2 3 -4 1 4.41 5.05 2.41 <
987 2 3 -4 2 4.66 4.90 2.17 <
988 2 3 -4 3 18.64 44.03 8.59 o
989 2 3 -4 4 0.07 1.67 2.58 <
990 2 -3 -3 7 15.58 21.86 4.79 o
991 2 3 -3 -7 15.58 12.16 2.44 o
992 2 3 -3 -6 9.01 2.94 0.95 o
993 2 -3 -3 6 9.01 6.37 2.57 <
994 2 3 -3 -5 34.92 29.74 2.34 o
995 2 3 -3 1 14.00 10.90 3.11 o
996 2 3 -3 2 35.94 43.87 6.89 o
997 2 3 -3 3 6.73 10.76 3.75 <
998 2 3 -3 4 11.37 12.96 4.79 <
999 2 -3 -2 7 0.45 0.64 0.84 <
1000 2 3 -2 -7 0.45 2.29 1.52 <
1001 2 -3 -2 6 36.70 51.02 6.21 o
1002 2 3 -2 -6 36.70 39.07 3.83 o
1003 2 3 -2 -5 30.35 26.81 2.70 o
1004 2 -3 -2 5 30.35 35.34 4.97 o
1005 2 -3 -1 8 1.80 9.36 3.34 <
1006 2 -3 -1 7 6.62 16.26 3.76 o
1007 2 3 -1 -7 6.62 11.84 2.68 o
1008 2 -3 -1 6 13.81 12.16 2.71 o
1009 2 3 -1 -6 13.81 10.49 2.26 o
1010 2 3 -1 -5 33.33 38.96 3.92 o
1011 2 -3 -1 5 33.33 43.39 4.92 o
1012 2 -3 0 8 14.22 27.57 5.28 o
1013 2 3 0 -8 14.22 27.31 4.70 o
1014 2 -3 0 7 0.07 1.72 1.64 <
1015 2 3 0 -7 0.07 0.12 0.41 <
1016 2 -3 0 6 0.45 3.82 1.58 <
1017 2 3 0 -6 0.45 4.68 2.07 <
1018 2 -3 0 5 51.76 46.91 4.50 o
1019 2 3 0 -5 51.76 47.15 4.74 o
1020 2 -3 0 4 11.66 27.09 3.21 o
1021 2 3 1 -8 1.85 9.07 3.29 <
1022 2 3 1 -7 6.57 13.05 3.39 o
1023 2 -3 1 7 6.57 12.79 3.16 o
1024 2 -3 1 6 13.41 10.82 2.83 o
1025 2 3 1 -6 13.41 12.25 2.72 o
1026 2 -3 1 5 34.66 40.37 3.70 o
1027 2 -3 1 4 112.27 148.19 6.55 o
1028 2 -3 2 7 0.44 -0.02 1.00 <
1029 2 3 2 -7 0.44 2.89 2.33 <
1030 2 -3 2 6 37.21 37.12 4.48 o
1031 2 3 2 -6 37.21 51.30 6.46 o
1032 2 -3 2 5 30.12 22.14 2.52 o
1033 2 -3 2 4 0.07 0.80 0.31 <
1034 2 3 3 -7 15.64 24.47 5.24 o
1035 2 3 3 -6 8.68 5.66 2.27 <
1036 2 -3 3 2 80.86 52.60 3.12 o
1037 2 -3 3 1 59.76 57.88 4.61 o
1038 2 -3 3 -1 12.92 10.58 2.76 o
1039 2 -3 3 -2 35.60 39.51 5.65 o
1040 2 -3 3 -3 7.06 9.29 2.83 o
1041 2 -3 3 -4 11.21 10.28 3.58 <
1042 2 3 4 -7 0.06 2.54 2.34 <
1043 2 -3 4 2 36.88 23.49 2.22 o
1044 2 -3 4 1 33.32 27.28 3.12 o
1045 2 -3 4 -1 4.35 4.21 1.85 <
1046 2 -3 4 -2 4.59 7.37 2.90 <
1047 2 -3 4 -3 18.84 30.74 5.41 o
1048 2 -3 4 -4 0.08 -3.61 2.65 <
1049 2 -3 5 1 59.70 56.22 4.62 o
1050 2 -3 5 -1 17.70 16.11 3.45 o
1051 2 -3 5 -2 13.83 12.46 3.54 o
1052 2 -3 5 -3 7.89 12.05 3.45 o
1053 2 -3 6 1 7.59 6.13 1.75 o
1054 2 -3 6 -1 0.86 2.64 1.61 <
1055 2 -3 6 -2 11.09 13.33 3.76 o
1056 2 -3 7 1 9.60 6.42 2.22 <
1057 2 -3 7 -1 32.95 29.85 4.88 o
1058 2 4 -7 -3 11.38 7.72 1.65 o
1059 2 4 -7 -2 0.37 0.36 0.98 <
1060 2 4 -7 -1 12.01 10.75 2.97 o
1061 2 4 -6 -2 15.19 9.39 2.19 o
1062 2 4 -6 -1 2.87 2.60 1.67 <
1063 2 4 -6 1 13.75 15.86 4.37 o
1064 2 4 -5 -1 14.44 23.81 4.11 o
1065 2 4 -5 1 1.89 2.67 1.55 <
1066 2 4 -5 2 6.20 7.20 3.47 <
1067 2 4 -4 -7 6.10 5.04 1.20 o
1068 2 4 -3 -7 5.60 9.13 1.91 o
1069 2 -4 -3 7 5.60 9.20 3.24 <
1070 2 4 -2 -7 7.43 11.21 2.44 o
1071 2 -4 -2 7 7.43 8.86 2.79 o
1072 2 -4 -1 7 3.54 7.26 2.37 o
1073 2 -4 -1 6 10.58 21.58 4.03 o
1074 2 -4 0 7 8.33 7.00 1.97 o
1075 2 -4 0 6 0.54 1.64 1.08 <
1076 2 -4 1 7 3.32 3.35 1.37 <
1077 2 -4 1 6 10.49 14.71 2.52 o
1078 2 -4 1 5 13.25 10.51 1.93 o
1079 2 -4 2 7 7.23 10.13 2.42 o
1080 2 -4 2 6 1.23 1.32 0.27 o
1081 2 -4 2 5 18.43 19.14 2.07 o
1082 2 -4 3 6 9.41 7.91 1.65 o
1083 2 -4 3 2 0.31 0.23 0.36 <
1084 2 -4 3 1 20.33 13.71 2.87 o
1085 2 -4 4 3 1.33 0.78 0.15 o
1086 2 -4 4 2 50.74 48.71 3.97 o
1087 2 -4 4 1 1.26 0.96 0.83 <
1088 2 -4 4 -1 6.92 4.90 1.95 <
1089 2 -4 4 -2 1.41 -1.25 1.80 <
1090 2 -4 4 -3 3.44 1.39 0.56 <
1091 2 -4 5 3 17.14 7.49 1.27 o
1092 2 -4 5 2 0.70 0.74 0.81 <
1093 2 -4 5 1 13.70 11.74 2.88 o
1094 2 -4 5 -1 1.97 2.60 1.48 <
1095 2 -4 5 -2 6.19 4.94 2.26 <
1096 2 -4 6 2 15.20 11.00 2.16 o
1097 2 -4 6 1 2.75 0.90 0.59 <
1098 2 -4 6 -1 13.72 14.73 3.95 o
1099 2 -4 7 2 0.36 0.50 1.02 <
1100 2 -4 7 1 12.10 11.09 2.69 o
1101 2 -5 0 7 1.97 3.82 1.64 <
1102 2 -5 1 7 2.89 4.92 1.78 <
1103 2 -5 1 6 5.58 12.20 2.45 o
1104 2 -5 2 7 2.31 7.97 1.98 o
1105 2 -5 2 6 4.78 10.51 1.85 o
1106 2 -5 3 7 2.02 2.83 1.09 <
1107 2 -5 3 6 1.92 5.54 1.16 o
1108 2 -5 3 5 4.52 4.62 0.99 o
1109 2 -5 4 4 10.64 3.78 0.70 o
1110 2 -5 4 3 3.17 2.97 1.43 <
1111 2 -5 4 2 0.87 0.42 1.01 <
1112 2 -5 4 1 9.73 7.48 2.08 o
1113 2 -5 5 3 7.75 4.53 1.15 o
1114 2 -5 5 2 6.39 7.43 2.00 o
1115 2 -5 5 1 0.24 1.12 1.13 <
1116 2 -5 6 3 1.67 2.47 0.98 <
1117 2 -5 6 2 1.13 4.32 1.93 <
1118 2 -5 6 1 5.62 3.76 1.49 <
1119 2 -6 4 5 0.76 2.28 0.82 <
1120 3 0 -7 3 17.74 9.90 2.28 o
1121 3 0 -7 4 53.49 65.22 6.35 o
1122 3 0 -6 2 36.98 29.65 3.87 o
1123 3 0 -6 3 40.18 24.36 3.53 o
1124 3 0 -6 4 4.58 3.58 1.48 <
1125 3 0 -6 5 24.51 18.03 3.48 o
1126 3 0 -5 2 95.03 90.08 6.10 o
1127 3 0 -5 3 3.01 2.25 1.44 <
1128 3 0 -5 4 13.23 10.10 2.29 o
1129 3 0 -5 5 3.26 1.82 1.34 <
1130 3 0 -4 2 15.24 19.51 2.54 o
1131 3 0 -4 3 124.47 107.56 6.56 o
1132 3 0 -4 4 1.49 -8.82 1.33 <
1133 3 0 -4 5 2.54 1.91 1.17 <
1134 3 0 -3 1 18.67 19.23 2.17 o
1135 3 0 -3 2 311.38 335.33 9.60 o
1136 3 0 -3 3 14.07 5.00 1.32 o
1137 3 0 -3 4 5.95 4.96 1.70 <
1138 3 0 -2 1 1.99 0.73 0.36 <
1139 3 0 -2 2 210.42 164.81 6.68 o
1140 3 0 -2 3 171.01 151.84 7.58 o
1141 3 0 -1 1 618.32 650.10 9.33 o
1142 3 0 1 -1 618.15 651.38 9.32 o
1143 3 0 2 -1 1.86 0.86 0.40 <
1144 3 0 2 -2 210.53 169.62 6.78 o
1145 3 0 3 -1 18.95 21.61 2.29 o
1146 3 0 3 -2 311.26 333.95 9.86 o
1147 3 0 3 -3 14.13 3.91 1.35 <
1148 3 0 4 -1 1.22 1.51 0.85 <
1149 3 0 4 -2 15.34 20.36 2.69 o
1150 3 0 4 -3 124.38 103.54 6.97 o
1151 3 0 5 -1 85.18 116.16 7.47 o
1152 3 0 5 -2 95.04 94.44 6.35 o
1153 3 0 5 -3 2.98 1.74 1.33 <
1154 3 0 5 -4 13.23 8.71 2.65 o
1155 3 0 6 -1 13.41 23.75 3.42 o
1156 3 0 6 -2 36.64 30.61 3.83 o
1157 3 0 6 -3 40.27 21.56 3.34 o
1158 3 0 6 -4 4.55 3.67 1.86 <
1159 3 0 6 -5 24.50 17.55 4.11 o
1160 3 0 7 -2 9.63 5.91 1.84 o
1161 3 0 7 -3 17.71 12.46 3.04 o
1162 3 0 7 -4 53.59 64.26 6.69 o
1163 3 0 8 -2 8.02 16.30 4.16 o
1164 3 0 8 -3 26.93 23.00 3.96 o
1165 3 1 -8 2 7.79 7.49 2.71 <
1166 3 -1 -7 4 14.28 9.47 1.98 o
1167 3 1 -7 2 10.27 6.46 2.19 <
1168 3 1 -7 3 15.87 12.20 3.17 o
1169 3 -1 -6 5 31.01 27.40 3.54 o
1170 3 -1 -6 4 14.95 31.10 3.31 o
1171 3 1 -6 1 190.21 221.97 11.87 o
1171 2 -1 6 -1 190.21 221.97 11.87 o
1172 3 1 -6 2 20.41 12.99 2.87 o
1173 3 1 -6 3 14.26 9.07 2.43 o
1174 3 1 -6 4 30.32 26.78 4.91 o
1175 3 -1 -5 6 13.02 7.98 2.00 o
1176 3 -1 -5 5 11.44 4.97 1.63 o
1177 3 -1 -5 4 43.28 44.71 3.76 o
1178 3 -1 -5 3 79.09 84.27 4.95 o
1179 3 1 -5 1 72.26 68.92 5.80 o
1179 2 -1 5 -1 72.26 68.92 5.80 o
1180 3 1 -5 2 78.79 83.95 6.68 o
1181 3 1 -5 3 41.40 31.04 4.33 o
1182 3 1 -5 4 9.66 3.71 1.54 <
1183 3 1 -5 5 10.18 9.80 3.22 o
1184 3 -1 -4 5 8.93 7.03 1.79 o
1185 3 -1 -4 4 54.88 136.01 6.59 o
1186 3 -1 -4 3 25.16 29.05 2.59 o
1187 4 1 4 0 56.80 69.78 5.50 o
1187 3 1 -4 0 56.80 69.78 5.50 o
1188 3 1 -4 1 507.37 629.75 17.42 o
1188 2 -1 4 -1 507.37 629.75 17.42 o
1189 3 1 -4 2 28.29 25.58 3.32 o
1190 3 1 -4 3 48.15 39.50 4.73 o
1191 3 1 -4 4 7.26 8.08 2.51 o
1192 3 1 -4 5 0.65 0.74 0.89 <
1193 3 -1 -3 4 47.58 51.26 4.23 o
1194 3 -1 -3 3 205.03 211.70 6.37 o
1195 3 -1 -3 2 20.80 19.65 1.77 o
1196 4 1 3 0 185.27 211.11 8.59 o
1196 3 1 -3 0 185.27 211.11 8.59 o
1197 3 1 -3 1 41.49 49.55 4.12 o
1197 2 -1 3 -1 41.49 49.55 4.12 o
1198 3 1 -3 2 205.24 199.80 9.51 o
1199 3 1 -3 3 47.48 53.97 5.32 o
1200 3 1 -3 4 13.57 7.76 2.18 o
1201 4 1 2 0 18.43 14.51 2.00 o
1201 3 1 -2 0 18.43 14.51 2.00 o
1202 3 1 -2 1 1194.64 1430.27 21.61 o
1202 2 -1 2 -1 1194.64 1430.27 21.61 o
1203 3 1 -2 2 135.63 135.30 7.59 o
1204 3 1 -2 3 21.43 15.66 2.81 o
1205 4 1 1 0 984.84 1019.15 14.60 o
1205 3 1 -1 0 984.84 1019.15 14.60 o
1206 3 1 -1 1 438.47 462.97 12.22 o
1206 2 -1 1 -1 438.47 462.97 12.22 o
1207 4 -1 0 0 400.57 314.61 7.27 o
1207 3 -1 0 0 400.57 314.61 7.27 o
1208 4 1 0 0 400.57 313.43 7.21 o
1208 3 1 0 0 400.57 313.43 7.21 o
1209 4 -1 -1 0 985.04 1020.24 14.51 o
1209 3 -1 1 0 985.04 1020.24 14.51 o
1210 3 -1 1 -1 438.92 457.05 12.17 o
1210 2 1 -1 1 438.92 457.05 12.17 o
1211 4 -1 -2 0 18.76 13.47 1.89 o
1211 3 -1 2 0 18.76 13.47 1.89 o
1212 3 -1 2 -1 1194.78 1434.01 21.93 o
1212 2 1 -2 1 1194.78 1434.01 21.93 o
1213 3 -1 2 -2 138.88 130.59 7.57 o
1214 3 1 3 -2 21.25 19.43 1.79 o
1215 4 -1 -3 0 185.15 209.45 8.62 o
1215 3 -1 3 0 185.15 209.45 8.62 o
1216 3 -1 3 -1 41.58 51.42 4.35 o
1216 2 1 -3 1 41.58 51.42 4.35 o
1217 3 -1 3 -2 205.24 198.52 9.76 o
1218 3 -1 3 -3 49.11 50.69 5.55 o
1219 3 1 4 -3 25.63 26.86 2.76 o
1220 3 1 4 -2 229.84 245.06 7.52 o
1221 4 -1 -4 0 56.58 70.65 5.70 o
1221 3 -1 4 0 56.58 70.65 5.70 o
1222 3 -1 4 -1 506.92 641.25 17.46 o
1222 2 1 -4 1 506.92 641.25 17.46 o
1223 3 -1 4 -2 27.62 28.99 3.78 o
1224 3 -1 4 -3 47.42 39.74 5.04 o
1225 3 -1 4 -4 6.94 6.36 2.01 o
1226 3 1 5 -4 44.57 35.69 4.21 o
1227 3 1 5 -3 78.30 83.22 5.13 o
1228 3 1 5 -2 37.99 32.41 2.97 o
1229 4 -1 -5 0 128.68 190.93 10.15 o
1229 3 -1 5 0 128.68 190.93 10.15 o
1230 3 -1 5 -1 72.12 69.28 5.77 o
1230 2 1 -5 1 72.12 69.28 5.77 o
1231 3 -1 5 -2 79.59 85.33 6.77 o
1232 3 -1 5 -3 39.93 34.30 4.95 o
1233 3 -1 5 -4 9.33 4.98 2.19 <
1234 3 1 6 -4 14.61 28.58 3.49 o
1235 3 1 6 -3 21.09 16.37 2.55 o
1236 3 1 6 -2 83.65 99.12 6.17 o
1237 3 -1 6 -1 190.63 228.94 12.10 o
1237 2 1 -6 1 190.63 228.94 12.10 o
1238 3 -1 6 -2 19.40 17.17 3.24 o
1239 3 -1 6 -3 14.56 9.88 2.89 o
1240 3 -1 6 -4 30.06 27.59 5.17 o
1241 3 1 7 -4 14.29 14.48 2.80 o
1242 3 1 7 -3 9.98 9.28 2.25 o
1243 3 1 7 -2 0.42 0.62 0.49 <
1244 3 -1 7 -1 0.29 1.56 1.23 <
1244 2 1 -7 1 0.29 1.56 1.23 <
1245 3 -1 7 -2 10.19 6.61 2.24 <
1246 3 -1 7 -3 15.94 11.65 3.10 o
1247 3 1 8 -3 6.67 6.16 1.74 o
1248 3 -1 8 -1 61.21 50.75 6.31 o
1248 2 1 -8 1 61.21 50.75 6.31 o
1249 3 -1 8 -2 8.25 4.86 2.05 <
1250 3 2 -8 1 5.79 5.82 1.99 <
1251 3 2 -7 1 15.49 15.90 3.84 o
1252 3 2 -7 2 3.75 5.12 2.68 <
1252 2 -2 7 -2 3.75 5.12 2.68 <
1253 3 2 -7 3 5.54 7.67 3.08 <
1254 3 -2 -6 5 5.34 5.33 1.20 o
1255 4 2 6 0 24.10 34.15 4.86 o
1255 3 2 -6 0 24.10 34.15 4.86 o
1256 3 2 -6 1 15.09 15.56 3.34 o
1257 3 2 -6 2 51.85 49.08 6.04 o
1257 2 -2 6 -2 51.85 49.08 6.04 o
1258 3 2 -6 3 4.79 9.80 3.19 o
1259 3 -2 -5 6 9.23 9.60 2.11 o
1260 3 -2 -5 5 29.25 43.57 3.66 o
1261 4 2 5 0 160.76 154.30 9.65 o
1261 3 2 -5 0 160.76 154.30 9.65 o
1262 3 2 -5 1 48.57 63.93 6.49 o
1263 3 2 -5 2 26.19 26.38 4.06 o
1263 2 -2 5 -2 26.19 26.38 4.06 o
1264 3 2 -5 3 29.04 29.39 4.76 o
1265 3 2 -5 4 8.88 9.99 3.09 o
1266 3 -2 -4 6 25.05 16.42 2.50 o
1267 3 -2 -4 5 0.29 0.85 0.53 <
1268 3 -2 -4 4 101.44 110.96 4.04 o
1269 3 2 -4 -1 274.70 267.03 11.98 o
1270 4 2 4 0 7.40 9.91 2.44 o
1270 3 2 -4 0 7.40 9.91 2.44 o
1271 3 2 -4 1 56.11 74.87 6.67 o
1272 3 2 -4 2 252.59 299.28 13.90 o
1272 2 -2 4 -2 252.59 299.28 13.90 o
1273 3 2 -4 3 0.42 4.97 2.60 <
1274 3 2 -4 4 20.25 21.46 4.38 o
1275 3 -2 -3 4 18.46 42.76 2.73 o
1276 3 2 -3 -1 3.97 6.45 1.70 o
1277 4 2 3 0 545.36 546.99 15.92 o
1277 3 2 -3 0 545.36 546.99 15.92 o
1278 3 2 -3 1 120.23 150.74 8.91 o
1279 3 2 -3 2 24.75 21.61 3.60 o
1279 2 -2 3 -2 24.75 21.61 3.60 o
1280 3 2 -3 3 42.74 46.96 5.70 o
1281 3 2 -2 -1 329.04 318.72 10.54 o
1282 4 2 2 0 111.21 87.40 5.83 o
1282 3 2 -2 0 111.21 87.40 5.83 o
1283 3 2 -2 1 93.98 104.91 7.39 o
1284 3 2 -2 2 151.20 160.56 9.74 o
1284 2 -2 2 -2 151.20 160.56 9.74 o
1285 3 -2 -1 2 49.56 39.85 2.16 o
1286 3 -2 -1 1 340.96 290.64 7.93 o
1287 3 2 -1 -1 340.96 290.36 9.12 o
1288 4 2 1 0 130.92 89.21 5.63 o
1288 3 2 -1 0 130.92 89.21 5.63 o
1289 3 2 -1 1 122.84 133.26 8.19 o
1290 3 -2 0 2 0.46 1.30 0.41 o
1291 3 2 0 -1 95.47 97.28 4.67 o
1292 3 -2 0 1 95.47 100.61 4.72 o
1293 4 2 0 0 0.16 2.61 0.93 <
1293 3 2 0 0 0.16 2.61 0.93 <
1294 4 -2 0 0 0.16 3.11 1.03 o
1294 3 -2 0 0 0.16 3.11 1.03 o
1295 3 2 1 -2 46.41 37.20 2.07 o
1296 3 -2 1 1 340.48 292.23 9.18 o
1297 3 2 1 -1 340.48 293.68 7.76 o
1298 4 -2 -1 0 130.13 92.26 5.81 o
1298 3 -2 1 0 130.13 92.26 5.81 o
1299 3 -2 1 -1 127.78 123.03 7.88 o
1300 3 -2 2 1 329.18 316.48 10.61 o
1301 4 -2 -2 0 111.50 90.77 6.04 o
1301 3 -2 2 0 111.50 90.77 6.04 o
1302 3 -2 2 -1 90.04 106.57 7.74 o
1303 3 -2 2 -2 151.14 156.22 9.72 o
1303 2 2 -2 2 151.14 156.22 9.72 o
1304 3 -2 3 1 3.92 6.37 1.67 o
1305 4 -2 -3 0 545.47 538.74 16.11 o
1305 3 -2 3 0 545.47 538.74 16.11 o
1306 3 -2 3 -1 119.67 161.43 9.38 o
1307 3 -2 3 -2 24.80 22.34 3.90 o
1307 2 2 -3 2 24.80 22.34 3.90 o
1308 3 -2 3 -3 43.48 44.01 5.75 o
1309 3 -2 4 1 274.73 262.61 12.13 o
1310 4 -2 -4 0 7.26 8.02 2.07 o
1310 3 -2 4 0 7.26 8.02 2.07 o
1311 3 -2 4 -1 56.97 74.78 6.69 o
1312 3 -2 4 -2 252.75 291.84 14.40 o
1312 2 2 -4 2 252.75 291.84 14.40 o
1313 3 -2 4 -3 0.48 0.97 1.26 <
1314 3 2 5 -4 12.55 32.73 3.00 o
1315 3 2 5 -3 48.61 50.24 3.25 o
1316 4 -2 -5 0 160.83 154.35 9.64 o
1316 3 -2 5 0 160.83 154.35 9.64 o
1317 3 -2 5 -1 47.96 68.32 6.80 o
1318 3 -2 5 -2 26.12 30.47 4.62 o
1318 2 2 -5 2 26.12 30.47 4.62 o
1319 3 -2 5 -3 28.27 32.90 5.36 o
1320 3 -2 5 -4 9.21 9.12 3.01 o
1321 3 2 6 -4 23.83 27.97 2.97 o
1322 3 2 6 -3 16.89 16.49 2.19 o
1323 4 -2 -6 0 24.08 37.50 5.19 o
1323 3 -2 6 0 24.08 37.50 5.19 o
1324 3 -2 6 -1 16.34 15.91 3.50 o
1325 3 -2 6 -2 51.69 55.50 6.63 o
1325 2 2 -6 2 51.69 55.50 6.63 o
1326 3 -2 6 -3 4.94 4.56 2.03 <
1327 3 2 7 -4 2.54 10.59 1.88 o
1328 3 2 7 -3 20.45 15.08 2.22 o
1329 4 -2 -7 0 26.44 32.81 5.20 o
1329 3 -2 7 0 26.44 32.81 5.20 o
1330 3 -2 7 -1 15.35 16.11 3.64 o
1331 3 -2 7 -2 3.76 3.50 1.98 <
1331 2 2 -7 2 3.76 3.50 1.98 <
1332 3 -2 7 -3 5.79 5.50 2.35 <
1333 3 2 8 -3 6.75 6.08 1.72 o
1334 3 -2 8 -1 5.15 6.24 2.51 <
1335 4 3 7 0 3.00 5.72 2.94 <
1335 3 3 -7 0 3.00 5.72 2.94 <
1336 3 3 -7 1 26.90 25.83 5.15 o
1337 3 3 -6 -1 6.92 5.24 2.27 <
1338 4 3 6 0 94.87 93.80 9.04 o
1338 3 3 -6 0 94.87 93.80 9.04 o
1339 3 3 -6 1 0.66 1.36 1.51 <
1340 3 3 -6 2 9.12 12.77 3.63 o
1341 3 -3 -5 6 6.60 2.86 0.65 o
1342 3 3 -5 -1 48.06 54.78 6.29 o
1343 4 3 5 0 3.03 1.45 0.72 <
1343 3 3 -5 0 3.03 1.45 0.72 <
1344 3 3 -5 1 13.59 10.24 2.59 o
1345 3 3 -5 2 10.83 14.00 3.92 o
1346 3 3 -5 3 6.71 12.38 3.41 o
1347 3 -3 -4 6 15.77 7.28 1.14 o
1348 3 3 -4 -1 27.83 24.55 3.75 o
1349 4 3 4 0 78.31 75.91 7.19 o
1349 3 3 -4 0 78.31 75.91 7.19 o
1350 3 3 -4 1 3.59 3.99 1.74 <
1351 3 3 -4 2 3.80 5.14 1.90 <
1352 3 3 -4 3 15.18 31.80 5.31 o
1353 3 3 -4 4 0.06 -0.48 1.22 <
1354 3 3 -3 -2 65.60 54.38 5.50 o
1355 3 3 -3 -1 48.83 61.05 6.00 o
1356 4 3 3 0 28.36 34.16 4.54 o
1356 3 3 -3 0 28.36 34.16 4.54 o
1357 3 3 -3 1 11.41 10.32 2.62 o
1358 3 3 -3 2 29.28 35.94 5.32 o
1359 3 3 -3 3 5.49 10.88 2.78 o
1360 3 -3 -2 4 0.10 0.88 0.51 <
1361 3 -3 -2 3 83.71 71.30 3.17 o
1362 3 3 -2 -2 61.45 66.33 5.43 o
1363 3 3 -2 -1 55.95 58.32 5.28 o
1364 4 3 2 0 172.47 189.87 10.28 o
1364 3 3 -2 0 172.47 189.87 10.28 o
1365 3 3 -2 1 0.11 -1.80 1.02 <
1366 3 3 -2 2 17.13 21.42 4.08 o
1367 3 -3 -1 3 5.21 2.12 0.77 <
1368 3 3 -1 -2 76.62 89.60 5.75 o
1369 3 -3 -1 2 76.62 90.09 4.84 o
1370 3 3 -1 -1 87.98 82.29 5.96 o
1371 3 -3 -1 1 87.98 81.31 5.66 o
1372 4 3 1 0 0.19 2.48 1.08 <
1372 3 3 -1 0 0.19 2.48 1.08 <
1373 3 3 -1 1 84.98 84.45 7.47 o
1374 3 -3 0 3 188.31 209.38 8.09 o
1375 3 -3 0 2 4.44 2.53 0.92 <
1376 3 3 0 -2 4.44 3.32 0.99 o
1377 3 3 0 -1 1.76 1.81 0.89 <
1378 3 -3 0 1 1.76 2.67 1.19 <
1379 4 3 0 0 526.15 444.74 15.34 o
1379 3 3 0 0 526.15 444.74 15.34 o
1380 4 -3 0 0 526.15 463.55 15.26 o
1380 3 -3 0 0 526.15 463.55 15.26 o
1381 3 3 1 -2 78.59 82.76 4.47 o
1382 3 -3 1 2 78.59 86.70 5.66 o
1383 3 -3 1 1 85.43 85.89 6.12 o
1384 3 3 1 -1 85.43 82.53 5.48 o
1385 4 -3 -1 0 0.19 2.50 1.27 <
1385 3 -3 1 0 0.19 2.50 1.27 <
1386 3 -3 1 -1 84.27 83.32 7.38 o
1387 3 3 2 -2 58.41 52.85 3.40 o
1388 3 -3 2 2 58.41 58.49 5.24 o
1389 3 -3 2 1 58.68 58.43 5.33 o
1390 4 -3 -2 0 172.36 187.46 10.34 o
1390 3 -3 2 0 172.36 187.46 10.34 o
1391 3 -3 2 -1 0.17 0.49 1.13 <
1392 3 -3 2 -2 17.31 21.68 4.37 o
1393 3 -3 3 2 65.86 52.48 5.69 o
1394 3 -3 3 1 48.68 55.81 5.64 o
1395 4 -3 -3 0 28.33 34.41 4.66 o
1395 3 -3 3 0 28.33 34.41 4.66 o
1396 3 -3 3 -1 10.53 10.70 2.81 o
1397 3 -3 3 -2 29.00 37.58 5.62 o
1398 3 -3 3 -3 5.75 10.07 3.20 o
1399 3 -3 4 1 27.14 26.44 4.27 o
1400 4 -3 -4 0 78.36 76.29 7.33 o
1400 3 -3 4 0 78.36 76.29 7.33 o
1401 3 -3 4 -1 3.54 -0.06 1.64 <
1402 3 -3 4 -2 3.73 6.13 2.63 <
1403 3 -3 4 -3 15.35 39.12 6.92 o
1404 3 -3 5 1 48.62 56.03 6.62 o
1405 4 -3 -5 0 3.05 3.74 2.46 <
1405 3 -3 5 0 3.05 3.74 2.46 <
1406 3 -3 5 -1 14.42 14.89 3.68 o
1407 3 -3 5 -2 11.26 13.42 3.82 o
1408 3 -3 5 -3 6.43 12.01 3.82 o
1409 3 -3 6 1 6.18 3.05 1.52 <
1410 4 -3 -6 0 94.90 94.83 9.20 o
1410 3 -3 6 0 94.90 94.83 9.20 o
1411 3 -3 6 -1 0.70 2.12 1.82 <
1412 3 -3 6 -2 9.03 10.18 3.02 o
1413 3 3 7 -4 28.10 50.65 3.87 o
1414 4 -3 -7 0 2.99 1.03 0.71 <
1414 3 -3 7 0 2.99 1.03 0.71 <
1415 3 -3 7 -1 26.83 31.34 5.69 o
1416 3 4 -7 -1 9.78 12.52 4.14 o
1417 3 4 -6 -1 2.33 3.27 2.37 <
1418 4 4 6 0 13.08 15.31 4.12 o
1418 3 4 -6 0 13.08 15.31 4.12 o
1419 3 4 -6 1 11.20 13.64 3.91 o
1420 3 4 -5 -2 0.59 -0.26 1.08 <
1421 3 4 -5 -1 11.76 11.92 3.27 o
1422 4 4 5 0 13.32 10.77 3.14 o
1422 3 4 -5 0 13.32 10.77 3.14 o
1423 3 4 -5 1 1.54 1.67 1.55 <
1424 3 4 -5 2 5.05 5.45 2.39 <
1425 3 4 -4 -2 41.17 53.97 6.44 o
1426 3 4 -4 -1 1.14 2.41 1.73 <
1427 4 4 4 0 0.17 1.74 1.71 <
1427 3 4 -4 0 0.17 1.74 1.71 <
1428 3 4 -4 1 5.36 5.29 2.22 <
1429 3 4 -4 2 1.14 2.09 1.83 <
1430 3 4 -4 3 2.88 2.82 2.05 <
1431 3 4 -3 -2 0.25 0.44 0.80 <
1432 3 4 -3 -1 15.75 16.74 3.71 o
1433 4 4 3 0 4.76 5.94 2.28 <
1433 3 4 -3 0 4.76 5.94 2.28 <
1434 3 4 -3 1 1.31 2.75 2.03 <
1435 3 4 -3 2 7.52 9.40 2.94 o
1436 3 4 -3 3 3.83 6.41 2.59 <
1437 3 -4 -2 5 14.66 16.27 1.92 o
1438 3 -4 -2 4 5.95 1.63 0.25 o
1439 3 4 -2 -3 10.00 6.60 2.05 o
1440 3 -4 -2 3 10.00 4.52 1.23 o
1441 3 4 -2 -2 64.64 69.46 6.51 o
1442 3 4 -2 -1 7.53 7.78 2.26 o
1443 4 4 2 0 4.99 10.63 2.87 o
1443 3 4 -2 0 4.99 10.63 2.87 o
1444 3 4 -2 1 14.50 12.32 3.37 o
1445 3 4 -2 2 0.48 1.07 1.42 <
1446 3 -4 -1 4 46.28 56.67 3.99 o
1447 3 -4 -1 3 29.94 34.82 3.49 o
1448 3 4 -1 -3 29.94 37.79 4.13 o
1449 3 -4 -1 2 2.99 1.83 1.12 <
1450 3 4 -1 -2 2.99 2.20 1.06 <
1451 3 4 -1 -1 39.71 32.12 4.26 o
1452 3 -4 -1 1 39.71 32.13 4.46 o
1453 4 4 1 0 104.11 117.92 9.47 o
1453 3 4 -1 0 104.11 117.92 9.47 o
1454 3 4 -1 1 5.17 5.88 2.33 <
1455 3 -4 0 4 42.79 52.82 4.75 o
1456 3 -4 0 3 0.70 2.93 1.29 <
1457 3 4 0 -3 0.70 1.94 0.91 <
1458 3 4 0 -2 21.62 20.30 3.05 o
1459 3 -4 0 2 21.62 15.87 2.81 o
1460 3 -4 0 1 2.11 2.33 1.23 <
1461 3 4 0 -1 2.11 3.19 1.56 <
1462 4 4 0 0 90.02 91.99 8.17 o
1462 3 4 0 0 90.02 91.99 8.17 o
1463 4 -4 0 0 90.02 103.49 8.67 o
1463 3 -4 0 0 90.02 103.49 8.67 o
1464 3 -4 1 4 46.11 63.56 5.55 o
1465 3 -4 1 3 30.15 37.65 4.32 o
1466 3 4 1 -3 30.15 33.35 3.40 o
1467 3 4 1 -2 3.03 1.71 1.14 <
1468 3 -4 1 2 3.03 1.64 1.23 <
1469 3 4 1 -1 39.40 32.77 4.21 o
1470 3 -4 1 1 39.40 36.10 4.74 o
1471 4 -4 -1 0 104.06 122.88 9.51 o
1471 3 -4 1 0 104.06 122.88 9.51 o
1472 3 -4 1 -1 5.24 4.65 2.11 <
1473 3 -4 2 3 9.53 7.58 2.14 o
1474 3 4 2 -3 9.53 5.26 1.28 o
1475 3 -4 2 2 64.39 64.64 6.33 o
1476 3 4 2 -2 64.39 48.47 4.64 o
1477 3 4 2 -1 7.94 2.96 1.37 <
1478 3 -4 2 1 7.94 7.57 2.33 o
1479 4 -4 -2 0 5.02 7.68 2.55 o
1479 3 -4 2 0 5.02 7.68 2.55 o
1480 3 -4 2 -1 14.06 12.20 3.30 o
1481 3 -4 2 -2 0.46 -1.18 1.59 <
1482 3 4 3 -3 18.20 11.41 1.67 o
1483 3 -4 3 3 18.20 17.84 3.65 o
1484 3 4 3 -2 0.25 -0.30 0.41 <
1485 3 -4 3 2 0.25 1.90 2.20 <
1486 3 -4 3 1 16.56 15.69 3.41 o
1487 4 -4 -3 0 4.71 7.59 2.71 <
1487 3 -4 3 0 4.71 7.59 2.71 <
1488 3 -4 3 -1 1.21 0.64 1.07 <
1489 3 -4 3 -2 7.57 14.82 3.77 o
1490 3 4 4 -3 1.08 0.85 0.47 <
1491 3 -4 4 2 41.33 48.72 6.28 o
1492 3 -4 4 1 1.03 1.60 1.06 <
1493 4 -4 -4 0 0.16 0.84 1.34 <
1493 3 -4 4 0 0.16 0.84 1.34 <
1494 3 -4 4 -1 5.63 5.39 2.44 <
1495 3 -4 4 -2 1.15 2.28 2.39 <
1496 3 -4 4 -3 2.80 3.38 1.63 <
1497 3 -4 5 2 0.57 -0.27 0.87 <
1498 3 -4 5 1 11.15 11.45 3.42 o
1499 4 -4 -5 0 13.35 15.07 4.32 o
1499 3 -4 5 0 13.35 15.07 4.32 o
1500 3 -4 5 -1 1.61 4.41 2.28 <
1501 3 -4 5 -2 5.04 6.67 2.98 <
1502 3 -4 6 2 12.38 9.22 3.44 <
1503 3 -4 6 1 2.24 2.34 1.74 <
1504 4 -4 -6 0 13.09 18.22 4.61 o
1504 3 -4 6 0 13.09 18.22 4.61 o
1505 3 -4 6 -1 11.17 10.11 3.66 <
1506 3 -4 7 1 9.85 10.21 3.57 <
1507 3 5 -6 -2 0.84 3.07 2.47 <
1508 3 5 -6 -1 4.60 7.64 3.27 <
1509 3 5 -5 -3 6.03 9.90 3.46 <
1510 3 5 -5 -2 5.49 5.11 1.88 <
1511 3 5 -5 -1 0.19 2.49 1.45 <
1512 4 5 5 0 7.70 9.74 3.26 <
1512 3 5 -5 0 7.70 9.74 3.26 <
1513 3 5 -4 -3 2.60 3.55 2.00 <
1514 3 5 -4 -2 0.71 5.66 2.98 <
1515 3 5 -4 -1 8.10 9.49 3.46 <
1516 4 5 4 0 0.08 1.20 1.23 <
1516 3 5 -4 0 0.08 1.20 1.23 <
1517 3 5 -4 1 3.36 5.95 2.60 <
1518 3 -5 -3 6 1.54 4.33 1.05 o
1519 3 -5 -3 5 3.48 4.11 1.13 o
1520 3 5 -3 -3 16.68 18.96 3.71 o
1521 3 5 -3 -2 17.48 17.78 3.89 o
1522 3 5 -3 -1 0.20 0.67 0.75 <
1523 4 5 3 0 7.11 10.51 3.39 o
1523 3 5 -3 0 7.11 10.51 3.39 o
1524 3 5 -3 1 1.83 3.03 1.64 <
1525 3 5 -3 2 0.90 2.04 1.72 <
1526 3 -5 -2 6 3.85 10.40 1.96 o
1527 3 -5 -2 5 0.13 3.05 1.07 <
1528 3 -5 -2 4 10.20 0.68 0.12 o
1529 3 5 -2 -3 3.40 5.11 1.92 <
1530 3 -5 -2 3 3.40 2.15 1.30 <
1531 3 5 -2 -2 2.63 2.43 1.51 <
1532 3 5 -2 -1 13.78 13.51 3.56 o
1533 4 5 2 0 1.27 6.96 3.38 <
1533 3 5 -2 0 1.27 6.96 3.38 <
1534 3 5 -2 1 2.45 3.04 1.38 <
1535 3 5 -2 2 2.12 1.50 0.94 <
1536 3 -5 -1 6 4.54 11.96 2.19 o
1537 3 -5 -1 5 6.71 10.25 2.03 o
1538 3 5 -1 -4 2.26 -0.50 1.27 <
1539 3 -5 -1 4 2.26 0.38 0.87 <
1540 3 5 -1 -3 5.36 4.55 1.70 <
1541 3 -5 -1 3 5.36 4.08 1.71 <
1542 3 -5 -1 2 3.29 3.90 2.08 <
1543 3 5 -1 -2 3.29 4.99 2.10 <
1544 3 5 -1 -1 0.81 -0.67 0.73 <
1545 4 5 1 0 14.98 16.75 3.82 o
1545 3 5 -1 0 14.98 16.75 3.82 o
1546 3 5 -1 1 3.33 1.02 1.30 <
1547 3 -5 0 5 2.17 1.71 0.97 <
1548 3 -5 0 4 16.24 13.20 2.53 o
1549 3 5 0 -4 16.24 11.58 2.35 o
1550 3 5 0 -3 1.28 0.35 0.55 <
1551 3 -5 0 3 1.28 1.42 0.79 <
1552 3 5 0 -2 0.42 0.75 0.91 <
1553 3 -5 0 2 0.42 0.41 0.22 <
1554 3 -5 0 1 12.65 10.66 3.10 o
1555 3 5 0 -1 12.65 13.30 3.39 o
1556 4 -5 0 0 2.04 4.60 2.68 <
1556 3 -5 0 0 2.04 4.60 2.68 <
1557 4 5 0 0 2.04 1.89 1.49 <
1557 3 5 0 0 2.04 1.89 1.49 <
1558 3 -5 1 5 6.49 19.97 3.56 o
1559 3 5 1 -4 2.29 -0.79 0.76 <
1560 3 -5 1 4 2.29 1.42 0.47 o
1561 3 -5 1 3 5.09 6.15 2.01 o
1562 3 5 1 -3 5.09 5.52 1.82 o
1563 3 -5 1 2 3.53 4.84 1.85 <
1564 3 5 1 -2 3.53 4.67 1.78 <
1565 3 -5 1 1 0.81 1.01 1.35 <
1566 3 5 1 -1 0.81 0.90 0.70 <
1567 4 -5 -1 0 14.93 19.06 4.61 o
1567 3 -5 1 0 14.93 19.06 4.61 o
1568 3 -5 1 -1 3.35 6.62 3.66 <
1569 3 5 2 -4 9.92 12.51 1.97 o
1570 3 -5 2 4 9.92 14.56 3.06 o
1571 3 5 2 -3 3.62 3.09 1.56 <
1572 3 -5 2 3 3.62 3.15 1.81 <
1573 3 -5 2 2 2.51 3.57 1.98 <
1574 3 5 2 -2 2.51 3.26 1.64 <
1575 3 -5 2 1 14.17 14.24 3.78 o
1576 3 5 2 -1 14.17 5.41 2.06 <
1577 4 -5 -2 0 1.27 4.87 2.89 <
1577 3 -5 2 0 1.27 4.87 2.89 <
1578 3 -5 2 -1 2.33 3.88 2.41 <
1579 3 5 3 -4 0.55 -0.53 0.36 <
1580 3 -5 3 4 0.55 -2.79 1.92 <
1581 3 -5 3 3 16.43 22.36 4.40 o
1582 3 5 3 -3 16.43 12.17 2.45 o
1583 3 -5 3 2 17.75 18.49 4.13 o
1584 3 5 3 -2 17.75 8.41 2.57 o
1585 3 -5 3 1 0.19 -0.73 0.58 <
1586 4 -5 -3 0 7.14 7.16 2.66 <
1586 3 -5 3 0 7.14 7.16 2.66 <
1587 3 -5 3 -1 1.84 4.37 2.57 <
1588 3 -5 3 -2 0.91 2.80 2.25 <
1589 3 5 4 -4 8.67 3.41 0.86 o
1590 3 5 4 -3 2.58 1.42 0.99 <
1591 3 -5 4 3 2.58 3.12 1.65 <
1592 3 -5 4 2 0.71 12.07 4.67 <
1593 3 -5 4 1 7.92 12.32 3.92 o
1594 4 -5 -4 0 0.08 0.73 1.36 <
1594 3 -5 4 0 0.08 0.73 1.36 <
1595 3 -5 4 -1 3.42 8.30 3.64 <
1596 3 5 5 -4 0.68 0.95 0.62 <
1597 3 -5 5 3 6.31 5.13 1.91 <
1598 3 -5 5 2 5.21 7.28 2.70 <
1599 3 -5 5 1 0.20 1.77 1.66 <
1600 4 -5 -5 0 7.68 12.89 4.34 <
1600 3 -5 5 0 7.68 12.89 4.34 <
1601 3 5 6 -4 5.27 3.46 0.89 o
1602 3 -5 6 2 0.92 1.89 1.30 <
1603 3 -5 6 1 4.57 7.02 2.88 <
1604 3 6 -4 -4 1.09 1.25 0.96 <
1605 3 6 -4 -3 3.96 8.37 2.90 <
1606 3 6 -4 -2 1.33 1.15 1.34 <
1607 3 6 -4 -1 0.49 19.31 7.07 <
1608 3 6 -3 -4 1.05 2.24 1.05 <
1609 3 6 -3 -3 0.09 3.38 1.93 <
1610 3 6 -3 -2 1.93 4.44 2.60 <
1611 3 6 -3 -1 1.84 2.15 1.39 <
1612 4 6 3 0 1.90 3.11 2.27 <
1612 3 6 -3 0 1.90 3.11 2.27 <
1613 3 -6 -2 6 2.46 7.30 1.93 o
1614 3 -6 -2 5 1.54 8.27 2.40 o
1615 3 -6 -2 4 0.00 0.71 0.94 <
1616 3 6 -2 -4 0.00 0.82 0.89 <
1617 3 -6 -2 3 3.03 3.31 2.07 <
1618 3 6 -2 -3 3.03 4.87 2.23 <
1619 3 6 -2 -2 0.16 1.07 1.34 <
1620 3 6 -2 -1 0.99 -0.19 0.45 <
1621 4 6 2 0 5.15 5.60 2.61 <
1621 3 6 -2 0 5.15 5.60 2.61 <
1622 3 -6 -1 6 0.22 3.18 1.52 <
1623 3 -6 -1 5 1.52 3.75 1.61 <
1624 3 6 -1 -4 2.37 2.29 0.92 <
1625 3 -6 -1 4 2.37 1.27 1.50 <
1626 3 -6 -1 3 0.15 0.88 1.60 <
1627 3 6 -1 -3 0.15 0.72 0.98 <
1628 3 -6 -1 2 1.88 2.70 1.28 <
1629 3 6 -1 -2 1.88 3.23 1.85 <
1630 3 6 -1 -1 1.22 0.31 0.43 <
1631 4 6 1 0 0.43 0.77 1.74 <
1631 3 6 -1 0 0.43 0.77 1.74 <
1632 3 -6 0 6 0.34 4.39 1.64 <
1633 3 -6 0 5 0.50 6.84 2.23 o
1634 3 6 0 -4 0.01 0.66 0.89 <
1635 3 -6 0 4 0.01 1.41 1.07 <
1636 3 -6 0 3 3.78 5.17 2.32 <
1637 3 6 0 -3 3.78 5.50 2.11 <
1638 3 6 0 -2 0.06 0.81 1.66 <
1639 3 -6 0 2 0.06 2.18 1.67 <
1640 3 -6 0 1 0.13 2.45 1.74 <
1641 3 6 0 -1 0.13 -0.48 0.40 <
1642 4 6 0 0 1.75 0.60 1.52 <
1642 3 6 0 0 1.75 0.60 1.52 <
1643 3 -6 1 6 0.20 2.07 1.64 <
1644 3 -6 1 5 1.56 8.49 2.66 o
1645 3 -6 1 4 2.43 0.69 0.94 <
1646 3 6 1 -4 2.43 1.19 1.14 <
1647 3 -6 1 3 0.15 1.41 1.47 <
1648 3 6 1 -3 0.15 0.58 0.33 <
1649 3 6 1 -2 1.88 2.06 1.49 <
1650 3 -6 1 2 1.88 2.66 1.93 <
1651 3 6 1 -1 1.18 -0.40 1.15 <
1652 3 -6 1 1 1.18 0.23 1.00 <
1653 4 -6 -1 0 0.43 0.36 0.58 <
1653 3 -6 1 0 0.43 0.36 0.58 <
1654 3 6 2 -5 1.50 9.43 2.24 o
1655 3 -6 2 5 1.50 8.33 2.68 o
1656 3 -6 2 4 0.00 -0.26 0.83 <
1657 3 6 2 -4 0.00 1.23 1.07 <
1658 3 6 2 -3 3.04 3.50 1.60 <
1659 3 -6 2 3 3.04 5.48 2.67 <
1660 3 -6 2 2 0.13 1.65 1.83 <
1661 3 6 2 -2 0.13 -1.09 1.04 <
1662 3 -6 2 1 1.06 3.04 2.50 <
1663 3 6 2 -1 1.06 1.93 1.63 <
1664 4 -6 -2 0 5.16 9.35 3.65 <
1664 3 -6 2 0 5.16 9.35 3.65 <
1665 3 6 3 -5 1.93 7.36 1.74 o
1666 3 -6 3 5 1.93 7.90 3.13 <
1667 3 -6 3 4 1.05 2.75 0.99 <
1668 3 6 3 -4 1.05 1.61 1.03 <
1669 3 -6 3 3 0.09 1.81 1.38 <
1670 3 6 3 -3 0.09 1.17 0.80 <
1671 3 6 3 -2 1.96 -0.41 0.51 <
1672 3 -6 3 2 1.96 3.90 2.58 <
1673 3 -6 3 1 1.80 4.05 2.80 <
1674 4 -6 -3 0 1.90 1.26 0.78 <
1674 3 -6 3 0 1.90 1.26 0.78 <
1675 3 6 4 -5 0.62 3.49 0.98 o
1676 3 -6 4 4 1.10 0.88 0.60 <
1677 3 6 4 -4 1.10 1.08 0.33 o
1678 3 -6 4 3 3.95 3.45 2.42 <
1679 3 6 4 -3 3.95 3.73 1.83 <
1680 3 -6 4 2 1.33 2.42 2.12 <
1681 3 -6 4 1 0.46 -4.29 3.59 <
1682 6 7 1 -4 1.23 4.95 2.46 <
1682 3 -7 -1 4 1.23 4.95 2.46 <
1683 6 -7 1 4 1.23 9.45 3.07 o
1683 3 7 -1 -4 1.23 9.45 3.07 o
1684 3 -7 -1 3 0.55 2.03 0.87 <
1685 3 7 -1 -3 0.55 4.90 2.37 <
1686 6 7 0 -4 0.85 24.43 5.24 o
1686 3 -7 0 4 0.85 24.43 5.24 o
1687 6 -7 0 4 0.85 31.08 5.24 o
1687 3 7 0 -4 0.85 31.08 5.24 o
1688 3 -7 0 3 0.14 8.81 3.41 <
1689 3 7 0 -3 0.14 14.83 3.89 o
1690 6 7 -1 -4 1.24 8.00 2.69 <
1690 3 -7 1 4 1.24 8.00 2.69 <
1691 6 -7 -1 4 1.24 4.36 2.31 <
1691 3 7 1 -4 1.24 4.36 2.31 <
1692 3 7 1 -3 0.54 3.52 1.66 <
1693 3 -7 1 3 0.54 5.03 2.56 <
1694 4 0 -8 3 32.87 31.27 3.60 o
1695 4 0 -7 3 21.73 15.93 2.49 o
1696 4 0 -7 4 65.54 60.57 4.48 o
1697 4 0 -6 3 49.23 33.99 3.14 o
1698 4 0 -5 2 116.43 94.64 5.13 o
1699 4 0 -5 3 3.69 0.92 0.52 <
1700 4 0 -4 2 18.67 16.66 1.89 o
1701 4 0 2 -4 7.53 2.49 0.77 o
1702 4 0 2 -5 42.23 25.61 2.47 o
1703 4 0 2 -6 14.16 14.39 2.03 o
1704 4 0 3 -6 1.37 1.76 0.58 o
1705 4 -1 -8 3 8.67 7.03 2.04 o
1706 4 -1 -8 2 35.03 22.91 3.91 o
1707 4 -1 -7 4 17.49 13.27 2.22 o
1708 4 -1 -7 3 12.12 8.40 1.92 o
1709 4 -1 -7 2 0.56 0.38 0.48 <
1710 4 -1 -6 4 18.32 33.06 3.38 o
1711 4 -1 -6 3 24.66 22.62 2.77 o
1712 4 -1 -6 2 100.59 113.62 7.32 o
1713 4 -1 -6 1 19.67 25.97 3.65 o
1714 4 -1 -5 3 96.89 119.08 6.26 o
1715 4 -1 -5 2 47.43 36.79 3.59 o
1716 4 -1 -5 1 80.88 89.14 6.45 o
1717 4 -1 -4 3 30.82 36.17 3.09 o
1718 4 -1 -4 2 283.28 300.31 10.10 o
1719 4 -1 -4 1 35.76 37.57 3.59 o
1720 4 -1 -3 2 25.48 31.24 2.80 o
1721 4 -1 -3 1 101.77 106.48 5.50 o
1722 5 1 3 1 45.77 49.84 4.36 o
1722 4 -1 -3 -1 45.77 49.84 4.36 o
1723 4 -1 -2 2 638.38 775.58 12.45 o
1724 4 -1 -2 1 10.62 8.93 1.28 o
1725 5 1 2 1 1316.57 1322.66 20.92 o
1725 4 -1 -2 -1 1316.57 1322.66 20.92 o
1726 4 -1 -2 -2 166.17 144.29 7.48 o
1727 4 1 -2 2 166.17 143.76 4.83 o
1728 4 1 -2 3 26.26 19.53 1.67 o
1729 4 -1 -1 1 562.12 654.36 10.99 o
1730 5 -1 1 -1 483.44 511.73 9.59 o
1730 4 1 -1 1 483.44 511.73 9.59 o
1731 5 1 1 1 483.44 508.30 11.81 o
1731 4 -1 -1 -1 483.44 508.30 11.81 o
1732 4 -1 -1 -2 68.10 54.67 4.04 o
1733 4 1 -1 2 68.10 58.77 3.32 o
1734 4 1 -1 3 103.21 81.60 4.65 o
1735 4 -1 -1 -3 103.21 82.79 5.73 o
1736 4 -1 -1 -4 33.93 27.59 3.60 o
1737 5 1 0 1 169.88 210.48 6.58 o
1737 4 -1 0 -1 169.88 210.48 6.58 o
1738 5 -1 0 -1 169.88 209.49 6.54 o
1738 4 1 0 1 169.88 209.49 6.54 o
1739 4 -1 0 -2 1.37 0.56 0.42 <
1740 4 1 0 2 1.37 1.40 0.53 <
1741 4 -1 0 -3 143.86 119.99 6.12 o
1742 4 -1 0 -4 145.99 135.51 7.33 o
1743 4 -1 0 -5 3.34 3.11 1.19 <
1744 4 -1 0 -6 9.75 7.34 2.15 o
1745 4 1 1 -1 563.00 622.39 10.80 o
1746 5 -1 -1 -1 483.45 489.62 11.09 o
1746 4 1 1 1 483.45 489.62 11.09 o
1747 5 1 -1 1 483.45 488.79 9.41 o
1747 4 -1 1 -1 483.45 488.79 9.41 o
1748 4 1 1 2 63.92 60.40 4.41 o
1749 4 -1 1 -2 63.92 68.09 3.61 o
1750 4 -1 1 -3 104.23 87.71 4.77 o
1751 4 -1 1 -4 35.11 28.36 2.72 o
1752 4 -1 1 -5 33.15 27.11 3.05 o
1753 4 -1 1 -6 3.53 3.05 1.05 <
1754 4 1 2 -2 638.76 765.87 12.07 o
1755 4 1 2 -1 12.18 6.08 0.97 o
1756 5 -1 -2 -1 1316.58 1434.01 21.82 o
1756 4 1 2 1 1316.58 1434.01 21.82 o
1757 4 1 2 2 170.15 159.77 8.19 o
1758 4 -1 2 -3 26.97 20.56 1.98 o
1759 4 -1 2 -4 49.08 42.91 3.15 o
1760 4 -1 2 -5 0.95 3.40 1.21 <
1761 4 -1 2 -6 13.21 12.84 2.17 o
1762 4 1 3 -4 56.27 49.92 2.98 o
1763 4 1 3 -3 251.50 212.88 5.94 o
1764 4 1 3 -2 26.03 25.52 2.22 o
1765 4 1 3 -1 101.32 102.73 4.90 o
1766 5 -1 -3 -1 45.78 58.44 4.84 o
1766 4 1 3 1 45.78 58.44 4.84 o
1767 4 -1 3 -5 18.92 10.10 1.47 o
1768 4 -1 3 -6 7.05 5.25 1.30 o
1769 4 1 4 -4 68.04 72.73 3.30 o
1770 4 1 4 -3 31.40 27.14 2.13 o
1771 4 1 4 -2 281.58 257.80 8.41 o
1772 4 1 4 -1 34.50 37.77 3.45 o
1773 4 -2 -8 3 7.38 5.07 1.80 <
1774 4 -2 -8 2 1.77 -0.03 0.84 <
1775 4 -2 -8 1 33.70 25.52 4.78 o
1776 4 -2 -7 4 3.11 15.23 3.29 o
1777 4 -2 -7 3 24.71 14.19 3.30 o
1778 4 -2 -7 2 15.67 13.20 3.01 o
1779 4 -2 -7 1 0.45 2.55 2.14 <
1780 4 -2 -6 4 29.86 39.98 4.33 o
1781 4 -2 -6 3 22.19 13.89 2.56 o
1782 4 -2 -6 2 14.29 16.90 3.35 o
1783 4 -2 -6 1 61.63 57.60 6.22 o
1784 4 -2 -6 -1 18.49 18.34 3.77 o
1785 4 -2 -5 4 15.85 43.34 4.44 o
1786 4 -2 -5 3 59.31 68.19 6.07 o
1787 4 -2 -5 2 88.35 81.88 6.68 o
1788 4 -2 -5 1 36.40 34.84 4.45 o
1789 4 -2 -5 -1 59.50 82.04 7.86 o
1790 5 2 5 2 28.82 38.04 5.50 o
1790 4 -2 -5 -2 28.82 38.04 5.50 o
1791 4 2 -5 4 10.88 5.36 1.01 o
1792 4 -2 -4 3 82.04 78.38 5.96 o
1793 4 -2 -4 2 3.06 3.87 1.54 <
1794 4 -2 -4 1 336.55 334.31 13.28 o
1795 4 -2 -4 -1 68.74 95.15 8.04 o
1796 5 2 4 2 278.44 334.94 15.92 o
1796 4 -2 -4 -2 278.44 334.94 15.92 o
1797 4 2 -4 3 0.51 0.03 0.29 <
1798 4 -2 -4 -3 0.51 -0.60 1.12 <
1799 4 2 -4 4 24.81 15.68 1.83 o
1800 4 -2 -3 3 142.92 160.13 8.12 o
1801 4 -2 -3 2 292.92 310.57 11.59 o
1802 4 -2 -3 1 4.86 7.56 1.77 o
1803 4 -2 -3 -1 147.30 171.31 9.87 o
1804 5 2 3 2 27.30 27.52 4.04 o
1804 4 -2 -3 -2 27.30 27.52 4.04 o
1805 5 -2 3 -2 27.30 17.33 2.47 o
1805 4 2 -3 2 27.30 17.33 2.47 o
1806 4 2 -3 3 52.37 47.97 3.71 o
1807 4 -2 -3 -3 52.37 57.05 6.34 o
1808 4 2 -3 4 8.26 4.57 0.96 o
1809 4 -2 -3 -4 8.26 5.31 1.98 <
1810 4 -2 -2 2 57.30 49.79 4.37 o
1811 4 -2 -2 1 403.12 421.48 13.69 o
1812 4 -2 -2 -1 115.14 123.29 7.99 o
1813 5 2 2 2 166.59 190.27 10.08 o
1813 4 -2 -2 -2 166.59 190.27 10.08 o
1814 5 -2 2 -2 166.59 170.79 7.98 o
1814 4 2 -2 2 166.59 170.79 7.98 o
1815 4 2 -2 3 14.32 13.21 2.10 o
1816 4 -2 -2 -3 14.32 13.52 2.87 o
1817 4 2 -2 4 36.14 28.24 2.93 o
1818 4 -2 -2 -4 36.14 36.69 5.29 o
1819 4 -2 -2 -5 6.51 5.63 2.04 <
1820 4 -2 -1 1 417.72 378.43 12.27 o
1821 4 2 -1 1 150.49 157.28 7.75 o
1822 4 -2 -1 -1 150.49 156.94 8.53 o
1823 5 -2 1 -2 58.00 56.22 4.40 o
1823 4 2 -1 2 58.00 56.22 4.40 o
1824 5 2 1 2 58.00 55.73 4.98 o
1824 4 -2 -1 -2 58.00 55.73 4.98 o
1825 4 -2 -1 -3 31.80 37.67 4.43 o
1826 4 2 -1 3 31.80 32.89 3.51 o
1827 4 -2 -1 -4 20.41 19.66 3.36 o
1828 4 2 -1 4 20.41 16.69 2.74 o
1829 4 -2 -1 -5 3.00 2.26 0.92 <
1830 4 -2 0 -1 0.49 -0.24 0.37 <
1831 4 2 0 1 0.49 0.41 0.56 <
1832 5 -2 0 -2 215.96 235.33 9.64 o
1832 4 2 0 2 215.96 235.33 9.64 o
1833 5 2 0 2 215.96 234.04 9.82 o
1833 4 -2 0 -2 215.96 234.04 9.82 o
1834 4 -2 0 -3 1.10 1.40 0.70 <
1835 4 2 0 3 1.10 1.37 0.62 <
1836 4 2 0 4 2.78 3.18 1.35 <
1837 4 -2 0 -4 2.78 3.74 1.12 o
1838 4 -2 0 -5 11.60 14.32 3.07 o
1839 4 2 1 -1 417.14 363.12 12.21 o
1840 4 2 1 1 156.55 145.41 7.95 o
1841 4 -2 1 -1 156.55 155.44 7.51 o
1842 5 2 -1 2 58.00 51.35 4.41 o
1842 4 -2 1 -2 58.00 51.35 4.41 o
1843 5 -2 -1 -2 58.00 60.77 5.11 o
1843 4 2 1 2 58.00 60.77 5.11 o
1844 4 -2 1 -3 32.21 31.27 3.64 o
1845 4 2 1 3 32.21 32.33 4.01 o
1846 4 2 1 4 20.00 17.71 3.55 o
1847 4 -2 1 -4 20.00 17.17 2.85 o
1848 4 -2 1 -5 2.76 4.36 1.76 <
1849 4 2 2 -2 59.05 45.06 4.21 o
1850 4 2 2 -1 403.29 395.16 12.77 o
1851 4 2 2 1 110.31 124.52 7.83 o
1852 5 -2 -2 -2 166.59 181.24 9.33 o
1852 4 2 2 2 166.59 181.24 9.33 o
1853 4 -2 2 -3 13.91 11.68 2.13 o
1854 4 2 2 3 13.91 15.63 3.10 o
1855 4 -2 2 -4 36.85 27.81 3.22 o
1856 4 -2 2 -5 6.28 7.62 1.92 o
1857 4 2 3 -4 22.90 44.43 4.11 o
1858 4 2 3 -3 143.51 145.01 7.63 o
1859 4 2 3 -2 293.29 303.40 10.67 o
1860 4 2 3 -1 4.80 8.45 2.65 o
1861 4 2 3 1 146.61 162.83 9.11 o
1862 5 -2 -3 -2 27.30 28.27 3.89 o
1862 4 2 3 2 27.30 28.27 3.89 o
1863 4 2 3 3 53.26 57.32 6.58 o
1864 4 -2 3 -5 13.18 9.86 1.85 o
1865 4 2 4 -6 30.65 17.92 2.42 o
1866 4 2 4 -5 0.31 -2.22 2.25 <
1867 4 2 4 -4 124.94 155.68 7.12 o
1868 4 2 4 -3 80.54 68.23 5.01 o
1869 4 2 4 -2 2.45 4.14 1.24 o
1870 4 2 4 -1 336.59 305.16 11.69 o
1871 4 2 4 1 69.79 79.76 6.92 o
1872 5 -2 -4 -2 278.45 351.57 15.98 o
1872 4 2 4 2 278.45 351.57 15.98 o
1873 4 2 5 -6 10.98 8.80 1.55 o
1874 4 2 5 -5 36.84 31.29 2.91 o
1875 4 2 5 -4 15.38 37.06 3.60 o
1876 4 2 5 -3 59.55 51.74 4.48 o
1877 4 2 5 -2 88.69 69.31 5.43 o
1878 4 2 5 -1 36.54 30.42 3.68 o
1879 4 2 5 1 58.76 80.93 7.72 o
1880 4 2 6 -5 6.40 7.02 1.40 o
1881 4 2 6 -4 29.19 26.90 2.94 o
1882 4 2 6 -3 20.69 15.03 2.76 o
1883 4 2 6 -2 14.06 15.36 2.93 o
1884 4 2 6 -1 61.73 55.97 5.84 o
1885 4 2 7 -4 3.11 7.33 1.70 o
1886 4 2 7 -3 25.06 11.30 2.46 o
1887 4 2 7 -2 15.96 13.66 2.94 o
1888 4 -3 -8 2 3.97 2.15 0.97 <
1889 4 -3 -8 1 4.29 6.64 3.03 <
1890 4 -3 -7 4 34.06 65.94 8.11 o
1891 4 -3 -7 3 3.37 3.92 1.90 <
1892 4 -3 -7 2 8.80 9.04 3.28 <
1893 4 -3 -7 1 9.38 7.91 3.15 <
1894 4 -3 -7 -1 32.96 31.48 5.89 o
1895 4 -3 -6 4 0.90 3.23 2.16 <
1896 4 -3 -6 3 54.25 46.12 6.12 o
1897 4 -3 -6 2 10.95 6.30 2.52 <
1898 4 -3 -6 1 8.48 5.93 2.13 <
1899 4 -3 -6 -1 0.81 1.94 1.84 <
1900 4 -3 -6 -2 11.17 9.79 3.12 o
1901 4 -3 -5 4 17.05 17.55 3.28 o
1902 4 -3 -5 3 1.75 1.36 1.31 <
1903 4 -3 -5 2 61.71 66.01 7.15 o
1904 4 -3 -5 1 58.88 63.43 7.14 o
1905 4 -3 -5 -1 16.65 22.31 4.86 o
1906 4 -3 -5 -2 13.27 13.62 3.82 o
1907 4 3 -5 3 8.22 6.22 2.00 o
1908 4 -3 -5 -3 8.22 12.21 3.67 o
1909 4 -3 -4 3 47.39 37.75 5.07 o
1910 4 -3 -4 2 35.93 32.22 4.80 o
1911 4 -3 -4 1 34.10 30.34 4.73 o
1912 4 -3 -4 -1 4.40 3.28 1.52 <
1913 4 -3 -4 -2 4.65 5.03 1.71 <
1914 4 -3 -4 -3 18.60 48.18 6.87 o
1915 4 3 -4 3 18.60 36.32 4.48 o
1916 4 -3 -4 -4 0.07 -1.82 1.15 <
1917 4 3 -4 4 0.07 1.73 1.16 <
1918 4 -3 -3 3 20.87 22.06 3.82 o
1919 4 -3 -3 2 80.37 65.26 6.62 o
1920 4 -3 -3 1 59.82 70.58 7.08 o
1921 4 -3 -3 -1 13.97 13.81 3.22 o
1922 4 -3 -3 -2 35.87 45.07 6.13 o
1923 4 3 -3 2 35.87 35.25 4.32 o
1924 4 -3 -3 -3 6.72 14.81 3.68 o
1925 4 3 -3 3 6.72 11.45 2.59 o
1926 4 -3 -3 -4 11.35 20.34 4.65 o
1927 4 3 -3 4 11.35 12.88 2.50 o
1928 4 -3 -2 2 75.29 64.19 6.19 o
1929 4 -3 -2 1 68.55 76.00 8.09 o
1930 4 3 -2 1 0.13 -0.06 0.41 <
1931 4 -3 -2 -1 0.13 1.78 1.28 <
1932 4 3 -2 2 20.99 25.48 3.83 o
1933 4 -3 -2 -2 20.99 26.42 4.20 o
1934 4 3 -2 3 38.76 100.66 7.29 o
1935 4 -3 -2 -3 38.76 110.35 9.27 o
1936 4 -3 -2 -4 0.55 3.83 2.26 <
1937 4 3 -2 4 0.55 1.45 1.15 <
1938 4 -3 -1 1 107.79 80.87 7.18 o
1939 4 -3 -1 -1 104.11 118.53 8.68 o
1940 4 3 -1 1 104.11 97.29 7.72 o
1941 4 3 -1 2 32.47 41.08 4.79 o
1942 4 -3 -1 -2 32.47 42.36 5.30 o
1943 4 -3 -1 -3 9.90 21.10 3.80 o
1944 4 3 -1 3 9.90 23.30 3.56 o
1945 4 -3 -1 -4 6.83 16.34 3.60 o
1946 4 3 -1 4 6.83 14.32 3.14 o
1947 4 -3 -1 -5 2.37 4.70 2.14 <
1948 4 3 -1 5 2.37 4.48 1.65 <
1949 4 3 0 1 19.79 27.85 3.94 o
1950 4 -3 0 -1 19.79 26.27 3.87 o
1951 4 3 0 2 30.94 37.37 4.77 o
1952 4 -3 0 -2 30.94 34.22 4.52 o
1953 4 -3 0 -3 0.92 6.23 2.24 <
1954 4 3 0 3 0.92 4.41 1.80 <
1955 4 3 0 4 0.00 0.27 0.90 <
1956 4 -3 0 -4 0.00 -0.16 0.76 <
1957 4 3 0 5 11.43 16.09 3.60 o
1958 4 -3 0 -5 11.43 16.92 3.73 o
1959 4 3 1 -1 104.67 82.49 7.43 o
1960 4 3 1 1 103.24 104.94 7.93 o
1961 4 -3 1 -1 103.24 101.44 7.50 o
1962 4 3 1 2 30.95 46.72 5.51 o
1963 4 -3 1 -2 30.95 37.28 4.69 o
1964 4 -3 1 -3 10.27 18.38 3.37 o
1965 4 3 1 3 10.27 24.20 3.92 o
1966 4 3 1 4 6.92 13.37 3.00 o
1967 4 -3 1 -4 6.92 12.52 3.01 o
1968 4 -3 1 -5 2.33 4.79 1.92 <
1969 4 3 1 5 2.33 5.31 2.53 <
1970 4 3 2 -3 102.19 87.35 7.01 o
1971 4 3 2 -2 71.56 66.17 6.28 o
1972 4 3 2 -1 71.89 55.42 6.32 o
1973 4 3 2 1 0.20 0.84 1.26 <
1974 4 3 2 2 21.20 27.72 4.25 o
1975 4 -3 2 -3 38.14 76.75 6.87 o
1976 4 3 2 3 38.14 113.84 8.90 o
1977 4 3 2 4 0.55 0.14 0.12 <
1978 4 -3 2 -4 0.55 4.38 1.92 <
1979 4 3 3 -4 11.42 9.62 2.35 o
1980 4 3 3 -3 20.58 19.27 3.34 o
1981 4 3 3 -2 80.68 58.49 5.97 o
1982 4 3 3 -1 59.64 63.68 6.23 o
1983 4 3 3 1 12.89 15.27 3.34 o
1984 4 3 3 2 35.53 44.19 5.70 o
1985 4 3 3 3 7.04 13.06 3.37 o
1986 4 3 3 4 11.19 25.56 5.25 o
1987 4 3 4 -6 19.21 10.58 2.26 o
1988 4 3 4 -5 7.52 4.82 1.75 <
1989 4 3 4 -4 3.44 -2.59 1.14 <
1990 4 3 4 -3 47.19 34.48 4.47 o
1991 4 3 4 -2 36.80 29.55 4.21 o
1992 4 3 4 -1 33.25 31.41 4.69 o
1993 4 3 4 1 4.34 5.32 2.10 <
1994 4 3 4 2 4.58 9.93 3.14 o
1995 4 3 4 3 18.80 46.52 6.54 o
1996 4 3 4 4 0.08 1.66 1.84 <
1997 4 3 5 -6 8.44 4.52 1.50 o
1998 4 3 5 -5 12.56 7.72 2.18 o
1999 4 3 5 -4 15.87 15.41 2.92 o
2000 4 3 5 -3 1.85 1.42 0.93 <
2001 4 3 5 -2 61.07 53.15 5.89 o
2002 4 3 5 -1 59.57 53.49 6.01 o
2003 4 3 5 1 17.67 15.74 3.46 o
2004 4 3 5 2 13.80 14.24 3.83 o
2005 4 3 5 3 7.88 18.68 4.55 o
2006 4 3 6 -5 12.72 9.10 2.29 o
2007 4 3 6 -4 0.85 3.48 1.82 <
2008 4 3 6 -3 54.50 39.01 4.92 o
2009 4 3 6 -2 11.95 4.20 1.78 <
2010 4 3 6 -1 7.57 6.53 2.34 <
2011 4 3 6 1 0.86 5.44 2.81 <
2012 4 3 6 2 11.07 12.78 3.91 o
2013 4 3 7 -4 34.43 41.74 5.25 o
2014 4 3 7 -3 3.35 2.34 1.78 <
2015 4 3 7 -2 8.51 6.08 2.54 <
2016 4 3 7 -1 9.58 5.76 2.45 <
2017 4 3 7 1 32.88 36.85 6.44 o
2018 4 3 8 -2 3.62 6.63 2.66 <
2019 4 3 8 -1 4.64 7.22 3.05 <
2020 4 -4 -7 3 11.36 12.94 4.62 <
2021 4 -4 -7 2 0.36 1.41 1.30 <
2022 4 -4 -7 1 11.98 11.56 3.88 <
2023 4 -4 -6 5 11.35 15.45 3.82 o
2024 4 -4 -6 4 8.70 17.11 4.79 o
2025 4 -4 -6 3 1.58 0.78 0.84 <
2026 4 -4 -6 2 15.15 14.39 4.29 o
2027 4 -4 -6 1 2.86 2.59 2.06 <
2028 4 -4 -6 -1 13.72 14.62 4.42 o
2029 4 -4 -5 4 8.25 5.54 2.87 <
2030 4 -4 -5 3 16.20 14.81 3.75 o
2031 4 -4 -5 2 0.72 2.01 1.81 <
2032 4 -4 -5 1 14.41 13.09 3.85 o
2033 4 -4 -5 -1 1.89 3.73 1.98 <
2034 4 -4 -5 -2 6.19 6.72 2.89 <
2035 4 -4 -4 4 1.32 -0.34 0.58 <
2036 4 -4 -4 3 1.17 1.65 1.59 <
2037 4 -4 -4 2 50.44 64.05 7.68 o
2038 4 -4 -4 1 1.39 1.00 0.94 <
2039 4 -4 -4 -1 6.57 8.05 3.01 <
2040 4 -4 -4 -2 1.39 3.81 2.45 <
2041 4 -4 -4 -3 3.52 1.93 0.69 <
2042 4 4 -4 3 3.52 2.47 1.33 <
2043 4 -4 -3 3 23.38 18.07 3.90 o
2044 4 -4 -3 2 0.31 0.87 1.00 <
2045 4 -4 -3 1 19.30 18.73 4.09 o
2046 4 -4 -3 -1 1.60 3.80 2.37 <
2047 4 4 -3 2 9.21 7.12 2.64 <
2048 4 -4 -3 -2 9.21 10.71 3.53 o
2049 4 4 -3 3 4.69 3.99 1.90 <
2050 4 -4 -3 -3 4.69 10.71 3.46 o
2051 4 -4 -2 2 79.19 67.60 7.63 o
2052 4 -4 -2 1 9.22 6.40 2.12 o
2053 4 4 -2 1 17.76 8.04 2.49 o
2054 4 -4 -2 -1 17.76 13.48 3.41 o
2055 4 4 -2 2 0.58 -0.53 1.65 <
2056 4 -4 -2 -2 0.58 0.21 0.83 <
2057 4 4 -2 3 4.68 6.42 2.34 <
2058 4 -4 -2 -3 4.68 10.84 3.78 <
2059 4 -4 -1 1 48.65 37.41 5.74 o
2060 4 -4 -1 -1 6.33 6.70 2.56 <
2061 4 4 -1 1 6.33 5.73 2.24 <
2062 4 4 -1 2 8.81 11.42 2.98 o
2063 4 -4 -1 -2 8.81 11.42 3.41 o
2064 4 4 -1 3 2.96 3.60 1.86 <
2065 4 -4 -1 -3 2.96 4.12 1.77 <
2066 4 4 0 1 66.70 77.13 7.94 o
2067 4 -4 0 -1 66.70 77.35 7.85 o
2068 4 4 0 2 0.49 0.86 0.91 <
2069 4 -4 0 -2 0.49 1.92 1.49 <
2070 4 4 0 3 4.67 11.13 3.30 o
2071 4 -4 0 -3 4.67 9.40 3.01 o
2072 4 4 1 -1 48.27 33.66 5.31 o
2073 4 4 1 1 6.43 10.41 3.14 o
2074 4 -4 1 -1 6.43 19.38 4.14 o
2075 4 4 1 2 8.63 13.21 3.73 o
2076 4 -4 1 -2 8.63 8.07 2.75 <
2077 4 -4 1 -3 3.18 9.01 3.05 <
2078 4 4 1 3 3.18 5.68 2.62 <
2079 4 4 2 -2 78.89 61.83 7.35 o
2080 4 4 2 -1 9.73 7.61 2.74 <
2081 4 4 2 1 17.23 13.75 3.41 o
2082 4 4 2 2 0.57 4.56 2.57 <
2083 4 4 2 3 4.84 11.62 3.60 o
2084 4 -4 2 -3 4.84 7.69 2.84 <
2085 4 4 3 -4 5.33 1.27 1.13 <
2086 4 4 3 -3 22.30 19.42 4.08 o
2087 4 4 3 -2 0.31 2.23 1.67 <
2088 4 4 3 -1 20.29 17.19 3.88 o
2089 4 4 3 1 1.48 2.00 1.35 <
2090 4 4 3 2 9.28 12.29 3.59 o
2091 4 4 3 3 4.68 10.24 3.74 <
2092 4 4 4 -5 5.22 4.67 1.90 <
2093 4 4 4 -4 1.28 -1.39 1.22 <
2094 4 4 4 -3 1.33 0.94 1.29 <
2095 4 4 4 -2 50.63 52.89 6.57 o
2096 4 4 4 -1 1.26 0.31 1.06 <
2097 4 4 4 1 6.90 11.73 3.41 o
2098 4 4 4 2 1.41 1.17 1.55 <
2099 4 4 4 3 3.43 5.31 2.70 <
2100 4 4 5 -6 6.48 3.40 1.12 o
2101 4 4 5 -5 3.93 4.31 1.96 <
2102 4 4 5 -4 8.45 4.45 2.10 <
2103 4 4 5 -3 17.10 11.43 3.12 o
2104 4 4 5 -2 0.70 1.60 1.76 <
2105 4 4 5 -1 13.67 13.37 3.67 o
2106 4 4 5 1 1.97 3.85 1.83 <
2107 4 4 5 2 6.18 13.38 4.30 o
2108 4 4 6 -5 11.40 11.51 3.18 o
2109 4 4 6 -4 8.75 5.36 2.63 <
2110 4 4 6 -3 1.70 2.64 1.89 <
2111 4 4 6 -2 15.16 12.24 3.56 o
2112 4 4 6 -1 2.75 4.95 2.52 <
2113 4 4 6 1 13.69 16.17 4.32 o
2114 4 4 7 -3 11.22 8.55 3.11 <
2115 4 4 7 -2 0.36 -0.07 1.01 <
2116 4 4 7 -1 12.07 8.79 2.93 <
2117 4 -5 -6 4 6.43 8.74 3.70 <
2118 4 -5 -6 3 1.84 4.08 2.52 <
2119 4 -5 -6 2 1.02 2.44 1.68 <
2120 4 -5 -6 1 5.63 3.68 2.46 <
2121 4 -5 -5 4 0.85 0.66 1.62 <
2122 4 -5 -5 3 7.39 11.13 4.09 <
2123 4 -5 -5 2 6.73 12.18 4.08 <
2124 4 -5 -5 1 0.24 2.56 2.44 <
2125 4 -5 -4 4 10.39 10.65 2.96 o
2126 4 -5 -4 3 3.18 4.41 2.80 <
2127 4 -5 -4 2 0.87 1.39 1.57 <
2128 4 -5 -4 1 9.93 10.61 3.56 <
2129 4 -5 -4 -1 4.12 7.64 3.03 <
2130 4 -5 -3 3 20.44 21.58 4.93 o
2131 4 -5 -3 2 21.42 18.96 5.43 o
2132 4 -5 -3 1 0.24 1.93 2.00 <
2133 4 -5 -3 -1 2.25 2.45 1.30 <
2134 4 5 -3 2 1.11 1.21 1.15 <
2135 4 -5 -3 -2 1.11 3.02 2.27 <
2136 4 -5 -2 2 3.22 5.93 2.84 <
2137 4 -5 -2 1 16.89 15.10 3.83 o
2138 4 -5 -2 -1 3.00 1.61 1.22 <
2139 4 5 -2 1 3.00 2.00 1.63 <
2140 4 -5 -2 -2 2.60 3.00 2.46 <
2141 4 5 -2 2 2.60 2.91 1.90 <
2142 4 -5 -1 1 0.99 2.19 2.26 <
2143 4 5 -1 1 4.08 4.24 2.34 <
2144 4 -5 -1 -1 4.08 4.40 2.55 <
2145 4 -5 -1 -2 2.28 0.92 0.73 <
2146 4 5 -1 2 2.28 1.06 0.47 <
2147 4 5 0 1 0.41 -8.13 4.74 <
2148 4 5 0 2 1.56 2.28 1.94 <
2149 4 -5 0 -2 1.56 3.96 2.19 <
2150 4 5 1 -1 0.99 0.30 0.59 <
2151 4 5 1 1 4.11 3.42 2.22 <
2152 4 5 1 2 2.17 3.24 1.91 <
2153 4 -5 1 -2 2.17 0.52 1.27 <
2154 4 5 2 -2 3.07 2.06 1.76 <
2155 4 5 2 -1 17.36 18.17 4.71 o
2156 4 5 2 1 2.86 3.07 2.15 <
2157 4 5 2 2 2.70 4.96 2.86 <
2158 4 5 3 -4 0.67 -0.13 0.32 <
2159 4 5 3 -3 20.13 17.29 4.08 o
2160 4 5 3 -2 21.74 16.92 4.29 o
2161 4 5 3 -1 0.24 3.39 2.32 <
2162 4 5 3 1 2.26 2.42 2.04 <
2163 4 5 3 2 1.12 0.38 0.82 <
2164 4 5 4 -5 0.16 -0.48 1.16 <
2165 4 5 4 -4 10.62 5.53 1.88 <
2166 4 5 4 -3 3.16 1.73 0.79 <
2167 4 5 4 -2 0.87 2.21 1.65 <
2168 4 5 4 -1 9.71 9.74 3.46 <
2169 4 5 4 1 4.19 9.98 3.75 <
2170 4 5 5 -5 4.32 2.53 1.72 <
2171 4 5 5 -4 0.84 -1.55 1.67 <
2172 4 5 5 -3 7.74 5.72 2.57 <
2173 4 5 5 -2 6.38 6.43 2.90 <
2174 4 5 5 -1 0.24 4.31 2.61 <
2175 4 5 6 -4 6.46 6.82 2.76 <
2176 4 5 6 -3 1.67 1.48 0.48 o
2177 4 5 6 -2 1.13 3.02 1.97 <
2178 4 5 6 -1 5.60 4.16 1.79 <
2179 4 -6 -4 3 4.85 3.54 2.17 <
2180 4 -6 -4 2 1.63 -0.06 1.20 <
2181 4 -6 -4 1 0.60 2.67 2.72 <
2182 4 -6 -3 3 0.11 -0.21 1.52 <
2183 4 -6 -3 2 2.36 0.82 0.98 <
2184 4 -6 -3 1 2.26 1.20 1.14 <
2185 4 -6 -2 2 0.19 1.47 2.12 <
2186 4 -6 -2 1 1.21 0.27 0.92 <
2187 4 -6 -1 1 1.49 0.96 1.50 <
2188 4 6 1 -1 1.45 1.17 0.24 o
2189 4 6 2 -2 0.16 -0.45 1.45 <
2190 4 6 2 -1 1.30 0.53 0.85 <
2191 4 6 3 -3 0.11 1.06 1.68 <
2192 4 6 3 -2 2.40 1.19 1.65 <
2193 4 6 3 -1 2.20 5.02 2.75 <
2194 4 6 4 -4 1.35 2.36 1.92 <
2195 4 6 4 -3 4.84 -3.76 3.55 <
2196 4 6 4 -2 1.63 -0.76 1.34 <
2197 4 6 4 -1 0.57 1.17 1.34 <
2198 5 0 -7 -3 21.81 16.41 4.18 o
2199 5 0 -7 -4 65.79 87.02 10.21 o
2200 5 0 -6 -2 45.48 35.70 5.08 o
2201 5 0 -6 -3 49.42 30.58 5.08 o
2202 5 0 -6 -4 5.63 4.05 1.93 <
2203 5 0 -6 -5 30.14 25.95 5.76 o
2204 5 0 -5 -2 116.87 120.06 8.87 o
2205 5 0 -5 -3 3.71 2.05 1.82 <
2206 5 0 -5 -4 16.27 10.72 3.61 <
2207 5 0 -5 -5 4.00 10.43 3.98 <
2208 5 0 -5 -6 7.37 5.13 3.20 <
2209 5 0 -4 -2 18.74 23.62 3.48 o
2210 5 0 -4 -3 153.07 146.42 10.68 o
2211 5 0 -4 -4 1.83 0.54 1.17 <
2212 5 0 -4 -5 3.13 1.08 1.46 <
2213 5 0 -4 -6 21.00 14.07 4.52 o
2214 5 0 -3 -1 22.97 28.85 3.52 o
2215 5 0 -3 -2 382.94 400.13 14.87 o
2216 5 0 -3 -3 17.31 5.52 2.03 <
2217 5 0 -3 -4 7.31 9.17 2.99 o
2218 5 0 -3 -5 10.44 7.68 3.03 <
2219 5 0 -3 -6 1.37 3.82 3.00 <
2220 5 0 -2 -1 2.45 0.79 0.34 <
2221 5 0 -2 -2 258.78 205.50 9.53 o
2222 5 0 -2 -3 210.31 204.85 11.91 o
2223 5 0 -2 -4 7.58 4.59 2.09 <
2224 5 0 -2 -5 42.61 29.13 5.73 o
2225 5 0 -2 -6 14.23 9.00 4.20 <
2226 5 0 -2 -7 0.68 -3.03 2.96 <
2227 5 0 -1 -1 760.43 724.79 12.72 o
2228 5 0 -1 -2 111.20 117.77 7.30 o
2229 5 0 -1 -3 70.25 54.21 6.37 o
2230 5 0 -1 -4 206.87 197.40 13.66 o
2231 5 0 -1 -5 41.73 29.50 5.80 o
2232 5 0 -1 -6 21.04 10.56 4.07 <
2233 5 0 -1 -7 5.11 3.02 2.24 <
2234 5 0 0 1 200.57 150.27 5.58 o
2235 5 0 0 -1 200.57 149.69 5.57 o
2236 5 0 0 2 1.98 3.29 1.19 <
2237 5 0 0 -2 1.98 3.23 1.22 <
2238 5 0 0 3 176.33 131.02 10.11 o
2239 5 0 0 -3 176.33 129.43 9.94 o
2240 5 0 0 -4 0.68 2.75 2.16 <
2241 5 0 0 4 0.68 4.73 2.67 <
2242 5 0 0 -5 115.70 65.86 8.72 o
2243 5 0 0 -6 7.44 4.29 2.91 <
2244 5 0 1 1 760.23 733.28 13.03 o
2245 5 0 1 2 110.83 104.32 6.98 o
2246 5 0 1 3 70.35 55.18 6.63 o
2247 5 0 1 4 206.86 201.53 14.30 o
2248 5 0 1 5 41.81 38.61 7.99 o
2249 5 0 1 6 20.99 10.76 4.14 <
2250 5 0 1 7 5.04 5.25 3.93 <
2251 5 0 2 1 2.29 0.65 0.34 <
2252 5 0 2 2 258.92 204.52 9.94 o
2253 5 0 2 3 210.24 203.52 12.49 o
2254 5 0 2 4 7.56 5.39 2.49 <
2255 5 0 2 5 42.40 25.57 5.69 o
2256 5 0 2 6 14.21 7.92 3.63 <
2257 5 0 2 7 0.68 0.91 1.94 <
2258 5 0 3 1 23.31 27.22 3.54 o
2259 5 0 3 2 382.80 361.11 14.13 o
2260 5 0 3 3 17.38 6.58 2.48 <
2261 5 0 3 4 7.20 8.53 3.30 <
2262 5 0 3 5 10.46 7.66 3.26 <
2263 5 0 3 6 1.37 -1.57 1.76 <
2264 5 0 4 1 1.51 2.22 1.31 <
2265 5 0 4 2 18.86 21.73 3.77 o
2266 5 0 4 3 152.97 134.38 10.36 o
2267 5 0 4 4 1.83 0.28 0.69 <
2268 5 0 4 5 3.12 0.54 1.59 <
2269 5 0 4 6 21.04 13.01 4.68 <
2270 5 0 5 2 116.88 118.89 9.48 o
2271 5 0 5 3 3.66 1.59 1.69 <
2272 5 0 5 4 16.28 9.09 3.45 <
2273 5 0 5 5 4.03 8.46 4.03 <
2274 5 0 5 6 7.40 5.23 3.18 <
2275 5 0 6 2 45.06 41.24 5.79 o
2276 5 0 6 3 49.53 30.47 5.31 o
2277 5 0 6 4 5.60 4.73 2.83 <
2278 5 0 6 5 30.13 23.87 6.41 o
2279 5 0 7 2 11.85 3.73 1.91 <
2280 5 0 7 3 21.78 14.59 4.14 o
2281 5 0 7 4 65.90 81.85 10.72 o
2282 5 0 8 3 33.12 29.69 5.76 o
2283 5 1 -8 -3 8.70 7.15 3.08 <
2284 5 1 -7 -4 17.56 13.59 3.72 o
2285 5 1 -7 -3 12.17 8.26 3.01 <
2286 5 -1 -7 -3 19.52 15.70 4.28 o
2287 5 1 -6 -5 38.14 32.57 6.11 o
2288 5 1 -6 -4 18.39 36.92 6.28 o
2289 5 1 -6 -3 24.76 21.47 4.09 o
2290 5 1 -6 -2 100.98 101.27 8.09 o
2291 5 -1 -6 -3 17.53 127.03 17.10 o
2292 5 -1 -6 -4 37.29 39.87 6.66 o
2293 5 1 -5 -6 16.01 12.51 4.30 <
2294 5 1 -5 -5 14.07 7.10 3.00 <
2295 5 1 -5 -4 53.23 58.86 7.41 o
2296 5 1 -5 -3 97.27 108.75 8.89 o
2297 5 1 -5 -2 47.62 33.34 3.95 o
2298 5 -1 -5 -2 96.90 107.37 9.30 o
2299 5 -1 -5 -3 50.91 44.65 6.03 o
2300 5 -1 -5 -4 11.88 4.92 2.38 <
2301 5 -1 -5 -5 12.52 17.36 4.84 o
2302 5 1 -4 -6 0.44 1.42 1.50 <
2303 5 1 -4 -5 10.99 12.22 3.75 o
2304 5 1 -4 -4 67.49 153.84 11.68 o
2305 5 1 -4 -3 30.94 34.77 4.78 o
2306 5 1 -4 -2 284.37 319.31 12.87 o
2307 5 1 -4 -1 35.90 36.13 3.38 o
2308 5 -1 -4 -2 34.80 37.12 4.86 o
2309 5 -1 -4 -3 59.22 58.38 7.00 o
2310 5 -1 -4 -4 8.93 13.11 3.83 o
2311 5 -1 -4 -5 0.80 -0.32 0.17 <
2312 5 1 -3 -7 5.66 1.73 1.56 <
2313 5 1 -3 -6 18.84 15.83 4.72 o
2314 5 1 -3 -5 22.83 14.28 3.78 o
2315 5 1 -3 -4 58.51 69.31 7.47 o
2316 5 1 -3 -3 252.16 253.08 12.55 o
2317 5 1 -3 -2 25.58 27.27 3.31 o
2318 5 1 -3 -1 102.16 104.29 5.04 o
2319 5 -1 -3 -1 45.78 54.18 5.04 o
2319 4 1 3 1 45.78 54.18 5.04 o
2320 5 -1 -3 -2 252.42 249.22 12.21 o
2321 5 -1 -3 -3 58.39 67.03 7.26 o
2322 5 -1 -3 -4 16.69 14.66 3.91 o
2323 5 -1 -3 -5 19.32 13.94 4.32 o
2324 5 -1 -3 -6 7.00 4.07 3.07 <
2325 5 1 -2 -7 13.52 5.37 3.25 <
2326 5 1 -2 -6 0.61 2.07 1.75 <
2327 5 1 -2 -5 45.22 36.60 6.41 o
2328 5 1 -2 -4 36.44 75.30 8.47 o
2329 5 1 -2 -3 165.83 164.84 10.28 o
2330 5 1 -2 -2 640.83 703.62 17.29 o
2331 5 1 -2 -1 10.66 7.35 1.09 o
2332 5 -1 -2 -1 1316.58 1431.77 23.58 o
2332 4 1 2 1 1316.58 1431.77 23.58 o
2333 5 -1 -2 -2 166.81 179.09 10.06 o
2334 5 -1 -2 -3 26.36 26.49 4.34 o
2335 5 -1 -2 -4 47.85 38.62 5.98 o
2336 5 -1 -2 -5 0.95 2.51 2.29 <
2337 5 -1 -2 -6 13.55 6.82 3.33 <
2338 5 1 -1 -6 34.03 14.52 4.39 o
2339 5 1 -1 -5 37.37 20.99 4.75 o
2340 5 1 -1 -4 109.88 97.57 9.36 o
2341 5 1 -1 -3 63.71 54.23 6.10 o
2342 5 1 -1 -2 217.84 241.29 10.33 o
2343 5 1 -1 -1 564.28 585.47 10.88 o
2344 5 1 -1 1 483.45 537.75 11.44 o
2344 4 -1 1 -1 483.45 537.75 11.44 o
2345 5 -1 -1 -1 483.45 534.84 13.38 o
2345 4 1 1 1 483.45 534.84 13.38 o
2346 5 1 -1 2 68.36 53.82 4.86 o
2347 5 -1 -1 -2 68.36 53.92 5.10 o
2348 5 -1 -1 -3 103.61 94.10 7.84 o
2349 5 1 -1 3 103.61 78.38 7.57 o
2350 5 -1 -1 -4 34.06 31.44 5.14 o
2351 5 -1 -1 -5 32.23 23.45 5.24 o
2352 5 -1 -1 -6 3.26 2.74 1.93 <
2353 5 1 0 1 169.88 208.67 7.20 o
2353 4 -1 0 -1 169.88 208.67 7.20 o
2354 5 -1 0 -1 169.88 207.03 7.08 o
2354 4 1 0 1 169.88 207.03 7.08 o
2355 5 -1 0 -2 1.37 0.71 0.77 <
2356 5 1 0 2 1.37 0.56 0.43 <
2357 5 1 0 3 144.41 119.75 9.44 o
2358 5 -1 0 -3 144.41 121.21 8.91 o
2359 5 -1 0 -4 146.55 124.20 11.07 o
2360 5 1 0 4 146.55 118.63 11.29 o
2361 5 -1 0 -5 3.35 4.60 2.33 <
2362 5 1 0 5 3.35 4.55 2.65 <
2363 5 1 0 6 9.79 6.41 3.53 <
2364 5 -1 0 -6 9.79 0.10 1.19 <
2365 5 -1 1 5 36.03 25.70 5.29 o
2366 5 -1 1 4 108.77 104.85 9.99 o
2367 5 -1 1 3 67.94 52.23 5.98 o
2368 5 -1 1 2 220.59 231.29 10.04 o
2369 5 -1 1 1 565.16 571.72 10.89 o
2370 5 -1 1 -1 483.44 511.11 10.49 o
2370 4 1 -1 1 483.44 511.11 10.49 o
2371 5 1 1 1 483.44 507.44 13.00 o
2371 4 -1 -1 -1 483.44 507.44 13.00 o
2372 5 1 1 2 64.17 59.26 5.64 o
2373 5 -1 1 -2 64.17 56.04 4.97 o
2374 5 1 1 3 104.63 91.66 8.08 o
2375 5 -1 1 -3 104.63 72.27 6.96 o
2376 5 1 1 4 35.25 22.41 4.37 o
2377 5 -1 1 -4 35.25 16.97 3.74 o
2378 5 -1 1 -5 33.27 18.61 4.62 o
2379 5 1 1 5 33.27 23.22 5.50 o
2380 5 -1 1 -6 3.54 4.48 3.00 <
2381 5 1 1 6 3.54 4.60 2.63 <
2382 5 -1 2 7 13.83 6.72 3.40 <
2383 5 -1 2 6 0.61 2.69 2.39 <
2384 5 -1 2 5 44.00 38.43 6.93 o
2385 5 -1 2 4 35.81 75.51 8.78 o
2386 5 -1 2 3 162.16 163.61 10.79 o
2387 5 -1 2 2 641.22 646.75 17.18 o
2388 5 -1 2 1 12.22 5.84 1.19 o
2389 5 1 2 1 1316.57 1434.01 24.64 o
2389 4 -1 -2 -1 1316.57 1434.01 24.64 o
2390 5 1 2 2 170.80 156.20 9.30 o
2391 5 1 2 3 27.08 25.38 4.32 o
2392 5 1 2 4 49.26 45.82 6.83 o
2393 5 1 2 5 0.95 1.98 1.89 <
2394 5 1 2 6 13.26 6.89 3.66 <
2395 5 -1 3 7 5.59 5.60 3.81 <
2396 5 -1 3 6 19.17 15.20 4.84 o
2397 5 -1 3 5 22.79 15.60 4.75 o
2398 5 -1 3 4 56.49 69.90 8.28 o
2399 5 -1 3 3 252.46 252.86 13.39 o
2400 5 -1 3 2 26.13 28.20 3.55 o
2401 5 -1 3 1 101.71 107.18 5.74 o
2402 5 1 3 1 45.77 49.44 4.82 o
2402 4 -1 -3 -1 45.77 49.44 4.82 o
2403 5 1 3 2 252.41 242.10 12.57 o
2404 5 1 3 3 60.40 60.85 6.82 o
2405 5 1 3 4 16.70 14.73 4.29 o
2406 5 1 3 5 18.99 12.51 4.60 <
2407 5 1 3 6 7.08 3.79 2.39 <
2408 5 -1 4 6 0.45 -0.24 1.66 <
2409 5 -1 4 5 11.63 8.70 3.43 <
2410 5 -1 4 4 68.30 156.74 12.69 o
2411 5 -1 4 3 31.52 34.73 5.23 o
2412 5 -1 4 2 282.67 307.57 12.95 o
2413 5 -1 4 1 34.64 37.10 3.98 o
2414 5 1 4 2 33.97 36.58 5.21 o
2415 5 1 4 3 58.32 53.47 6.88 o
2416 5 1 4 4 8.54 13.56 4.12 o
2417 5 1 4 5 0.79 4.42 3.18 <
2418 5 -1 5 6 16.01 12.37 4.73 <
2419 5 -1 5 5 14.57 6.42 3.15 <
2420 5 -1 5 4 54.81 55.58 7.87 o
2421 5 -1 5 3 96.29 109.89 9.44 o
2422 5 -1 5 2 46.72 36.52 4.50 o
2423 5 -1 5 1 81.36 94.54 7.10 o
2424 5 1 5 2 97.88 110.65 9.96 o
2425 5 1 5 3 49.11 43.97 6.35 o
2426 5 1 5 4 11.48 7.53 3.39 <
2427 5 1 5 5 12.58 15.30 4.64 o
2428 5 -1 6 5 38.47 40.69 7.86 o
2429 5 -1 6 4 17.97 38.34 6.81 o
2430 5 -1 6 3 25.93 20.71 4.43 o
2431 5 -1 6 2 102.88 102.28 8.82 o
2432 5 -1 6 1 20.75 28.17 4.03 o
2433 5 1 6 2 23.85 26.04 4.87 o
2434 5 1 6 3 17.91 124.08 17.24 o
2435 5 1 6 4 36.97 36.28 7.01 o
2436 5 -1 7 4 17.57 14.14 4.18 o
2437 5 -1 7 3 12.28 9.21 3.21 <
2438 5 -1 7 2 0.51 1.08 1.49 <
2439 5 1 7 3 19.61 8.58 3.69 <
2440 5 -1 8 3 8.20 7.14 2.93 <
2441 5 -1 8 2 34.37 23.07 4.95 o
2442 5 2 -8 -3 7.41 5.96 2.94 <
2443 5 2 -7 -4 3.12 14.49 4.09 o
2444 5 2 -7 -3 24.80 14.79 3.41 o
2445 5 2 -6 -5 6.56 8.49 3.36 <
2446 5 2 -6 -4 29.98 39.45 6.07 o
2447 5 2 -6 -3 22.27 15.74 3.28 o
2448 5 2 -6 -2 14.35 16.89 3.12 o
2449 5 -2 -6 -3 5.89 10.20 3.52 <
2450 5 2 -5 -6 11.35 8.91 3.22 <
2451 5 2 -5 -5 35.97 41.32 6.71 o
2452 5 2 -5 -4 15.91 44.90 6.01 o
2453 5 2 -5 -3 59.54 63.75 6.22 o
2454 5 2 -5 -2 88.69 77.19 5.69 o
2455 5 -2 -5 -3 35.72 48.85 7.10 o
2456 5 -2 -5 -4 10.92 14.56 4.48 o
2457 5 2 -4 -7 8.64 6.39 3.33 <
2458 5 2 -4 -6 30.81 19.73 4.81 o
2459 5 2 -4 -5 0.35 1.84 2.23 <
2460 5 2 -4 -4 124.75 182.46 11.93 o
2461 5 2 -4 -3 82.36 73.20 6.54 o
2462 5 2 -4 -2 3.07 4.97 1.55 o
2463 5 2 -4 -1 337.84 271.71 8.58 o
2464 5 -2 -4 -2 278.45 335.24 16.76 o
2464 4 2 4 2 278.45 335.24 16.76 o
2465 5 -2 -4 -3 0.52 1.31 1.67 <
2466 5 -2 -4 -4 24.90 30.64 6.07 o
2467 5 -2 -4 -5 9.04 14.64 4.89 <
2468 5 2 -3 -7 13.55 7.10 3.13 <
2469 5 2 -3 -6 9.58 3.72 2.24 <
2470 5 2 -3 -5 52.65 60.45 8.07 o
2471 5 2 -3 -4 22.70 56.93 7.19 o
2472 5 2 -3 -3 143.47 149.45 9.43 o
2473 5 2 -3 -2 294.04 300.27 10.44 o
2474 5 2 -3 -1 4.88 7.51 1.09 o
2475 5 -2 -3 -2 27.30 27.29 4.32 o
2475 4 2 3 2 27.30 27.29 4.32 o
2476 5 -2 -3 -3 52.57 63.87 7.37 o
2477 5 -2 -3 -4 8.29 11.79 4.06 <
2478 5 -2 -3 -5 13.36 9.15 3.46 <
2479 5 2 -2 -6 45.65 22.88 5.19 o
2480 5 2 -2 -5 9.07 10.81 3.14 o
2481 5 2 -2 -4 74.79 90.33 8.65 o
2482 5 2 -2 -3 118.12 105.70 8.38 o
2483 5 2 -2 -2 57.52 44.70 4.24 o
2484 5 2 -2 -1 404.66 343.22 7.64 o
2485 5 -2 -2 -1 115.58 120.46 7.87 o
2486 5 -2 -2 -2 166.59 182.77 10.48 o
2486 4 2 2 2 166.59 182.77 10.48 o
2487 5 -2 -2 -3 14.38 18.83 4.05 o
2488 5 -2 -2 -4 36.28 39.91 6.13 o
2489 5 -2 -2 -5 6.54 7.00 3.24 <
2490 5 2 -1 1 151.07 168.18 6.81 o
2491 5 -2 -1 -1 151.07 167.24 8.19 o
2492 5 2 -1 2 58.00 54.09 5.24 o
2492 4 -2 1 -2 58.00 54.09 5.24 o
2493 5 -2 -1 -2 58.00 63.98 5.97 o
2493 4 2 1 2 58.00 63.98 5.97 o
2494 5 -2 -1 -3 31.92 35.45 5.01 o
2495 5 2 -1 3 31.92 26.29 4.34 o
2496 5 -2 -1 -4 20.49 17.65 3.95 o
2497 5 2 -1 4 20.49 13.17 3.80 o
2498 5 -2 -1 -5 3.02 2.16 2.26 <
2499 5 2 -1 5 3.02 2.57 2.46 <
2500 5 -2 0 -1 0.49 0.63 0.56 <
2501 5 2 0 1 0.49 0.44 0.05 o
2502 5 2 0 2 215.96 234.35 11.00 o
2502 4 -2 0 -2 215.96 234.35 11.00 o
2503 5 -2 0 -2 215.96 232.49 10.49 o
2503 4 2 0 2 215.96 232.49 10.49 o
2504 5 2 0 3 1.11 2.45 1.83 <
2505 5 -2 0 -3 1.11 3.02 1.74 <
2506 5 -2 0 -4 2.79 4.01 1.57 <
2507 5 2 0 4 2.79 3.66 2.28 <
2508 5 -2 0 -5 11.65 8.93 3.61 <
2509 5 2 0 5 11.65 10.69 4.24 <
2510 5 2 1 1 157.15 160.92 8.23 o
2511 5 -2 1 -1 157.15 165.54 6.44 o
2512 5 2 1 2 58.00 52.15 5.23 o
2512 4 -2 -1 -2 58.00 52.15 5.23 o
2513 5 -2 1 -2 58.00 53.96 4.80 o
2513 4 2 -1 2 58.00 53.96 4.80 o
2514 5 -2 1 -3 32.33 28.95 4.43 o
2515 5 2 1 3 32.33 30.24 4.60 o
2516 5 2 1 4 20.08 15.30 3.96 o
2517 5 -2 1 -4 20.08 15.16 3.88 o
2518 5 2 1 5 2.78 4.03 2.19 <
2519 5 -2 1 -5 2.78 1.22 1.65 <
2520 5 -2 2 4 74.98 92.29 9.28 o
2521 5 -2 2 3 123.23 93.28 8.22 o
2522 5 -2 2 -1 110.73 114.39 4.93 o
2523 5 2 2 1 110.73 120.95 7.72 o
2524 5 2 2 2 166.59 177.59 10.45 o
2524 4 -2 -2 -2 166.59 177.59 10.45 o
2525 5 -2 2 -2 166.59 164.77 8.56 o
2525 4 2 -2 2 166.59 164.77 8.56 o
2526 5 2 2 3 13.97 13.34 3.38 o
2527 5 -2 2 -3 13.97 13.51 3.12 o
2528 5 -2 2 -4 36.99 22.40 4.23 o
2529 5 2 2 4 36.99 33.49 5.80 o
2530 5 -2 2 -5 6.31 4.71 2.74 <
2531 5 2 2 5 6.31 6.58 3.26 <
2532 5 -2 3 7 13.68 10.57 4.65 <
2533 5 -2 3 6 9.98 8.46 3.72 <
2534 5 -2 3 5 51.99 56.25 8.11 o
2535 5 -2 3 4 22.99 52.20 7.34 o
2536 5 -2 3 3 144.06 144.56 10.37 o
2537 5 -2 3 2 294.42 282.02 12.03 o
2538 5 -2 3 1 4.82 6.00 1.18 o
2539 5 -2 3 -2 27.30 18.30 2.86 o
2539 4 2 -3 2 27.30 18.30 2.86 o
2540 5 2 3 2 27.30 26.33 4.35 o
2540 4 -2 -3 -2 27.30 26.33 4.35 o
2541 5 2 3 3 53.47 54.34 6.97 o
2542 5 -2 3 -3 53.47 39.77 5.13 o
2543 5 2 3 4 7.93 8.60 3.07 <
2544 5 -2 3 -4 7.93 4.78 2.39 <
2545 5 2 3 5 13.23 6.84 3.19 <
2546 5 -2 3 -5 13.23 1.69 1.28 <
2547 5 -2 4 7 8.46 5.71 3.47 <
2548 5 -2 4 6 30.77 28.50 7.07 o
2549 5 -2 4 5 0.31 -1.24 1.22 <
2550 5 -2 4 4 125.42 195.58 14.01 o
2551 5 -2 4 3 80.85 75.37 7.39 o
2552 5 -2 4 2 2.46 5.66 1.90 <
2553 5 -2 4 1 337.88 315.51 10.07 o
2554 6 -2 -4 0 6.81 7.50 1.27 o
2554 5 -2 4 0 6.81 7.50 1.27 o
2555 5 2 4 2 278.44 331.15 17.57 o
2555 4 -2 -4 -2 278.44 331.15 17.57 o
2556 5 2 4 3 0.59 1.11 1.12 <
2557 5 2 4 4 24.90 22.00 5.21 o
2558 5 2 4 5 9.24 8.36 3.92 <
2559 5 -2 5 6 11.02 13.65 4.90 <
2560 5 -2 5 5 36.98 41.53 7.45 o
2561 5 -2 5 4 15.44 49.17 7.25 o
2562 5 -2 5 3 59.78 63.72 7.31 o
2563 5 -2 5 2 89.03 81.63 6.65 o
2564 5 -2 5 1 36.68 54.65 4.62 o
2565 5 2 5 2 28.82 39.84 6.24 o
2565 4 -2 -5 -2 28.82 39.84 6.24 o
2566 5 2 5 3 34.77 38.66 6.52 o
2567 5 2 5 4 11.33 12.19 4.22 <
2568 5 -2 6 5 6.43 5.86 2.98 <
2569 5 -2 6 4 29.30 37.74 6.43 o
2570 5 -2 6 3 20.77 19.60 4.37 o
2571 5 -2 6 2 14.12 18.12 3.50 o
2572 5 -2 6 1 61.97 73.23 6.05 o
2573 5 2 6 3 6.07 4.99 2.54 <
2574 5 -2 7 4 3.12 16.38 4.99 o
2575 5 -2 7 3 25.15 17.57 4.29 o
2576 5 -2 7 2 16.02 18.32 3.94 o
2577 5 -2 7 1 0.46 1.13 1.25 <
2578 5 -2 8 3 8.30 3.97 2.11 <
2579 5 -2 8 2 1.82 0.51 0.31 <
2580 5 -2 8 1 33.73 34.33 4.95 o
2581 5 3 -7 -4 34.19 69.92 8.21 o
2582 5 3 -7 -3 3.38 0.93 0.50 <
2583 5 3 -6 -5 12.70 11.55 3.29 o
2584 5 3 -6 -4 0.90 1.95 1.24 <
2585 5 3 -6 -3 54.46 42.92 5.22 o
2586 5 3 -6 -2 11.00 6.60 1.91 o
2587 5 3 -5 -6 8.11 5.67 2.48 <
2588 5 3 -5 -5 13.03 7.85 2.82 <
2589 5 3 -5 -4 17.12 14.17 3.33 o
2590 5 3 -5 -3 1.76 1.86 1.16 <
2591 5 3 -5 -2 61.95 53.40 4.26 o
2592 5 -3 -5 -3 8.25 18.70 4.81 o
2593 5 3 -4 -7 0.06 -0.14 1.64 <
2594 5 3 -4 -6 19.40 14.78 4.19 o
2595 5 3 -4 -5 7.58 7.79 3.05 <
2596 5 3 -4 -4 3.43 2.72 1.42 <
2597 5 3 -4 -3 47.57 33.21 4.29 o
2598 5 3 -4 -2 36.07 28.39 3.06 o
2599 5 -3 -4 -3 18.67 44.60 6.97 o
2600 5 -3 -4 -4 0.07 1.16 2.06 <
2601 5 3 -3 -6 9.03 2.94 1.50 <
2602 5 3 -3 -5 34.98 27.96 5.04 o
2603 5 3 -3 -4 10.69 11.18 3.13 o
2604 5 3 -3 -3 20.95 14.45 2.85 o
2605 5 3 -3 -2 80.68 52.42 4.37 o
2606 5 -3 -3 -2 36.00 52.22 6.62 o
2607 5 -3 -3 -3 6.75 12.28 3.54 o
2608 5 -3 -3 -4 11.39 21.38 4.95 o
2609 5 3 -2 1 0.13 0.73 0.77 <
2610 5 -3 -2 -2 21.07 33.99 4.86 o
2611 5 3 -2 2 21.07 19.60 3.24 o
2612 5 3 -2 3 38.91 80.12 8.64 o
2613 5 -3 -2 -3 38.91 113.34 9.93 o
2614 5 -3 -2 -4 0.56 3.99 2.90 <
2615 6 3 1 0 0.18 2.22 0.86 <
2615 5 3 -1 0 0.18 2.22 0.86 <
2616 5 3 -1 1 104.51 112.33 5.94 o
2617 5 3 -1 2 32.60 36.72 4.51 o
2618 5 -3 -1 -2 32.60 48.58 5.35 o
2619 5 3 -1 3 9.93 20.13 4.18 o
2620 5 -3 -1 -3 9.93 26.07 4.74 o
2621 5 3 -1 4 6.85 11.11 3.89 <
2622 5 -3 -1 -4 6.85 16.16 4.19 o
2623 5 3 -1 5 2.38 -3.08 1.98 <
2624 5 -3 -1 -5 2.38 4.37 2.27 <
2625 5 3 0 1 19.87 27.94 3.53 o
2626 5 -3 0 -1 19.87 30.16 3.56 o
2627 5 3 0 2 31.06 42.23 4.90 o
2628 5 -3 0 -2 31.06 41.90 4.71 o
2629 5 3 0 3 0.92 5.38 2.25 <
2630 5 -3 0 -3 0.92 4.72 2.18 <
2631 5 3 0 4 0.00 1.73 1.99 <
2632 5 -3 0 -4 0.00 -1.11 1.25 <
2633 5 3 0 5 11.47 13.92 4.72 <
2634 5 -3 0 -5 11.47 17.06 4.73 o
2635 5 -3 1 -1 103.63 115.61 6.11 o
2636 5 3 1 1 103.63 120.53 7.91 o
2637 5 3 1 2 31.07 45.36 5.30 o
2638 5 -3 1 -2 31.07 45.49 4.23 o
2639 5 3 1 3 10.31 20.97 4.26 o
2640 5 -3 1 -3 10.31 22.61 3.94 o
2641 5 -3 1 -4 6.94 14.37 3.83 o
2642 5 3 1 4 6.94 10.34 3.67 <
2643 5 -3 1 -5 2.34 4.46 2.67 <
2644 5 3 1 5 2.34 5.83 3.71 <
2645 5 -3 2 -1 0.21 0.40 0.52 <
2646 5 3 2 1 0.21 -0.26 0.20 <
2647 5 -3 2 -2 21.29 25.73 3.11 o
2648 5 3 2 2 21.29 31.29 4.89 o
2649 5 -3 2 -3 38.29 93.97 7.67 o
2650 5 3 2 3 38.29 103.75 9.91 o
2651 5 -3 2 -4 0.55 0.86 0.55 <
2652 5 3 2 4 0.55 1.44 2.12 <
2653 5 -3 3 -1 12.94 11.41 1.32 o
2654 5 3 3 2 35.66 50.63 6.57 o
2655 5 -3 3 -2 35.66 37.45 3.68 o
2656 5 3 3 3 7.07 14.14 3.79 o
2657 5 -3 3 -3 7.07 10.77 2.71 o
2658 5 3 3 4 11.23 18.29 4.81 o
2659 5 -3 3 -4 11.23 14.59 3.56 o
2660 5 -3 4 6 19.28 17.44 5.86 <
2661 5 -3 4 5 7.55 7.52 3.43 <
2662 5 -3 4 4 3.46 2.51 1.85 <
2663 5 -3 4 3 47.37 29.79 4.79 o
2664 5 -3 4 2 36.94 25.95 3.47 o
2665 5 3 4 2 4.59 7.90 2.59 o
2666 5 -3 4 -2 4.59 4.75 1.45 o
2667 5 3 4 3 18.88 44.06 6.94 o
2668 5 -3 4 -3 18.88 32.44 4.59 o
2669 5 3 4 4 0.08 -0.13 1.74 <
2670 5 -3 4 -4 0.08 0.70 1.13 <
2671 5 -3 5 6 8.47 7.62 4.13 <
2672 5 -3 5 5 12.60 10.34 3.92 <
2673 5 -3 5 4 15.93 17.47 4.64 o
2674 5 -3 5 3 1.86 0.77 1.12 <
2675 5 -3 5 2 61.30 56.85 5.53 o
2676 5 -3 5 1 59.80 59.13 4.30 o
2677 5 -3 5 -2 13.85 1.63 0.53 o
2678 5 -3 5 -3 7.91 6.25 2.20 <
2679 5 3 5 3 7.91 10.71 3.69 <
2680 5 -3 6 5 12.77 10.25 4.05 <
2681 5 -3 6 4 0.85 2.93 1.98 <
2682 5 -3 6 3 54.71 39.03 5.95 o
2683 5 -3 6 2 12.00 7.00 2.16 o
2684 5 -3 6 1 7.60 7.59 1.82 o
2685 6 -3 -6 0 86.50 83.51 5.85 o
2685 5 -3 6 0 86.50 83.51 5.85 o
2686 5 -3 7 4 34.56 68.81 9.24 o
2687 5 -3 7 3 3.36 2.30 2.21 <
2688 5 -3 7 2 8.54 8.37 2.42 o
2689 5 -3 7 1 9.62 8.22 1.98 o
2690 6 -3 -7 0 2.74 3.16 1.18 <
2690 5 -3 7 0 2.74 3.16 1.18 <
2691 5 -3 8 2 3.64 6.09 2.50 <
2692 5 -3 8 1 4.66 7.35 2.16 o
2693 5 4 -7 -3 11.40 -3.44 0.34 <
2694 5 4 -6 -5 11.39 13.33 3.43 o
2695 5 4 -6 -4 8.73 8.11 2.94 <
2696 5 4 -6 -3 1.58 1.97 1.11 <
2697 5 4 -5 -6 6.42 4.73 2.39 <
2698 5 4 -5 -5 4.00 3.69 2.19 <
2699 5 4 -5 -4 8.28 6.05 3.01 <
2700 5 4 -5 -3 16.26 9.02 2.11 o
2701 5 4 -5 -2 0.73 0.01 0.04 <
2702 5 4 -4 -6 0.94 1.18 1.73 <
2703 5 4 -4 -5 5.44 4.62 2.13 <
2704 5 4 -4 -4 1.32 1.74 1.60 <
2705 5 4 -4 -3 1.18 1.21 1.37 <
2706 5 4 -4 -2 50.63 39.49 3.29 o
2707 5 4 -3 -2 0.31 -0.21 0.61 <
2708 5 -4 -3 -3 4.71 11.21 3.74 <
2709 6 4 2 0 4.58 9.13 1.42 o
2709 5 4 -2 0 4.58 9.13 1.42 o
2710 5 4 -2 1 17.83 17.32 2.60 o
2711 5 4 -2 2 0.58 1.36 0.89 <
2712 5 -4 -2 -3 4.70 11.61 3.77 o
2713 5 4 -2 3 4.70 10.65 3.28 o
2714 6 4 1 0 94.87 119.27 6.26 o
2714 5 4 -1 0 94.87 119.27 6.26 o
2715 5 4 -1 1 6.36 9.65 1.91 o
2716 5 -4 -1 -2 8.84 16.42 3.39 o
2717 5 4 -1 2 8.84 13.81 3.08 o
2718 5 4 -1 3 2.98 2.22 1.62 <
2719 5 -4 -1 -3 2.98 5.60 2.15 <
2720 5 4 0 1 66.96 104.58 7.26 o
2721 5 4 0 2 0.49 0.85 1.15 <
2722 5 -4 0 -2 0.49 0.67 0.78 <
2723 5 -4 0 -3 4.69 11.39 3.34 o
2724 5 4 0 3 4.69 8.39 3.20 <
2725 5 4 1 1 6.45 11.00 2.64 o
2726 5 4 1 2 8.66 15.60 3.24 o
2727 5 -4 1 -2 8.66 13.64 2.62 o
2728 5 4 1 3 3.19 7.28 3.08 <
2729 5 -4 1 -3 3.19 5.99 2.44 <
2730 5 -4 2 -2 0.57 3.05 1.21 <
2731 5 4 2 2 0.57 2.40 1.80 <
2732 5 4 2 3 4.86 7.81 2.95 <
2733 5 -4 2 -3 4.86 12.52 3.28 o
2734 5 -4 3 -2 9.31 11.66 2.11 o
2735 5 4 3 2 9.31 10.96 3.34 o
2736 5 4 3 3 4.70 7.17 2.81 <
2737 5 -4 3 -3 4.70 7.28 2.11 o
2738 5 -4 4 -2 1.41 4.02 1.26 o
2739 5 4 4 3 3.44 7.21 3.27 <
2740 5 -4 4 -3 3.44 15.42 3.19 o
2741 5 -4 5 -2 6.20 9.32 1.66 o
2742 5 -4 6 5 11.45 9.56 3.81 <
2743 5 -4 6 4 8.78 9.86 3.89 <
2744 5 -4 6 3 1.71 1.98 1.63 <
2745 5 -4 6 2 15.22 11.48 2.44 o
2746 5 -4 7 3 11.26 10.33 4.00 <
2747 5 -4 7 2 0.36 -4.47 1.08 <
2748 5 -4 7 1 12.12 9.27 1.84 o
2749 5 5 -6 -4 6.46 6.22 2.25 <
2750 5 5 -6 -3 1.84 3.56 1.58 <
2751 5 5 -5 -5 4.39 5.30 2.36 <
2752 5 5 -5 -4 0.86 -0.31 0.67 <
2753 5 5 -5 -3 7.42 6.37 1.76 o
2754 5 5 -5 -2 6.75 3.95 0.74 o
2755 5 5 -4 -4 10.43 3.61 1.73 <
2756 5 5 -4 -3 3.19 1.71 0.90 <
2757 5 5 -4 -2 0.87 2.24 0.79 <
2758 6 5 3 0 6.52 6.20 1.27 o
2758 5 5 -3 0 6.52 6.20 1.27 o
2759 5 5 -3 1 2.25 2.85 1.29 <
2760 5 5 -3 2 1.11 0.24 0.72 <
2761 6 5 2 0 1.16 1.72 0.83 <
2761 5 5 -2 0 1.16 1.72 0.83 <
2762 5 5 -2 1 3.02 3.54 1.12 o
2763 5 5 -2 2 2.61 5.44 2.23 <
2764 6 5 1 0 13.60 23.51 3.12 o
2764 5 5 -1 0 13.60 23.51 3.12 o
2765 5 5 -1 1 4.09 5.78 1.68 o
2766 5 5 -1 2 2.29 4.27 2.28 <
2767 5 5 0 1 0.41 3.47 1.68 <
2768 5 5 0 2 1.57 6.44 2.54 <
2769 5 5 1 1 4.12 5.96 2.16 <
2770 5 5 1 2 2.18 3.12 1.64 <
2771 5 5 2 2 2.71 6.18 2.46 <
2772 5 6 -4 -2 1.63 -0.20 0.47 <
2773 5 6 -3 -1 2.26 3.49 1.15 o
2774 6 6 2 0 4.71 14.62 2.87 o
2774 5 6 -2 0 4.71 14.62 2.87 o
2775 6 6 1 0 0.39 2.59 1.47 <
2775 5 6 -1 0 0.39 2.59 1.47 <
2776 6 0 -8 -2 6.32 3.49 1.10 o
2777 6 0 -8 -3 21.45 16.95 3.03 o
2778 6 0 -7 -2 7.79 5.78 1.60 o
2779 6 0 -7 -3 14.18 7.19 1.90 o
2780 6 0 -7 -4 42.76 44.92 5.13 o
2781 6 0 -6 -1 10.71 19.61 2.51 o
2782 6 0 -6 -2 29.56 26.65 3.15 o
2783 6 0 -6 -3 32.12 18.54 2.78 o
2784 6 0 -6 -4 3.66 2.64 1.41 <
2785 6 0 -6 -5 19.59 12.76 3.51 o
2786 6 0 -5 -1 68.15 98.77 5.50 o
2787 6 0 -5 -2 75.96 77.06 4.79 o
2788 6 0 -5 -3 2.41 1.60 0.62 <
2789 6 0 -5 -4 10.57 6.43 2.03 o
2790 6 0 -5 -5 2.60 1.68 1.69 <
2791 6 0 -4 -1 0.84 1.65 0.79 <
2792 6 0 -4 -2 12.18 15.40 1.90 o
2793 6 0 -4 -3 99.48 85.33 5.59 o
2794 6 0 -4 -4 1.19 2.30 1.58 <
2795 6 0 -3 -1 14.93 18.69 1.78 o
2796 6 0 -3 -2 248.87 252.35 7.33 o
2797 6 0 -3 -3 11.25 4.88 1.51 o
2798 6 0 -2 -1 1.59 0.56 0.24 <
2799 6 0 -2 -2 168.18 149.67 5.95 o
2800 6 0 -1 -1 494.20 528.44 7.57 o
2801 6 0 1 1 494.07 471.76 6.96 o
2802 6 0 2 1 1.49 0.71 0.44 <
2803 6 0 2 2 168.27 131.85 5.10 o
2804 6 0 2 3 136.64 154.95 7.31 o
2805 6 0 3 1 15.15 19.36 1.74 o
2806 6 0 3 2 248.78 263.90 7.21 o
2807 6 0 3 3 11.30 3.17 0.97 o
2808 6 0 3 4 4.68 5.16 1.60 o
2809 6 0 4 1 0.98 1.77 0.75 <
2810 6 0 4 2 12.26 16.09 1.83 o
2811 6 0 4 3 99.41 86.19 5.07 o
2812 6 0 4 4 1.19 0.69 0.24 <
2813 6 0 4 5 2.02 2.73 1.49 <
2814 6 0 5 2 75.96 72.53 4.31 o
2815 6 0 5 3 2.38 2.27 0.97 <
2816 6 0 5 4 10.58 8.14 1.98 o
2817 6 0 5 5 2.62 3.70 1.33 <
2818 6 0 5 6 4.81 1.75 0.68 <
2819 6 0 6 2 29.29 22.36 2.61 o
2820 6 0 6 3 32.19 19.59 2.45 o
2821 6 0 6 4 3.64 1.57 0.56 <
2822 6 0 6 5 19.58 15.60 2.90 o
2823 6 0 7 3 14.15 7.29 1.75 o
2824 6 0 7 4 42.83 57.62 5.25 o
2825 6 0 8 3 21.53 18.59 2.94 o
2826 6 1 -8 -3 5.66 3.78 1.66 <
2827 6 1 -8 -2 22.85 17.24 2.98 o
2828 6 -1 -8 -1 56.32 41.07 3.87 o
2828 1 1 8 1 56.32 41.07 3.87 o
2829 6 -1 -8 -2 6.23 3.60 1.36 <
2830 6 1 -7 -4 11.41 10.49 2.65 o
2831 6 1 -7 -3 7.91 5.71 1.77 o
2832 6 1 -7 -2 0.36 0.62 0.50 <
2833 6 -1 -7 -1 0.28 1.66 1.02 <
2833 1 1 7 1 0.28 1.66 1.02 <
2834 6 -1 -7 -2 8.21 5.03 1.35 o
2835 6 -1 -7 -3 12.69 7.47 1.90 o
2836 6 1 -6 -5 24.79 25.64 4.25 o
2837 6 1 -6 -4 11.95 23.45 3.46 o
2838 6 1 -6 -3 16.09 13.33 2.59 o
2839 6 1 -6 -2 65.62 75.55 5.47 o
2840 6 -1 -6 -1 174.07 177.13 6.82 o
2840 1 1 6 1 174.07 177.13 6.82 o
2841 6 -1 -6 -2 16.31 14.61 2.17 o
2842 6 -1 -6 -3 11.39 6.71 1.75 o
2843 6 -1 -6 -4 24.24 20.76 3.73 o
2844 6 1 -5 -6 10.40 10.28 3.42 o
2845 6 1 -5 -5 9.14 4.75 1.92 <
2846 6 1 -5 -4 34.59 35.93 4.35 o
2847 6 1 -5 -3 63.21 69.68 5.25 o
2848 6 1 -5 -2 30.95 26.20 3.00 o
2849 6 -1 -5 -1 66.28 57.51 3.41 o
2849 1 1 5 1 66.28 57.51 3.41 o
2850 6 -1 -5 -2 62.97 63.84 4.06 o
2851 6 -1 -5 -3 33.09 24.26 3.37 o
2852 6 1 -4 -5 7.14 10.62 3.17 o
2853 6 1 -4 -4 43.86 118.02 7.88 o
2854 6 1 -4 -3 20.11 23.06 2.83 o
2855 6 1 -4 -2 184.81 211.57 8.11 o
2856 6 1 -4 -1 23.33 23.99 2.52 o
2857 6 -1 -4 -1 465.10 510.40 9.71 o
2857 1 1 4 1 465.10 510.40 9.71 o
2858 6 -1 -4 -2 22.61 20.03 2.17 o
2859 6 1 -3 -4 38.03 51.79 5.30 o
2860 6 1 -3 -3 163.87 150.99 7.27 o
2861 6 1 -3 -2 16.62 17.61 2.05 o
2862 6 1 -3 -1 66.39 70.54 3.88 o
2863 6 -1 -3 -1 37.97 39.60 2.13 o
2863 1 1 3 1 37.97 39.60 2.13 o
2864 6 -1 -3 -2 164.04 195.75 7.24 o
2865 6 1 -2 -4 23.68 67.18 6.35 o
2866 6 1 -2 -3 107.78 111.46 6.41 o
2867 6 1 -2 -2 416.47 438.59 9.72 o
2868 6 1 -2 -1 6.93 5.03 0.89 o
2869 6 -1 -2 -1 1094.52 1434.01 14.01 o
2869 1 1 2 1 1094.52 1434.01 14.01 o
2870 6 1 -1 -2 141.57 155.47 6.07 o
2871 6 1 -1 -1 366.73 342.44 6.69 o
2872 6 -1 0 1 142.36 103.29 3.29 o
2873 6 1 0 -1 142.36 103.79 3.30 o
2874 6 -1 1 3 44.16 38.35 3.70 o
2875 6 -1 1 2 143.36 146.19 5.64 o
2876 6 -1 1 1 367.29 336.29 6.44 o
2877 6 -1 2 4 23.27 59.27 5.31 o
2878 6 -1 2 3 105.39 108.39 5.80 o
2879 6 -1 2 2 416.72 458.65 10.04 o
2880 6 -1 2 1 7.94 3.87 0.79 o
2881 6 1 2 1 1094.78 1056.43 9.61 o
2881 1 -1 -2 -1 1094.78 1056.43 9.61 o
2882 6 1 2 2 111.00 94.83 5.05 o
2883 6 -1 3 5 14.81 10.90 2.48 o
2884 6 -1 3 4 36.71 48.66 4.41 o
2885 6 -1 3 3 164.07 164.68 7.26 o
2886 6 -1 3 2 16.98 18.32 2.02 o
2887 6 -1 3 1 66.10 73.30 3.84 o
2888 6 1 3 1 38.15 36.20 2.02 o
2888 1 -1 -3 -1 38.15 36.20 2.02 o
2889 6 1 3 2 164.04 141.57 5.00 o
2890 6 1 3 3 39.26 30.99 3.23 o
2891 6 -1 4 6 0.29 -0.12 0.62 <
2892 6 -1 4 5 7.56 7.87 2.15 o
2893 6 -1 4 4 44.39 116.89 7.13 o
2894 6 -1 4 3 20.49 21.93 2.63 o
2895 6 -1 4 2 183.70 212.93 7.71 o
2896 6 1 4 1 464.24 401.85 8.00 o
2896 1 -1 -4 -1 464.24 401.85 8.00 o
2897 6 1 4 2 22.08 21.38 1.90 o
2898 6 1 4 3 37.90 28.00 2.76 o
2899 6 1 4 4 5.55 5.46 1.42 o
2900 6 -1 5 6 10.40 10.62 2.55 o
2901 6 -1 5 5 9.47 5.14 1.72 <
2902 6 -1 5 4 35.62 38.61 4.02 o
2903 6 -1 5 3 62.58 72.65 5.18 o
2904 6 -1 5 2 30.36 25.16 2.76 o
2905 6 1 5 2 63.61 67.12 3.68 o
2906 6 1 5 3 31.92 24.20 2.57 o
2907 6 1 5 4 7.46 5.27 1.53 o
2908 6 1 5 5 8.18 8.16 2.03 o
2909 6 -1 6 5 25.00 24.55 3.67 o
2910 6 -1 6 4 11.68 27.25 3.48 o
2911 6 -1 6 3 16.85 13.42 2.23 o
2912 6 -1 6 2 66.86 71.51 5.03 o
2913 6 1 6 2 15.50 13.10 1.76 o
2914 6 1 6 3 11.64 9.05 1.77 o
2915 6 1 6 4 24.03 20.29 2.78 o
2916 6 -1 7 4 11.42 14.05 2.64 o
2917 6 -1 7 3 7.98 6.30 1.68 o
2918 6 1 7 3 12.74 7.18 1.59 o
2919 6 -1 8 3 5.33 3.74 1.29 <
2920 6 2 -8 -3 4.81 2.70 1.29 <
2921 6 -2 -8 -1 4.63 6.32 1.47 o
2922 6 2 -7 -4 2.03 9.56 2.65 o
2923 6 2 -7 -3 16.12 13.48 2.87 o
2924 6 -2 -7 -1 12.38 15.83 2.10 o
2925 6 -2 -7 -2 3.43 1.70 0.83 <
2925 1 2 7 2 3.43 1.70 0.83 <
2926 6 -2 -7 -3 4.42 -6.17 2.38 <
2927 6 2 -6 -5 4.27 6.41 2.14 <
2928 6 2 -6 -4 19.48 26.48 3.93 o
2929 6 2 -6 -3 14.48 13.21 2.72 o
2930 6 2 -6 -2 9.32 12.99 2.48 o
2931 6 -2 -6 -1 12.06 15.91 1.78 o
2932 6 -2 -6 -2 47.59 36.79 3.06 o
2932 1 2 6 2 47.59 36.79 3.06 o
2933 6 2 -5 -6 7.38 5.62 2.15 <
2934 6 2 -5 -5 23.38 29.02 4.44 o
2935 6 2 -5 -4 10.34 34.17 4.15 o
2936 6 2 -5 -3 38.69 42.75 4.33 o
2937 6 2 -5 -2 57.64 58.14 4.80 o
2938 6 -2 -5 -1 38.82 50.43 2.86 o
2939 6 -2 -5 -2 24.04 25.98 2.81 o
2939 1 2 5 2 24.04 25.98 2.81 o
2940 6 2 -4 -6 20.02 19.74 4.34 o
2941 6 2 -4 -5 0.23 1.10 1.00 <
2942 6 2 -4 -4 81.07 120.68 7.50 o
2943 6 2 -4 -3 53.52 51.25 4.54 o
2944 6 2 -4 -2 2.00 3.07 1.22 <
2945 6 -2 -4 -1 44.85 52.75 2.79 o
2946 6 2 -3 -5 34.21 48.26 5.93 o
2947 6 2 -3 -4 14.76 39.46 4.52 o
2948 6 2 -3 -3 93.24 91.80 5.68 o
2949 6 2 -3 -2 191.10 188.52 7.64 o
2950 6 2 -3 -1 3.17 4.19 1.05 o
2951 6 2 -2 -5 5.90 12.03 2.98 o
2952 6 2 -2 -4 48.60 71.43 5.92 o
2953 6 2 -2 -3 76.77 70.23 5.01 o
2954 6 2 -2 -2 37.38 29.26 2.76 o
2955 6 2 -2 -1 262.99 226.26 7.04 o
2956 6 2 -1 -4 27.22 76.69 6.56 o
2957 6 2 -1 -3 98.52 87.81 5.72 o
2958 6 2 -1 -2 39.61 28.06 2.56 o
2959 6 -2 -1 2 39.61 21.53 2.48 o
2960 6 -2 -1 1 272.52 226.88 4.81 o
2961 6 2 -1 -1 272.52 227.02 6.22 o
2962 6 2 0 -3 4.23 -0.45 0.31 <
2963 6 -2 0 3 4.23 -0.28 0.12 <
2964 6 -2 0 2 0.37 0.73 0.34 <
2965 6 2 0 -2 0.37 0.60 0.32 <
2966 6 2 0 -1 76.31 74.32 3.10 o
2967 6 -2 0 1 76.31 73.62 3.05 o
2968 6 -2 1 4 27.92 64.64 5.67 o
2969 6 -2 1 3 95.33 90.03 5.48 o
2970 6 -2 1 2 37.10 32.95 2.82 o
2971 6 2 1 -1 272.14 240.42 5.59 o
2972 6 -2 1 1 272.14 239.03 6.43 o
2973 6 -2 2 5 6.05 9.17 2.35 o
2974 6 -2 2 4 48.73 68.31 5.38 o
2975 6 -2 2 3 80.09 71.83 4.91 o
2976 6 -2 2 2 38.52 32.00 2.86 o
2977 6 -2 2 1 263.10 241.46 7.36 o
2978 6 -2 3 6 6.49 3.22 1.48 <
2979 6 -2 3 5 33.79 43.33 4.80 o
2980 6 -2 3 4 14.94 41.80 4.52 o
2981 6 -2 3 3 93.62 106.02 6.16 o
2982 6 -2 3 2 191.34 206.92 7.99 o
2983 6 -2 3 1 3.13 4.28 1.08 o
2984 6 2 3 2 22.74 15.39 1.72 o
2984 1 -2 -3 -2 22.74 15.39 1.72 o
2985 6 -2 4 7 5.50 5.41 2.14 <
2986 6 -2 4 6 20.00 14.52 2.92 o
2987 6 -2 4 5 0.20 1.00 0.92 <
2988 6 -2 4 4 81.51 142.42 8.14 o
2989 6 -2 4 3 52.55 54.12 4.43 o
2990 6 -2 4 2 1.60 2.56 0.86 <
2991 6 2 4 2 231.66 195.08 5.39 o
2991 1 -2 -4 -2 231.66 195.08 5.39 o
2992 6 2 4 3 0.38 0.15 0.51 <
2993 6 2 4 4 16.18 9.81 1.92 o
2994 6 -2 5 6 7.16 7.32 2.03 o
2995 6 -2 5 5 24.03 31.94 4.40 o
2996 6 -2 5 4 10.03 38.10 4.32 o
2997 6 -2 5 3 38.85 43.89 4.18 o
2998 6 -2 5 2 57.86 57.25 4.57 o
2999 6 2 5 2 23.89 20.41 1.80 o
2999 1 -2 -5 -2 23.89 20.41 1.80 o
3000 6 2 5 3 22.60 22.06 2.28 o
3001 6 2 5 4 7.36 4.82 1.15 o
3002 6 -2 6 5 4.18 5.08 1.74 <
3003 6 -2 6 4 19.04 31.00 4.06 o
3004 6 -2 6 3 13.50 14.22 2.65 o
3005 6 2 6 2 47.28 30.20 2.47 o
3005 1 -2 -6 -2 47.28 30.20 2.47 o
3006 6 2 6 3 3.94 4.96 1.09 o
3007 6 -2 7 4 2.03 9.43 2.48 o
3008 6 -2 7 3 16.35 10.51 2.29 o
3009 6 2 7 3 4.63 12.58 3.14 o
3010 6 3 -7 -4 22.22 52.97 6.58 o
3011 6 3 -7 -3 2.20 1.54 1.20 <
3012 6 -3 -7 -1 21.50 19.25 1.90 o
3013 6 3 -6 -5 8.26 11.29 3.02 o
3014 6 3 -6 -4 0.59 2.59 1.69 <
3015 6 3 -6 -3 35.39 34.02 4.45 o
3016 6 -3 -6 -1 0.53 0.36 0.26 <
3017 6 3 -5 -6 5.27 3.94 1.87 <
3018 6 3 -5 -5 8.47 7.24 2.32 o
3019 6 3 -5 -4 11.12 12.16 2.72 o
3020 6 3 -5 -3 1.14 1.10 0.92 <
3021 6 3 -5 -2 40.26 43.59 4.53 o
3022 6 3 -4 -7 0.04 -1.13 1.24 <
3023 6 3 -4 -6 12.61 11.54 3.21 o
3024 6 3 -4 -5 4.93 6.98 2.32 o
3025 6 3 -4 -4 2.23 3.16 1.43 <
3026 6 3 -4 -3 30.91 25.25 3.39 o
3027 6 3 -4 -2 23.44 22.28 3.12 o
3028 6 3 -3 -6 5.87 5.94 3.27 <
3029 6 3 -3 -5 22.74 21.25 3.55 o
3030 6 3 -3 -4 6.95 8.94 2.12 o
3031 6 3 -3 -3 13.61 12.61 2.28 o
3032 6 3 -3 -2 52.43 42.22 3.85 o
3033 6 -3 -3 1 39.03 26.93 1.84 o
3034 6 3 -2 -6 23.89 33.39 5.47 o
3035 6 3 -2 -5 19.76 16.63 3.23 o
3036 6 3 -2 -4 0.08 -0.35 0.70 <
3037 6 3 -2 -3 66.91 61.66 4.70 o
3038 6 3 -2 -2 49.12 43.00 3.53 o
3039 6 -3 -2 2 49.12 38.25 3.20 o
3040 6 -3 -2 1 44.72 37.03 2.07 o
3041 6 3 -2 -1 44.72 46.25 3.58 o
3042 6 3 -1 -5 21.70 25.01 4.37 o
3043 6 3 -1 -4 72.17 101.80 7.31 o
3044 6 -3 -1 3 4.16 0.85 0.35 <
3045 6 3 -1 -3 4.16 1.11 0.78 <
3046 6 3 -1 -2 61.24 62.55 4.15 o
3047 6 -3 -1 2 61.24 63.79 3.77 o
3048 6 -3 -1 1 70.32 68.79 2.98 o
3049 6 3 -1 -1 70.32 66.40 3.98 o
3050 6 3 0 -4 7.59 18.05 3.07 o
3051 6 -3 0 4 7.59 14.64 2.50 o
3052 6 -3 0 3 150.51 158.31 7.45 o
3053 6 3 0 -3 150.51 154.92 7.90 o
3054 6 3 0 -2 3.55 1.74 0.65 <
3055 6 -3 0 2 3.55 1.59 0.63 <
3056 6 -3 0 1 1.40 2.58 0.76 o
3057 6 3 0 -1 1.40 2.19 0.57 o
3058 6 -3 1 5 22.56 21.48 3.54 o
3059 6 -3 1 4 73.09 98.26 6.83 o
3060 6 -3 1 3 4.25 1.36 0.92 <
3061 6 3 1 -2 62.82 62.15 4.10 o
3062 6 -3 1 2 62.82 65.72 4.25 o
3063 6 3 1 -1 68.28 65.50 2.92 o
3064 6 -3 1 1 68.28 66.59 3.88 o
3065 6 -3 2 6 24.23 22.52 3.76 o
3066 6 -3 2 5 19.61 17.35 3.02 o
3067 6 -3 2 4 0.05 -0.49 0.50 <
3068 6 -3 2 3 66.67 70.41 5.01 o
3069 6 -3 2 2 46.69 48.65 3.91 o
3070 6 -3 3 7 10.18 5.60 1.80 o
3071 6 -3 3 6 5.65 4.49 1.56 <
3072 6 -3 3 5 22.89 23.75 3.67 o
3073 6 -3 3 4 7.45 10.44 2.41 o
3074 6 -3 3 3 13.43 14.20 2.41 o
3075 6 -3 3 2 52.64 46.11 4.03 o
3076 6 -3 4 7 0.04 -0.67 0.86 <
3077 6 -3 4 6 12.53 12.73 3.11 o
3078 6 -3 4 5 4.90 7.45 2.26 o
3079 6 -3 4 4 2.25 1.37 0.58 <
3080 6 -3 4 3 30.78 30.82 3.76 o
3081 6 -3 4 2 24.01 21.59 2.85 o
3082 6 3 4 2 2.98 2.97 0.61 o
3083 6 3 4 3 12.27 22.59 2.38 o
3084 6 -3 5 6 5.51 5.75 1.92 <
3085 6 -3 5 5 8.19 8.81 2.50 o
3086 6 -3 5 4 10.36 13.81 2.81 o
3087 6 -3 5 3 1.21 1.79 0.87 <
3088 6 -3 5 2 39.84 45.28 4.54 o
3089 6 3 5 2 9.00 4.45 0.70 o
3090 6 3 5 3 5.14 8.20 1.34 o
3091 6 -3 6 5 8.30 9.88 2.65 o
3092 6 -3 6 4 0.55 2.60 1.21 <
3093 6 -3 6 3 35.56 34.45 4.30 o
3094 6 -3 7 4 22.46 64.92 6.76 o
3095 6 -3 7 3 2.19 2.07 1.57 <
3096 6 4 -7 -3 7.41 7.44 2.64 <
3097 6 4 -6 -5 7.41 7.92 2.49 o
3098 6 4 -6 -4 5.67 9.96 3.01 o
3099 6 4 -6 -3 1.03 2.54 1.62 <
3100 6 4 -5 -6 4.17 5.11 1.89 <
3101 6 4 -5 -5 2.60 3.44 1.77 <
3102 6 4 -5 -4 5.38 5.79 1.98 <
3103 6 4 -5 -3 10.57 9.71 2.45 o
3104 6 4 -4 -7 3.97 4.66 2.50 <
3105 6 4 -4 -6 0.61 0.83 1.01 <
3106 6 4 -4 -5 3.54 3.65 1.66 <
3107 6 4 -4 -4 0.86 -1.36 1.06 <
3108 6 4 -4 -3 0.76 1.74 1.18 <
3109 6 -4 -4 2 32.90 20.40 2.39 o
3110 6 4 -4 -2 32.90 41.97 4.54 o
3111 6 4 -3 -7 3.65 6.89 3.06 <
3112 6 4 -3 -6 6.15 6.20 2.70 <
3113 6 4 -3 -5 1.72 1.58 0.92 <
3114 6 4 -3 -4 3.71 3.00 1.23 <
3115 6 4 -3 -3 15.25 12.11 2.48 o
3116 6 4 -3 -2 0.20 0.14 0.18 <
3117 6 -4 -3 2 0.20 -0.42 0.50 <
3118 6 -4 -3 1 12.59 9.15 0.81 o
3119 6 4 -2 -7 4.84 8.51 3.21 <
3120 6 4 -2 -6 0.79 0.14 0.62 <
3121 6 4 -2 -5 11.72 9.13 2.45 o
3122 6 4 -2 -4 4.76 5.62 1.78 o
3123 6 4 -2 -3 7.99 4.30 1.32 o
3124 6 -4 -2 3 7.99 4.08 1.26 o
3125 6 -4 -2 2 51.66 49.18 3.19 o
3126 6 4 -2 -2 51.66 49.70 4.25 o
3127 6 -4 -2 1 6.02 5.46 0.75 o
3128 6 4 -1 -6 6.89 8.16 3.01 <
3129 6 4 -1 -5 8.82 2.50 1.09 <
3130 6 -4 -1 4 36.99 37.47 4.31 o
3131 6 4 -1 -4 36.99 38.80 4.49 o
3132 6 -4 -1 3 23.93 24.81 2.87 o
3133 6 4 -1 -3 23.93 24.65 2.92 o
3134 6 4 -1 -2 2.39 1.40 0.79 <
3135 6 -4 -1 2 2.39 1.35 0.61 <
3136 6 -4 -1 1 31.74 29.33 2.24 o
3137 6 4 -1 -1 31.74 32.85 2.94 o
3138 6 -4 0 5 41.58 41.70 5.09 o
3139 6 4 0 -5 41.58 44.80 5.90 o
3140 6 -4 0 4 34.20 42.10 4.32 o
3141 6 4 0 -4 34.20 38.52 4.26 o
3142 6 -4 0 3 0.56 0.64 0.64 <
3143 6 4 0 -3 0.56 1.43 1.01 <
3144 6 4 0 -2 17.28 15.44 1.96 o
3145 6 -4 0 2 17.28 18.57 2.13 o
3146 6 4 0 -1 1.69 1.64 0.60 <
3147 6 -4 1 6 6.83 5.78 2.21 <
3148 6 -4 1 5 8.63 5.56 1.94 <
3149 6 -4 1 4 36.85 43.57 4.55 o
3150 6 4 1 -3 24.10 25.61 3.52 o
3151 6 -4 1 3 24.10 29.34 3.16 o
3152 6 4 1 -2 2.42 1.97 0.82 <
3153 6 -4 1 2 2.42 0.55 0.43 <
3154 6 4 1 -1 31.49 28.70 2.27 o
3155 6 -4 2 7 4.71 3.60 1.63 <
3156 6 -4 2 6 0.80 -1.15 1.69 <
3157 6 -4 2 5 12.00 12.01 2.74 o
3158 6 -4 2 4 4.76 4.08 1.56 <
3159 6 -4 2 3 7.61 6.72 1.62 o
3160 6 4 2 -2 51.47 41.76 3.81 o
3161 6 -4 2 2 51.47 53.76 4.36 o
3162 6 4 2 -1 6.35 2.96 0.84 o
3163 6 -4 3 7 3.65 4.09 1.20 o
3164 6 -4 3 6 6.13 6.35 1.97 o
3165 6 -4 3 5 1.82 3.73 1.85 <
3166 6 -4 3 4 3.48 1.50 0.47 o
3167 6 -4 3 3 14.55 15.72 2.74 o
3168 6 -4 3 2 0.20 -0.01 0.37 <
3169 6 -4 4 7 4.03 2.01 1.12 <
3170 6 -4 4 6 0.60 3.09 1.67 <
3171 6 -4 4 5 3.41 4.41 1.76 <
3172 6 -4 4 4 0.84 1.19 0.76 <
3173 6 -4 4 3 0.87 1.80 0.90 <
3174 6 -4 4 2 33.03 45.22 4.63 o
3175 6 4 4 2 0.92 0.39 0.20 <
3176 6 -4 5 6 4.23 7.77 2.56 o
3177 6 -4 5 5 2.56 1.95 1.29 <
3178 6 -4 5 4 5.51 6.38 2.08 o
3179 6 -4 5 3 11.16 9.70 2.33 o
3180 6 -4 6 5 7.44 13.17 3.29 o
3181 6 -4 6 4 5.71 15.50 3.76 o
3182 6 -4 6 3 1.11 3.98 1.79 <
3183 6 5 -6 -4 4.20 4.19 1.83 <
3184 6 5 -6 -3 1.20 0.05 0.54 <
3185 6 -5 -6 2 0.67 0.04 0.11 <
3186 6 5 -5 -5 2.85 4.24 1.88 <
3187 6 5 -5 -4 0.56 0.56 0.76 <
3188 6 5 -5 -3 4.82 7.02 2.12 o
3189 6 -5 -5 2 4.39 3.53 0.82 o
3190 6 5 -4 -6 3.85 8.47 2.80 o
3191 6 5 -4 -5 0.12 1.26 1.19 <
3192 6 5 -4 -4 6.78 8.76 2.51 o
3193 6 -5 -4 3 2.07 2.13 0.87 <
3194 6 5 -4 -3 2.07 1.88 1.58 <
3195 6 -5 -4 2 0.57 0.69 0.55 <
3196 6 5 -3 -6 1.23 5.76 2.28 <
3197 6 5 -3 -5 2.78 5.23 2.29 <
3198 6 5 -3 -4 0.43 -0.42 0.66 <
3199 6 -5 -3 4 0.43 -0.02 0.43 <
3200 6 5 -3 -3 13.33 20.18 3.33 o
3201 6 -5 -3 3 13.33 14.76 2.26 o
3202 6 -5 -3 2 13.97 13.36 1.51 o
3203 6 5 -3 -2 13.97 17.28 2.77 o
3204 6 5 -2 -7 1.58 4.25 2.17 <
3205 6 5 -2 -6 3.08 4.69 2.01 <
3206 6 5 -2 -5 0.11 1.08 1.16 <
3207 6 -5 -2 5 0.11 -0.52 0.70 <
3208 6 -5 -2 4 8.16 9.12 1.93 o
3209 6 5 -2 -4 8.16 9.56 2.16 o
3210 6 -5 -2 3 2.71 3.93 1.33 <
3211 6 5 -2 -3 2.71 2.62 1.19 <
3212 6 -5 -2 2 2.10 2.74 0.73 o
3213 6 5 -2 -2 2.10 2.68 1.17 <
3214 6 5 -1 -7 1.78 1.78 1.24 <
3215 6 5 -1 -6 3.63 5.55 2.83 <
3216 6 -5 -1 5 5.36 6.47 2.19 <
3217 6 5 -1 -5 5.36 6.54 2.15 o
3218 6 5 -1 -4 1.81 0.22 0.50 <
3219 6 -5 -1 4 1.81 0.06 0.24 <
3220 6 5 -1 -3 4.28 4.52 1.54 <
3221 6 -5 -1 3 4.28 3.48 1.04 o
3222 6 5 -1 -2 2.63 4.53 1.38 o
3223 6 -5 -1 2 2.63 7.88 1.81 o
3224 6 5 -1 -1 0.64 0.58 0.27 <
3225 6 -5 0 6 0.93 1.30 0.64 <
3226 6 5 0 -6 0.93 5.29 2.73 <
3227 6 5 0 -5 1.73 2.74 2.95 <
3228 6 -5 0 5 1.73 0.79 1.19 <
3229 6 5 0 -4 12.98 8.94 2.27 o
3230 6 -5 0 4 12.98 10.39 2.23 o
3231 6 5 0 -3 1.02 1.32 0.79 <
3232 6 -5 0 3 1.02 1.02 0.83 <
3233 6 5 0 -2 0.33 1.35 0.70 <
3234 6 -5 0 2 0.33 0.74 0.39 <
3235 6 5 0 -1 10.11 11.40 1.74 o
3236 6 -5 1 7 1.88 2.58 1.75 <
3237 6 -5 1 6 3.63 4.94 2.18 <
3238 6 -5 1 5 5.19 7.69 2.16 o
3239 6 5 1 -4 1.83 0.36 0.82 <
3240 6 -5 1 4 1.83 0.80 0.65 <
3241 6 5 1 -3 4.07 4.02 1.33 o
3242 6 -5 1 3 4.07 5.63 1.64 o
3243 6 -5 1 2 2.82 3.75 1.09 o
3244 6 5 1 -2 2.82 5.17 1.75 <
3245 6 5 1 -1 0.64 0.90 0.63 <
3246 6 -5 2 7 1.50 5.14 2.17 <
3247 6 -5 2 6 3.11 5.49 2.21 <
3248 6 -5 2 5 0.12 0.98 0.41 <
3249 6 -5 2 4 7.93 14.28 2.60 o
3250 6 5 2 -3 2.89 2.37 1.08 <
3251 6 -5 2 3 2.89 3.38 1.40 <
3252 6 5 2 -2 2.00 -0.84 0.36 <
3253 6 -5 2 2 2.00 2.45 0.98 <
3254 6 5 2 -1 11.33 6.39 1.33 o
3255 6 -5 3 6 1.25 3.91 1.76 <
3256 6 -5 3 5 2.94 7.59 2.38 o
3257 6 -5 3 4 0.44 -1.37 1.14 <
3258 6 -5 3 3 13.13 21.62 3.28 o
3259 6 5 3 -1 0.15 0.25 0.23 <
3260 6 5 3 1 1.47 2.64 0.68 o
3261 6 -5 4 6 3.84 10.56 3.04 o
3262 6 -5 4 5 0.10 1.40 1.22 <
3263 6 -5 4 4 6.93 9.17 2.44 o
3264 6 -5 4 3 2.06 2.16 1.52 <
3265 6 -5 5 5 2.82 7.67 2.58 <
3266 6 -5 5 4 0.55 0.00 0.40 <
3267 6 -5 5 3 5.05 9.13 2.58 o
3268 6 -5 6 4 4.21 6.08 2.14 <
3269 6 6 -4 -5 0.49 3.83 1.98 <
3270 6 6 -4 -4 0.87 1.39 1.21 <
3271 6 -6 -4 4 0.87 -0.48 0.79 <
3272 6 -6 -4 3 3.17 4.10 1.12 o
3273 6 6 -4 -3 3.17 4.42 1.60 <
3274 6 -6 -4 2 1.06 0.08 0.23 <
3275 6 6 -3 -5 1.49 6.10 2.24 <
3276 6 -6 -3 5 1.49 3.29 1.50 <
3277 6 6 -3 -4 0.84 0.58 1.08 <
3278 6 -6 -3 4 0.84 0.21 0.33 <
3279 6 6 -3 -3 0.07 0.89 0.87 <
3280 6 -6 -3 3 0.07 0.70 0.52 <
3281 6 -6 -3 2 1.54 3.49 0.81 o
3282 6 6 -3 -2 1.54 1.69 0.89 <
3283 6 6 -2 -6 1.97 3.70 1.85 <
3284 6 -6 -2 6 1.97 1.80 1.12 <
3285 6 6 -2 -5 1.23 5.64 2.36 <
3286 6 -6 -2 5 1.23 5.72 1.84 o
3287 6 -6 -2 4 0.00 0.69 0.91 <
3288 6 6 -2 -4 0.00 0.69 1.08 <
3289 6 6 -2 -3 2.43 5.86 1.93 o
3290 6 -6 -2 3 2.43 3.93 1.27 o
3291 6 -6 -2 2 0.12 0.45 0.29 <
3292 6 6 -2 -2 0.12 0.80 0.43 <
3293 6 6 -1 -6 0.18 0.20 0.17 <
3294 6 -6 -1 6 0.18 0.30 0.98 <
3295 6 -6 -1 5 1.22 4.10 1.55 <
3296 6 6 -1 -5 1.22 4.05 1.81 <
3297 6 -6 -1 4 1.89 3.00 1.14 <
3298 6 6 -1 -4 1.89 1.84 0.80 <
3299 6 6 -1 -3 0.12 0.74 0.63 <
3300 6 -6 -1 3 0.12 0.30 0.37 <
3301 6 -6 -1 2 1.50 3.00 1.10 <
3302 6 6 -1 -2 1.50 2.40 1.26 <
3303 6 -6 0 6 0.27 1.10 0.78 <
3304 6 6 0 -6 0.27 -0.96 1.49 <
3305 6 -6 0 5 0.40 5.27 1.94 <
3306 6 6 0 -5 0.40 6.88 2.40 <
3307 6 6 0 -4 0.01 2.12 1.12 <
3308 6 -6 0 4 0.01 0.61 1.04 <
3309 6 -6 0 3 3.02 3.68 1.00 o
3310 6 6 0 -3 3.02 4.70 1.52 o
3311 6 6 0 -2 0.04 0.40 0.11 o
3312 6 6 0 -1 0.11 0.37 0.25 <
3313 6 -6 1 6 0.16 0.42 0.80 <
3314 6 -6 1 5 1.24 5.50 2.22 <
3315 6 6 1 -5 1.24 6.68 2.57 <
3316 6 6 1 -4 1.94 0.01 0.57 <
3317 6 -6 1 4 1.94 1.93 0.90 <
3318 6 -6 1 3 0.12 -0.35 0.32 <
3319 6 6 1 -3 0.12 0.14 0.67 <
3320 6 6 1 -2 1.50 1.77 0.97 <
3321 6 6 1 -1 0.95 1.43 0.85 <
3322 6 -6 2 6 2.01 4.95 2.37 <
3323 6 -6 2 5 1.20 7.65 2.37 o
3324 6 6 2 -4 0.00 0.51 0.88 <
3325 6 -6 2 4 0.00 -0.16 0.45 <
3326 6 -6 2 3 2.43 4.23 1.56 <
3327 6 6 2 -3 2.43 0.65 1.28 <
3328 6 6 2 -2 0.11 -0.11 0.39 <
3329 6 6 2 -1 0.85 1.63 0.72 <
3330 6 -6 3 5 1.54 7.83 2.57 o
3331 6 -6 3 4 0.84 4.14 1.80 <
3332 6 -6 3 3 0.07 -0.38 0.50 <
3333 6 6 3 -1 1.44 1.54 0.66 <
3334 6 -6 4 5 0.50 2.74 1.58 <
3335 6 -6 4 4 0.88 3.35 1.72 <
3336 6 -6 4 3 3.16 7.25 2.15 o
3337 6 -7 -1 4 1.24 4.07 1.37 <
3337 3 7 1 -4 1.24 4.07 1.37 <
3338 6 7 -1 -4 1.24 5.34 2.05 <
3338 3 -7 1 4 1.24 5.34 2.05 <
3339 6 7 -1 -3 0.44 2.60 1.15 <
3340 6 -7 -1 3 0.44 3.22 1.20 <
3341 6 7 0 -4 0.85 16.77 3.53 o
3341 3 -7 0 4 0.85 16.77 3.53 o
3342 6 -7 0 4 0.85 24.02 3.72 o
3342 3 7 0 -4 0.85 24.02 3.72 o
3343 6 -7 0 3 0.11 11.64 2.35 o
3344 6 7 0 -3 0.11 8.42 2.17 o
3345 6 7 1 -4 1.23 4.23 1.87 <
3345 3 -7 -1 4 1.23 4.23 1.87 <
3346 6 -7 1 4 1.23 6.75 2.02 o
3346 3 7 -1 -4 1.23 6.75 2.02 o
3347 6 7 1 -3 0.43 1.86 1.21 <
3348 6 -7 1 3 0.43 3.62 1.57 <
