#------------------------------------------------------------------------------
#$Date: 2019-11-17 15:32:33 +0200 (Sun, 17 Nov 2019) $
#$Revision: 230902 $
#$URL: file:///home/coder/svn-repositories/cod/cif/7/23/14/7231411.cif $
#------------------------------------------------------------------------------
#
# This file is available in the Crystallography Open Database (COD),
# http://www.crystallography.net/
#
# All data on this site have been placed in the public domain by the
# contributors.
#
data_7231411
loop_
_publ_author_name
'Collings, Ines E.'
'Manna, Rudra Sekhar'
'Tsirlin, Alexander A.'
'Bykov, Maxim'
'Bykova, Elena'
'Hanfland, Michael'
'Gegenwart, Philipp'
'van Smaalen, Sander'
'Dubrovinsky, Leonid'
'Dubrovinskaia, Natalia'
_publ_section_title
;
 Pressure dependence of spin canting in ammonium metal formate
 antiferromagnets.
;
_journal_issue                   37
_journal_name_full               'Physical chemistry chemical physics : PCCP'
_journal_page_first              24465
_journal_page_last               24476
_journal_paper_doi               10.1039/c8cp03761b
_journal_volume                  20
_journal_year                    2018
_chemical_formula_moiety         'C3 H3 Ni O6, N H4'
_chemical_formula_sum            'C3 H7 N Ni O6'
_chemical_formula_weight         211.8
_space_group_IT_number           4
_space_group_name_Hall           'P 2yb'
_space_group_name_H-M_alt        'P 1 21 1'
_symmetry_cell_setting           monoclinic
_symmetry_Int_Tables_number      4
_symmetry_space_group_name_Hall  'P 2yb'
_symmetry_space_group_name_H-M   'P 1 21 1'
_audit_creation_method           'Jana2006 Version : 25/10/2015'
_audit_update_record
;
2018-08-09 deposited with the CCDC.
2018-08-22 downloaded from the CCDC.
;
_cell_angle_alpha                90
_cell_angle_beta                 116.12(5)
_cell_angle_gamma                90
_cell_formula_units_Z            2
_cell_length_a                   6.426(3)
_cell_length_b                   8.0477(10)
_cell_length_c                   7.255(3)
_cell_measurement_reflns_used    119
_cell_measurement_temperature    293
_cell_measurement_theta_max      12.58
_cell_measurement_theta_min      2.05
_cell_volume                     336.9(3)
_computing_cell_refinement       'CrysAlisPro 1.171.38.46 (Rigaku OD, 2015)'
_computing_data_collection       'CrysAlisPro 1.171.38.46 (Rigaku OD, 2015)'
_computing_data_reduction        'CrysAlisPro 1.171.38.46 (Rigaku OD, 2015)'
_diffrn_ambient_pressure         '2.02 GPa'
_diffrn_ambient_temperature      293
_diffrn_detector                 'CCD plate'
_diffrn_measured_fraction_theta_full 0.98
_diffrn_measured_fraction_theta_max 0.9
_diffrn_measurement_device       'ID15B beamline, ESRF'
_diffrn_measurement_device_type
'esperanto-CrysAlisPro-abstract goniometer imported esperanto images'
_diffrn_measurement_method       '\w scans'
_diffrn_measurement_specimen_support 'diamond-anvil cell'
_diffrn_radiation_monochromator  synchrotron
_diffrn_radiation_probe          x-ray
_diffrn_radiation_source         synchrotron
_diffrn_radiation_type           synchrotron
_diffrn_radiation_wavelength     0.41128
_diffrn_reflns_av_R_equivalents  0.0351
_diffrn_reflns_av_unetI/netI     0.0594
_diffrn_reflns_limit_h_max       7
_diffrn_reflns_limit_h_min       -7
_diffrn_reflns_limit_k_max       8
_diffrn_reflns_limit_k_min       -8
_diffrn_reflns_limit_l_max       8
_diffrn_reflns_limit_l_min       -8
_diffrn_reflns_number            2736
_diffrn_reflns_theta_full        11.94
_diffrn_reflns_theta_max         13.47
_diffrn_reflns_theta_min         1.85
_diffrn_source                   synchrotron
_exptl_absorpt_coefficient_mu    0.634
_exptl_absorpt_correction_T_max  1
_exptl_absorpt_correction_T_min  0.795
_exptl_absorpt_correction_type   multi-scan
_exptl_absorpt_process_details
;
CrysAlisPro 1.171.38.46 (Rigaku Oxford Diffraction, 2015)
Empirical absorption correction using spherical harmonics,
 implemented in SCALE3 ABSPACK scaling algorithm.
;
_exptl_crystal_colour            green
_exptl_crystal_density_diffrn    2.0878
_exptl_crystal_description       'hexagonal bipyramid'
_exptl_crystal_F_000             208
_exptl_crystal_size_max          0.075
_exptl_crystal_size_mid          0.060
_exptl_crystal_size_min          0.050
_refine_ls_abs_structure_details
'  736 of Friedel pairs used in the refinement'
_refine_ls_extinction_method     none
_refine_ls_goodness_of_fit_gt    2.69
_refine_ls_goodness_of_fit_ref   2.35
_refine_ls_hydrogen_treatment    constr
_refine_ls_number_constraints    49
_refine_ls_number_parameters     69
_refine_ls_number_reflns         2736
_refine_ls_number_restraints     0
_refine_ls_R_factor_all          0.1050
_refine_ls_R_factor_gt           0.0853
_refine_ls_shift/su_max          0.0433
_refine_ls_shift/su_mean         0.0042
_refine_ls_structure_factor_coef F
_refine_ls_weighting_details     w=1/(\s^2^(F)+0.0001F^2^)
_refine_ls_weighting_scheme      sigma
_refine_ls_wR_factor_gt          0.0945
_refine_ls_wR_factor_ref         0.0997
_reflns_number_gt                1880
_reflns_number_total             2736
_reflns_threshold_expression     I>3\s(I)
_cod_data_source_file            c8cp03761b2.cif
_cod_data_source_block           ANiF_c2_p10
_cod_depositor_comments
;
The following automatic conversions were performed:

'_diffrn_radiation_probe' value 'X-ray' changed to 'x-ray' according
to
/home/data/users/saulius/crontab/automatic-downloads/rss-feeds/RSC/lib/dictionaries/cif_core.dic
dictionary named 'cif_core.dic' version 2.4.2 from 2011-04-26.

Automatic conversion script
Id: cif_fix_values 4973 2017-02-22 13:04:09Z antanas 

 Adding full bibliography for 7231402--7231432.cif.
;
_cod_original_formula_sum        'C3 H7 N1 Ni1 O6'
_cod_database_code               7231411
loop_
_space_group_symop_id
_space_group_symop_operation_xyz
1 x,y,z
2 -x,y+1/2,-z
loop_
_atom_site_label
_atom_site_type_symbol
_atom_site_fract_x
_atom_site_fract_y
_atom_site_fract_z
_atom_site_adp_type
_atom_site_U_iso_or_equiv
_atom_site_site_symmetry_multiplicity
_atom_site_occupancy
_atom_site_calc_flag
Ni1 Ni 0.6607(3) 0.2536(2) 0.31888(19) Uani 0.0644(7) 2 1 d
N1 N 0.9785(14) 0.253(2) 0.9477(12) Uani 0.064(4) 2 1 d
O1 O 0.4058(14) 0.3986(11) 0.1074(11) Uani 0.073(3) 2 1 d
O2 O 0.6768(16) 0.3940(10) 0.5573(12) Uani 0.076(3) 2 1 d
C3 C 0.951(2) -0.0260(15) 0.553(2) Uani 0.076(3) 2 1 d
O4 O 0.7004(16) 0.1081(11) 0.1082(11) Uani 0.073(3) 2 1 d
O5 O 0.3836(16) 0.1156(11) 0.2934(13) Uani 0.076(3) 2 1 d
C2 C 0.601(2) 0.5346(15) 0.551(2) Uani 0.076(3) 2 1 d
O3 O 0.8778(16) 0.1120(10) 0.5556(12) Uani 0.076(3) 2 1 d
O6 O 0.9136(15) 0.3925(11) 0.2912(13) Uani 0.076(3) 2 1 d
C1 C 0.450(3) 0.503(2) -0.005(2) Uani 0.073(3) 2 1 d
H1c1 H 0.596418 0.500296 -0.009829 Uiso 0.0878 2 1 d
H1c2 H 0.52486 0.587338 0.419302 Uiso 0.0913 2 1 d
H1c3 H 0.902187 -0.078078 0.421639 Uiso 0.0916 2 1 d
loop_
_atom_site_aniso_label
_atom_site_aniso_type_symbol
_atom_site_aniso_U_11
_atom_site_aniso_U_22
_atom_site_aniso_U_33
_atom_site_aniso_U_12
_atom_site_aniso_U_13
_atom_site_aniso_U_23
Ni1 Ni 0.1000(11) 0.0218(7) 0.0607(9) -0.0009(10) 0.0255(7) 0.0004(11)
N1 N 0.079(5) 0.033(5) 0.080(6) -0.002(8) 0.034(5) 0.002(10)
O1 O 0.112(4) 0.044(3) 0.050(4) -0.004(3) 0.023(3) 0.003(3)
O2 O 0.114(5) 0.039(3) 0.069(4) 0.005(3) 0.034(3) 0.004(3)
C3 C 0.104(5) 0.034(3) 0.070(4) -0.002(3) 0.019(3) -0.009(3)
O4 O 0.112(4) 0.044(3) 0.050(4) -0.004(3) 0.023(3) 0.003(3)
O5 O 0.114(5) 0.039(3) 0.069(4) 0.005(3) 0.034(3) 0.004(3)
C2 C 0.114(5) 0.039(3) 0.069(4) 0.005(3) 0.034(3) 0.004(3)
O3 O 0.104(5) 0.034(3) 0.070(4) -0.002(3) 0.019(3) -0.009(3)
O6 O 0.104(5) 0.034(3) 0.070(4) -0.002(3) 0.019(3) -0.009(3)
C1 C 0.112(4) 0.044(3) 0.050(4) -0.004(3) 0.023(3) 0.003(3)
loop_
_atom_type_symbol
_atom_type_scat_dispersion_real
_atom_type_scat_dispersion_imag
_atom_type_scat_source
C -0.0001 0.0005 'International Tables Vol C tables 4.2.6.8 and 6.1.1.1'
H 0.0000 0.0000 'International Tables Vol C tables 4.2.6.8 and 6.1.1.1'
N 0.0006 0.0010 'International Tables Vol C tables 4.2.6.8 and 6.1.1.1'
Ni 0.2309 0.4094 'International Tables Vol C tables 4.2.6.8 and 6.1.1.1'
O 0.0018 0.0018 'International Tables Vol C tables 4.2.6.8 and 6.1.1.1'
loop_
_geom_angle_atom_site_label_1
_geom_angle_atom_site_label_2
_geom_angle_atom_site_label_3
_geom_angle_site_symmetry_1
_geom_angle_site_symmetry_3
_geom_angle
O1 Ni1 O2 . . 92.6(3)
O1 Ni1 O4 . . 95.1(3)
O1 Ni1 O5 . . 82.2(4)
O1 Ni1 O3 . . 169.8(4)
O1 Ni1 O6 . . 91.3(4)
O2 Ni1 O4 . . 170.7(3)
O2 Ni1 O5 . . 95.5(4)
O2 Ni1 O3 . . 80.4(3)
O2 Ni1 O6 . . 92.0(4)
O4 Ni1 O5 . . 90.7(4)
O4 Ni1 O3 . . 92.6(4)
O4 Ni1 O6 . . 82.7(4)
O5 Ni1 O3 . . 91.0(4)
O5 Ni1 O6 . . 170.3(3)
O3 Ni1 O6 . . 96.3(4)
Ni1 O1 C1 . . 121.4(9)
Ni1 O2 C2 . . 127.8(8)
O3 C3 O6 . 2_746 125.6(12)
O3 C3 H1c3 . . 117.17
O6 C3 H1c3 2_746 . 117.18
Ni1 O4 C1 . 2_645 121.4(12)
Ni1 O5 C2 . 2_646 118.5(7)
O2 C2 O5 . 2_656 124.6(11)
O2 C2 H1c2 . . 117.7
O5 C2 H1c2 2_656 . 117.7
Ni1 O3 C3 . . 129.3(8)
Ni1 O6 C3 . 2_756 117.3(10)
O1 C1 O4 . 2_655 119.7(16)
O1 C1 H1c1 . . 120.17
O4 C1 H1c1 2_655 . 120.17
loop_
_geom_bond_atom_site_label_1
_geom_bond_atom_site_label_2
_geom_bond_site_symmetry_2
_geom_bond_distance
Ni1 O1 . 2.046(8)
Ni1 O2 . 2.030(9)
Ni1 O4 . 2.029(10)
Ni1 O5 . 2.037(10)
Ni1 O3 . 2.021(8)
Ni1 O6 . 2.054(10)
O1 C1 . 1.28(2)
O2 C2 . 1.225(15)
C3 O3 . 1.209(15)
C3 O6 2_746 1.264(14)
C3 H1c3 . 0.96
O4 C1 2_645 1.253(17)
O5 C2 2_646 1.268(18)
C2 H1c2 . 0.96
C1 H1c1 . 0.96
loop_
_geom_hbond_atom_site_label_D
_geom_hbond_atom_site_label_H
_geom_hbond_atom_site_label_A
_geom_hbond_site_symmetry_A
_geom_hbond_distance_DH
_geom_hbond_distance_HA
_geom_hbond_distance_DA
_geom_hbond_angle_DHA
C1 H1c1 O5 2_655 0.96 2.31 2.89(2) 117.70
C1 H1c1 O6 . 0.96 2.40 2.942(16) 115.43
loop_
_twin_individual_id
_twin_individual_mass_fraction_refined
_twin_individual_twin_matrix_11
_twin_individual_twin_matrix_12
_twin_individual_twin_matrix_13
_twin_individual_twin_matrix_21
_twin_individual_twin_matrix_22
_twin_individual_twin_matrix_23
_twin_individual_twin_matrix_31
_twin_individual_twin_matrix_32
_twin_individual_twin_matrix_33
1 0.180(4) 1 0 0 0 1 0 0 0 1
2 0.1770(16) 1 0 0 0 -1 0 0.7799 0 -1
3 0.1523(16) -0.0754 0 -1.089 0 1 0 0.8543 0 -0.9246
4 0.1799(18) -0.9246 0 1.089 0 -1 0 0.1332 0 0.9247
5 0.1794(16) -0.9246 0 1.089 0 1 0 -0.8543 0 -0.0754
6 0.1316(14) -0.0754 0 -1.089 0 -1 0 -0.9131 0 0.0753
loop_
_twin_refln_datum_id
_twin_refln_individual_id
_twin_refln_index_h
_twin_refln_index_k
_twin_refln_index_l
_twin_refln_f_squared_calc
_twin_refln_f_squared_meas
_twin_refln_f_squared_sigma
_twin_refln_include_status
1 1 0 -3 -6 0.50 0.32 0.26 <
2 1 0 -2 -4 6.24 3.85 0.85 o
3 1 0 -2 -5 31.23 31.20 2.84 o
4 1 0 -2 -6 12.81 12.46 2.23 o
5 1 0 -2 -7 0.79 1.50 0.78 <
6 1 0 -1 -3 60.98 53.98 3.10 o
7 1 0 -1 -4 193.40 180.48 7.05 o
8 1 0 -1 -5 34.70 39.44 3.73 o
9 1 0 -1 -6 14.53 8.14 1.95 o
10 1 0 -1 -7 2.63 4.19 1.64 <
11 1 0 0 -2 3.14 3.03 0.79 o
12 1 0 0 -3 180.07 138.99 6.47 o
13 1 0 0 -4 0.70 -0.07 0.54 <
14 1 0 0 -5 85.47 89.74 6.69 o
15 1 0 0 -6 3.88 3.26 1.52 <
16 1 0 5 3 1.79 0.39 0.37 <
17 1 0 6 4 4.97 0.93 0.43 <
18 1 0 7 4 67.10 41.38 4.21 o
19 1 -1 -4 2 282.04 299.86 13.35 o
20 1 -1 -4 1 33.44 32.60 3.83 o
21 2 -1 4 0 58.04 72.14 5.12 o
21 1 -1 -4 0 58.04 72.14 5.12 o
22 6 1 4 1 488.39 527.76 13.04 o
22 1 -1 -4 -1 488.39 527.76 13.04 o
23 1 1 -3 -7 5.16 5.48 1.68 o
24 1 -1 -3 3 239.87 225.33 11.73 o
25 1 -1 -3 2 24.65 26.75 3.52 o
26 1 -1 -3 1 95.82 105.35 6.28 o
27 2 -1 3 0 179.63 202.73 8.27 o
27 1 -1 -3 0 179.63 202.73 8.27 o
28 6 1 3 1 39.52 44.43 3.04 o
28 1 -1 -3 -1 39.52 44.43 3.04 o
29 1 -1 -3 -5 15.32 5.91 1.12 o
30 1 -1 -3 -6 6.12 3.66 1.11 o
31 1 1 -2 -7 7.98 6.60 2.14 o
32 1 1 -2 -6 0.96 1.56 0.96 <
33 1 1 -2 -5 42.98 37.34 3.84 o
34 1 1 -2 -4 23.54 25.89 3.30 o
35 1 -1 -2 4 23.54 40.13 5.18 o
36 1 -1 -2 3 157.13 153.14 9.02 o
37 1 -1 -2 2 629.15 668.98 16.95 o
38 1 -1 -2 1 8.99 6.73 1.36 o
39 2 -1 2 0 20.90 12.52 1.56 o
39 1 -1 -2 0 20.90 12.52 1.56 o
40 6 1 2 1 1103.60 1363.17 15.26 o
40 1 -1 -2 -1 1103.60 1363.17 15.26 o
41 1 1 -1 -7 3.46 3.52 1.20 <
42 1 1 -1 -6 24.33 20.96 3.28 o
43 1 -1 -1 5 31.26 30.26 4.35 o
44 1 1 -1 -5 31.26 27.79 3.40 o
45 1 1 -1 -4 93.95 97.21 5.96 o
46 1 -1 -1 4 93.95 98.53 7.27 o
47 1 1 -1 -3 62.42 62.31 4.11 o
48 1 -1 -1 3 62.42 62.58 5.07 o
49 1 -1 -1 2 218.70 221.09 8.58 o
50 1 -1 -1 1 557.19 544.33 11.60 o
51 2 -1 1 0 1103.25 1111.98 14.66 o
51 1 -1 -1 0 1103.25 1111.98 14.66 o
52 1 1 0 -7 5.98 4.90 1.83 <
53 1 1 0 -6 3.09 3.49 1.51 <
54 1 -1 0 5 123.85 142.46 8.81 o
55 1 1 0 -5 123.85 144.11 8.71 o
56 1 1 0 -4 123.18 146.22 7.85 o
57 1 -1 0 4 123.18 137.39 7.91 o
58 1 1 0 -3 1.47 1.08 0.66 <
59 1 -1 0 3 1.47 0.78 0.46 <
60 1 1 0 -2 77.18 88.62 4.82 o
61 1 -1 0 2 77.18 88.48 4.79 o
62 1 -1 0 1 216.64 156.02 5.70 o
63 1 1 0 -1 216.64 158.82 5.70 o
64 1 1 1 -7 3.20 3.65 1.77 <
65 1 1 1 -6 23.52 24.79 4.19 o
66 1 1 1 -5 30.14 30.79 4.27 o
67 1 -1 1 5 30.14 28.47 3.61 o
68 1 -1 1 4 92.95 95.73 5.56 o
69 1 1 1 -4 92.95 96.57 6.81 o
70 1 1 1 -3 66.75 53.09 4.61 o
71 1 -1 1 3 66.75 55.25 3.77 o
72 1 -1 1 2 221.17 232.47 7.15 o
73 1 1 1 -2 221.17 228.13 8.89 o
74 1 1 1 -1 557.53 543.54 11.61 o
75 2 1 -1 0 1103.24 1105.40 14.48 o
75 1 1 1 0 1103.24 1105.40 14.48 o
76 1 1 2 -7 8.19 71.43 8.81 o
77 1 -1 2 6 0.96 -0.62 0.65 <
78 1 1 2 -6 0.96 1.83 1.52 <
79 1 1 2 -5 41.73 43.83 5.54 o
80 1 -1 2 5 41.73 44.28 3.75 o
81 1 -1 2 4 22.72 34.70 3.12 o
82 1 1 2 -4 22.72 41.23 5.21 o
83 1 -1 2 3 153.43 148.65 5.96 o
84 1 1 2 -3 153.43 147.21 8.72 o
85 1 1 2 -2 629.25 645.17 16.35 o
86 1 1 2 -1 10.58 4.86 1.08 o
87 2 1 -2 0 20.88 13.57 1.67 o
87 1 1 2 0 20.88 13.57 1.67 o
88 6 -1 -2 -1 1103.46 1306.24 15.43 o
88 1 1 2 1 1103.46 1306.24 15.43 o
89 1 -1 3 6 14.38 12.54 2.02 o
90 1 -1 3 5 14.56 13.97 1.87 o
91 1 -1 3 4 52.43 48.85 3.36 o
92 1 1 3 -4 52.43 59.31 6.56 o
93 1 1 3 -3 239.54 228.45 11.98 o
94 1 1 3 -2 25.20 24.79 3.37 o
95 1 1 3 -1 95.41 97.47 6.04 o
96 2 1 -3 0 179.64 193.93 8.10 o
96 1 1 3 0 179.64 193.93 8.10 o
97 6 -1 -3 -1 39.39 46.59 3.26 o
97 1 1 3 1 39.39 46.59 3.26 o
98 1 -1 4 6 0.70 1.27 0.50 <
99 1 -1 4 5 7.83 5.14 1.07 o
100 1 1 4 -2 279.93 309.57 14.20 o
101 1 1 4 -1 32.14 34.58 3.94 o
102 2 1 -4 0 58.06 74.15 5.44 o
102 1 1 4 0 58.06 74.15 5.44 o
103 6 -1 -4 -1 488.94 638.52 15.25 o
103 1 1 4 1 488.94 638.52 15.25 o
104 1 1 4 2 34.37 27.74 2.57 o
105 1 -1 5 5 8.54 3.11 0.79 o
106 1 1 5 -1 71.05 96.84 7.79 o
107 2 1 -5 0 147.16 202.54 10.66 o
107 1 1 5 0 147.16 202.54 10.66 o
108 6 -1 -5 -1 71.70 70.92 5.68 o
108 1 1 5 1 71.70 70.92 5.68 o
109 1 1 5 2 94.68 105.90 5.81 o
110 2 1 -6 0 33.20 62.87 6.24 o
110 1 1 6 0 33.20 62.87 6.24 o
111 6 -1 -6 -1 186.66 244.80 11.57 o
111 1 1 6 1 186.66 244.80 11.57 o
112 1 1 6 2 27.18 25.69 3.25 o
113 1 1 6 3 14.18 8.78 1.70 o
114 6 -1 -7 -1 0.88 2.04 1.39 <
114 1 1 7 1 0.88 2.04 1.39 <
115 1 1 7 2 11.43 10.07 2.12 o
116 1 1 7 3 18.93 11.40 2.11 o
117 6 -1 -8 -1 57.64 57.37 6.57 o
117 1 1 8 1 57.64 57.37 6.57 o
118 1 1 8 2 9.19 5.38 1.70 o
119 1 -2 -6 3 21.00 15.48 3.77 o
120 1 -2 -6 2 15.75 17.31 3.73 o
121 1 -2 -6 1 65.29 55.24 6.09 o
122 2 -2 6 0 31.37 36.16 4.80 o
122 1 -2 -6 0 31.37 36.16 4.80 o
123 1 -2 -6 -1 17.46 15.74 2.78 o
124 6 2 6 2 46.52 40.52 3.82 o
124 1 -2 -6 -2 46.52 40.52 3.82 o
125 1 -2 -5 4 16.57 33.86 5.93 o
126 1 -2 -5 3 57.54 80.54 8.49 o
127 1 -2 -5 2 83.42 82.35 7.87 o
128 1 -2 -5 1 31.53 36.94 4.70 o
129 2 -2 5 0 170.44 163.49 9.49 o
129 1 -2 -5 0 170.44 163.49 9.49 o
130 1 -2 -5 -1 57.93 68.60 5.41 o
131 6 2 5 2 24.38 24.96 2.66 o
131 1 -2 -5 -2 24.38 24.96 2.66 o
132 1 -2 -5 -3 32.91 20.66 2.13 o
133 1 -2 -4 5 0.28 1.42 1.74 <
134 1 -2 -4 4 123.69 182.82 13.01 o
135 1 -2 -4 3 74.43 83.38 7.95 o
136 1 -2 -4 2 1.95 3.14 1.57 <
137 1 -2 -4 1 324.14 303.89 12.79 o
138 2 -2 4 0 4.06 6.57 1.61 o
138 1 -2 -4 0 4.06 6.57 1.61 o
139 1 -2 -4 -1 73.39 74.08 5.47 o
140 6 2 4 2 238.23 262.19 8.77 o
140 1 -2 -4 -2 238.23 262.19 8.77 o
141 1 -2 -4 -3 0.30 -0.08 0.06 <
142 1 -2 -4 -4 21.93 11.61 1.43 o
143 1 -2 -4 -5 7.35 2.46 0.70 o
144 1 -2 -3 6 5.79 6.71 2.42 <
145 1 -2 -3 5 44.47 87.04 8.94 o
146 1 -2 -3 4 14.06 30.11 5.24 o
147 1 -2 -3 3 126.56 153.50 10.10 o
148 1 -2 -3 2 289.96 304.06 13.08 o
149 1 -2 -3 1 5.33 6.19 1.62 o
150 2 -2 3 0 592.16 609.56 15.53 o
150 1 -2 -3 0 592.16 609.56 15.53 o
151 1 -2 -3 -1 144.70 155.32 7.75 o
152 6 2 3 2 19.90 16.62 2.29 o
152 1 -2 -3 -2 19.90 16.62 2.29 o
153 1 2 -2 -7 3.99 4.85 2.03 <
154 1 -2 -2 7 3.99 3.82 1.54 <
155 1 -2 -2 6 29.53 41.11 6.15 o
156 1 2 -2 -6 29.53 21.42 3.58 o
157 1 -2 -2 5 12.92 19.10 3.93 o
158 1 2 -2 -5 12.92 10.97 2.55 o
159 1 -2 -2 4 70.43 91.83 7.80 o
160 1 -2 -2 3 105.57 116.43 8.05 o
161 1 -2 -2 2 53.04 48.60 4.96 o
162 1 -2 -2 1 410.68 384.58 13.20 o
163 2 -2 2 0 119.27 84.10 6.06 o
163 1 -2 -2 0 119.27 84.10 6.06 o
164 1 -2 -1 7 2.59 2.62 1.67 <
165 1 2 -1 -7 2.59 2.08 1.13 <
166 1 -2 -1 6 16.26 18.17 3.71 o
167 1 2 -1 -6 16.26 11.74 2.75 o
168 1 -2 -1 5 27.84 45.96 5.43 o
169 1 2 -1 -5 27.84 31.12 4.45 o
170 1 -2 -1 4 25.83 46.92 5.35 o
171 1 2 -1 -4 25.83 39.35 4.82 o
172 1 -2 -1 3 138.42 134.71 8.49 o
173 1 -2 -1 2 62.37 46.72 4.76 o
174 1 -2 -1 1 376.85 329.00 12.20 o
175 1 -2 0 7 9.95 9.77 2.80 o
176 1 2 0 -7 9.95 10.78 3.31 o
177 1 -2 0 6 1.92 4.19 1.73 <
178 1 2 0 -6 1.92 3.33 1.79 <
179 1 -2 0 5 0.79 1.56 0.60 <
180 1 2 0 -5 0.79 1.78 1.22 <
181 1 -2 0 4 106.67 125.55 8.18 o
182 1 2 0 -4 106.67 133.62 8.57 o
183 1 -2 0 3 0.85 0.13 0.18 <
184 1 2 0 -3 0.85 -0.15 0.35 <
185 1 -2 0 2 0.38 1.53 0.70 <
186 1 2 0 -2 0.38 1.34 0.83 <
187 1 -2 1 7 2.83 1.27 0.46 <
188 1 2 1 -7 2.83 1.89 1.18 <
189 1 -2 1 6 16.59 14.75 2.92 o
190 1 2 1 -6 16.59 17.48 3.75 o
191 1 -2 1 5 27.20 40.74 4.63 o
192 1 2 1 -5 27.20 44.20 5.48 o
193 1 -2 1 4 26.61 37.77 4.29 o
194 1 2 1 -4 26.61 47.20 5.44 o
195 1 2 1 -3 133.63 138.53 8.81 o
196 1 -2 1 3 133.63 134.92 7.75 o
197 1 2 1 -2 58.45 48.71 4.94 o
198 1 2 1 -1 376.52 320.73 11.83 o
199 1 -2 2 7 4.20 5.20 1.75 <
200 1 2 2 -7 4.20 5.64 2.72 <
201 1 2 2 -6 28.93 28.68 5.24 o
202 1 -2 2 6 28.93 28.04 3.64 o
203 1 2 2 -5 13.24 14.40 3.28 o
204 1 -2 2 5 13.24 11.77 2.29 o
205 1 2 2 -4 70.34 90.12 8.06 o
206 1 -2 2 4 70.34 76.22 5.81 o
207 1 2 2 -3 110.25 111.85 8.02 o
208 1 2 2 -2 54.42 47.23 4.94 o
209 1 2 2 -1 410.63 380.20 13.46 o
210 2 2 -2 0 119.25 85.99 5.94 o
210 1 2 2 0 119.25 85.99 5.94 o
211 1 -2 3 7 9.35 5.09 1.38 o
212 1 -2 3 6 6.07 5.42 1.72 o
213 1 2 3 -6 6.07 3.43 1.26 <
214 1 2 3 -5 43.79 75.52 8.22 o
215 1 -2 3 5 43.79 53.89 5.09 o
216 1 2 3 -4 14.29 25.59 5.08 o
217 1 2 3 -3 126.83 153.02 10.37 o
218 1 2 3 -2 290.71 303.58 13.50 o
219 1 2 3 -1 5.30 5.93 1.67 o
220 2 2 -3 0 592.15 574.69 16.06 o
220 1 2 3 0 592.15 574.69 16.06 o
221 1 -2 4 7 6.86 5.69 1.57 o
222 1 -2 4 6 19.59 14.47 2.56 o
223 1 2 4 -5 0.24 2.21 1.75 <
224 1 -2 4 5 0.24 -0.62 0.68 <
225 1 2 4 -4 124.26 159.50 12.07 o
226 1 2 4 -3 73.49 76.33 7.58 o
227 1 2 4 -2 1.44 3.71 1.80 <
228 1 2 4 -1 324.18 325.06 13.80 o
229 2 2 -4 0 4.07 5.08 1.41 o
229 1 2 4 0 4.07 5.08 1.41 o
230 1 2 4 1 74.46 71.57 5.82 o
231 1 -2 5 6 8.58 6.17 1.85 o
232 1 2 5 -4 16.27 32.22 6.02 o
233 1 2 5 -3 58.05 60.52 7.26 o
234 1 2 5 -2 83.69 80.28 7.77 o
235 1 2 5 -1 31.62 36.74 4.92 o
236 2 2 -5 0 170.44 169.17 9.75 o
236 1 2 5 0 170.44 169.17 9.75 o
237 1 2 5 1 57.31 66.76 6.18 o
238 6 -2 -5 -2 24.47 22.13 2.98 o
238 1 2 5 2 24.47 22.13 2.98 o
239 1 2 6 -3 19.39 16.40 4.23 o
240 1 2 6 -2 15.61 16.45 3.63 o
241 1 2 6 -1 65.38 55.31 6.28 o
242 2 2 -6 0 31.37 40.12 5.02 o
242 1 2 6 0 31.37 40.12 5.02 o
243 1 2 6 1 18.97 20.29 3.48 o
244 6 -2 -6 -2 46.72 51.31 4.78 o
244 1 2 6 2 46.72 51.31 4.78 o
245 1 2 7 -2 15.14 10.42 3.44 o
246 1 2 7 -1 0.24 2.45 2.14 <
247 2 2 -7 0 27.22 35.16 5.25 o
247 1 2 7 0 27.22 35.16 5.25 o
248 1 2 7 1 21.37 21.69 3.81 o
249 6 -2 -7 -2 2.17 2.19 1.26 <
249 1 2 7 2 2.17 2.19 1.26 <
250 1 2 7 3 5.57 4.31 1.48 <
251 1 2 8 -1 33.49 23.43 4.88 o
252 2 2 -8 0 3.32 3.24 1.95 <
252 1 2 8 0 3.32 3.24 1.95 <
253 1 2 8 1 5.28 5.28 2.14 <
254 1 -3 -8 1 3.71 2.67 1.43 <
255 1 -3 -7 2 9.23 6.44 2.72 <
256 1 -3 -7 1 8.64 4.87 2.12 <
257 2 -3 7 0 3.20 1.76 1.26 <
257 1 -3 -7 0 3.20 1.76 1.26 <
258 1 -3 -7 -1 29.94 25.48 4.21 o
259 1 -3 -6 3 51.88 45.48 7.00 o
260 1 -3 -6 2 7.65 5.84 2.64 <
261 1 -3 -6 1 7.83 4.07 1.97 <
262 2 -3 6 0 104.24 96.83 7.93 o
262 1 -3 -6 0 104.24 96.83 7.93 o
263 1 -3 -6 -1 0.39 1.75 1.30 <
264 1 -3 -6 -2 9.59 7.97 1.96 o
265 1 -3 -5 4 17.81 12.27 3.40 o
266 1 -3 -5 3 0.40 0.09 0.50 <
267 1 -3 -5 2 60.10 64.12 7.17 o
268 1 -3 -5 1 59.34 61.28 6.90 o
269 2 -3 5 0 1.27 1.52 1.27 <
269 1 -3 -5 0 1.27 1.52 1.27 <
270 1 -3 -5 -1 16.60 12.46 2.63 o
271 1 -3 -5 -2 13.78 7.39 1.77 o
272 1 -3 -5 -3 6.35 7.76 1.75 o
273 1 -3 -4 5 5.16 6.83 2.75 <
274 1 -3 -4 4 3.17 3.10 2.00 <
275 1 -3 -4 3 42.53 37.14 5.49 o
276 1 -3 -4 2 33.06 31.96 4.90 o
277 1 -3 -4 1 31.82 29.47 4.40 o
278 2 -3 4 0 92.21 73.93 6.72 o
278 1 -3 -4 0 92.21 73.93 6.72 o
279 1 -3 -4 -1 3.95 2.56 1.26 <
280 1 -3 -4 -2 3.66 4.23 1.56 <
281 1 -3 -4 -3 15.68 24.26 3.30 o
282 1 -3 -3 6 6.64 4.75 2.06 <
283 1 -3 -3 5 31.19 37.06 5.95 o
284 1 -3 -3 4 11.02 11.83 3.11 o
285 1 -3 -3 3 20.46 16.80 3.46 o
286 1 -3 -3 2 65.77 62.89 6.78 o
287 1 -3 -3 1 62.78 59.41 6.40 o
288 2 -3 3 0 30.88 30.58 4.57 o
288 1 -3 -3 0 30.88 30.58 4.57 o
289 1 -3 -3 -1 13.58 7.17 2.17 o
290 1 -3 -2 7 0.24 0.81 1.21 <
291 1 3 -2 -7 0.24 2.18 1.19 <
292 1 -3 -2 6 30.36 47.10 6.65 o
293 1 -3 -2 5 17.95 28.97 5.06 o
294 1 -3 -2 4 0.31 -0.76 1.30 <
295 1 -3 -2 3 92.51 95.20 8.40 o
296 1 -3 -2 2 73.57 61.62 6.57 o
297 1 -3 -2 1 73.75 64.73 6.50 o
298 1 -3 -1 8 1.57 0.58 0.88 <
299 1 3 -1 -8 1.57 3.02 1.69 <
300 1 -3 -1 7 4.81 7.86 2.78 <
301 1 3 -1 -7 4.81 9.15 3.33 <
302 1 3 -1 -6 8.61 7.87 2.73 <
303 1 -3 -1 6 8.61 9.15 3.00 o
304 1 -3 -1 5 25.19 42.38 5.82 o
305 1 3 -1 -5 25.19 38.05 5.31 o
306 1 -3 -1 4 90.27 101.64 8.62 o
307 1 -3 -1 3 1.73 0.42 0.60 <
308 1 -3 -1 2 91.78 78.93 7.74 o
309 1 -3 0 8 8.15 13.21 3.60 o
310 1 3 0 -8 8.15 10.50 3.53 <
311 1 -3 0 7 0.02 -0.16 0.21 <
312 1 3 0 -7 0.02 1.40 1.06 <
313 1 3 0 -6 0.40 0.43 0.66 <
314 1 -3 0 6 0.40 1.74 0.82 <
315 1 -3 0 5 32.00 48.36 6.15 o
316 1 3 0 -5 32.00 47.50 6.07 o
317 1 -3 0 4 15.15 23.51 3.91 o
318 1 3 0 -4 15.15 24.12 3.93 o
319 1 -3 0 3 237.08 214.29 12.31 o
320 1 3 0 -3 237.08 205.31 12.63 o
321 1 -3 1 8 1.59 2.30 1.31 <
322 1 3 1 -8 1.59 3.17 1.83 <
323 1 3 1 -7 4.82 7.43 2.81 <
324 1 -3 1 7 4.82 7.64 2.35 o
325 1 3 1 -6 8.33 5.43 1.86 <
326 1 -3 1 6 8.33 5.95 2.22 <
327 1 -3 1 5 26.33 31.03 4.66 o
328 1 3 1 -5 26.33 34.66 5.16 o
329 1 3 1 -4 91.39 99.33 8.72 o
330 1 -3 1 4 91.39 96.33 7.94 o
331 1 3 1 -3 1.77 0.94 0.74 <
332 1 3 1 -2 94.27 75.41 7.70 o
333 1 3 2 -7 0.24 -0.29 0.99 <
334 1 -3 2 7 0.24 1.75 1.41 <
335 1 -3 2 6 30.80 33.94 4.98 o
336 1 3 2 -6 30.80 39.93 6.43 o
337 1 -3 2 5 17.83 23.14 4.00 o
338 1 3 2 -5 17.83 27.04 5.00 o
339 1 3 2 -4 0.30 0.72 0.38 <
340 1 3 2 -3 92.13 96.53 8.64 o
341 1 3 2 -2 70.03 69.97 7.04 o
342 1 3 2 -1 77.22 59.08 6.48 o
343 1 -3 3 7 8.26 6.92 2.36 <
344 1 -3 3 6 6.37 3.90 1.70 <
345 1 3 3 -6 6.37 4.54 2.27 <
346 1 3 3 -5 31.50 32.92 5.56 o
347 1 3 3 -4 12.06 9.15 2.79 o
348 1 3 3 -3 20.35 19.24 3.84 o
349 1 3 3 -2 66.18 58.73 6.67 o
350 1 3 3 -1 62.36 63.09 6.77 o
351 1 -3 4 7 0.02 1.69 1.54 <
352 1 3 4 -5 5.09 4.68 2.24 <
353 1 3 4 -4 3.18 2.84 1.75 <
354 1 3 4 -3 42.81 36.57 5.94 o
355 1 3 4 -2 33.93 32.86 5.11 o
356 1 3 4 -1 30.94 31.59 4.81 o
357 2 3 -4 0 92.21 74.14 7.11 o
357 1 3 4 0 92.21 74.14 7.11 o
358 1 3 5 -4 16.66 15.76 4.11 o
359 1 3 5 -3 0.46 0.04 0.35 <
360 1 3 5 -2 59.45 58.36 7.46 o
361 1 3 5 -1 60.00 59.77 7.78 o
362 2 3 -5 0 1.27 0.16 0.48 <
362 1 3 5 0 1.27 0.16 0.48 <
363 1 3 5 1 17.73 11.18 2.60 o
364 1 3 6 -3 51.84 42.10 6.90 o
365 1 3 6 -2 8.59 4.50 2.68 <
366 1 3 6 -1 6.95 4.65 2.26 <
367 2 3 -6 0 104.24 92.44 8.79 o
367 1 3 6 0 104.24 92.44 8.79 o
368 1 3 6 1 0.42 0.50 0.54 <
369 1 3 7 -2 8.93 5.70 2.27 <
370 1 3 7 -1 8.92 6.25 3.09 <
371 2 3 -7 0 3.20 3.09 1.81 <
371 1 3 7 0 3.20 3.09 1.81 <
372 1 3 7 1 29.74 29.03 4.66 o
373 1 3 8 -1 4.04 5.04 2.70 <
374 1 -4 -7 1 11.29 9.15 3.31 <
375 1 -4 -6 2 15.40 7.83 3.02 <
376 1 -4 -6 1 2.11 1.36 1.06 <
377 2 -4 6 0 12.11 13.22 3.41 o
377 1 -4 -6 0 12.11 13.22 3.41 o
378 1 -4 -6 -1 12.12 9.76 2.85 o
379 1 -4 -5 3 13.11 8.63 2.77 o
380 1 -4 -5 2 0.25 -0.33 0.97 <
381 1 -4 -5 1 14.83 7.93 2.72 <
382 2 -4 5 0 15.01 10.32 2.96 o
382 1 -4 -5 0 15.01 10.32 2.96 o
383 1 -4 -5 -1 2.01 0.71 0.34 <
384 1 -4 -5 -2 4.73 5.47 2.01 <
385 1 -4 -4 4 0.21 0.32 0.52 <
386 1 -4 -4 3 1.41 1.48 1.20 <
387 1 -4 -4 2 49.75 55.39 7.19 o
388 1 -4 -4 1 1.63 -0.85 1.59 <
389 2 -4 4 0 0.28 0.69 0.85 <
389 1 -4 -4 0 0.28 0.69 0.85 <
390 1 -4 -4 -1 6.41 2.67 1.57 <
391 1 -4 -3 5 1.13 1.33 1.76 <
392 1 -4 -3 4 3.86 0.59 0.64 <
393 1 -4 -3 3 18.66 13.51 3.75 o
394 1 -4 -3 2 0.21 -0.07 0.78 <
395 1 -4 -3 1 18.22 12.59 3.44 o
396 1 -4 -2 6 0.67 0.83 0.85 <
397 1 -4 -2 5 15.18 12.75 3.42 o
398 1 -4 -2 4 5.16 3.64 2.01 <
399 1 -4 -2 3 7.52 5.03 2.57 <
400 1 -4 -2 2 68.12 58.16 7.46 o
401 1 4 -1 -7 1.98 1.22 0.41 <
402 1 -4 -1 7 1.98 2.37 1.47 <
403 1 -4 -1 6 6.49 9.02 3.26 <
404 1 4 -1 -6 6.49 5.69 2.37 <
405 1 -4 -1 5 8.72 4.74 1.71 <
406 1 -4 -1 4 49.24 55.88 7.05 o
407 1 -4 -1 3 37.92 35.92 5.74 o
408 1 -4 0 7 3.58 3.30 1.45 <
409 1 4 0 -7 3.58 3.64 2.02 <
410 1 -4 0 6 1.12 -0.98 0.94 <
411 1 4 0 -6 1.12 2.86 2.04 <
412 1 -4 0 5 51.40 71.89 8.34 o
413 1 4 0 -5 51.40 69.63 8.23 o
414 1 -4 0 4 39.54 45.74 6.38 o
415 1 4 1 -7 1.85 1.48 0.94 <
416 1 -4 1 7 1.85 1.26 1.14 <
417 1 -4 1 6 6.62 7.53 2.70 <
418 1 4 1 -6 6.62 6.39 2.56 <
419 1 4 1 -5 8.61 3.66 1.55 <
420 1 -4 1 5 8.61 4.76 2.02 <
421 1 4 1 -4 49.03 54.63 7.28 o
422 1 4 1 -3 38.15 33.40 5.73 o
423 1 -4 2 7 4.28 3.32 1.33 <
424 1 -4 2 6 0.67 1.31 1.49 <
425 1 4 2 -6 0.67 1.87 1.54 <
426 1 4 2 -5 15.62 12.80 3.74 o
427 1 4 2 -4 5.20 4.78 2.23 <
428 1 4 2 -3 7.07 5.25 2.30 <
429 1 4 2 -2 68.08 55.20 7.48 o
430 1 -4 3 7 3.76 3.04 1.68 <
431 1 4 3 -5 1.24 -1.12 2.16 <
432 1 4 3 -4 3.63 2.10 1.10 <
433 1 4 3 -3 17.69 14.61 3.87 o
434 1 4 3 -2 0.20 0.02 0.23 <
435 1 4 4 -4 0.14 1.58 1.47 <
436 1 4 4 -3 1.61 0.28 0.85 <
437 1 4 4 -2 49.70 50.10 7.32 o
438 1 4 4 -1 1.43 1.72 1.51 <
439 1 4 5 -3 13.95 6.55 2.43 <
440 1 4 5 -2 0.24 -1.60 1.70 <
441 1 4 5 -1 14.00 8.70 2.98 <
442 2 4 -5 0 15.00 7.83 2.77 <
442 1 4 5 0 15.00 7.83 2.77 <
443 1 4 6 -2 15.44 6.99 3.16 <
444 1 4 6 -1 2.01 1.55 0.24 o
445 2 4 -6 0 12.11 9.66 2.91 o
445 1 4 6 0 12.11 9.66 2.91 o
446 1 4 7 -1 11.46 7.53 3.30 <
447 1 -5 -6 1 6.10 3.97 1.79 <
448 1 -5 -5 2 6.32 3.80 1.64 <
449 1 -5 -5 1 0.30 1.23 0.84 <
450 2 -5 5 0 6.29 7.02 2.73 <
450 1 -5 -5 0 6.29 7.02 2.73 <
451 1 -5 -4 3 1.49 2.16 1.90 <
452 1 -5 -4 2 0.99 3.16 2.48 <
453 1 -5 -4 1 9.19 4.80 2.60 <
454 2 -5 4 0 0.17 1.71 1.85 <
454 1 -5 -4 0 0.17 1.71 1.85 <
455 1 -5 -3 4 0.06 0.41 1.54 <
456 1 -5 -3 3 18.60 13.47 3.93 o
457 1 -5 -3 2 18.66 16.88 4.17 o
458 1 -5 -2 5 0.18 0.45 1.29 <
459 1 -5 -2 4 15.10 10.16 3.46 <
460 1 -5 -2 3 2.41 3.89 2.32 <
461 1 -5 -1 5 6.38 5.24 2.68 <
462 1 5 0 -6 0.88 2.28 1.53 <
463 1 -5 0 6 0.88 1.52 1.58 <
464 1 5 1 -5 6.17 6.93 2.77 <
465 6 -6 -2 6 3.07 1.25 1.61 <
465 1 -5 2 7 3.07 1.25 1.61 <
466 1 5 2 -5 0.19 -0.25 1.63 <
467 1 5 2 -4 14.71 9.41 3.10 o
468 1 5 3 -4 0.06 -0.27 1.11 <
469 1 5 3 -3 18.30 15.81 4.16 o
470 1 5 4 -3 1.48 0.55 1.78 <
471 1 5 4 -2 0.98 0.68 0.50 <
472 1 5 5 -2 6.02 3.96 2.03 <
473 1 5 5 -1 0.30 -0.68 1.99 <
474 1 5 6 -1 6.06 5.01 2.76 <
475 2 0 -6 2 41.22 40.34 4.36 o
476 2 0 -6 3 48.39 26.50 3.63 o
477 2 0 -5 2 118.87 113.10 6.72 o
478 2 0 -5 3 1.77 2.42 1.24 <
479 2 0 -5 4 10.93 4.59 1.56 <
480 2 0 -4 1 1.74 1.90 0.78 <
481 2 0 -4 2 14.10 20.30 2.52 o
482 2 0 -4 3 139.05 124.50 7.39 o
483 2 0 -4 4 1.22 -0.27 0.43 <
484 2 0 -3 1 24.34 27.92 2.45 o
485 2 0 -3 2 359.65 360.94 10.39 o
486 2 0 -3 3 10.09 4.64 1.35 o
487 2 0 -3 4 3.90 2.48 0.96 <
488 2 0 -3 5 8.36 3.58 1.46 <
489 2 0 -2 1 1.95 0.62 0.39 <
490 2 0 -2 2 236.31 188.48 6.94 o
491 2 0 -2 3 191.10 188.55 8.11 o
492 2 0 -2 4 6.14 2.88 1.07 <
493 2 0 -2 5 30.74 22.63 3.64 o
494 2 0 -1 1 734.58 657.68 8.90 o
495 2 0 -1 2 95.50 100.57 4.74 o
496 2 0 -1 -3 60.01 45.29 3.61 o
497 2 0 -1 3 60.01 46.67 4.15 o
498 2 0 -1 -4 190.33 176.51 8.42 o
499 2 0 -1 4 190.33 180.77 8.90 o
500 2 0 -1 -5 34.15 28.63 3.69 o
501 2 0 -1 5 34.15 36.28 4.40 o
502 2 0 -1 -6 14.30 3.67 1.18 o
503 2 0 -1 6 14.30 8.51 2.56 o
504 2 0 0 1 189.99 142.95 3.74 o
505 2 0 0 -1 189.99 142.74 3.73 o
506 2 0 0 -2 3.09 3.71 0.83 o
507 2 0 0 2 3.09 3.88 0.91 o
508 2 0 0 -3 177.21 151.79 6.91 o
509 2 0 0 3 177.21 153.86 7.26 o
510 2 0 0 -4 0.69 0.42 0.29 <
511 2 0 0 4 0.69 0.61 0.52 <
512 2 0 0 -5 84.11 87.59 6.74 o
513 2 0 0 5 84.11 95.17 7.52 o
514 2 0 0 -6 3.82 2.31 1.36 <
515 2 0 0 6 3.82 0.91 0.44 <
516 2 0 1 -1 734.47 660.47 8.93 o
517 2 0 1 -2 95.68 99.28 4.68 o
518 2 0 1 -3 60.10 46.63 3.89 o
519 2 0 1 -4 190.12 169.40 8.32 o
520 2 0 1 -5 34.19 29.39 3.64 o
521 2 0 1 -6 14.32 5.89 2.02 <
522 2 0 2 -1 1.83 0.59 0.42 <
523 2 0 2 -2 236.39 187.48 6.58 o
524 2 0 2 -3 191.26 195.50 8.30 o
525 2 0 2 -4 6.14 4.00 1.39 <
526 2 0 2 -5 30.67 22.04 3.41 o
527 2 0 3 -1 24.27 28.27 2.35 o
528 2 0 3 -2 359.35 399.63 11.24 o
529 2 0 3 -3 10.05 4.31 1.32 o
530 2 0 3 -4 4.16 4.50 1.44 o
531 2 0 3 -5 8.30 3.64 0.93 o
532 2 0 4 -2 13.91 23.56 2.76 o
533 2 0 4 -3 139.09 138.00 7.83 o
534 2 0 4 -4 1.24 -1.30 1.08 <
535 2 0 5 -2 118.92 116.09 6.87 o
536 2 0 5 -3 1.77 0.48 0.61 <
537 2 0 5 -4 10.86 3.91 0.99 o
538 2 0 6 -3 48.31 32.60 4.04 o
539 3 -1 8 -1 60.73 51.51 5.20 o
539 2 1 -8 1 60.73 51.51 5.20 o
540 3 -1 7 -1 0.92 -0.16 1.10 <
540 2 1 -7 1 0.92 -0.16 1.10 <
541 2 1 -7 2 11.22 6.36 2.18 <
542 3 -1 6 -1 197.80 245.39 10.55 o
542 2 1 -6 1 197.80 245.39 10.55 o
543 2 1 -6 2 28.08 17.77 2.75 o
544 2 1 -6 3 13.74 6.37 1.79 o
545 2 -1 -5 4 42.86 43.26 4.96 o
546 2 -1 -5 3 91.05 101.72 7.38 o
547 3 -1 5 -1 75.66 78.62 5.19 o
547 2 1 -5 1 75.66 78.62 5.19 o
548 2 1 -5 2 92.46 106.70 6.85 o
549 2 1 -5 3 50.19 35.86 4.41 o
550 2 -1 -4 5 7.30 7.42 2.29 o
551 2 -1 -4 4 50.24 79.68 6.68 o
552 2 -1 -4 3 33.22 31.88 3.64 o
553 3 -1 4 -1 516.49 673.86 14.47 o
553 2 1 -4 1 516.49 673.86 14.47 o
554 2 1 -4 2 34.55 34.62 3.66 o
555 2 1 -4 3 45.15 41.18 4.39 o
556 2 1 -4 4 8.52 6.04 2.10 <
557 2 -1 -3 5 14.30 16.35 3.24 o
558 2 -1 -3 4 53.38 55.96 4.88 o
559 2 -1 -3 3 236.06 220.04 8.80 o
560 2 1 -3 -1 94.30 69.18 2.78 o
561 3 -1 3 -1 41.75 50.18 3.48 o
561 2 1 -3 1 41.75 50.18 3.48 o
562 2 1 -3 2 236.08 234.77 9.03 o
563 2 1 -3 3 56.61 57.25 5.19 o
564 2 1 -3 4 12.82 7.71 1.89 o
565 2 1 -2 -7 7.86 5.01 1.81 <
566 2 1 -2 -6 0.94 -0.06 0.34 <
567 2 -1 -2 6 0.94 0.64 0.57 <
568 2 -1 -2 5 42.30 42.71 4.45 o
569 2 1 -2 -5 42.30 40.71 3.97 o
570 2 -1 -2 4 23.17 33.95 3.75 o
571 2 1 -2 -4 23.17 31.97 3.03 o
572 2 -1 -2 3 154.64 143.28 6.27 o
573 2 1 -2 -3 154.64 137.07 5.37 o
574 2 -1 -2 2 619.16 636.37 12.49 o
575 3 -1 2 -1 1166.71 1363.17 18.24 o
575 2 1 -2 1 1166.71 1363.17 18.24 o
576 2 1 -2 2 157.83 151.28 7.18 o
577 2 1 -2 3 21.46 19.58 2.91 o
578 2 1 -2 4 41.70 35.49 4.44 o
579 2 1 -2 5 0.53 2.33 1.44 <
580 2 1 -1 -7 3.41 -0.98 1.17 <
581 2 1 -1 -6 23.94 14.04 2.59 o
582 2 -1 -1 6 23.94 17.10 3.04 o
583 2 1 -1 -5 30.77 23.57 3.00 o
584 2 -1 -1 5 30.77 28.06 3.61 o
585 2 1 -1 -4 92.46 89.68 4.88 o
586 2 -1 -1 4 92.46 88.12 5.30 o
587 2 -1 -1 3 61.43 55.32 3.66 o
588 2 1 -1 -3 61.43 55.98 3.13 o
589 2 1 -1 -2 215.22 219.73 4.14 o
590 2 -1 -1 2 215.22 217.69 6.24 o
591 3 -1 1 -1 429.86 501.21 10.70 o
591 2 1 -1 1 429.86 501.21 10.70 o
592 2 1 -1 2 64.81 53.33 4.08 o
593 2 1 -1 3 90.51 90.45 6.49 o
594 2 1 -1 4 27.77 19.68 3.34 o
595 2 1 -1 5 24.15 21.54 3.70 o
596 2 -1 0 7 5.88 4.28 1.01 o
597 2 1 0 -7 5.88 4.13 1.55 <
598 2 1 0 -6 3.04 3.28 1.54 <
599 2 -1 0 6 3.04 1.74 1.26 <
600 2 1 0 -5 121.88 128.49 7.12 o
601 2 -1 0 5 121.88 131.71 7.50 o
602 2 1 0 -4 121.22 130.28 6.13 o
603 2 -1 0 4 121.22 134.12 6.36 o
604 2 1 0 -3 1.45 1.07 0.49 <
605 2 -1 0 3 1.45 0.59 0.46 <
606 2 -1 0 2 75.95 80.60 3.03 o
607 2 1 0 -2 75.95 81.79 3.03 o
608 2 -1 0 -4 129.57 94.82 7.15 o
609 2 -1 0 -5 3.05 1.15 0.66 <
610 2 -1 1 7 3.15 -0.20 0.49 <
611 2 1 1 -6 23.15 19.92 3.26 o
612 2 -1 1 6 23.15 21.57 3.59 o
613 2 1 1 -5 29.66 24.69 3.28 o
614 2 -1 1 5 29.66 31.47 3.84 o
615 2 1 1 -4 91.47 94.53 5.50 o
616 2 -1 1 4 91.47 99.84 5.59 o
617 2 1 1 -3 65.69 52.31 3.46 o
618 2 -1 1 3 65.69 55.64 3.31 o
619 2 1 1 -2 217.65 230.14 6.48 o
620 2 -1 1 2 217.65 231.28 4.67 o
621 3 1 -1 1 429.54 477.59 10.16 o
621 2 -1 1 -1 429.54 477.59 10.16 o
622 2 -1 1 -2 60.82 54.02 4.05 o
623 2 -1 1 -3 91.27 79.08 5.81 o
624 2 -1 1 -4 28.77 15.11 2.88 o
625 2 -1 1 -5 25.16 19.72 3.70 o
626 2 1 2 -6 0.94 10.20 3.64 <
627 2 1 2 -5 41.07 44.54 4.49 o
628 2 1 2 -4 22.36 33.79 3.68 o
629 2 1 2 -3 151.00 166.31 7.05 o
630 2 1 2 -2 619.26 623.74 12.05 o
631 3 1 -2 1 1166.64 1329.11 17.38 o
631 2 -1 2 -1 1166.64 1329.11 17.38 o
632 2 -1 2 -2 161.77 144.16 6.88 o
633 2 -1 2 -3 22.22 15.22 2.36 o
634 2 -1 2 -4 42.98 30.98 3.84 o
635 2 -1 2 -5 0.53 0.05 0.68 <
636 2 1 3 -5 14.33 16.76 3.28 o
637 2 1 3 -4 51.60 62.97 5.23 o
638 2 1 3 -3 235.73 256.57 9.70 o
639 3 1 -3 1 41.68 47.50 3.24 o
639 2 -1 3 -1 41.68 47.50 3.24 o
640 2 -1 3 -2 236.16 232.89 8.87 o
641 2 -1 3 -3 58.76 52.22 4.72 o
642 2 -1 3 -4 12.83 7.88 2.21 o
643 2 1 4 -5 7.71 8.14 2.28 o
644 2 1 4 -4 50.97 92.16 7.19 o
645 2 1 4 -3 33.84 33.38 3.70 o
646 3 1 -4 1 516.77 697.60 14.70 o
646 2 -1 4 -1 516.77 697.60 14.70 o
647 2 -1 4 -2 33.83 31.64 3.21 o
648 2 -1 4 -3 44.48 38.76 4.10 o
649 2 -1 4 -4 8.17 6.26 2.03 o
650 2 1 5 -4 44.43 47.58 5.31 o
651 3 1 -5 1 75.75 82.64 5.31 o
651 2 -1 5 -1 75.75 82.64 5.31 o
652 2 -1 5 -2 93.18 107.66 6.73 o
653 2 -1 5 -3 48.44 39.14 4.49 o
654 3 1 -6 1 197.50 261.39 10.74 o
654 2 -1 6 -1 197.50 261.39 10.74 o
655 2 -1 6 -2 26.75 23.15 3.33 o
656 2 -1 6 -3 13.96 7.51 2.06 o
657 2 -1 7 -2 11.25 5.67 1.84 o
658 2 2 -8 -1 33.04 28.63 3.23 o
659 2 2 -8 1 5.98 6.86 2.22 o
660 2 2 -7 -2 14.76 27.85 3.34 o
661 2 2 -7 -1 0.23 0.36 0.51 <
662 2 2 -7 1 21.36 14.54 2.61 o
663 3 -2 7 -2 2.30 0.93 0.82 <
663 2 2 -7 2 2.30 0.93 0.82 <
664 2 2 -6 -2 15.50 18.23 2.09 o
665 2 2 -6 -1 64.26 59.31 3.93 o
666 2 2 -6 1 17.19 19.89 2.94 o
667 3 -2 6 -2 49.23 49.22 5.08 o
667 2 2 -6 2 49.23 49.22 5.08 o
668 2 2 -5 -2 82.10 83.27 3.98 o
669 2 2 -5 -1 31.03 38.01 2.81 o
670 2 2 -5 1 57.01 69.43 5.26 o
671 3 -2 5 -2 25.80 27.60 3.68 o
671 2 2 -5 2 25.80 27.60 3.68 o
672 2 2 -5 3 32.39 33.71 4.59 o
673 2 2 -4 -7 6.92 4.34 1.44 o
674 2 2 -4 -6 19.28 13.13 2.07 o
675 2 2 -4 -5 0.27 -1.23 0.75 <
676 2 -2 -4 5 0.27 -0.62 0.29 <
677 2 2 -4 -2 1.92 2.04 0.52 o
678 2 2 -4 -1 318.99 311.40 7.57 o
679 2 2 -4 1 72.23 87.74 5.78 o
680 3 -2 4 -2 251.82 295.44 12.05 o
680 2 2 -4 2 251.82 295.44 12.05 o
681 2 2 -4 3 0.29 -0.57 0.94 <
682 2 2 -3 -7 9.11 5.12 1.45 o
683 2 2 -3 -6 5.70 6.35 1.63 o
684 2 -2 -3 6 5.70 4.19 1.46 <
685 2 -2 -3 5 43.77 69.79 5.75 o
686 2 2 -3 -5 43.77 57.11 3.80 o
687 2 -2 -3 4 13.84 25.97 3.55 o
688 2 2 -3 -4 13.84 17.82 1.70 o
689 2 2 -3 -1 5.25 6.46 0.92 o
690 2 2 -3 1 142.40 168.65 7.94 o
691 3 -2 3 -2 21.02 19.22 2.70 o
691 2 2 -3 2 21.02 19.22 2.70 o
692 2 2 -3 3 44.72 49.68 5.36 o
693 2 2 -2 -7 3.93 3.33 1.29 <
694 2 -2 -2 6 29.06 28.75 3.75 o
695 2 2 -2 -6 29.06 26.32 2.95 o
696 2 -2 -2 5 12.72 17.65 2.72 o
697 2 2 -2 -5 12.72 14.05 1.83 o
698 2 2 -2 -4 69.31 79.96 3.48 o
699 2 -2 -2 4 69.31 85.10 5.27 o
700 2 2 -2 1 99.59 125.50 7.06 o
701 3 -2 2 -2 145.13 179.10 9.31 o
701 2 2 -2 2 145.13 179.10 9.31 o
702 2 2 -2 3 13.57 11.61 2.75 o
703 2 2 -2 4 27.12 25.40 4.33 o
704 2 2 -1 -7 2.54 -0.95 1.11 <
705 2 -2 -1 7 2.54 1.55 0.91 <
706 2 -2 -1 6 16.00 11.71 2.31 o
707 2 2 -1 -6 16.00 11.43 1.93 o
708 2 2 -1 -5 27.39 38.15 3.23 o
709 2 -2 -1 5 27.39 43.33 3.92 o
710 2 2 -1 -4 25.42 41.87 2.83 o
711 2 -2 -1 4 25.42 44.36 3.42 o
712 2 2 -1 -3 136.23 129.26 3.93 o
713 2 -2 -1 3 136.23 133.52 5.58 o
714 2 2 0 -7 9.79 5.60 1.58 o
715 2 -2 0 7 9.79 7.17 1.98 o
716 2 2 0 -6 1.89 2.95 0.80 o
717 2 -2 0 6 1.89 1.99 0.70 <
718 2 2 0 -5 0.78 0.42 0.39 <
719 2 -2 0 5 0.78 0.95 0.52 <
720 2 2 0 -4 104.98 126.37 5.71 o
721 2 -2 0 4 104.98 130.46 5.48 o
722 2 -2 0 3 0.84 0.04 0.20 <
723 2 2 0 -3 0.84 -0.09 0.10 <
724 2 2 1 -7 2.78 2.05 1.54 <
725 2 -2 1 7 2.78 0.93 0.69 <
726 2 2 1 -6 16.32 14.17 2.43 o
727 2 -2 1 6 16.32 13.34 2.42 o
728 2 2 1 -5 26.77 45.50 4.13 o
729 2 -2 1 5 26.77 36.93 3.34 o
730 2 2 1 -4 26.19 49.00 3.93 o
731 2 -2 1 4 26.19 46.29 3.07 o
732 2 -2 1 3 131.51 134.12 3.84 o
733 2 -2 2 6 28.47 24.12 3.16 o
734 2 2 2 -6 28.47 34.57 4.19 o
735 2 2 2 -5 13.03 20.14 2.91 o
736 2 -2 2 5 13.03 15.17 2.19 o
737 2 2 2 -4 69.23 90.34 5.72 o
738 2 -2 2 4 69.23 80.90 4.13 o
739 2 -2 2 1 404.11 362.31 6.58 o
740 2 -2 2 -1 95.11 116.51 6.24 o
741 3 2 -2 2 145.15 157.91 8.08 o
741 2 -2 2 -2 145.15 157.91 8.08 o
742 2 -2 2 -3 13.16 9.11 2.15 o
743 2 -2 2 -4 27.75 16.23 3.01 o
744 2 2 3 -6 5.97 4.76 1.42 o
745 2 2 3 -5 43.10 89.68 6.91 o
746 2 2 3 -4 14.06 24.26 3.23 o
747 2 -2 3 1 5.21 5.34 0.71 o
748 2 -2 3 -1 142.01 158.92 7.20 o
749 3 2 -3 2 20.99 16.68 2.57 o
749 2 -2 3 -2 20.99 16.68 2.57 o
750 2 -2 3 -3 45.47 44.80 4.69 o
751 2 2 4 -5 0.23 0.91 0.87 <
752 2 -2 4 1 319.03 296.79 7.46 o
753 2 -2 4 -1 73.27 84.41 5.36 o
754 3 2 -4 2 251.73 288.66 11.17 o
754 2 -2 4 -2 251.73 288.66 11.17 o
755 2 -2 4 -3 0.35 -0.15 0.10 <
756 2 -2 5 -1 56.40 69.50 5.09 o
757 3 2 -5 2 25.84 23.88 3.24 o
757 2 -2 5 -2 25.84 23.88 3.24 o
758 2 -2 5 -3 31.52 32.09 4.18 o
759 2 -2 6 -1 18.67 15.46 2.66 o
760 3 2 -6 2 49.33 52.01 5.13 o
760 2 -2 6 -2 49.33 52.01 5.13 o
761 2 -2 7 -1 21.03 14.66 2.79 o
762 3 2 -7 2 2.29 3.19 1.62 <
762 2 -2 7 -2 2.29 3.19 1.62 <
763 2 -2 8 -1 5.20 4.02 1.30 o
764 2 3 -8 -2 4.70 5.10 1.25 o
765 2 3 -8 -1 3.65 4.06 1.43 <
766 2 3 -7 -4 27.48 26.76 2.32 o
767 2 3 -7 -3 2.15 0.70 0.49 <
768 2 3 -7 -2 9.08 5.79 1.24 o
769 2 3 -7 -1 8.51 4.92 1.56 o
770 2 3 -7 1 29.46 31.67 4.31 o
771 2 3 -6 -4 0.25 0.45 0.32 <
772 2 3 -6 -3 51.06 45.99 2.82 o
773 2 3 -6 -2 7.53 4.49 1.08 o
774 2 3 -6 -1 7.70 3.79 1.18 o
775 2 3 -6 1 0.38 -1.47 1.30 <
776 2 3 -6 2 9.43 9.93 2.77 o
777 2 3 -5 -6 5.40 3.23 0.83 o
778 2 3 -5 -5 11.77 3.29 0.54 o
779 2 3 -5 -3 0.39 0.37 0.24 <
780 2 3 -5 -2 59.15 62.84 3.43 o
781 2 3 -5 -1 58.40 59.46 4.23 o
782 2 3 -5 1 16.34 16.62 2.77 o
783 2 3 -5 2 13.56 9.92 2.57 o
784 2 3 -4 -7 0.02 -0.83 0.53 <
785 2 3 -4 -6 13.61 8.40 1.25 o
786 2 3 -4 -5 5.07 2.96 0.51 o
787 2 3 -4 -2 32.54 32.67 2.41 o
788 2 3 -4 -1 31.32 28.18 2.85 o
789 2 3 -4 1 3.89 2.41 1.13 <
790 2 3 -4 2 3.60 5.95 2.11 <
791 2 3 -3 -7 8.03 6.49 1.36 o
792 2 3 -3 -6 6.53 4.30 0.96 o
793 2 -3 -3 6 6.53 4.61 1.54 <
794 2 3 -3 -5 30.69 33.56 2.05 o
795 2 3 -3 1 13.37 11.78 2.56 o
796 2 3 -3 2 33.90 44.77 5.28 o
797 2 3 -3 3 6.73 9.48 2.69 o
798 2 3 -2 -7 0.24 0.83 0.46 <
799 2 -3 -2 7 0.24 -0.14 0.58 <
800 2 3 -2 -6 29.88 41.34 3.14 o
801 2 -3 -2 6 29.88 46.58 4.74 o
802 2 3 -2 -5 17.66 30.46 2.26 o
803 2 -3 -2 5 17.66 30.80 3.57 o
804 2 3 -1 -8 1.54 1.55 1.01 <
805 2 -3 -1 7 4.73 9.08 2.28 o
806 2 3 -1 -7 4.73 7.36 1.75 o
807 2 3 -1 -6 8.47 7.65 1.54 o
808 2 -3 -1 6 8.47 9.64 2.03 o
809 2 3 -1 -5 24.79 41.94 3.17 o
810 2 -3 -1 5 24.79 42.43 3.80 o
811 2 -3 0 8 8.02 7.32 2.13 o
812 2 3 0 -8 8.02 11.51 2.40 o
813 2 3 0 -7 0.02 -0.30 0.68 <
814 2 -3 0 7 0.02 -0.24 0.70 <
815 2 3 0 -6 0.39 2.03 0.83 <
816 2 -3 0 6 0.39 2.00 0.87 <
817 2 3 0 -5 31.49 56.56 4.15 o
818 2 -3 0 5 31.49 56.03 4.02 o
819 2 -3 0 4 14.90 25.26 2.42 o
820 2 -3 1 8 1.57 4.18 1.59 <
821 2 3 1 -7 4.74 8.66 2.14 o
822 2 -3 1 7 4.74 6.40 1.61 o
823 2 3 1 -6 8.20 9.17 1.99 o
824 2 -3 1 6 8.20 7.49 1.65 o
825 2 -3 1 5 25.91 36.85 2.74 o
826 2 -3 1 4 89.94 93.69 3.87 o
827 2 3 2 -7 0.24 1.32 1.12 <
828 2 -3 2 7 0.24 -0.33 0.72 <
829 2 3 2 -6 30.31 52.47 5.03 o
830 2 -3 2 6 30.31 33.99 3.16 o
831 2 -3 2 5 17.55 29.92 2.45 o
832 2 -3 2 4 0.30 0.32 0.22 <
833 2 3 3 -6 6.27 8.20 2.13 o
834 2 -3 3 2 65.13 50.68 2.43 o
835 2 -3 3 1 61.37 58.08 3.64 o
836 2 -3 3 -1 12.39 9.08 1.85 o
837 2 -3 3 -2 33.49 36.47 4.30 o
838 2 -3 3 -3 7.00 7.36 2.30 o
839 2 -3 4 2 33.39 23.72 1.79 o
840 2 -3 4 1 30.44 28.46 2.48 o
841 2 -3 4 -1 3.85 2.22 1.01 <
842 2 -3 4 -2 3.60 4.43 1.60 <
843 2 -3 5 1 59.05 59.80 3.69 o
844 2 -3 5 -1 17.45 12.90 2.29 o
845 2 -3 5 -2 14.16 9.56 2.39 o
846 2 -3 6 1 6.84 4.24 1.06 o
847 2 -3 6 -1 0.42 0.87 0.90 <
848 2 -3 6 -2 9.36 9.63 2.47 o
849 2 -3 7 1 8.78 3.50 1.25 <
850 2 -3 7 -1 29.27 27.02 3.79 o
851 2 4 -7 -3 10.92 8.56 1.46 o
852 2 4 -7 -2 0.07 -1.14 0.57 <
853 2 4 -7 -1 11.11 8.71 1.87 o
854 2 4 -6 -2 15.15 9.58 1.75 o
855 2 4 -6 -1 2.08 2.87 1.20 <
856 2 4 -6 1 11.93 11.22 3.02 o
857 2 4 -5 -1 14.60 9.06 2.38 o
858 2 4 -5 1 1.98 1.14 0.28 o
859 2 4 -4 -7 2.59 2.78 0.75 o
860 2 4 -3 -7 3.70 4.19 0.94 o
861 2 -4 -2 7 4.33 5.76 1.64 o
862 2 4 -2 -7 4.33 5.97 1.23 o
863 2 -4 -1 7 1.95 1.86 0.82 <
864 2 4 -1 -7 1.95 1.34 0.68 <
865 2 -4 -1 6 6.39 8.62 1.95 o
866 2 -4 0 7 3.53 7.03 1.78 o
867 2 -4 0 6 1.11 -0.17 0.59 <
868 2 -4 1 7 1.82 1.80 0.60 <
869 2 -4 1 6 6.51 5.95 1.18 o
870 2 -4 1 5 8.47 8.65 1.31 o
871 2 -4 2 7 4.21 4.02 1.07 o
872 2 -4 2 6 0.66 0.46 0.25 <
873 2 -4 2 5 15.38 14.79 1.47 o
874 2 -4 3 6 7.02 4.86 1.06 o
875 2 -4 3 2 0.20 -0.09 0.27 <
876 2 -4 3 1 18.89 8.59 1.78 o
877 2 -4 4 3 1.58 0.23 0.15 <
878 2 -4 4 2 48.91 44.38 2.97 o
879 2 -4 4 1 1.40 0.91 0.61 <
880 2 -4 4 -1 6.62 4.70 1.67 <
881 2 -4 5 3 13.72 5.22 0.71 o
882 2 -4 5 2 0.24 0.45 0.51 <
883 2 -4 5 1 13.78 9.58 1.69 o
884 2 -4 5 -1 2.05 2.67 1.60 <
885 2 -4 6 2 15.19 7.88 1.45 o
886 2 -4 6 1 1.98 1.01 0.44 <
887 2 -4 6 -1 11.91 10.38 2.55 o
888 2 -4 7 2 0.07 1.28 0.57 <
889 2 -4 7 1 11.28 7.49 1.64 o
890 3 -6 0 6 1.81 3.47 1.16 <
890 2 -5 0 7 1.81 3.47 1.16 <
891 3 -6 -1 6 1.72 1.99 0.80 <
891 2 -5 1 7 1.72 1.99 0.80 <
892 2 -5 1 6 3.46 4.78 1.18 o
893 3 -6 -2 6 3.26 6.02 1.25 o
893 2 -5 2 7 3.26 6.02 1.25 o
894 2 -5 2 6 2.26 5.64 1.18 o
895 3 -6 -3 6 2.15 1.49 0.51 <
895 2 -5 3 7 2.15 1.49 0.51 <
896 2 -5 3 6 1.74 2.35 0.60 o
897 2 -5 3 5 3.09 2.40 0.58 o
898 2 -5 4 4 7.72 3.66 0.59 o
899 2 -5 4 3 1.46 1.01 0.42 <
900 2 -5 4 2 0.97 2.45 1.19 <
901 2 -5 4 1 8.86 4.23 1.30 o
902 2 -5 5 3 6.39 2.73 0.68 o
903 2 -5 5 2 5.92 3.59 1.05 o
904 2 -5 5 1 0.29 -0.25 0.40 <
905 2 -5 6 3 1.30 1.53 0.51 o
906 2 -5 6 2 1.27 1.88 0.90 <
907 2 -5 6 1 5.96 5.03 1.72 <
908 3 -5 -3 7 2.20 2.54 0.73 o
908 2 -6 3 6 2.20 2.54 0.73 o
909 2 -6 4 5 0.42 -0.27 0.26 <
910 3 0 -7 3 18.07 9.37 1.93 o
911 3 0 -7 4 56.84 53.88 4.72 o
912 3 0 -6 2 35.46 35.26 3.16 o
913 3 0 -6 3 41.63 29.11 3.01 o
914 3 0 -6 4 4.21 1.94 0.84 <
915 3 0 -6 5 20.21 11.10 2.41 o
916 3 0 -5 2 102.27 101.86 5.08 o
917 3 0 -5 3 1.52 1.23 0.41 o
918 3 0 -5 4 9.40 3.64 1.04 o
919 3 0 -5 5 3.08 2.87 1.12 <
920 3 0 -4 2 12.13 18.85 1.94 o
921 3 0 -4 3 119.63 110.94 5.50 o
922 3 0 -4 4 1.05 0.35 0.66 <
923 3 0 -4 5 0.66 1.33 0.95 <
924 3 0 -3 1 20.94 19.17 1.71 o
925 3 0 -3 2 309.42 352.27 8.16 o
926 3 0 -3 3 8.68 3.39 1.03 o
927 3 0 -3 4 3.35 2.23 0.80 <
928 3 0 -2 1 1.67 0.17 0.12 <
929 3 0 -2 2 203.31 166.94 5.61 o
930 3 0 -2 3 164.41 131.37 5.84 o
931 3 0 -1 1 631.98 641.97 7.56 o
932 3 0 1 -1 631.88 642.12 7.61 o
933 3 0 2 -1 1.57 0.43 0.12 o
934 3 0 2 -2 203.37 169.46 5.56 o
935 3 0 3 -1 20.88 21.48 1.81 o
936 3 0 3 -2 309.16 354.80 8.55 o
937 3 0 3 -3 8.64 2.96 0.93 o
938 3 0 4 -1 1.57 1.63 0.42 o
939 3 0 4 -2 11.97 17.82 2.00 o
940 3 0 4 -3 119.66 100.65 5.90 o
941 3 0 5 -1 85.07 117.79 5.70 o
942 3 0 5 -2 102.31 107.43 5.53 o
943 3 0 5 -3 1.52 1.36 0.65 <
944 3 0 5 -4 9.34 3.87 1.28 o
945 3 0 6 -1 12.60 22.28 2.43 o
946 3 0 6 -2 35.43 35.45 3.36 o
947 3 0 6 -3 41.56 28.94 3.30 o
948 3 0 6 -4 4.21 2.03 1.28 <
949 3 0 6 -5 20.19 13.80 2.83 o
950 3 0 7 -2 8.27 6.06 1.68 o
951 3 0 7 -3 18.08 8.85 1.92 o
952 3 0 7 -4 56.81 56.66 5.37 o
953 3 0 8 -2 6.86 4.03 1.39 <
954 3 0 8 -3 27.22 23.09 3.37 o
955 3 1 -8 2 7.28 4.18 1.16 o
956 3 -1 -7 4 14.10 8.54 1.47 o
957 3 1 -7 2 9.65 31.22 5.50 o
958 3 1 -7 3 15.97 9.94 2.29 o
959 3 -1 -6 5 27.51 26.42 2.77 o
960 3 -1 -6 4 12.11 17.40 2.03 o
961 3 1 -6 1 197.50 239.42 9.85 o
961 2 -1 6 -1 197.50 239.42 9.85 o
962 3 1 -6 2 24.16 17.42 2.49 o
963 3 1 -6 3 11.82 7.61 1.91 o
964 3 1 -6 4 29.43 20.12 3.22 o
965 3 -1 -5 6 9.02 7.21 1.79 o
966 3 -1 -5 5 6.96 5.18 1.41 o
967 3 -1 -5 4 36.88 38.80 2.93 o
968 3 -1 -5 3 78.33 89.39 4.11 o
969 3 1 -5 1 75.75 72.31 4.70 o
969 2 -1 5 -1 75.75 72.31 4.70 o
970 3 1 -5 2 79.55 91.96 5.66 o
971 3 1 -5 3 43.18 32.79 3.58 o
972 3 1 -5 4 7.77 1.87 0.67 <
973 3 1 -5 5 9.88 6.60 1.98 o
974 3 -1 -4 5 6.28 6.40 1.56 o
975 3 -1 -4 4 43.23 65.96 4.07 o
976 3 -1 -4 3 28.58 30.38 2.04 o
977 4 1 4 0 54.13 64.83 4.12 o
977 3 1 -4 0 54.13 64.83 4.12 o
978 3 1 -4 1 516.77 647.51 13.85 o
978 2 -1 4 -1 516.77 647.51 13.85 o
979 3 1 -4 2 29.73 30.39 2.97 o
980 3 1 -4 3 38.84 38.13 3.86 o
981 3 1 -4 4 7.33 6.35 1.91 o
982 3 1 -4 5 0.39 0.88 0.85 <
983 3 -1 -3 4 45.93 42.51 3.25 o
984 3 -1 -3 3 203.09 215.12 5.49 o
985 3 -1 -3 2 20.87 18.75 1.37 o
986 4 1 3 0 167.25 193.24 6.45 o
986 3 1 -3 0 167.25 193.24 6.45 o
987 3 1 -3 1 41.68 47.81 3.31 o
987 2 -1 3 -1 41.68 47.81 3.31 o
988 3 1 -3 2 203.10 204.27 7.99 o
989 3 1 -3 3 48.70 49.45 4.31 o
990 3 1 -3 4 11.03 7.02 2.00 o
991 4 1 2 0 19.32 11.85 1.43 o
991 3 1 -2 0 19.32 11.85 1.43 o
992 3 1 -2 1 1166.64 1363.17 17.71 o
992 2 -1 2 -1 1166.64 1363.17 17.71 o
993 3 1 -2 2 135.79 134.48 6.21 o
994 3 1 -2 3 18.46 12.30 2.08 o
995 4 1 1 0 1026.88 980.24 11.64 o
995 3 1 -1 0 1026.88 980.24 11.64 o
996 3 1 -1 1 429.54 442.84 9.70 o
996 2 -1 1 -1 429.54 442.84 9.70 o
997 4 -1 0 0 392.85 275.28 5.50 o
997 3 -1 0 0 392.85 275.28 5.50 o
998 4 1 0 0 392.85 276.29 5.49 o
998 3 1 0 0 392.85 276.29 5.49 o
999 4 -1 -1 0 1027.00 979.91 11.68 o
999 3 -1 1 0 1027.00 979.91 11.68 o
1000 3 -1 1 -1 429.86 444.61 9.69 o
1000 2 1 -1 1 429.86 444.61 9.69 o
1001 4 -1 -2 0 19.58 11.74 1.44 o
1001 3 -1 2 0 19.58 11.74 1.44 o
1002 3 -1 2 -1 1166.71 1361.99 18.19 o
1002 2 1 -2 1 1166.71 1361.99 18.19 o
1003 3 -1 2 -2 139.17 129.70 6.26 o
1004 3 1 3 -2 21.34 18.80 1.49 o
1005 4 -1 -3 0 167.17 192.57 6.72 o
1005 3 -1 3 0 167.17 192.57 6.72 o
1006 3 -1 3 -1 41.75 49.82 3.49 o
1006 2 1 -3 1 41.75 49.82 3.49 o
1007 3 -1 3 -2 203.17 197.21 8.18 o
1008 3 -1 3 -3 50.55 47.84 4.43 o
1009 3 1 4 -3 29.11 27.02 2.35 o
1010 3 1 4 -2 237.01 253.10 6.31 o
1011 4 -1 -4 0 53.94 64.32 4.24 o
1011 3 -1 4 0 53.94 64.32 4.24 o
1012 3 -1 4 -1 516.49 654.03 14.42 o
1012 2 1 -4 1 516.49 654.03 14.42 o
1013 3 -1 4 -2 29.10 29.82 3.14 o
1014 3 -1 4 -3 38.27 35.06 3.91 o
1015 3 -1 4 -4 7.02 7.89 1.96 o
1016 3 1 5 -4 38.22 29.56 3.30 o
1017 3 1 5 -3 77.88 91.51 4.81 o
1018 3 1 5 -2 36.03 34.88 2.51 o
1019 4 -1 -5 0 136.97 184.35 7.96 o
1019 3 -1 5 0 136.97 184.35 7.96 o
1020 3 -1 5 -1 75.66 73.16 4.89 o
1020 2 1 -5 1 75.66 73.16 4.89 o
1021 3 -1 5 -2 80.17 90.56 5.99 o
1022 3 -1 5 -3 41.67 34.14 4.13 o
1023 3 -1 5 -4 7.48 2.54 0.71 o
1024 3 1 6 -4 11.95 10.73 1.88 o
1025 3 1 6 -3 23.50 20.12 2.36 o
1026 3 1 6 -2 87.44 105.71 5.05 o
1027 3 -1 6 -1 197.80 241.47 10.40 o
1027 2 1 -6 1 197.80 241.47 10.40 o
1028 3 -1 6 -2 23.01 20.50 3.05 o
1029 3 -1 6 -3 12.01 8.41 2.22 o
1030 3 -1 6 -4 29.08 21.32 3.65 o
1031 3 1 7 -4 13.99 10.12 1.94 o
1032 3 1 7 -3 7.94 5.77 1.28 o
1033 3 1 7 -2 0.62 0.67 0.47 <
1034 3 -1 7 -1 0.92 0.15 0.90 <
1034 2 1 -7 1 0.92 0.15 0.90 <
1035 3 -1 7 -2 9.68 5.15 1.72 o
1036 3 -1 7 -3 16.03 10.37 2.86 o
1037 3 1 8 -3 6.37 4.36 1.08 o
1038 3 -1 8 -1 60.73 48.69 4.85 o
1038 2 1 -8 1 60.73 48.69 4.85 o
1039 3 -1 8 -2 7.78 5.05 1.73 <
1040 3 2 -7 1 18.38 15.55 2.81 o
1041 3 2 -7 2 2.29 2.92 1.51 <
1041 2 -2 7 -2 2.29 2.92 1.51 <
1042 3 -2 -6 5 4.64 6.14 0.99 o
1043 4 2 6 0 29.21 38.81 4.00 o
1043 3 2 -6 0 29.21 38.81 4.00 o
1044 3 2 -6 1 14.79 15.92 2.67 o
1045 3 2 -6 2 49.33 51.88 4.99 o
1045 2 -2 6 -2 49.33 51.88 4.99 o
1046 3 2 -6 3 4.85 4.79 1.66 <
1047 3 -2 -5 6 7.54 6.59 1.31 o
1048 3 -2 -5 5 25.30 68.09 3.83 o
1049 3 -2 -5 4 14.03 17.86 1.41 o
1050 4 2 5 0 158.63 150.57 7.57 o
1050 3 2 -5 0 158.63 150.57 7.57 o
1051 3 2 -5 1 49.05 68.86 5.41 o
1052 3 2 -5 2 25.84 25.40 3.38 o
1052 2 -2 5 -2 25.84 25.40 3.38 o
1053 3 2 -5 3 27.86 29.11 3.80 o
1054 3 2 -5 4 8.44 7.44 2.31 o
1055 3 -2 -4 6 16.58 11.90 1.94 o
1056 3 -2 -4 5 0.23 -0.11 0.14 <
1057 3 -2 -4 4 104.72 105.12 3.24 o
1058 3 2 -4 -1 274.44 282.95 9.57 o
1059 4 2 4 0 3.83 6.35 1.48 o
1059 3 2 -4 0 3.83 6.35 1.48 o
1060 3 2 -4 1 62.14 77.02 5.45 o
1061 3 2 -4 2 251.73 299.00 11.42 o
1061 2 -2 4 -2 251.73 299.00 11.42 o
1062 3 2 -4 3 0.25 0.75 0.72 <
1063 3 2 -4 4 18.57 17.70 3.46 o
1064 3 -2 -3 4 11.90 15.42 1.46 o
1065 3 2 -3 -1 4.51 5.10 1.09 o
1066 4 2 3 0 551.15 560.01 13.10 o
1066 3 2 -3 0 551.15 560.01 13.10 o
1067 3 2 -3 1 122.51 159.87 7.81 o
1068 3 2 -3 2 20.99 17.92 2.76 o
1068 2 -2 3 -2 20.99 17.92 2.76 o
1069 3 2 -3 3 38.48 45.07 4.53 o
1070 3 2 -2 -1 347.71 322.98 8.61 o
1071 4 2 2 0 110.90 85.41 4.77 o
1071 3 2 -2 0 110.90 85.41 4.77 o
1072 3 2 -2 1 85.68 102.61 6.05 o
1073 3 2 -2 2 145.15 153.35 7.90 o
1073 2 -2 2 -2 145.15 153.35 7.90 o
1074 3 -2 -1 1 319.07 294.66 6.32 o
1075 3 2 -1 -1 319.07 291.55 7.50 o
1076 4 2 1 0 119.14 84.65 4.54 o
1076 3 2 -1 0 119.14 84.65 4.54 o
1077 3 2 -1 1 118.14 126.75 6.39 o
1078 3 -2 0 2 0.32 1.20 0.36 o
1079 3 2 0 -1 95.01 88.52 3.70 o
1080 3 -2 0 1 95.01 91.61 3.81 o
1081 4 2 0 0 0.78 2.41 0.74 o
1081 3 2 0 0 0.78 2.41 0.74 o
1082 4 -2 0 0 0.78 3.24 0.97 o
1082 3 -2 0 0 0.78 3.24 0.97 o
1083 3 2 1 -2 49.48 33.51 1.51 o
1084 3 2 1 -1 318.79 295.85 6.24 o
1085 3 -2 1 1 318.79 294.11 7.63 o
1086 4 -2 -1 0 118.54 84.82 4.64 o
1086 3 -2 1 0 118.54 84.82 4.64 o
1087 3 -2 1 -1 122.79 122.41 6.41 o
1088 3 -2 2 1 347.67 321.88 8.90 o
1089 4 -2 -2 0 111.12 73.73 4.58 o
1089 3 -2 2 0 111.12 73.73 4.58 o
1090 3 -2 2 -1 81.82 109.05 6.39 o
1091 3 -2 2 -2 145.13 152.06 7.89 o
1091 2 2 -2 2 145.13 152.06 7.89 o
1092 3 -2 3 1 4.48 4.77 1.05 o
1093 4 -2 -3 0 551.24 551.74 13.57 o
1093 3 -2 3 0 551.24 551.74 13.57 o
1094 3 -2 3 -1 122.18 163.50 8.17 o
1095 3 -2 3 -2 21.02 18.29 2.57 o
1095 2 2 -3 2 21.02 18.29 2.57 o
1096 3 -2 3 -3 39.12 45.32 4.80 o
1097 3 -2 4 1 274.47 282.28 10.04 o
1098 4 -2 -4 0 3.74 5.67 1.50 o
1098 3 -2 4 0 3.74 5.67 1.50 o
1099 3 -2 4 -1 63.04 77.02 5.73 o
1100 3 -2 4 -2 251.82 288.98 11.69 o
1100 2 2 -4 2 251.82 288.98 11.69 o
1101 3 -2 4 -3 0.30 0.45 0.77 <
1102 3 -2 4 -4 18.54 13.39 2.68 o
1103 3 2 5 -4 13.78 13.26 1.70 o
1104 3 2 5 -3 49.15 53.67 2.81 o
1105 4 -2 -5 0 158.67 156.47 7.95 o
1105 3 -2 5 0 158.67 156.47 7.95 o
1106 3 -2 5 -1 48.52 71.86 5.79 o
1107 3 -2 5 -2 25.80 28.20 3.68 o
1107 2 2 -5 2 25.80 28.20 3.68 o
1108 3 -2 5 -3 27.12 29.71 4.24 o
1109 3 -2 5 -4 8.73 7.63 2.23 o
1110 3 2 6 -4 20.39 24.46 2.22 o
1111 3 2 6 -3 16.42 16.81 1.72 o
1112 4 -2 -6 0 29.19 35.73 3.95 o
1112 3 -2 6 0 29.19 35.73 3.95 o
1113 3 -2 6 -1 16.06 14.16 2.68 o
1114 3 -2 6 -2 49.23 51.84 5.31 o
1114 2 2 -6 2 49.23 51.84 5.31 o
1115 3 -2 6 -3 5.03 3.61 1.26 <
1116 3 2 7 -5 4.72 3.79 1.07 o
1117 3 2 7 -4 1.16 3.45 0.96 o
1118 3 2 7 -3 18.97 17.24 1.89 o
1119 4 -2 -7 0 25.35 27.76 3.67 o
1119 3 -2 7 0 25.35 27.76 3.67 o
1120 3 -2 7 -1 18.09 14.84 2.89 o
1121 3 -2 7 -2 2.30 1.83 1.27 <
1121 2 2 -7 2 2.30 1.83 1.27 <
1122 3 2 8 -3 5.04 4.70 1.08 o
1123 3 3 -6 -1 6.63 3.52 1.25 <
1124 4 3 6 0 97.02 103.25 7.41 o
1124 3 3 -6 0 97.02 103.25 7.41 o
1125 3 -3 -5 6 4.65 2.81 0.51 o
1126 3 3 -5 -1 50.24 58.88 5.07 o
1127 4 3 5 0 1.17 0.70 0.31 <
1127 3 3 -5 0 1.17 0.70 0.31 <
1128 3 3 -5 1 14.06 14.98 2.88 o
1129 3 3 -5 2 11.66 9.86 2.56 o
1130 3 -3 -4 6 11.71 7.62 1.12 o
1131 3 3 -4 -1 26.94 29.48 3.37 o
1132 4 3 4 0 85.81 82.60 6.10 o
1132 3 3 -4 0 85.81 82.60 6.10 o
1133 3 3 -4 1 3.34 2.00 1.06 <
1134 3 3 -4 2 3.10 6.31 2.19 <
1135 3 3 -3 -2 55.69 54.00 4.33 o
1136 3 3 -3 -1 53.15 64.05 4.88 o
1137 4 3 3 0 28.75 36.52 4.02 o
1137 3 3 -3 0 28.75 36.52 4.02 o
1138 3 3 -3 1 11.50 7.57 1.80 o
1139 3 3 -3 2 29.17 34.13 4.27 o
1140 3 3 -3 3 5.79 8.18 2.49 o
1141 3 -3 -2 4 0.26 0.24 0.10 <
1142 3 -3 -2 3 78.33 71.94 2.54 o
1143 3 3 -2 -2 62.29 72.91 4.76 o
1144 3 3 -2 -1 62.44 63.81 4.48 o
1145 4 3 2 0 182.76 183.78 8.45 o
1145 3 3 -2 0 182.76 183.78 8.45 o
1146 3 3 -2 1 0.09 -0.36 0.83 <
1147 3 3 -2 2 16.06 18.19 3.04 o
1148 3 -3 -1 3 1.47 0.83 0.40 <
1149 3 3 -1 -2 77.71 84.49 4.52 o
1150 3 -3 -1 2 77.71 87.05 3.83 o
1151 3 3 -1 -1 82.07 80.93 4.86 o
1152 3 -3 -1 1 82.07 78.76 4.37 o
1153 4 3 1 0 0.35 1.48 0.71 <
1153 3 3 -1 0 0.35 1.48 0.71 <
1154 3 3 -1 1 79.14 83.45 6.13 o
1155 3 -3 0 3 200.73 192.52 6.40 o
1156 3 3 0 -2 3.26 2.12 0.63 o
1157 3 -3 0 2 3.26 2.36 0.73 o
1158 3 -3 0 1 1.45 0.52 0.22 <
1159 3 3 0 -1 1.45 1.50 0.70 <
1160 4 3 0 0 479.87 389.35 11.84 o
1160 3 3 0 0 479.87 389.35 11.84 o
1161 4 -3 0 0 479.87 391.99 11.85 o
1161 3 -3 0 0 479.87 391.99 11.85 o
1162 3 -3 1 2 79.81 82.37 4.50 o
1163 3 3 1 -2 79.81 79.96 3.60 o
1164 3 -3 1 1 79.88 83.04 5.03 o
1165 3 3 1 -1 79.88 80.08 4.43 o
1166 4 -3 -1 0 0.35 1.24 0.97 <
1166 3 -3 1 0 0.35 1.24 0.97 <
1167 3 -3 1 -1 78.34 84.37 6.19 o
1168 3 -3 2 2 59.29 61.91 4.44 o
1169 3 3 2 -2 59.29 57.75 2.96 o
1170 3 -3 2 1 65.38 57.06 4.52 o
1171 4 -3 -2 0 182.64 184.35 8.85 o
1171 3 -3 2 0 182.64 184.35 8.85 o
1172 3 -3 2 -1 0.10 0.17 0.73 <
1173 3 -3 2 -2 16.17 12.25 2.54 o
1174 3 -3 3 2 56.03 53.02 4.65 o
1175 3 -3 3 1 52.80 59.95 4.77 o
1176 4 -3 -3 0 28.74 33.13 3.77 o
1176 3 -3 3 0 28.74 33.13 3.77 o
1177 3 -3 3 -1 10.66 13.23 2.47 o
1178 3 -3 3 -2 28.81 33.36 4.34 o
1179 3 -3 3 -3 6.03 7.74 2.23 o
1180 3 -3 4 1 26.19 28.34 3.44 o
1181 4 -3 -4 0 85.85 78.58 6.14 o
1181 3 -3 4 0 85.85 78.58 6.14 o
1182 3 -3 4 -1 3.31 4.07 1.66 <
1183 3 -3 4 -2 3.10 4.50 1.71 <
1184 3 -3 5 1 50.80 53.72 5.13 o
1185 4 -3 -5 0 1.18 0.87 0.47 <
1185 3 -3 5 0 1.18 0.87 0.47 <
1186 3 -3 5 -1 15.01 11.60 2.82 o
1187 3 -3 5 -2 12.18 9.51 2.68 o
1188 3 3 6 -4 0.21 0.06 0.16 <
1189 3 -3 6 1 5.89 3.52 1.26 <
1190 4 -3 -6 0 97.04 96.43 7.68 o
1190 3 -3 6 0 97.04 96.43 7.68 o
1191 3 3 7 -4 23.81 25.82 2.26 o
1192 3 4 -5 -2 0.21 0.42 0.26 <
1193 3 4 -5 -1 12.56 9.55 2.20 o
1194 3 4 -4 -2 42.12 48.89 4.74 o
1195 3 4 -4 -1 1.38 -0.28 1.32 <
1196 4 4 4 0 0.27 0.15 0.52 <
1196 3 4 -4 0 0.27 0.15 0.52 <
1197 3 4 -3 -2 0.18 -0.44 0.40 <
1198 3 4 -3 -1 15.42 14.91 2.51 o
1199 4 4 3 0 7.00 4.37 1.66 <
1199 3 4 -3 0 7.00 4.37 1.66 <
1200 3 4 -3 1 1.19 0.58 0.55 <
1201 3 -4 -2 5 12.85 14.04 1.49 o
1202 3 -4 -2 4 4.37 4.01 0.72 o
1203 3 -4 -2 3 6.37 3.67 0.95 o
1204 3 4 -2 -3 6.37 4.50 1.15 o
1205 3 4 -2 -2 57.68 70.39 5.17 o
1206 3 4 -2 -1 6.23 4.86 1.49 o
1207 4 4 2 0 6.12 7.24 1.89 o
1207 3 4 -2 0 6.12 7.24 1.89 o
1208 3 4 -2 1 16.17 8.77 1.74 o
1209 3 -4 -1 4 41.69 54.84 3.41 o
1210 3 4 -1 -3 32.11 37.07 3.20 o
1211 3 -4 -1 3 32.11 40.14 3.13 o
1212 3 4 -1 -2 2.54 1.05 0.65 <
1213 3 -4 -1 2 2.54 0.73 0.34 <
1214 3 4 -1 -1 35.15 36.73 3.83 o
1215 3 -4 -1 1 35.15 32.73 3.52 o
1216 4 4 1 0 98.55 117.44 8.15 o
1216 3 4 -1 0 98.55 117.44 8.15 o
1217 3 4 -1 1 5.46 4.13 1.53 <
1218 3 -4 0 4 33.48 48.45 3.69 o
1219 3 -4 0 3 0.70 1.12 0.65 <
1220 3 4 0 -3 0.70 1.74 0.68 <
1221 3 4 0 -2 29.42 22.40 2.48 o
1222 3 -4 0 2 29.42 21.26 2.62 o
1223 3 4 0 -1 1.77 1.87 0.79 <
1224 3 -4 0 1 1.77 2.60 1.16 <
1225 4 4 0 0 70.94 87.66 6.50 o
1225 3 4 0 0 70.94 87.66 6.50 o
1226 4 -4 0 0 70.94 90.96 6.57 o
1226 3 -4 0 0 70.94 90.96 6.57 o
1227 3 4 1 -3 32.30 35.23 2.78 o
1228 3 -4 1 3 32.30 38.77 3.48 o
1229 3 4 1 -2 2.57 1.20 0.74 <
1230 3 -4 1 2 2.57 0.85 0.36 <
1231 3 4 1 -1 34.93 31.95 3.36 o
1232 3 -4 1 1 34.93 36.66 3.76 o
1233 4 -4 -1 0 98.52 116.67 7.75 o
1233 3 -4 1 0 98.52 116.67 7.75 o
1234 3 -4 1 -1 5.54 4.98 1.89 <
1235 3 -4 2 3 5.99 3.58 1.14 o
1236 3 4 2 -3 5.99 3.71 0.75 o
1237 3 -4 2 2 57.64 65.14 5.32 o
1238 3 4 2 -2 57.64 49.57 4.00 o
1239 3 -4 2 1 6.64 4.76 1.57 o
1240 3 4 2 -1 6.64 3.89 1.22 o
1241 4 -4 -2 0 6.13 7.93 2.03 o
1241 3 -4 2 0 6.13 7.93 2.03 o
1242 3 -4 2 -1 15.72 11.99 2.80 o
1243 3 -4 3 3 14.97 13.79 2.58 o
1244 3 4 3 -3 14.97 11.45 1.29 o
1245 3 -4 3 2 0.17 0.12 2.12 <
1246 3 4 3 -2 0.17 -0.36 0.52 <
1247 3 -4 3 1 16.25 13.96 2.63 o
1248 4 -4 -3 0 6.96 2.68 0.97 <
1248 3 -4 3 0 6.96 2.68 0.97 <
1249 3 -4 3 -1 1.10 0.65 0.54 <
1250 3 4 4 -3 1.36 0.37 0.34 <
1251 3 -4 4 2 42.08 53.35 5.38 o
1252 3 -4 4 1 1.21 1.57 0.87 <
1253 4 -4 -4 0 0.25 -1.15 1.65 <
1253 3 -4 4 0 0.25 -1.15 1.65 <
1254 3 -4 5 2 0.20 1.23 1.00 <
1255 3 -4 5 1 11.85 12.29 2.62 o
1256 3 5 -4 -3 1.26 3.36 1.55 <
1257 3 -5 -3 7 2.20 2.79 0.79 o
1257 2 -6 3 6 2.20 2.79 0.79 o
1258 3 -5 -3 6 1.51 2.27 0.59 o
1259 3 -5 -3 5 2.56 1.52 0.57 <
1260 3 5 -3 -3 15.74 20.83 3.22 o
1261 3 5 -3 -2 15.80 20.99 3.27 o
1262 3 5 -3 -1 0.06 0.47 0.35 <
1263 3 -5 -2 6 1.88 6.26 1.31 o
1264 3 -5 -2 5 0.15 0.02 0.28 <
1265 3 -5 -2 4 12.79 9.64 1.59 o
1266 3 -5 -2 3 2.04 2.12 0.85 <
1267 3 5 -2 -3 2.04 1.69 0.71 <
1268 3 5 -2 -2 1.73 0.73 0.37 <
1269 3 5 -2 -1 13.60 12.97 2.66 o
1270 4 5 2 0 0.58 -0.41 1.32 <
1270 3 5 -2 0 0.58 -0.41 1.32 <
1271 3 -5 -1 5 5.40 6.23 1.24 o
1272 3 5 -1 -4 1.65 0.76 0.44 <
1273 3 -5 -1 4 1.65 0.11 0.20 <
1274 3 -5 -1 3 4.26 3.31 0.96 o
1275 3 5 -1 -3 4.26 3.96 1.39 <
1276 3 5 -1 -2 3.49 4.58 1.45 o
1277 3 -5 -1 2 3.49 2.94 1.34 <
1278 3 -5 -1 1 1.14 0.60 1.00 <
1279 3 5 -1 -1 1.14 -1.27 1.24 <
1280 4 5 1 0 12.85 16.99 3.30 o
1280 3 5 -1 0 12.85 16.99 3.30 o
1281 3 -5 0 5 0.97 0.23 0.32 <
1282 3 -5 0 4 12.68 13.64 2.22 o
1283 3 5 0 -4 12.68 14.46 2.10 o
1284 3 5 0 -3 0.83 1.30 0.76 <
1285 3 -5 0 3 0.83 0.58 0.33 <
1286 3 -5 0 2 0.41 0.92 0.54 <
1287 3 5 0 -2 0.41 0.51 0.51 <
1288 3 5 0 -1 13.44 9.99 2.27 o
1289 3 -5 0 1 13.44 12.19 2.46 o
1290 4 5 0 0 1.87 1.17 1.25 <
1290 3 5 0 0 1.87 1.17 1.25 <
1291 4 -5 0 0 1.87 0.59 0.36 <
1291 3 -5 0 0 1.87 0.59 0.36 <
1292 3 -5 1 4 1.67 1.46 0.73 <
1293 3 5 1 -4 1.67 -0.32 0.56 <
1294 3 5 1 -3 4.03 3.52 1.27 <
1295 3 -5 1 3 4.03 4.69 1.35 o
1296 3 -5 1 2 3.71 3.18 1.31 <
1297 3 5 1 -2 3.71 2.52 0.94 <
1298 3 -5 1 1 1.13 0.15 0.41 <
1299 3 5 1 -1 1.13 0.19 0.45 <
1300 4 -5 -1 0 12.82 15.49 3.27 o
1300 3 -5 1 0 12.82 15.49 3.27 o
1301 3 -5 2 4 12.45 14.18 2.61 o
1302 3 5 2 -4 12.45 11.72 1.52 o
1303 3 5 2 -3 2.19 1.23 0.64 <
1304 3 -5 2 3 2.19 1.15 0.17 o
1305 3 -5 2 2 1.60 2.73 1.41 <
1306 3 5 2 -2 1.60 1.65 0.91 <
1307 3 5 2 -1 13.92 9.30 2.20 o
1308 3 -5 2 1 13.92 8.79 2.15 o
1309 4 -5 -2 0 0.58 2.56 1.39 <
1309 3 -5 2 0 0.58 2.56 1.39 <
1310 3 -5 3 4 0.05 0.64 0.53 <
1311 3 5 3 -4 0.05 0.68 0.30 <
1312 3 -5 3 3 15.50 18.87 3.25 o
1313 3 5 3 -3 15.50 12.06 2.00 o
1314 3 -5 3 2 16.04 15.87 3.00 o
1315 3 5 3 -2 16.04 9.55 2.07 o
1316 3 -5 3 1 0.06 -0.70 0.96 <
1317 3 5 4 -4 6.64 3.53 0.68 o
1318 3 -5 4 3 1.26 1.55 0.48 o
1319 3 5 4 -3 1.26 2.74 0.91 o
1320 3 5 5 -4 0.64 0.37 0.10 o
1321 3 5 5 -3 5.50 1.07 0.59 <
1322 3 5 6 -4 4.75 2.02 0.50 o
1323 3 -6 -3 6 2.15 0.95 0.37 <
1323 2 -5 3 7 2.15 0.95 0.37 <
1324 3 -6 -3 5 1.54 1.07 0.38 <
1325 3 -6 -2 6 3.26 6.03 1.37 o
1325 2 -5 2 7 3.26 6.03 1.37 o
1326 3 -6 -2 5 0.89 -0.13 0.47 <
1327 3 -6 -2 4 0.02 0.14 0.36 <
1328 3 6 -2 -4 0.02 0.84 0.55 <
1329 3 6 -2 -3 2.89 4.67 1.83 <
1330 3 -6 -2 3 2.89 2.00 1.22 <
1331 3 -6 -1 6 1.72 1.48 0.57 <
1331 2 -5 1 7 1.72 1.48 0.57 <
1332 3 -6 -1 5 1.23 2.19 0.97 <
1333 3 -6 -1 4 1.52 2.10 1.20 <
1334 3 6 -1 -4 1.52 2.70 1.08 <
1335 3 6 -1 -3 0.02 -1.40 0.90 <
1336 3 -6 -1 3 0.02 1.09 0.84 <
1337 3 6 -1 -2 1.65 1.24 0.43 <
1338 3 -6 -1 2 1.65 1.41 1.24 <
1339 3 -6 0 6 1.81 3.53 1.20 <
1339 2 -5 0 7 1.81 3.53 1.20 <
1340 3 -6 0 5 0.17 1.70 1.01 <
1341 3 -6 0 4 0.00 -0.59 0.77 <
1342 3 6 0 -4 0.00 -0.48 0.79 <
1343 3 6 0 -3 3.51 3.60 1.28 <
1344 3 -6 0 3 3.51 4.48 1.71 <
1345 3 6 0 -2 0.00 0.47 0.35 <
1346 3 -6 0 2 0.00 -0.57 1.09 <
1347 3 6 0 -1 0.08 -2.00 1.56 <
1348 3 -6 0 1 0.08 1.93 1.30 <
1349 3 -6 1 5 1.25 3.67 1.43 <
1350 3 -6 1 4 1.54 -0.32 1.20 <
1351 3 6 1 -4 1.54 1.25 0.23 o
1352 3 -6 1 3 0.02 -0.70 0.42 <
1353 3 6 1 -3 0.02 -1.09 0.89 <
1354 3 -6 1 2 1.65 2.56 1.16 <
1355 3 6 1 -2 1.65 1.00 0.51 <
1356 3 6 1 -1 1.25 0.76 0.62 <
1357 3 -6 2 5 0.85 2.38 1.16 <
1358 3 6 2 -4 0.02 -0.90 0.79 <
1359 3 -6 2 4 0.02 0.81 0.65 <
1360 3 6 2 -3 2.90 1.70 1.06 <
1361 3 -6 2 3 2.90 2.46 1.22 <
1362 3 6 2 -2 0.05 -1.64 1.46 <
1363 3 6 2 -1 0.75 0.74 0.75 <
1364 3 6 3 -5 1.59 1.93 0.55 o
1365 3 6 3 -4 1.07 0.84 0.54 <
1366 3 6 3 -3 0.13 -0.08 0.34 <
1367 3 6 3 -2 1.35 1.19 1.18 <
1368 3 6 4 -5 0.36 0.63 0.27 <
1369 3 6 4 -4 0.65 -0.92 0.54 <
1370 3 6 4 -3 4.29 2.30 1.22 <
1371 3 -7 -1 4 0.50 2.00 0.72 <
1372 3 7 -1 -4 0.50 2.13 1.42 <
1373 3 -7 -1 3 0.46 2.07 1.01 <
1374 3 7 0 -4 0.19 -0.44 1.29 <
1375 3 -7 0 4 0.19 -0.73 1.44 <
1376 3 7 0 -3 0.10 1.06 0.31 o
1377 3 -7 0 3 0.10 -2.66 1.77 <
1378 3 7 1 -4 0.52 2.57 1.35 <
1379 3 -7 1 4 0.52 3.71 1.80 <
1380 3 7 1 -3 0.45 1.63 0.70 <
1381 4 0 -8 3 32.16 34.88 3.69 o
1382 4 0 -7 3 21.35 13.18 2.02 o
1383 4 0 -7 4 67.15 54.84 3.87 o
1384 4 0 -6 3 49.18 35.25 3.01 o
1385 4 0 -5 2 120.82 95.23 4.77 o
1386 4 0 -5 3 1.80 1.26 0.56 <
1387 4 0 -4 2 14.33 15.90 1.65 o
1388 4 0 2 -4 6.24 2.62 0.60 o
1389 4 0 2 -5 31.17 22.96 2.11 o
1390 4 0 2 -6 12.75 6.62 1.46 o
1391 4 0 2 -7 0.78 -0.42 0.46 <
1392 4 0 3 -6 0.47 0.32 0.31 <
1393 4 -1 -8 3 8.05 7.17 2.03 o
1394 4 -1 -8 2 33.74 24.57 3.67 o
1395 4 -1 -7 4 16.66 12.39 2.14 o
1396 4 -1 -7 3 9.51 8.45 1.85 o
1397 4 -1 -7 2 0.82 1.06 0.45 <
1398 4 -1 -6 4 14.30 12.36 1.97 o
1399 4 -1 -6 3 26.50 24.66 2.76 o
1400 4 -1 -6 2 101.14 129.83 7.31 o
1401 4 -1 -6 1 18.49 29.00 3.57 o
1402 4 -1 -5 3 92.54 112.00 5.63 o
1403 4 -1 -5 2 43.33 40.12 3.46 o
1404 4 -1 -5 1 71.11 99.74 6.26 o
1405 4 -1 -4 3 33.76 33.74 2.73 o
1406 4 -1 -4 2 282.10 301.24 9.15 o
1407 4 -1 -4 1 33.45 40.01 3.39 o
1408 4 -1 -3 2 24.66 27.46 2.37 o
1409 4 -1 -3 1 95.84 99.32 4.99 o
1410 5 1 3 1 45.52 48.38 4.01 o
1410 4 -1 -3 -1 45.52 48.38 4.01 o
1411 4 -1 -2 2 629.29 678.31 10.67 o
1412 4 -1 -2 1 8.99 7.80 1.13 o
1413 5 1 2 1 1273.12 1363.17 20.12 o
1413 4 -1 -2 -1 1273.12 1363.17 20.12 o
1414 4 -1 -2 -2 160.42 141.44 6.89 o
1415 4 1 -2 2 160.42 138.92 4.27 o
1416 4 1 -2 3 21.81 17.73 1.48 o
1417 4 -1 -1 1 557.31 595.72 9.69 o
1418 5 -1 1 -1 468.91 524.38 8.81 o
1418 4 1 -1 1 468.91 524.38 8.81 o
1419 5 1 1 1 468.91 521.31 11.32 o
1419 4 -1 -1 -1 468.91 521.31 11.32 o
1420 4 -1 -1 -2 65.87 54.57 3.80 o
1421 4 1 -1 2 65.87 55.78 3.04 o
1422 4 -1 -1 -3 91.99 81.59 5.45 o
1423 4 1 -1 3 91.99 78.82 4.18 o
1424 4 -1 -1 -4 28.23 21.26 2.80 o
1425 5 1 0 1 171.17 199.33 5.88 o
1425 4 -1 0 -1 171.17 199.33 5.88 o
1426 5 -1 0 -1 171.17 198.00 5.85 o
1426 4 1 0 1 171.17 198.00 5.85 o
1427 4 1 0 2 1.61 1.16 0.55 <
1428 4 -1 0 -2 1.61 0.43 0.22 <
1429 4 -1 0 -3 128.57 115.55 5.71 o
1430 4 -1 0 -4 131.69 126.47 6.69 o
1431 4 -1 0 -5 3.10 2.49 0.81 o
1432 4 -1 0 -6 5.79 7.30 1.86 o
1433 4 1 1 -1 557.66 598.94 9.66 o
1434 5 1 -1 1 468.90 494.77 8.83 o
1434 4 -1 1 -1 468.90 494.77 8.83 o
1435 5 -1 -1 -1 468.90 493.85 10.61 o
1435 4 1 1 1 468.90 493.85 10.61 o
1436 4 -1 1 -2 61.81 59.44 3.17 o
1437 4 1 1 2 61.81 59.04 3.87 o
1438 4 -1 1 -3 92.76 80.72 4.30 o
1439 4 -1 1 -4 29.24 20.18 2.13 o
1440 4 -1 1 -5 25.57 25.51 2.85 o
1441 4 -1 1 -6 3.33 3.85 1.41 <
1442 4 1 2 -2 629.39 726.23 10.86 o
1443 4 1 2 -1 10.59 6.01 0.91 o
1444 5 -1 -2 -1 1273.12 1336.77 19.19 o
1444 4 1 2 1 1273.12 1336.77 19.19 o
1445 4 1 2 2 164.41 145.48 7.09 o
1446 4 -1 2 -3 22.59 18.47 1.71 o
1447 4 -1 2 -4 43.68 38.09 2.81 o
1448 4 -1 2 -5 0.54 0.52 0.13 o
1449 4 -1 2 -6 8.01 5.38 1.39 o
1450 4 1 3 -4 52.44 42.08 2.52 o
1451 4 1 3 -3 239.59 207.93 5.46 o
1452 4 1 3 -2 25.21 27.24 2.15 o
1453 4 1 3 -1 95.43 96.24 4.52 o
1454 5 -1 -3 -1 45.52 51.61 4.10 o
1454 4 1 3 1 45.52 51.61 4.10 o
1455 4 -1 3 -5 14.97 6.64 1.26 o
1456 4 -1 3 -6 6.20 2.59 0.96 <
1457 4 1 4 -4 51.81 43.48 2.46 o
1458 4 1 4 -3 34.39 30.01 2.08 o
1459 4 1 4 -2 279.99 269.74 7.74 o
1460 4 1 4 -1 32.15 37.79 3.00 o
1461 4 -2 -8 3 5.19 5.17 2.02 <
1462 4 -2 -8 2 1.37 0.82 0.86 <
1463 4 -2 -8 1 33.58 28.05 4.81 o
1464 4 -2 -7 5 5.80 5.22 1.67 o
1465 4 -2 -7 4 1.39 3.53 1.85 <
1466 4 -2 -7 3 22.09 13.30 2.32 o
1467 4 -2 -7 2 15.00 16.52 2.97 o
1468 4 -2 -7 1 0.24 0.60 0.61 <
1469 4 -2 -6 4 24.69 26.74 3.37 o
1470 4 -2 -6 3 21.01 14.16 2.68 o
1471 4 -2 -6 2 15.75 18.57 3.03 o
1472 4 -2 -6 1 65.31 63.65 6.16 o
1473 4 -2 -6 -1 17.47 22.34 4.15 o
1474 4 -2 -5 4 16.57 20.17 3.09 o
1475 4 -2 -5 3 57.55 62.63 5.34 o
1476 4 -2 -5 2 83.44 86.75 6.19 o
1477 4 -2 -5 1 31.54 38.77 4.35 o
1478 4 -2 -5 -1 57.95 82.68 7.44 o
1479 5 2 5 2 28.17 34.82 4.90 o
1479 4 -2 -5 -2 28.17 34.82 4.90 o
1480 4 2 -5 4 9.97 5.28 0.94 o
1481 4 -2 -4 3 74.45 73.42 5.38 o
1482 4 -2 -4 2 1.95 2.31 1.10 <
1483 4 -2 -4 1 324.21 343.73 12.16 o
1484 4 -2 -4 -1 73.41 100.41 7.81 o
1485 5 2 4 2 274.74 351.73 15.27 o
1485 4 -2 -4 -2 274.74 351.73 15.27 o
1486 4 -2 -4 -3 0.30 -0.53 0.46 <
1487 4 2 -4 3 0.30 0.56 0.40 <
1488 4 2 -4 4 21.93 17.52 1.89 o
1489 4 -2 -3 3 126.58 134.39 7.02 o
1490 4 -2 -3 2 290.02 304.60 10.57 o
1491 4 -2 -3 1 5.33 7.19 1.64 o
1492 4 -2 -3 -1 144.73 185.19 9.60 o
1493 5 2 3 2 22.92 23.72 3.45 o
1493 4 -2 -3 -2 22.92 23.72 3.45 o
1494 5 -2 3 -2 22.92 15.22 2.09 o
1494 4 2 -3 2 22.92 15.22 2.09 o
1495 4 -2 -3 -3 45.46 56.32 5.85 o
1496 4 2 -3 3 45.46 46.68 3.30 o
1497 4 2 -3 4 6.91 5.02 1.06 o
1498 4 -2 -3 -4 6.91 6.88 2.25 o
1499 4 -2 -2 2 53.06 42.91 3.84 o
1500 4 -2 -2 1 410.77 399.83 12.56 o
1501 4 -2 -2 -1 101.22 122.14 7.28 o
1502 5 -2 2 -2 158.38 174.70 7.14 o
1502 4 2 -2 2 158.38 174.70 7.14 o
1503 5 2 2 2 158.38 183.76 9.06 o
1503 4 -2 -2 -2 158.38 183.76 9.06 o
1504 4 -2 -2 -3 13.79 12.74 2.75 o
1505 4 2 -2 3 13.79 9.49 1.63 o
1506 4 -2 -2 -4 27.56 36.20 4.75 o
1507 4 2 -2 4 27.56 29.02 2.74 o
1508 4 -2 -2 -5 5.08 8.55 2.98 <
1509 4 -2 -1 1 376.94 338.83 10.79 o
1510 4 2 -1 1 139.57 149.90 6.88 o
1511 4 -2 -1 -1 139.57 153.17 7.71 o
1512 5 -2 1 -2 50.15 52.56 3.83 o
1512 4 2 -1 2 50.15 52.56 3.83 o
1513 5 2 1 2 50.15 54.57 4.55 o
1513 4 -2 -1 -2 50.15 54.57 4.55 o
1514 4 2 -1 3 28.34 30.72 3.12 o
1515 4 -2 -1 -3 28.34 34.28 3.84 o
1516 4 2 -1 4 18.77 17.33 2.44 o
1517 4 -2 -1 -4 18.77 14.72 2.62 o
1518 4 -2 -1 -5 2.09 1.83 1.09 <
1519 4 2 0 1 0.26 0.36 0.16 <
1520 4 -2 0 -1 0.26 -0.32 0.47 <
1521 5 2 0 2 210.37 234.32 9.10 o
1521 4 -2 0 -2 210.37 234.32 9.10 o
1522 5 -2 0 -2 210.37 233.14 8.93 o
1522 4 2 0 2 210.37 233.14 8.93 o
1523 4 2 0 3 1.01 1.12 0.67 <
1524 4 -2 0 -3 1.01 0.58 0.55 <
1525 4 2 0 4 1.61 2.84 1.07 <
1526 4 -2 0 -4 1.61 3.74 1.35 <
1527 4 -2 0 -5 10.56 9.59 2.10 o
1528 4 2 1 -1 376.60 345.10 10.77 o
1529 4 -2 1 -1 145.06 149.13 6.84 o
1530 4 2 1 1 145.06 148.67 7.38 o
1531 5 2 -1 2 50.15 54.48 4.08 o
1531 4 -2 1 -2 50.15 54.48 4.08 o
1532 5 -2 -1 -2 50.15 57.81 4.62 o
1532 4 2 1 2 50.15 57.81 4.62 o
1533 4 2 1 3 28.80 30.29 3.55 o
1534 4 -2 1 -3 28.80 29.97 3.27 o
1535 4 -2 1 -4 18.50 13.36 2.25 o
1536 4 2 1 4 18.50 14.76 2.79 o
1537 4 -2 1 -5 1.88 0.43 0.35 <
1538 4 2 2 -2 54.44 46.58 3.95 o
1539 4 2 2 -1 410.73 384.92 11.67 o
1540 4 2 2 1 96.66 138.02 7.76 o
1541 5 -2 -2 -2 158.38 184.40 8.78 o
1541 4 2 2 2 158.38 184.40 8.78 o
1542 4 -2 2 -3 13.37 8.85 1.70 o
1543 4 2 2 3 13.37 10.59 2.16 o
1544 4 -2 2 -4 28.20 24.57 2.88 o
1545 4 -2 2 -5 4.93 3.87 1.30 <
1546 4 2 3 -4 14.29 17.58 2.66 o
1547 4 2 3 -3 126.86 142.18 6.99 o
1548 4 2 3 -2 290.78 314.20 9.91 o
1549 4 2 3 -1 5.30 9.03 2.58 o
1550 4 2 3 1 144.34 178.34 8.94 o
1551 5 -2 -3 -2 22.92 22.60 3.16 o
1551 4 2 3 2 22.92 22.60 3.16 o
1552 4 2 3 3 46.21 57.59 5.84 o
1553 4 -2 3 -5 10.57 7.08 1.61 o
1554 4 2 4 -6 19.60 12.61 1.95 o
1555 4 2 4 -5 0.24 0.39 0.43 <
1556 4 2 4 -4 124.29 145.21 6.38 o
1557 4 2 4 -3 73.50 76.57 4.88 o
1558 4 2 4 -2 1.44 3.09 1.11 <
1559 4 2 4 -1 324.25 346.49 11.78 o
1560 4 2 4 1 74.47 90.39 6.82 o
1561 5 -2 -4 -2 274.74 351.24 14.32 o
1561 4 2 4 2 274.74 351.24 14.32 o
1562 4 2 5 -6 8.59 5.99 1.12 o
1563 4 2 5 -5 30.76 39.49 3.08 o
1564 4 2 5 -4 16.28 24.10 2.79 o
1565 4 2 5 -3 58.06 61.77 4.53 o
1566 4 2 5 -2 83.71 77.42 5.30 o
1567 4 2 5 -1 31.63 35.27 3.61 o
1568 4 2 5 1 57.32 79.67 6.73 o
1569 4 2 6 -5 5.30 5.98 1.27 o
1570 4 2 6 -4 24.08 23.92 2.51 o
1571 4 2 6 -3 19.39 14.57 2.26 o
1572 4 2 6 -2 15.61 16.25 2.58 o
1573 4 2 6 -1 65.40 59.28 5.38 o
1574 4 2 7 -4 1.37 3.14 1.08 <
1575 4 2 7 -3 22.41 11.82 2.20 o
1576 4 2 7 -2 15.14 10.95 2.37 o
1577 4 -3 -7 4 27.93 31.44 5.07 o
1578 4 -3 -7 3 2.18 1.52 1.38 <
1579 4 -3 -7 2 9.23 3.93 2.20 <
1580 4 -3 -7 1 8.65 5.09 2.26 <
1581 4 -3 -6 4 0.25 1.00 0.95 <
1582 4 -3 -6 3 51.89 45.04 5.69 o
1583 4 -3 -6 2 7.65 5.64 2.42 <
1584 4 -3 -6 1 7.83 4.97 2.12 <
1585 4 -3 -5 4 17.82 11.57 2.73 o
1586 4 -3 -5 3 0.40 -0.27 0.73 <
1587 4 -3 -5 2 60.12 64.87 6.77 o
1588 4 -3 -5 1 59.35 64.36 6.48 o
1589 4 -3 -5 -1 16.61 18.36 3.67 o
1590 4 3 -5 3 6.35 7.24 1.90 o
1591 4 -3 -4 3 42.54 36.90 4.70 o
1592 4 -3 -4 2 33.07 35.20 4.60 o
1593 4 -3 -4 1 31.83 31.95 4.30 o
1594 4 -3 -4 -1 3.95 3.16 1.38 <
1595 4 -3 -4 -2 3.66 4.17 1.47 <
1596 4 3 -4 3 15.68 28.92 3.52 o
1597 4 3 -4 4 0.06 0.62 0.61 <
1598 4 -3 -3 3 20.46 15.38 2.82 o
1599 4 -3 -3 2 65.79 62.32 5.99 o
1600 4 -3 -3 1 62.79 64.58 6.20 o
1601 4 -3 -3 -1 13.58 11.15 2.55 o
1602 4 -3 -3 -2 34.46 45.24 5.55 o
1603 4 3 -3 2 34.46 33.55 3.79 o
1604 4 -3 -3 -3 6.84 10.52 2.83 o
1605 4 3 -3 3 6.84 7.18 1.61 o
1606 4 3 -3 4 8.91 11.25 2.17 o
1607 4 -3 -2 2 73.59 59.82 5.61 o
1608 4 -3 -2 1 73.76 61.31 6.06 o
1609 4 3 -2 1 0.10 -0.15 0.40 <
1610 4 -3 -2 -1 0.10 1.46 1.42 <
1611 4 3 -2 2 18.98 18.78 2.88 o
1612 4 -3 -2 -2 18.98 22.79 3.58 o
1613 4 3 -2 3 35.49 98.08 6.47 o
1614 4 -3 -2 -3 35.49 108.53 8.47 o
1615 4 3 -2 4 0.47 0.57 0.42 <
1616 4 -3 -2 -4 0.47 -0.70 1.32 <
1617 4 -3 -1 1 96.95 78.73 6.55 o
1618 4 -3 -1 -1 93.49 112.21 7.80 o
1619 4 3 -1 1 93.49 97.69 6.82 o
1620 4 3 -1 2 31.56 38.77 4.26 o
1621 4 -3 -1 -2 31.56 40.00 4.65 o
1622 4 3 -1 3 8.03 21.29 3.23 o
1623 4 -3 -1 -3 8.03 20.74 3.51 o
1624 4 3 -1 4 5.41 9.37 2.33 o
1625 4 -3 -1 -4 5.41 8.19 2.49 o
1626 4 -3 -1 -5 2.07 3.65 1.70 <
1627 4 3 -1 5 2.07 2.84 1.25 <
1628 4 3 0 1 17.34 26.07 3.30 o
1629 4 -3 0 -1 17.34 25.61 3.42 o
1630 4 3 0 2 26.01 35.14 4.03 o
1631 4 -3 0 -2 26.01 33.02 4.13 o
1632 4 3 0 3 1.23 3.64 1.16 o
1633 4 -3 0 -3 1.23 4.75 1.79 <
1634 4 3 0 4 0.01 0.71 1.05 <
1635 4 -3 0 -4 0.01 0.50 0.63 <
1636 4 -3 0 -5 8.18 12.12 3.12 o
1637 4 3 0 5 8.18 11.77 2.80 o
1638 4 3 1 -1 94.37 83.29 6.71 o
1639 4 3 1 1 92.54 108.99 7.29 o
1640 4 -3 1 -1 92.54 96.47 6.88 o
1641 4 3 1 2 30.18 48.97 5.15 o
1642 4 -3 1 -2 30.18 37.28 4.45 o
1643 4 3 1 3 8.31 21.65 3.55 o
1644 4 -3 1 -3 8.31 18.45 2.95 o
1645 4 3 1 4 5.44 9.20 2.29 o
1646 4 -3 1 -4 5.44 7.76 2.16 o
1647 4 -3 1 -5 2.03 3.25 1.43 <
1648 4 3 1 5 2.03 2.51 1.34 <
1649 4 3 2 -3 92.16 78.60 6.27 o
1650 4 3 2 -2 70.04 66.50 5.88 o
1651 4 3 2 -1 77.24 57.86 5.92 o
1652 4 3 2 1 0.12 -3.86 1.72 <
1653 4 3 2 2 19.11 27.76 4.00 o
1654 4 3 2 3 34.95 114.57 8.11 o
1655 4 -3 2 -3 34.95 83.08 6.93 o
1656 4 -3 2 -4 0.46 0.23 0.75 <
1657 4 3 2 4 0.46 1.68 0.60 <
1658 4 3 3 -4 12.06 7.34 2.03 o
1659 4 3 3 -3 20.36 16.92 2.87 o
1660 4 3 3 -2 66.19 63.17 5.84 o
1661 4 3 3 -1 62.37 61.39 5.70 o
1662 4 3 3 1 12.59 15.37 2.76 o
1663 4 3 3 2 34.04 47.62 5.35 o
1664 4 3 3 3 7.12 9.63 2.20 o
1665 4 3 4 -6 13.75 8.04 2.11 o
1666 4 3 4 -5 5.09 4.46 1.71 <
1667 4 3 4 -3 42.82 38.33 4.36 o
1668 4 3 4 -2 33.93 32.05 4.02 o
1669 4 3 4 -1 30.94 32.58 3.91 o
1670 4 3 4 1 3.91 4.01 1.56 <
1671 4 3 4 2 3.66 6.52 2.16 o
1672 4 3 5 -6 5.77 4.40 1.37 o
1673 4 3 5 -5 11.45 7.55 1.95 o
1674 4 3 5 -4 16.67 12.86 2.35 o
1675 4 3 5 -3 0.46 0.12 0.88 <
1676 4 3 5 -2 59.46 63.27 6.13 o
1677 4 3 5 -1 60.01 69.61 6.42 o
1678 4 3 5 1 17.73 13.40 2.83 o
1679 4 3 6 -5 10.76 9.81 2.24 o
1680 4 3 6 -4 0.25 -0.12 0.38 <
1681 4 3 6 -3 51.86 43.72 4.89 o
1682 4 3 6 -2 8.59 4.93 1.90 <
1683 4 3 6 -1 6.96 5.27 1.90 <
1684 4 3 7 -4 28.12 22.43 3.67 o
1685 4 3 7 -3 2.19 0.78 0.83 <
1686 4 3 7 -2 8.93 5.10 1.88 <
1687 4 3 7 -1 8.92 8.75 2.83 o
1688 4 -4 -7 3 11.10 9.68 3.59 <
1689 4 -4 -6 5 9.51 6.28 2.16 <
1690 4 -4 -6 4 6.74 4.84 1.23 o
1691 4 -4 -6 3 1.50 3.23 2.07 <
1692 4 -4 -6 2 15.40 8.32 3.05 <
1693 4 -4 -5 4 6.76 3.37 1.49 <
1694 4 -4 -5 3 13.11 8.53 2.75 o
1695 4 -4 -5 2 0.25 -1.01 1.35 <
1696 4 -4 -5 1 14.83 11.01 3.30 o
1697 4 -4 -4 4 0.21 1.01 1.11 <
1698 4 -4 -4 3 1.41 1.43 0.79 <
1699 4 -4 -4 2 49.76 56.22 6.57 o
1700 4 -4 -4 1 1.63 1.04 1.55 <
1701 4 4 -4 3 2.56 2.28 1.48 <
1702 4 -4 -3 3 18.67 13.63 3.23 o
1703 4 -4 -3 2 0.21 -0.38 1.02 <
1704 4 -4 -3 1 18.22 19.70 4.05 o
1705 4 -4 -3 -1 1.41 3.28 1.76 <
1706 4 4 -3 2 7.59 6.16 1.92 o
1707 4 4 -3 3 4.87 7.16 2.27 o
1708 4 -4 -2 2 68.14 61.10 6.69 o
1709 4 -4 -2 1 7.36 4.03 1.57 <
1710 4 4 -2 1 19.11 12.67 2.85 o
1711 4 -4 -2 -1 19.11 14.19 3.36 o
1712 4 4 -2 2 0.78 -4.92 1.35 <
1713 4 -4 -2 -2 0.78 -0.28 1.01 <
1714 4 4 -2 3 3.77 5.64 1.92 <
1715 4 -4 -1 1 41.53 36.86 4.92 o
1716 4 -4 -1 -1 6.46 5.28 1.87 <
1717 4 4 -1 1 6.46 5.51 2.01 <
1718 4 4 -1 2 7.64 8.07 2.50 o
1719 4 -4 -1 -2 7.64 9.30 2.80 o
1720 4 4 -1 3 2.39 2.59 1.27 <
1721 4 -4 -1 -3 2.39 3.37 2.02 <
1722 4 4 0 1 60.42 72.26 6.97 o
1723 4 -4 0 -1 60.42 77.51 7.38 o
1724 4 4 0 2 0.53 0.46 0.99 <
1725 4 -4 0 -2 0.53 0.99 0.76 <
1726 4 -4 0 -3 4.38 5.05 2.03 <
1727 4 4 0 3 4.38 7.11 2.24 o
1728 4 4 0 4 4.07 14.11 3.03 o
1729 4 -4 0 -4 4.07 13.45 2.94 o
1730 4 4 1 -1 41.26 38.00 5.11 o
1731 4 4 1 1 6.54 7.72 2.38 o
1732 4 -4 1 -1 6.54 6.38 2.54 <
1733 4 -4 1 -2 7.49 7.77 2.40 o
1734 4 4 1 2 7.49 7.91 2.43 o
1735 4 -4 1 -3 2.55 2.62 1.61 <
1736 4 4 1 3 2.55 4.00 1.89 <
1737 4 4 2 -2 68.10 63.82 6.77 o
1738 4 4 2 -1 7.85 4.72 1.81 <
1739 4 4 2 1 18.57 14.70 3.15 o
1740 4 4 2 2 0.75 1.34 0.89 <
1741 4 -4 2 -3 3.92 5.99 2.19 <
1742 4 4 3 -4 3.63 1.48 0.69 <
1743 4 4 3 -3 17.69 15.50 3.18 o
1744 4 4 3 -2 0.20 -0.09 0.27 <
1745 4 4 3 -1 19.20 13.42 3.03 o
1746 4 4 3 1 1.30 2.19 1.65 <
1747 4 4 4 -5 5.93 5.06 2.26 <
1748 4 4 4 -4 0.14 0.05 0.21 <
1749 4 4 4 -3 1.61 0.13 0.34 <
1750 4 4 4 -2 49.71 57.05 6.23 o
1751 4 4 4 -1 1.43 -0.48 0.15 <
1752 4 4 5 -6 4.61 3.20 1.22 <
1753 4 4 5 -5 2.44 2.63 1.43 <
1754 4 4 5 -4 6.98 2.16 1.00 <
1755 4 4 5 -3 13.95 10.49 2.79 o
1756 4 4 5 -2 0.24 0.79 0.93 <
1757 4 4 5 -1 14.00 9.37 2.63 o
1758 4 4 6 -5 9.57 7.53 2.61 <
1759 4 4 6 -4 6.79 4.48 1.72 <
1760 4 4 6 -3 1.57 1.71 1.50 <
1761 4 4 6 -2 15.44 9.39 2.88 o
1762 4 4 7 -3 10.93 11.46 3.32 o
1763 4 -5 -5 4 0.76 -1.23 1.96 <
1764 4 -5 -4 4 7.64 6.91 2.30 o
1765 4 -5 -4 3 1.49 1.61 1.42 <
1766 4 -5 -3 3 18.60 17.82 3.81 o
1767 4 -5 -3 2 18.66 14.36 3.51 o
1768 4 -5 -3 1 0.07 -3.45 2.22 <
1769 4 5 -3 2 0.94 1.21 1.44 <
1770 4 -5 -2 2 2.05 3.54 2.02 <
1771 4 -5 -2 1 16.07 10.69 3.05 o
1772 4 5 -2 1 2.02 1.36 0.57 <
1773 4 5 -2 2 2.13 2.26 1.45 <
1774 4 -5 -1 1 1.35 -0.75 1.47 <
1775 4 5 -1 1 4.28 6.57 2.74 <
1776 4 -5 -1 -1 4.28 5.01 2.52 <
1777 4 5 -1 2 1.58 1.58 1.24 <
1778 4 5 0 1 0.46 10.65 4.01 <
1779 4 -5 0 -1 0.46 3.65 2.43 <
1780 4 -5 0 -2 1.73 2.96 1.19 <
1781 4 5 0 2 1.73 1.37 1.12 <
1782 4 5 1 -1 1.33 1.56 1.63 <
1783 4 5 1 1 4.31 5.14 2.40 <
1784 4 -5 1 -2 1.50 2.98 1.59 <
1785 4 5 2 -2 1.89 3.61 2.09 <
1786 4 5 2 -1 16.45 11.29 2.83 o
1787 4 5 3 -4 0.06 -1.99 1.70 <
1788 4 5 3 -3 18.31 16.01 3.71 o
1789 4 5 3 -2 18.95 20.99 4.50 o
1790 4 5 3 -1 0.07 0.57 1.02 <
1791 4 5 4 -5 0.14 -0.18 1.24 <
1792 4 5 4 -4 7.85 7.22 2.56 <
1793 4 5 4 -3 1.48 1.92 1.62 <
1794 4 5 5 -5 2.62 4.19 2.16 <
1795 4 5 5 -4 0.76 1.61 1.63 <
1796 5 0 -6 -2 41.79 38.70 4.04 o
1797 5 0 -6 -3 49.06 31.74 3.93 o
1798 5 0 -5 -2 120.50 124.23 7.07 o
1799 5 0 -5 -3 1.80 1.26 0.42 o
1800 5 0 -5 -4 11.07 1.69 0.57 <
1801 5 0 -4 -2 14.29 19.83 2.46 o
1802 5 0 -4 -3 140.95 136.69 7.72 o
1803 5 0 -4 -4 1.24 -0.17 0.93 <
1804 5 0 -3 -1 24.67 28.27 2.44 o
1805 5 0 -3 -2 364.58 378.00 10.70 o
1806 5 0 -3 -3 10.23 4.69 1.38 o
1807 5 0 -3 -4 3.95 3.93 1.56 <
1808 5 0 -3 -5 8.48 4.48 1.79 <
1809 5 0 -2 -1 1.97 0.46 0.31 <
1810 5 0 -2 -2 239.55 203.61 7.33 o
1811 5 0 -2 -3 193.72 193.92 8.76 o
1812 5 0 -2 -4 6.23 4.05 1.48 <
1813 5 0 -2 -5 31.16 21.38 3.42 o
1814 5 0 -1 -1 744.63 733.70 9.77 o
1815 5 0 -1 -2 96.81 109.76 5.35 o
1816 5 0 -1 -3 60.83 47.44 4.47 o
1817 5 0 -1 -4 192.94 171.67 9.26 o
1818 5 0 -1 -5 34.62 26.62 4.00 o
1819 5 0 0 1 192.59 155.04 4.07 o
1820 5 0 0 -1 192.59 154.85 4.06 o
1821 5 0 0 -2 3.13 3.95 0.94 o
1822 5 0 0 2 3.13 4.54 1.04 o
1823 5 0 0 3 179.63 139.34 7.48 o
1824 5 0 0 -3 179.63 136.56 7.40 o
1825 5 0 0 -4 0.70 0.50 0.48 <
1826 5 0 0 4 0.70 0.88 0.60 <
1827 5 0 0 -5 85.26 60.98 5.91 o
1828 5 0 0 5 85.26 63.45 6.27 o
1829 5 0 0 -6 3.87 1.49 0.63 <
1830 5 0 1 1 744.52 722.27 9.70 o
1831 5 0 1 2 96.99 105.77 5.14 o
1832 5 0 1 3 60.93 48.42 4.57 o
1833 5 0 1 4 192.73 170.63 9.19 o
1834 5 0 1 5 34.65 52.40 6.56 o
1835 5 0 2 1 1.85 0.52 0.28 <
1836 5 0 2 2 239.62 197.23 7.23 o
1837 5 0 2 3 193.88 193.60 9.02 o
1838 5 0 2 4 6.23 5.18 1.75 <
1839 5 0 2 5 31.09 26.90 4.20 o
1840 5 0 3 1 24.61 26.15 2.34 o
1841 5 0 3 2 364.27 366.64 10.86 o
1842 5 0 3 3 10.18 3.38 1.19 <
1843 5 0 3 4 4.21 2.31 1.10 <
1844 5 0 3 5 8.41 2.84 1.07 <
1845 5 0 4 1 1.86 1.58 0.55 <
1846 5 0 4 2 14.10 19.45 2.55 o
1847 5 0 4 3 140.99 132.26 7.90 o
1848 5 0 4 4 1.25 0.25 0.18 <
1849 5 0 5 2 120.54 122.19 7.31 o
1850 5 0 5 3 1.79 2.19 1.41 <
1851 5 0 5 4 11.01 3.24 1.39 <
1852 5 0 6 2 41.74 39.13 4.23 o
1853 5 0 6 3 48.97 32.68 4.50 o
1854 5 0 7 2 9.74 5.73 1.75 o
1855 5 1 -7 -3 9.48 6.05 1.62 o
1856 5 1 -6 -4 14.26 11.16 2.44 o
1857 5 1 -6 -3 26.44 20.69 2.88 o
1858 5 1 -6 -2 100.87 105.82 6.45 o
1859 5 1 -5 -4 43.45 42.03 4.67 o
1860 5 1 -5 -3 92.29 103.35 6.55 o
1861 5 1 -5 -2 43.22 34.92 3.19 o
1862 5 -1 -5 -2 93.73 106.79 7.12 o
1863 5 -1 -5 -3 50.88 39.20 4.46 o
1864 5 1 -4 -5 7.40 6.35 2.12 <
1865 5 1 -4 -4 50.93 74.04 6.29 o
1866 5 1 -4 -3 33.67 34.83 3.59 o
1867 5 1 -4 -2 281.36 302.11 9.18 o
1868 5 1 -4 -1 33.36 36.86 2.56 o
1869 5 -1 -4 -2 35.02 32.83 3.52 o
1870 5 -1 -4 -3 45.76 45.24 4.48 o
1871 5 -1 -4 -4 8.63 6.93 1.80 o
1872 5 1 -3 -5 14.50 11.77 2.72 o
1873 5 1 -3 -4 54.11 55.12 5.05 o
1874 5 1 -3 -3 239.29 250.10 9.43 o
1875 5 1 -3 -2 24.59 26.78 2.42 o
1876 5 1 -3 -1 95.59 96.06 3.74 o
1877 5 -1 -3 -1 45.52 51.87 3.84 o
1877 4 1 3 1 45.52 51.87 3.84 o
1878 5 -1 -3 -2 239.31 227.63 8.78 o
1879 5 -1 -3 -3 57.38 61.57 5.29 o
1880 5 -1 -3 -4 13.00 7.56 2.14 o
1881 5 1 -2 -6 0.96 1.09 1.22 <
1882 5 1 -2 -5 42.88 32.62 4.37 o
1883 5 1 -2 -4 23.49 27.49 3.74 o
1884 5 1 -2 -3 156.75 154.10 7.51 o
1885 5 1 -2 -2 627.64 679.21 12.81 o
1886 5 1 -2 -1 8.97 6.92 0.83 o
1887 5 -1 -2 -1 1273.12 1363.17 17.84 o
1887 4 1 2 1 1273.12 1363.17 17.84 o
1888 5 -1 -2 -2 159.99 162.34 7.14 o
1889 5 -1 -2 -3 21.75 19.16 2.71 o
1890 5 -1 -2 -4 42.27 34.71 4.29 o
1891 5 -1 -2 -5 0.53 -1.29 0.77 <
1892 5 1 -1 -6 24.27 12.29 2.79 o
1893 5 1 -1 -5 31.19 21.90 3.82 o
1894 5 1 -1 -4 93.72 78.60 6.07 o
1895 5 1 -1 -3 62.27 55.16 4.46 o
1896 5 1 -1 -2 218.17 250.51 7.40 o
1897 5 1 -1 -1 555.85 605.29 7.83 o
1898 5 -1 -1 -1 468.90 470.62 9.24 o
1898 4 1 1 1 468.90 470.62 9.24 o
1899 5 1 -1 1 468.90 470.57 7.71 o
1899 4 -1 1 -1 468.90 470.57 7.71 o
1900 5 -1 -1 -2 65.70 52.28 3.87 o
1901 5 1 -1 2 65.70 55.34 3.54 o
1902 5 -1 -1 -3 91.75 76.28 5.85 o
1903 5 1 -1 3 91.75 79.44 5.34 o
1904 5 -1 -1 -4 28.15 20.65 3.08 o
1905 5 -1 -1 -5 24.49 16.73 3.06 o
1906 5 1 0 1 171.17 189.20 5.11 o
1906 4 -1 0 -1 171.17 189.20 5.11 o
1907 5 -1 0 -1 171.17 186.87 5.06 o
1907 4 1 0 1 171.17 186.87 5.06 o
1908 5 -1 0 -2 1.60 0.51 0.23 <
1909 5 1 0 2 1.60 1.11 0.59 <
1910 5 -1 0 -3 128.23 114.13 6.43 o
1911 5 1 0 3 128.23 114.61 6.41 o
1912 5 1 0 4 131.35 111.04 7.53 o
1913 5 -1 0 -4 131.35 113.34 7.59 o
1914 5 -1 0 -5 3.09 0.57 0.67 <
1915 5 1 0 5 3.09 1.40 0.61 <
1916 5 -1 1 5 30.06 23.22 3.93 o
1917 5 -1 1 4 92.73 86.69 6.48 o
1918 5 -1 1 3 66.59 50.78 4.26 o
1919 5 -1 1 2 220.63 251.60 7.48 o
1920 5 -1 1 1 556.19 586.18 7.82 o
1921 5 1 1 1 468.91 466.43 9.42 o
1921 4 -1 -1 -1 468.91 466.43 9.42 o
1922 5 -1 1 -1 468.91 468.83 7.21 o
1922 4 1 -1 1 468.91 468.83 7.21 o
1923 5 -1 1 -2 61.65 55.65 3.49 o
1924 5 1 1 2 61.65 55.54 3.94 o
1925 5 -1 1 -3 92.52 78.75 5.09 o
1926 5 1 1 3 92.52 72.09 5.76 o
1927 5 1 1 4 29.16 18.78 2.96 o
1928 5 -1 1 -4 29.16 13.70 2.41 o
1929 5 1 1 5 25.50 16.76 3.39 o
1930 5 -1 1 -5 25.50 12.34 2.66 o
1931 5 -1 1 -6 3.32 1.36 0.40 o
1932 5 -1 2 6 0.96 1.52 1.57 <
1933 5 -1 2 5 41.63 39.68 5.04 o
1934 5 -1 2 4 22.67 28.94 3.92 o
1935 5 -1 2 3 153.07 156.85 7.77 o
1936 5 -1 2 2 627.73 659.75 12.61 o
1937 5 -1 2 1 10.56 5.31 0.82 o
1938 5 1 2 1 1273.12 1266.80 17.50 o
1938 4 -1 -2 -1 1273.12 1266.80 17.50 o
1939 5 1 2 2 163.98 150.61 6.99 o
1940 5 1 2 3 22.53 20.88 2.94 o
1941 5 1 2 4 43.57 31.85 4.17 o
1942 5 1 2 5 0.54 0.68 0.78 <
1943 5 -1 3 5 14.53 12.10 2.76 o
1944 5 -1 3 4 52.30 55.03 5.14 o
1945 5 -1 3 3 238.96 247.58 9.72 o
1946 5 -1 3 2 25.14 29.76 2.70 o
1947 5 -1 3 1 95.18 102.49 4.24 o
1948 5 1 3 1 45.52 46.01 3.52 o
1948 4 -1 -3 -1 45.52 46.01 3.52 o
1949 5 1 3 2 239.39 225.84 9.31 o
1950 5 1 3 3 59.57 58.33 5.07 o
1951 5 1 3 4 13.01 7.11 1.88 o
1952 5 -1 4 5 7.81 6.12 2.05 <
1953 5 -1 4 4 51.67 68.88 6.35 o
1954 5 -1 4 3 34.30 35.09 3.75 o
1955 5 -1 4 2 279.26 322.55 10.21 o
1956 5 -1 4 1 32.07 40.65 2.78 o
1957 5 1 4 2 34.29 33.97 3.70 o
1958 5 1 4 3 45.09 43.85 4.66 o
1959 5 1 4 4 8.28 6.92 2.28 o
1960 5 -1 5 4 45.04 43.81 5.10 o
1961 5 -1 5 3 91.76 109.43 7.11 o
1962 5 -1 5 2 42.46 37.71 3.56 o
1963 5 -1 5 1 70.88 91.04 4.96 o
1964 5 1 5 2 94.46 103.76 7.20 o
1965 5 1 5 3 49.10 40.44 4.82 o
1966 5 -1 6 4 14.08 17.07 3.55 o
1967 5 -1 6 3 27.69 20.33 3.28 o
1968 5 -1 6 2 103.03 110.17 6.85 o
1969 5 -1 6 1 19.36 27.78 2.96 o
1970 5 1 6 2 27.11 20.91 3.34 o
1971 5 -1 7 3 9.35 8.20 2.35 o
1972 5 -1 7 2 0.73 -0.51 0.84 <
1973 5 -1 8 2 32.85 24.75 3.65 o
1974 5 2 -8 -3 5.18 4.04 1.55 <
1975 5 2 -7 -4 1.39 0.85 0.66 <
1976 5 2 -7 -3 22.03 13.16 2.58 o
1977 5 2 -6 -4 24.63 25.35 3.65 o
1978 5 2 -6 -3 20.95 12.65 2.15 o
1979 5 2 -6 -2 15.71 16.10 2.26 o
1980 5 2 -5 -5 29.81 47.81 5.44 o
1981 5 2 -5 -4 16.53 20.78 3.28 o
1982 5 2 -5 -3 57.40 60.77 4.95 o
1983 5 2 -5 -2 83.22 73.56 4.37 o
1984 5 2 -4 -5 0.28 0.24 0.58 <
1985 5 2 -4 -4 123.39 155.40 8.39 o
1986 5 2 -4 -3 74.25 76.01 5.00 o
1987 5 2 -4 -2 1.94 1.72 0.41 o
1988 5 2 -4 -1 323.36 261.62 6.73 o
1989 5 -2 -4 -2 274.74 333.08 13.19 o
1989 4 2 4 2 274.74 333.08 13.19 o
1990 5 -2 -4 -3 0.30 -1.80 1.16 <
1991 5 2 -3 -6 5.78 6.88 2.50 <
1992 5 2 -3 -5 44.37 65.92 6.20 o
1993 5 2 -3 -4 14.02 22.16 3.52 o
1994 5 2 -3 -3 126.25 143.57 6.97 o
1995 5 2 -3 -2 289.26 307.30 7.90 o
1996 5 2 -3 -1 5.32 6.40 0.79 o
1997 5 -2 -3 -2 22.92 22.73 2.99 o
1997 4 2 3 2 22.92 22.73 2.99 o
1998 5 -2 -3 -3 45.34 53.90 5.03 o
1999 5 -2 -3 -4 6.89 7.62 2.20 o
2000 5 2 -2 -6 29.45 19.63 3.57 o
2001 5 2 -2 -5 12.89 14.02 2.89 o
2002 5 2 -2 -4 70.26 76.00 5.79 o
2003 5 2 -2 -3 105.31 108.57 5.99 o
2004 5 2 -2 -2 52.92 46.91 3.19 o
2005 5 2 -2 -1 409.69 355.15 5.69 o
2006 5 -2 -2 -1 100.95 115.88 6.08 o
2007 5 -2 -2 -2 158.38 174.00 7.74 o
2007 4 2 2 2 158.38 174.00 7.74 o
2008 5 -2 -2 -3 13.75 12.17 2.17 o
2009 5 -2 -2 -4 27.49 32.09 4.23 o
2010 5 2 -1 1 139.21 161.88 4.91 o
2011 5 -2 -1 -1 139.21 156.17 6.17 o
2012 5 2 -1 2 50.15 46.52 3.37 o
2012 4 -2 1 -2 50.15 46.52 3.37 o
2013 5 -2 -1 -2 50.15 53.17 3.99 o
2013 4 2 1 2 50.15 53.17 3.99 o
2014 5 -2 -1 -3 28.26 31.51 3.53 o
2015 5 2 -1 3 28.26 25.50 3.02 o
2016 5 2 -1 4 18.72 12.09 2.33 o
2017 5 -2 -1 -4 18.72 13.90 2.48 o
2018 5 2 -1 5 2.09 2.20 0.93 <
2019 5 -2 -1 -5 2.09 2.33 1.61 <
2020 5 -2 0 -1 0.26 0.23 0.26 <
2021 5 2 0 1 0.26 0.01 0.30 <
2022 5 -2 0 -2 210.37 212.51 7.58 o
2022 4 2 0 2 210.37 212.51 7.58 o
2023 5 2 0 2 210.37 212.09 7.76 o
2023 4 -2 0 -2 210.37 212.09 7.76 o
2024 5 -2 0 -3 1.01 0.69 0.67 <
2025 5 2 0 3 1.01 0.52 0.43 <
2026 5 -2 0 -4 1.61 2.20 1.20 <
2027 5 2 0 4 1.61 2.49 1.54 <
2028 5 -2 0 -5 10.53 6.55 1.93 o
2029 5 2 0 5 10.53 3.86 1.62 <
2030 5 2 1 1 144.68 145.33 5.85 o
2031 5 -2 1 -1 144.68 147.16 4.56 o
2032 5 2 1 2 50.15 51.31 4.00 o
2032 4 -2 -1 -2 50.15 51.31 4.00 o
2033 5 -2 1 -2 50.15 48.99 3.38 o
2033 4 2 -1 2 50.15 48.99 3.38 o
2034 5 2 1 3 28.73 25.78 3.19 o
2035 5 -2 1 -3 28.73 26.57 2.95 o
2036 5 2 1 4 18.45 11.75 2.31 o
2037 5 -2 1 -4 18.45 13.71 2.67 o
2038 5 -2 1 -5 1.88 1.71 1.45 <
2039 5 2 1 5 1.88 -0.44 0.85 <
2040 5 -2 2 5 13.21 15.39 2.89 o
2041 5 -2 2 4 70.17 75.85 5.93 o
2042 5 -2 2 3 109.99 97.17 5.83 o
2043 5 2 2 1 96.41 113.03 5.70 o
2044 5 -2 2 -1 96.41 108.43 3.54 o
2045 5 2 2 2 158.38 169.10 7.93 o
2045 4 -2 -2 -2 158.38 169.10 7.93 o
2046 5 -2 2 -2 158.38 151.09 5.96 o
2046 4 2 -2 2 158.38 151.09 5.96 o
2047 5 -2 2 -3 13.34 8.84 1.68 o
2048 5 2 2 3 13.34 9.81 2.18 o
2049 5 2 2 4 28.13 21.42 3.32 o
2050 5 -2 2 -4 28.13 20.94 3.19 o
2051 5 -2 2 -5 4.92 3.07 1.28 <
2052 5 -2 3 6 6.05 6.68 2.23 <
2053 5 -2 3 5 43.69 68.21 6.39 o
2054 5 -2 3 4 14.25 21.43 3.49 o
2055 5 -2 3 3 126.53 147.08 7.41 o
2056 5 -2 3 2 290.02 317.07 8.78 o
2057 5 -2 3 1 5.28 5.35 0.85 o
2058 5 -2 3 -2 22.92 14.61 1.80 o
2058 4 2 -3 2 22.92 14.61 1.80 o
2059 5 2 3 2 22.92 21.76 2.98 o
2059 4 -2 -3 -2 22.92 21.76 2.98 o
2060 5 2 3 3 46.09 50.02 5.05 o
2061 5 -2 3 -3 46.09 42.59 3.84 o
2062 5 2 3 4 6.54 4.43 1.74 <
2063 5 -2 3 -4 6.54 4.15 1.57 <
2064 5 -2 3 -5 10.55 6.97 2.27 o
2065 5 -2 4 5 0.24 -0.20 0.80 <
2066 5 -2 4 4 123.96 154.74 8.87 o
2067 5 -2 4 3 73.31 75.71 5.26 o
2068 5 -2 4 2 1.44 2.55 0.71 o
2069 5 -2 4 1 323.40 332.13 7.82 o
2070 6 -2 -4 0 3.62 4.88 0.78 o
2070 5 -2 4 0 3.62 4.88 0.78 o
2071 5 2 4 2 274.74 313.76 12.92 o
2071 4 -2 -4 -2 274.74 313.76 12.92 o
2072 5 2 4 3 0.36 1.44 1.33 <
2073 5 -2 5 5 30.68 42.86 5.44 o
2074 5 -2 5 4 16.23 21.16 3.65 o
2075 5 -2 5 3 57.91 67.10 5.52 o
2076 5 -2 5 2 83.49 83.27 5.15 o
2077 5 -2 5 1 31.54 37.49 3.04 o
2078 5 2 5 2 28.17 31.05 4.18 o
2078 4 -2 -5 -2 28.17 31.05 4.18 o
2079 5 -2 6 4 24.02 26.27 3.83 o
2080 5 -2 6 3 19.34 20.51 3.18 o
2081 5 -2 6 2 15.57 18.86 2.63 o
2082 5 -2 6 1 65.22 71.80 4.39 o
2083 5 -2 7 4 1.37 3.20 1.49 <
2084 5 -2 7 3 22.35 12.62 2.65 o
2085 5 -2 7 2 15.10 13.53 2.28 o
2086 5 -2 7 1 0.24 0.28 0.41 <
2087 5 -2 8 3 5.94 5.36 1.89 <
2088 5 -2 8 2 1.44 1.94 1.12 <
2089 5 -2 8 1 33.41 34.51 3.62 o
2090 5 3 -7 -4 27.86 27.91 3.89 o
2091 5 3 -7 -3 2.18 1.33 0.89 <
2092 5 3 -6 -5 10.65 9.34 2.58 o
2093 5 3 -6 -4 0.25 1.61 1.37 <
2094 5 3 -6 -3 51.76 41.61 3.82 o
2095 5 3 -6 -2 7.63 4.69 1.12 o
2096 5 3 -5 -5 11.93 7.16 2.27 o
2097 5 3 -5 -4 17.77 11.05 2.19 o
2098 5 3 -5 -3 0.40 0.79 0.78 <
2099 5 3 -5 -2 59.96 52.59 3.23 o
2100 5 3 -4 -6 13.80 11.24 2.93 o
2101 5 3 -4 -5 5.14 4.20 1.48 <
2102 5 3 -4 -4 3.16 2.64 1.14 <
2103 5 3 -4 -3 42.43 35.75 3.25 o
2104 5 3 -4 -2 32.98 30.74 2.37 o
2105 5 3 -3 -6 6.62 4.77 1.93 <
2106 5 3 -3 -5 31.12 31.09 3.78 o
2107 5 3 -3 -4 11.00 8.49 1.78 o
2108 5 3 -3 -3 20.41 14.79 2.19 o
2109 5 3 -3 -2 65.61 58.45 3.34 o
2110 5 -3 -3 -2 34.37 47.81 4.91 o
2111 5 -3 -3 -3 6.82 8.73 1.98 o
2112 5 3 -2 1 0.10 0.11 0.15 <
2113 5 -3 -2 -2 18.93 30.03 3.59 o
2114 5 3 -2 2 18.93 23.60 2.56 o
2115 5 -3 -2 -3 35.40 100.41 7.01 o
2116 5 3 -2 3 35.40 74.51 5.71 o
2117 5 3 -2 4 0.47 1.47 0.97 <
2118 5 -3 -2 -4 0.47 0.58 0.47 <
2119 6 3 1 0 0.32 1.62 0.56 <
2119 5 3 -1 0 0.32 1.62 0.56 <
2120 5 3 -1 1 93.25 107.46 4.39 o
2121 5 -3 -1 -2 31.47 41.61 3.87 o
2122 5 3 -1 2 31.47 38.02 3.24 o
2123 5 -3 -1 -3 8.01 19.76 2.95 o
2124 5 3 -1 3 8.01 15.49 2.36 o
2125 5 -3 -1 -4 5.40 10.01 2.54 o
2126 5 3 -1 4 5.40 5.71 1.96 <
2127 5 3 -1 5 2.06 2.11 1.26 <
2128 5 -3 0 -1 17.29 25.29 2.47 o
2129 5 3 0 1 17.29 29.58 2.57 o
2130 5 -3 0 -2 25.95 33.94 3.17 o
2131 5 3 0 2 25.95 33.22 3.18 o
2132 5 -3 0 -3 1.23 3.11 1.09 <
2133 5 3 0 3 1.23 4.79 1.68 <
2134 5 3 0 4 0.01 -0.34 0.41 <
2135 5 -3 0 -4 0.01 -0.19 0.44 <
2136 5 3 0 5 8.15 7.58 2.57 <
2137 5 -3 0 -5 8.15 9.40 2.65 o
2138 5 -3 1 -1 92.30 101.90 4.39 o
2139 5 3 1 1 92.30 97.22 5.39 o
2140 5 -3 1 -2 30.10 43.43 3.37 o
2141 5 3 1 2 30.10 42.65 3.92 o
2142 5 3 1 3 8.29 19.02 3.03 o
2143 5 -3 1 -3 8.29 19.09 2.63 o
2144 5 -3 1 -4 5.42 7.40 1.97 o
2145 5 3 1 4 5.42 11.11 2.84 o
2146 5 -3 1 -5 2.02 2.81 1.76 <
2147 5 3 2 1 0.12 1.11 0.82 <
2148 5 -3 2 -1 0.12 -0.76 0.44 <
2149 5 -3 2 -2 19.06 22.97 2.21 o
2150 5 3 2 2 19.06 26.82 3.34 o
2151 5 -3 2 -3 34.85 87.06 5.60 o
2152 5 3 2 3 34.85 95.79 7.22 o
2153 5 3 2 4 0.46 -0.53 0.96 <
2154 5 -3 2 -4 0.46 -0.14 0.76 <
2155 5 -3 3 -1 12.56 9.73 0.89 o
2156 5 3 3 2 33.95 42.01 4.60 o
2157 5 -3 3 -2 33.95 36.28 2.74 o
2158 5 3 3 3 7.10 10.00 2.33 o
2159 5 -3 3 -3 7.10 5.95 1.46 o
2160 5 -3 3 -4 8.82 8.97 1.99 o
2161 5 -3 4 6 13.71 12.51 3.03 o
2162 5 -3 4 5 5.08 4.62 1.63 <
2163 5 -3 4 4 3.17 0.69 0.63 <
2164 5 -3 4 3 42.71 34.00 3.58 o
2165 5 -3 4 2 33.85 28.16 2.54 o
2166 5 -3 4 1 30.86 28.10 1.83 o
2167 5 3 4 2 3.65 5.32 1.69 o
2168 5 -3 4 -2 3.65 2.64 0.60 o
2169 5 -3 4 -3 15.77 22.57 2.62 o
2170 5 -3 4 -4 0.06 1.37 1.24 <
2171 5 -3 5 5 11.42 10.12 2.97 o
2172 5 -3 5 4 16.62 13.84 2.75 o
2173 5 -3 5 3 0.46 0.35 0.61 <
2174 5 -3 5 2 59.30 58.98 3.92 o
2175 5 -3 5 1 59.86 66.87 3.37 o
2176 5 -3 5 -2 14.35 4.14 0.92 o
2177 5 -3 5 -3 6.04 6.63 1.57 o
2178 5 -3 6 5 10.73 10.22 2.63 o
2179 5 -3 6 4 0.24 0.36 0.87 <
2180 5 -3 6 3 51.72 43.29 4.66 o
2181 5 -3 6 2 8.57 5.29 1.34 o
2182 5 -3 6 1 6.94 5.84 1.14 o
2183 6 -3 -6 0 90.83 85.36 4.32 o
2183 5 -3 6 0 90.83 85.36 4.32 o
2184 5 -3 7 4 28.05 22.91 4.14 o
2185 5 -3 7 3 2.18 2.44 1.26 <
2186 5 -3 7 2 8.90 6.64 1.54 o
2187 5 -3 7 1 8.90 5.91 1.26 o
2188 6 -3 -7 0 2.79 1.61 0.60 <
2188 5 -3 7 0 2.79 1.61 0.60 <
2189 5 -3 8 2 4.40 5.24 1.42 o
2190 5 -3 8 1 4.03 5.92 1.32 o
2191 5 4 -7 -3 11.07 13.31 2.06 o
2192 5 4 -6 -5 9.49 6.49 1.76 o
2193 5 4 -6 -4 6.73 2.35 0.54 o
2194 5 4 -6 -3 1.49 1.44 0.45 o
2195 5 4 -5 -6 4.60 5.54 2.02 <
2196 5 4 -5 -5 2.50 0.65 0.81 <
2197 5 4 -5 -4 6.74 2.99 1.03 <
2198 5 4 -5 -3 13.08 7.42 1.54 o
2199 5 4 -5 -2 0.25 0.79 0.43 <
2200 5 4 -4 -6 0.89 3.76 1.88 <
2201 5 4 -4 -5 6.20 3.06 1.16 <
2202 5 4 -4 -4 0.21 -0.62 0.67 <
2203 5 4 -4 -3 1.41 0.70 0.66 <
2204 5 4 -4 -2 49.63 41.74 2.57 o
2205 5 4 -3 -2 0.21 0.20 0.44 <
2206 6 4 2 0 5.75 9.74 1.13 o
2206 5 4 -2 0 5.75 9.74 1.13 o
2207 5 4 -2 1 19.06 18.99 1.96 o
2208 5 4 -2 2 0.77 -0.39 0.43 <
2209 5 4 -2 3 3.76 5.46 1.45 o
2210 5 -4 -2 -3 3.76 8.58 2.39 o
2211 6 4 1 0 92.24 114.86 4.80 o
2211 5 4 -1 0 92.24 114.86 4.80 o
2212 5 4 -1 1 6.44 6.90 1.24 o
2213 5 4 -1 2 7.62 7.32 1.51 o
2214 5 -4 -1 -2 7.62 12.37 2.39 o
2215 5 4 -1 3 2.39 1.61 1.04 <
2216 5 -4 -1 -3 2.39 3.82 1.66 <
2217 5 4 0 1 60.26 96.19 5.29 o
2218 5 4 0 2 0.53 -0.22 0.45 <
2219 5 -4 0 -2 0.53 0.21 0.27 <
2220 5 4 0 3 4.36 5.49 1.57 o
2221 5 -4 0 -3 4.36 6.39 1.75 o
2222 5 4 1 1 6.52 6.62 1.53 o
2223 5 4 1 2 7.47 10.29 2.12 o
2224 5 -4 1 -2 7.47 11.70 1.79 o
2225 5 -4 1 -3 2.54 2.66 0.94 <
2226 5 4 1 3 2.54 1.87 0.63 <
2227 5 4 2 2 0.75 0.09 0.56 <
2228 5 -4 2 -2 0.75 1.06 0.50 <
2229 5 -4 2 -3 3.91 4.52 1.34 o
2230 5 4 2 3 3.91 4.88 1.38 o
2231 5 -4 3 -2 7.58 7.94 1.24 o
2232 5 4 3 2 7.58 7.46 1.89 o
2233 5 -4 3 -3 4.86 4.26 1.08 o
2234 5 -4 4 -2 1.06 1.24 0.46 <
2235 5 -4 4 -3 2.47 14.92 2.21 o
2236 5 -4 5 -2 4.73 3.87 0.66 o
2237 5 -4 6 5 9.54 10.94 2.85 o
2238 5 -4 6 4 6.77 6.36 2.01 o
2239 5 -4 6 3 1.57 2.69 0.96 <
2240 5 -4 6 2 15.40 7.06 1.38 o
2241 5 -4 7 3 10.90 10.86 2.09 o
2242 5 -4 7 2 0.07 -1.16 0.84 <
2243 5 -4 7 1 11.43 7.49 1.16 o
2244 5 5 -6 -4 5.56 2.75 1.04 <
2245 5 5 -6 -3 1.44 1.08 0.63 <
2246 5 5 -5 -5 2.65 1.99 1.13 <
2247 5 5 -5 -4 0.76 0.07 0.18 <
2248 5 5 -5 -3 6.18 3.83 0.96 o
2249 5 5 -5 -2 6.30 2.33 0.43 o
2250 5 5 -4 -4 7.62 3.19 1.21 <
2251 5 5 -4 -3 1.48 1.73 0.78 <
2252 5 5 -4 -2 0.99 0.94 0.42 <
2253 6 5 3 0 5.71 4.69 0.83 o
2253 5 5 -3 0 5.71 4.69 0.83 o
2254 5 5 -3 1 2.18 2.24 0.73 o
2255 5 5 -3 2 0.94 -0.45 0.16 <
2256 6 5 2 0 0.55 1.33 0.34 o
2256 5 5 -2 0 0.55 1.33 0.34 o
2257 5 5 -2 1 2.02 3.57 0.87 o
2258 5 5 -2 2 2.13 1.14 0.14 o
2259 6 5 1 0 11.99 21.64 2.22 o
2259 5 5 -1 0 11.99 21.64 2.22 o
2260 5 5 -1 1 4.27 4.40 1.21 o
2261 5 5 -1 2 1.58 0.32 0.08 o
2262 5 5 0 1 0.46 2.01 0.75 <
2263 5 5 0 2 1.72 0.70 0.55 <
2264 5 5 1 1 4.30 4.33 1.44 o
2265 5 5 1 2 1.50 0.90 0.33 <
2266 5 5 2 2 2.22 4.58 1.81 <
2267 5 6 -4 -2 1.13 0.20 0.12 <
2268 5 6 -3 -1 2.02 1.28 0.53 <
2269 6 6 3 0 2.01 2.35 0.76 o
2269 5 6 -3 0 2.01 2.35 0.76 o
2270 6 6 2 0 4.43 12.26 1.80 o
2270 5 6 -2 0 4.43 12.26 1.80 o
2271 6 6 1 0 0.20 0.63 0.39 <
2271 5 6 -1 0 0.20 0.63 0.39 <
2272 6 0 -8 -2 5.84 5.23 1.96 <
2273 6 0 -8 -3 23.53 21.95 3.58 o
2274 6 0 -7 -2 7.15 3.87 1.62 <
2275 6 0 -7 -3 15.62 10.15 2.72 o
2276 6 0 -7 -4 49.12 48.16 5.65 o
2277 6 0 -6 -1 10.87 22.35 2.92 o
2278 6 0 -6 -2 30.65 36.08 3.87 o
2279 6 0 -6 -3 35.98 24.61 3.38 o
2280 6 0 -6 -4 3.64 3.12 1.63 <
2281 6 0 -6 -5 17.47 14.06 3.47 o
2282 6 0 -5 -1 73.64 108.13 6.30 o
2283 6 0 -5 -2 88.38 101.13 6.10 o
2284 6 0 -5 -3 1.32 -0.01 0.48 <
2285 6 0 -5 -4 8.12 4.82 1.47 o
2286 6 0 -5 -5 2.66 3.56 1.67 <
2287 6 0 -4 -1 1.29 1.75 0.71 <
2288 6 0 -4 -2 10.48 17.15 2.21 o
2289 6 0 -4 -3 103.38 101.90 6.73 o
2290 6 0 -4 -4 0.91 0.15 0.60 <
2291 6 0 -3 -1 18.10 20.72 2.00 o
2292 6 0 -3 -2 267.40 283.94 8.66 o
2293 6 0 -3 -3 7.50 3.24 1.26 <
2294 6 0 -2 -1 1.45 0.44 0.21 <
2295 6 0 -2 -2 175.70 156.87 6.53 o
2296 6 0 -1 -1 546.16 566.36 8.39 o
2297 6 0 1 1 546.07 515.32 7.68 o
2298 6 0 2 1 1.36 0.40 0.23 <
2299 6 0 2 2 175.75 134.88 5.67 o
2300 6 0 2 3 142.20 152.28 7.45 o
2301 6 0 3 1 18.05 20.91 1.98 o
2302 6 0 3 2 267.18 303.12 8.60 o
2303 6 0 3 3 7.47 3.13 0.95 o
2304 6 0 3 4 3.09 1.27 0.60 <
2305 6 0 4 1 1.36 1.57 0.66 <
2306 6 0 4 2 10.34 15.73 1.99 o
2307 6 0 4 3 103.41 95.98 5.92 o
2308 6 0 4 4 0.92 0.25 0.56 <
2309 6 0 4 5 0.58 0.42 0.60 <
2310 6 0 5 2 88.41 85.42 5.35 o
2311 6 0 5 3 1.31 0.83 0.52 <
2312 6 0 5 4 8.08 3.39 1.22 <
2313 6 0 5 5 2.70 3.23 1.47 <
2314 6 0 5 6 3.64 2.70 1.36 <
2315 6 0 6 2 30.62 28.88 3.22 o
2316 6 0 6 3 35.91 22.29 2.96 o
2317 6 0 6 4 3.64 1.41 0.59 <
2318 6 0 6 5 17.45 10.96 2.56 o
2319 6 0 7 3 15.63 7.30 1.88 o
2320 6 0 7 4 49.10 42.05 4.97 o
2321 6 0 8 3 23.52 15.77 2.99 o
2322 6 1 -8 -3 5.89 4.62 1.74 <
2323 6 1 -8 -2 24.68 16.37 3.22 o
2324 6 -1 -8 -1 57.64 49.66 4.73 o
2324 1 1 8 1 57.64 49.66 4.73 o
2325 6 -1 -8 -2 6.29 5.82 1.29 o
2326 6 1 -7 -4 12.19 5.87 2.07 <
2327 6 1 -7 -3 6.96 5.31 2.11 <
2328 6 1 -7 -2 0.60 0.21 0.75 <
2329 6 -1 -7 -1 0.88 1.77 0.99 <
2329 1 1 7 1 0.88 1.77 0.99 <
2330 6 -1 -7 -2 8.34 5.54 1.36 o
2331 6 -1 -7 -3 13.80 8.36 2.02 o
2332 6 1 -6 -5 23.77 24.37 4.51 o
2333 6 1 -6 -4 10.46 13.67 2.93 o
2334 6 1 -6 -3 19.39 17.28 3.27 o
2335 6 1 -6 -2 73.99 81.21 6.43 o
2336 6 -1 -6 -1 186.66 207.38 8.37 o
2336 1 1 6 1 186.66 207.38 8.37 o
2337 6 -1 -6 -2 20.88 18.62 2.58 o
2338 6 -1 -6 -3 10.21 8.41 1.96 o
2339 6 -1 -6 -4 25.44 25.42 4.06 o
2340 6 1 -5 -5 6.01 4.17 2.23 <
2341 6 1 -5 -4 31.87 33.33 4.72 o
2342 6 1 -5 -3 67.69 79.69 6.36 o
2343 6 1 -5 -2 31.70 28.15 3.39 o
2344 6 -1 -5 -1 71.70 67.45 4.15 o
2344 1 1 5 1 71.70 67.45 4.15 o
2345 6 -1 -5 -2 68.74 77.38 5.05 o
2346 6 -1 -5 -3 37.32 30.05 3.94 o
2347 6 1 -4 -5 5.43 7.99 2.67 <
2348 6 1 -4 -4 37.36 74.19 7.39 o
2349 6 1 -4 -3 24.70 26.02 3.44 o
2350 6 1 -4 -2 206.37 258.45 10.15 o
2351 6 1 -4 -1 24.47 27.63 3.00 o
2352 6 -1 -4 -1 488.94 565.00 11.70 o
2352 1 1 4 1 488.94 565.00 11.70 o
2353 6 -1 -4 -2 25.69 25.97 2.77 o
2354 6 -1 -4 -3 33.57 36.75 5.51 o
2355 6 1 -3 -4 39.69 49.95 5.58 o
2356 6 1 -3 -3 175.51 178.86 8.68 o
2357 6 1 -3 -2 18.04 20.36 2.49 o
2358 6 1 -3 -1 70.11 79.90 4.66 o
2359 6 -1 -3 -1 39.39 39.34 2.38 o
2359 1 1 3 1 39.39 39.34 2.38 o
2360 6 -1 -3 -2 175.52 200.72 7.76 o
2361 6 1 -2 -4 17.23 36.94 5.34 o
2362 6 1 -2 -3 114.97 120.10 7.13 o
2363 6 1 -2 -2 460.35 495.07 11.52 o
2364 6 1 -2 -1 6.58 5.03 1.01 o
2365 6 -1 -2 -1 1103.46 1363.17 14.22 o
2365 1 1 2 1 1103.46 1363.17 14.22 o
2366 6 1 -1 -2 160.02 178.96 6.95 o
2367 6 1 -1 -1 407.69 398.00 8.20 o
2368 6 1 0 -1 158.51 119.35 3.82 o
2369 6 -1 0 1 158.51 119.96 3.79 o
2370 6 -1 1 3 48.84 39.67 3.92 o
2371 6 -1 1 2 161.82 164.22 6.37 o
2372 6 -1 1 1 407.94 393.19 7.89 o
2373 6 -1 2 4 16.63 30.29 4.58 o
2374 6 -1 2 3 112.27 114.26 6.38 o
2375 6 -1 2 2 460.42 512.41 11.72 o
2376 6 -1 2 1 7.74 4.30 0.94 o
2377 6 1 2 1 1103.60 1070.05 10.64 o
2377 1 -1 -2 -1 1103.60 1070.05 10.64 o
2378 6 1 2 2 120.27 83.13 4.78 o
2379 6 -1 3 5 10.65 10.54 2.70 o
2380 6 -1 3 4 38.36 43.08 4.48 o
2381 6 -1 3 3 175.27 178.34 8.27 o
2382 6 -1 3 2 18.44 19.58 2.29 o
2383 6 -1 3 1 69.81 80.25 4.47 o
2384 6 1 3 1 39.52 36.73 2.22 o
2384 1 -1 -3 -1 39.52 36.73 2.22 o
2385 6 1 3 2 175.58 153.10 5.73 o
2386 6 1 3 3 43.69 33.84 3.47 o
2387 6 -1 4 6 0.51 0.45 0.70 <
2388 6 -1 4 5 5.73 4.66 1.70 <
2389 6 -1 4 4 37.90 69.31 6.60 o
2390 6 -1 4 3 25.16 26.17 3.16 o
2391 6 -1 4 2 204.82 252.78 9.57 o
2392 6 1 4 1 488.39 435.73 9.51 o
2392 1 -1 -4 -1 488.39 435.73 9.51 o
2393 6 1 4 2 25.15 25.66 2.26 o
2394 6 1 4 3 33.07 28.72 2.98 o
2395 6 1 4 4 6.07 4.06 1.32 o
2396 6 -1 5 5 6.25 3.45 1.41 <
2397 6 -1 5 4 33.03 33.32 4.27 o
2398 6 -1 5 3 67.30 77.53 5.75 o
2399 6 -1 5 2 31.14 29.82 3.25 o
2400 6 1 5 2 69.28 76.10 4.42 o
2401 6 1 5 3 36.01 26.73 2.94 o
2402 6 1 5 4 6.47 2.92 1.12 <
2403 6 1 5 5 8.58 5.76 1.83 o
2404 6 -1 6 5 24.08 20.26 3.91 o
2405 6 -1 6 4 10.33 12.19 2.82 o
2406 6 -1 6 3 20.31 14.76 2.81 o
2407 6 -1 6 2 75.57 81.34 6.20 o
2408 6 1 6 2 19.89 15.20 2.10 o
2409 6 1 6 3 10.38 5.54 1.43 o
2410 6 1 6 4 25.13 18.18 2.88 o
2411 6 -1 7 4 12.09 7.52 2.37 o
2412 6 -1 7 3 6.86 5.00 1.74 <
2413 6 1 7 3 13.85 7.93 1.98 o
2414 6 -1 8 3 5.51 4.55 1.62 <
2415 6 -2 -8 -1 4.45 4.47 1.35 o
2416 6 2 -7 -3 16.16 12.91 3.06 o
2417 6 -2 -7 -1 15.88 17.50 2.33 o
2418 6 -2 -7 -2 2.17 2.12 1.04 <
2418 1 2 7 2 2.17 2.12 1.04 <
2419 6 -2 -7 -3 3.85 0.73 5.11 <
2420 6 2 -6 -4 18.07 20.32 3.93 o
2421 6 2 -6 -3 15.37 13.42 3.13 o
2422 6 2 -6 -2 11.52 11.73 2.54 o
2423 6 -2 -6 -1 12.78 18.20 2.07 o
2424 6 -2 -6 -2 46.72 48.94 4.05 o
2424 1 2 6 2 46.72 48.94 4.05 o
2425 6 2 -5 -5 21.86 38.27 5.55 o
2426 6 2 -5 -4 12.12 17.54 3.64 o
2427 6 2 -5 -3 42.10 48.56 5.17 o
2428 6 2 -5 -2 61.04 64.12 5.53 o
2429 6 -2 -5 -1 42.39 61.50 3.57 o
2430 6 -2 -5 -2 24.47 27.62 2.92 o
2430 1 2 5 2 24.47 27.62 2.92 o
2431 6 2 -4 -5 0.20 -0.17 0.63 <
2432 6 2 -4 -4 90.50 124.39 8.62 o
2433 6 2 -4 -3 54.46 60.24 5.46 o
2434 6 2 -4 -2 1.43 1.62 0.89 <
2435 6 -2 -4 -1 53.70 65.56 3.38 o
2436 6 2 -3 -5 32.54 63.52 7.00 o
2437 6 2 -3 -4 10.29 17.91 3.80 o
2438 6 2 -3 -3 92.60 111.50 6.94 o
2439 6 2 -3 -2 212.16 225.79 9.43 o
2440 6 2 -3 -1 3.90 4.38 1.19 o
2441 6 2 -2 -5 9.46 13.30 3.04 o
2442 6 2 -2 -4 51.53 66.20 6.22 o
2443 6 2 -2 -3 77.24 77.40 5.76 o
2444 6 2 -2 -2 38.81 33.48 3.27 o
2445 6 2 -2 -1 300.49 262.48 8.81 o
2446 6 2 -1 -4 18.90 30.85 5.03 o
2447 6 2 -1 -3 101.28 99.82 6.51 o
2448 6 2 -1 -2 45.64 31.66 3.01 o
2449 6 -2 -1 2 45.64 19.44 2.32 o
2450 6 2 -1 -1 275.74 236.28 7.13 o
2451 6 -2 -1 1 275.74 236.06 5.44 o
2452 6 -2 0 3 0.62 0.02 0.28 <
2453 6 2 0 -3 0.62 -0.25 0.44 <
2454 6 2 0 -2 0.28 0.85 0.36 <
2455 6 -2 0 2 0.28 0.74 0.36 <
2456 6 -2 0 1 82.11 77.00 3.51 o
2457 6 2 0 -1 82.11 76.96 3.56 o
2458 6 -2 1 4 19.47 29.51 4.48 o
2459 6 -2 1 3 97.78 97.37 6.11 o
2460 6 -2 1 2 42.76 36.44 3.30 o
2461 6 -2 1 1 275.50 257.00 7.62 o
2462 6 2 1 -1 275.50 260.74 6.17 o
2463 6 -2 2 5 9.69 11.68 2.67 o
2464 6 -2 2 4 51.47 61.60 5.53 o
2465 6 -2 2 3 80.67 76.93 5.64 o
2466 6 -2 2 2 39.82 35.34 3.31 o
2467 6 -2 2 1 300.46 279.36 8.92 o
2468 6 -2 3 6 4.44 4.03 1.80 <
2469 6 -2 3 5 32.04 50.76 5.55 o
2470 6 -2 3 4 10.45 17.43 3.51 o
2471 6 -2 3 3 92.80 120.27 7.38 o
2472 6 -2 3 2 212.71 233.58 9.35 o
2473 6 -2 3 1 3.88 4.61 1.05 o
2474 6 2 3 2 19.90 15.33 1.77 o
2474 1 -2 -3 -2 19.90 15.33 1.77 o
2475 6 -2 4 5 0.17 -0.44 0.83 <
2476 6 -2 4 4 90.92 135.47 8.85 o
2477 6 -2 4 3 53.77 61.28 5.24 o
2478 6 -2 4 2 1.06 2.64 1.06 <
2479 6 2 4 2 238.23 219.40 6.32 o
2479 1 -2 -4 -2 238.23 219.40 6.32 o
2480 6 2 4 3 0.26 -0.26 0.46 <
2481 6 2 4 4 16.02 8.45 1.96 o
2482 6 -2 5 5 22.50 34.68 4.92 o
2483 6 -2 5 4 11.91 20.55 3.65 o
2484 6 -2 5 3 42.48 53.05 5.20 o
2485 6 -2 5 2 61.24 64.34 5.46 o
2486 6 2 5 2 24.38 20.63 2.00 o
2486 1 -2 -5 -2 24.38 20.63 2.00 o
2487 6 2 5 3 23.44 22.31 2.42 o
2488 6 2 5 4 7.54 3.49 1.16 o
2489 6 -2 6 4 17.62 20.91 3.78 o
2490 6 -2 6 3 14.19 14.17 2.80 o
2491 6 2 6 2 46.52 31.90 2.77 o
2491 1 -2 -6 -2 46.52 31.90 2.77 o
2492 6 2 6 3 4.35 3.72 1.03 o
2493 6 -2 7 3 16.39 13.49 2.95 o
2494 6 2 7 3 4.08 26.19 3.53 o
2495 6 -3 -7 -1 21.90 27.19 2.49 o
2496 6 3 -6 -3 37.96 36.06 5.25 o
2497 6 -3 -6 -1 0.28 -0.12 0.34 <
2498 6 3 -5 -4 13.03 8.60 2.32 o
2499 6 3 -5 -3 0.29 2.11 1.32 <
2500 6 3 -5 -2 43.98 47.75 5.45 o
2501 6 3 -4 -5 3.77 3.46 1.35 <
2502 6 3 -4 -4 2.32 2.40 1.24 <
2503 6 3 -4 -3 31.12 30.69 4.15 o
2504 6 3 -4 -2 24.19 24.77 3.48 o
2505 6 3 -3 -5 22.82 26.84 4.34 o
2506 6 3 -3 -4 8.06 7.59 2.09 o
2507 6 3 -3 -3 14.97 10.97 2.13 o
2508 6 3 -3 -2 48.12 47.40 4.61 o
2509 6 -3 -3 1 45.94 31.16 2.27 o
2510 6 3 -2 -6 22.22 33.27 5.47 o
2511 6 3 -2 -5 13.13 18.55 3.93 o
2512 6 3 -2 -4 0.23 -0.02 0.35 <
2513 6 3 -2 -3 67.69 68.69 5.60 o
2514 6 3 -2 -2 53.83 50.52 4.43 o
2515 6 -3 -2 2 53.83 47.42 3.74 o
2516 6 3 -2 -1 53.96 53.61 4.48 o
2517 6 -3 -2 1 53.96 40.76 2.55 o
2518 6 3 -1 -5 18.43 29.44 4.85 o
2519 6 3 -1 -4 66.05 70.17 6.20 o
2520 6 3 -1 -3 1.27 0.87 0.31 <
2521 6 -3 -1 3 1.27 1.54 1.11 <
2522 6 -3 -1 2 67.15 69.13 4.24 o
2523 6 3 -1 -2 67.15 71.62 4.88 o
2524 6 -3 -1 1 70.92 71.63 3.42 o
2525 6 3 -1 -1 70.92 71.26 4.49 o
2526 6 3 0 -4 11.08 16.82 3.17 o
2527 6 -3 0 4 11.08 16.42 3.09 o
2528 6 -3 0 3 173.47 167.59 8.40 o
2529 6 3 0 -3 173.47 166.14 8.78 o
2530 6 3 0 -2 2.81 1.43 0.56 <
2531 6 -3 0 2 2.81 1.52 0.58 <
2532 6 3 0 -1 1.26 1.77 0.76 <
2533 6 -3 0 1 1.26 1.30 0.51 <
2534 6 -3 1 5 19.26 24.99 4.11 o
2535 6 -3 1 4 66.87 70.23 6.16 o
2536 6 -3 1 3 1.30 0.73 0.36 <
2537 6 -3 1 2 68.97 71.49 4.86 o
2538 6 3 1 -2 68.97 68.58 4.45 o
2539 6 -3 1 1 69.03 70.74 4.45 o
2540 6 3 1 -1 69.03 69.26 3.35 o
2541 6 -3 2 6 22.54 26.53 4.46 o
2542 6 -3 2 5 13.05 21.30 3.62 o
2543 6 -3 2 4 0.22 0.32 0.89 <
2544 6 -3 2 3 67.41 82.25 6.32 o
2545 6 -3 2 2 51.24 58.09 4.68 o
2546 6 -3 3 5 23.05 26.30 4.03 o
2547 6 -3 3 4 8.82 7.70 1.99 o
2548 6 -3 3 3 14.89 14.11 2.64 o
2549 6 -3 3 2 48.42 49.92 4.83 o
2550 6 -3 4 5 3.73 4.27 1.84 <
2551 6 -3 4 4 2.33 1.65 0.67 <
2552 6 -3 4 3 31.33 33.94 4.23 o
2553 6 -3 4 2 24.82 26.20 3.59 o
2554 6 3 4 2 2.68 2.07 0.50 o
2555 6 3 4 3 11.57 19.53 2.39 o
2556 6 -3 5 4 12.19 11.93 2.57 o
2557 6 -3 5 3 0.33 0.23 0.60 <
2558 6 -3 5 2 43.50 52.81 5.50 o
2559 6 3 5 2 10.53 4.60 0.83 o
2560 6 3 5 3 4.43 6.81 1.33 o
2561 6 -3 6 3 37.93 44.43 5.45 o
2562 6 4 -5 -3 9.59 7.85 2.41 o
2563 6 4 -4 -4 0.15 -0.90 1.18 <
2564 6 4 -4 -3 1.03 1.70 1.19 <
2565 6 4 -4 -2 36.40 43.39 5.20 o
2566 6 -4 -4 2 36.40 18.59 2.41 o
2567 6 4 -3 -5 0.83 1.22 1.17 <
2568 6 4 -3 -4 2.83 1.30 0.87 <
2569 6 4 -3 -3 13.66 11.32 2.46 o
2570 6 4 -3 -2 0.15 0.92 0.25 o
2571 6 -4 -3 2 0.15 -0.43 0.45 <
2572 6 -4 -3 1 13.33 9.47 0.95 o
2573 6 4 -2 -5 11.11 10.76 2.61 o
2574 6 4 -2 -4 3.78 2.98 1.35 <
2575 6 -4 -2 3 5.50 4.46 1.39 o
2576 6 4 -2 -3 5.50 3.68 1.37 <
2577 6 4 -2 -2 49.85 52.41 4.91 o
2578 6 -4 -2 2 49.85 53.56 3.67 o
2579 6 -4 -2 1 5.38 4.52 0.86 o
2580 6 4 -1 -6 4.75 5.07 2.31 <
2581 6 4 -1 -5 6.38 4.60 1.65 <
2582 6 -4 -1 4 36.03 41.86 4.81 o
2583 6 4 -1 -4 36.03 44.73 5.11 o
2584 6 -4 -1 3 27.75 30.95 3.44 o
2585 6 4 -1 -3 27.75 31.62 3.70 o
2586 6 -4 -1 2 2.20 0.80 0.57 <
2587 6 4 -1 -2 2.20 1.18 0.54 <
2588 6 4 -1 -1 30.38 28.80 3.27 o
2589 6 -4 -1 1 30.38 29.22 2.57 o
2590 6 -4 0 5 37.61 47.81 5.64 o
2591 6 4 0 -5 37.61 50.60 6.56 o
2592 6 -4 0 4 28.93 38.14 4.45 o
2593 6 4 0 -4 28.93 36.84 4.53 o
2594 6 4 0 -3 0.60 1.34 0.62 <
2595 6 -4 0 3 0.60 1.80 0.94 <
2596 6 -4 0 2 25.42 21.40 2.53 o
2597 6 4 0 -2 25.42 19.03 2.40 o
2598 6 4 0 -1 1.53 1.84 0.69 <
2599 6 -4 1 6 4.84 4.72 2.14 <
2600 6 -4 1 5 6.30 3.16 0.96 o
2601 6 -4 1 4 35.88 51.75 5.28 o
2602 6 -4 1 3 27.91 32.25 3.72 o
2603 6 4 1 -3 27.91 30.15 3.66 o
2604 6 -4 1 2 2.22 1.65 0.96 <
2605 6 4 1 -2 2.22 1.29 0.75 <
2606 6 4 1 -1 30.18 31.40 2.71 o
2607 6 -4 2 5 11.43 8.56 2.28 o
2608 6 -4 2 4 3.80 3.23 1.34 <
2609 6 -4 2 3 5.17 4.85 1.45 o
2610 6 4 2 -2 49.81 45.64 4.15 o
2611 6 -4 2 2 49.81 55.77 5.14 o
2612 6 4 2 -1 5.74 2.43 0.73 o
2613 6 -4 3 5 0.91 0.51 0.56 <
2614 6 -4 3 4 2.65 2.16 1.28 <
2615 6 -4 3 3 12.94 16.59 3.03 o
2616 6 -4 3 2 0.15 -0.04 0.39 <
2617 6 -4 4 4 0.10 -0.70 0.83 <
2618 6 -4 4 3 1.17 2.39 1.27 <
2619 6 -4 4 2 36.37 45.33 5.26 o
2620 6 4 4 2 0.77 0.46 0.26 <
2621 6 -4 5 3 10.20 10.65 2.67 o
2622 6 -5 -6 2 0.86 0.55 0.31 <
2623 6 -5 -5 2 4.62 2.83 0.82 o
2624 6 -5 -4 3 1.09 0.40 0.24 <
2625 6 -5 -4 2 0.72 1.30 0.45 <
2626 6 5 -3 -4 0.04 -0.34 0.21 <
2627 6 -5 -3 4 0.04 -0.18 0.50 <
2628 6 -5 -3 3 13.61 11.79 2.21 o
2629 6 5 -3 -3 13.61 18.39 3.48 o
2630 6 5 -3 -2 13.65 18.17 3.31 o
2631 6 -5 -3 2 13.65 14.39 1.75 o
2632 6 5 -2 -5 0.13 0.46 0.29 <
2633 6 -5 -2 5 0.13 0.70 0.80 <
2634 6 5 -2 -4 11.05 7.35 2.07 o
2635 6 -5 -2 4 11.05 8.99 2.07 o
2636 6 5 -2 -3 1.76 3.58 1.36 <
2637 6 -5 -2 3 1.76 2.46 1.09 <
2638 6 -5 -2 2 1.50 3.18 0.94 o
2639 6 5 -2 -2 1.50 0.97 0.68 <
2640 6 5 -1 -5 4.67 3.71 1.31 <
2641 6 -5 -1 5 4.67 4.73 2.10 <
2642 6 -5 -1 4 1.43 0.11 0.29 <
2643 6 5 -1 -4 1.43 -0.51 0.73 <
2644 6 5 -1 -3 3.68 3.78 1.46 <
2645 6 -5 -1 3 3.68 3.83 1.36 <
2646 6 5 -1 -2 3.01 4.19 1.48 <
2647 6 -5 -1 2 3.01 4.89 1.10 o
2648 6 5 -1 -1 0.98 0.47 0.59 <
2649 6 -5 0 6 0.64 2.53 1.72 <
2650 6 5 0 -6 0.64 2.30 1.75 <
2651 6 -5 0 5 0.83 -1.21 1.26 <
2652 6 5 0 -5 0.83 1.09 1.20 <
2653 6 -5 0 4 10.95 11.45 2.46 o
2654 6 5 0 -4 10.95 8.14 2.30 o
2655 6 -5 0 3 0.72 2.20 1.11 <
2656 6 5 0 -3 0.72 1.01 0.75 <
2657 6 5 0 -2 0.36 -0.63 0.49 <
2658 6 -5 0 2 0.36 0.30 0.39 <
2659 6 5 0 -1 11.61 10.40 1.95 o
2660 6 -5 1 5 4.51 6.25 2.00 o
2661 6 5 1 -4 1.44 -0.04 0.67 <
2662 6 -5 1 4 1.44 0.59 0.49 <
2663 6 -5 1 3 3.49 3.98 1.44 <
2664 6 5 1 -3 3.49 3.15 1.38 <
2665 6 5 1 -2 3.20 4.55 0.89 o
2666 6 -5 1 2 3.20 3.66 1.25 <
2667 6 5 1 -1 0.97 1.11 0.64 <
2668 6 -5 2 5 0.14 3.37 1.95 <
2669 6 -5 2 4 10.76 11.57 2.38 o
2670 6 -5 2 3 1.90 1.07 0.82 <
2671 6 5 2 -3 1.90 1.10 0.68 <
2672 6 5 2 -2 1.38 1.74 0.81 <
2673 6 -5 2 2 1.38 2.48 1.17 <
2674 6 5 2 -1 12.03 6.97 1.52 o
2675 6 -5 3 4 0.05 -0.51 0.41 <
2676 6 -5 3 3 13.39 21.44 3.69 o
2677 6 5 3 -1 0.05 0.92 0.48 <
2678 6 5 3 1 1.61 0.93 0.39 <
2679 6 -6 -4 4 0.56 -0.14 0.27 <
2680 6 -6 -4 3 3.71 3.10 1.07 <
2681 6 -6 -4 2 0.83 0.71 0.49 <
2682 6 -6 -3 5 1.33 2.29 1.46 <
2683 6 -6 -3 4 0.93 1.02 0.20 o
2684 6 -6 -3 3 0.11 0.40 0.49 <
2685 6 -6 -3 2 1.16 2.43 0.82 <
2686 6 -6 -2 6 3.07 0.75 0.95 <
2686 1 -5 2 7 3.07 0.75 0.95 <
2687 6 -6 -2 5 0.77 2.49 1.00 <
2688 6 6 -2 -4 0.01 -0.84 0.88 <
2689 6 -6 -2 4 0.01 0.38 0.43 <
2690 6 -6 -2 3 2.50 4.03 1.44 <
2691 6 6 -2 -3 2.50 4.07 1.84 <
2692 6 6 -2 -2 0.05 -0.33 0.87 <
2693 6 -6 -2 2 0.05 -0.26 0.38 <
2694 6 6 -1 -5 1.07 0.70 0.50 <
2695 6 -6 -1 5 1.07 3.07 1.38 <
2696 6 -6 -1 4 1.32 2.31 1.22 <
2697 6 6 -1 -4 1.32 0.82 0.75 <
2698 6 -6 -1 3 0.02 0.63 0.58 <
2699 6 6 -1 -3 0.02 -0.09 0.73 <
2700 6 6 -1 -2 1.43 1.27 0.68 <
2701 6 -6 -1 2 1.43 1.84 0.89 <
2702 6 6 0 -5 0.15 -0.52 0.93 <
2703 6 -6 0 5 0.15 1.83 1.55 <
2704 6 6 0 -4 0.00 1.28 0.79 <
2705 6 -6 0 4 0.00 0.36 0.91 <
2706 6 -6 0 3 3.03 4.79 1.97 <
2707 6 6 0 -3 3.03 4.71 1.57 <
2708 6 6 0 -2 0.00 0.28 0.81 <
2709 6 6 0 -1 0.07 0.25 0.04 o
2710 6 -6 1 5 1.08 3.83 2.03 <
2711 6 6 1 -5 1.08 0.39 0.32 <
2712 6 -6 1 4 1.33 1.90 1.02 <
2713 6 6 1 -4 1.33 1.29 0.72 <
2714 6 6 1 -3 0.02 -0.58 0.90 <
2715 6 -6 1 3 0.02 0.04 0.75 <
2716 6 6 1 -2 1.43 0.95 0.75 <
2717 6 6 1 -1 1.08 1.97 1.19 <
2718 6 -6 2 4 0.02 0.79 0.71 <
2719 6 6 2 -4 0.02 0.20 0.77 <
2720 6 6 2 -3 2.51 2.01 1.03 <
2721 6 -6 2 3 2.51 3.50 1.60 <
2722 6 6 2 -2 0.04 -0.09 0.31 <
2723 6 6 2 -1 0.64 0.47 0.44 <
2724 6 6 3 -1 1.44 1.85 0.74 <
2725 6 -7 -1 4 0.43 2.93 1.50 <
2726 6 7 -1 -4 0.43 2.53 1.52 <
2727 6 7 -1 -3 0.40 0.48 0.36 <
2728 6 -7 -1 3 0.40 1.72 0.86 <
2729 6 7 0 -4 0.16 -0.76 1.29 <
2730 6 -7 0 4 0.16 -0.77 1.52 <
2731 6 7 0 -3 0.09 -0.10 0.86 <
2732 6 -7 0 3 0.09 -1.59 1.44 <
2733 6 -7 1 4 0.45 1.83 1.46 <
2734 6 7 1 -4 0.45 1.81 0.83 <
2735 6 7 1 -3 0.39 0.10 0.37 <
2736 6 -7 1 3 0.39 2.39 1.01 <
