#------------------------------------------------------------------------------
#$Date: 2019-11-17 15:32:33 +0200 (Sun, 17 Nov 2019) $
#$Revision: 230902 $
#$URL: file:///home/coder/svn-repositories/cod/cif/7/23/14/7231428.cif $
#------------------------------------------------------------------------------
#
# This file is available in the Crystallography Open Database (COD),
# http://www.crystallography.net/
#
# All data on this site have been placed in the public domain by the
# contributors.
#
data_7231428
loop_
_publ_author_name
'Collings, Ines E.'
'Manna, Rudra Sekhar'
'Tsirlin, Alexander A.'
'Bykov, Maxim'
'Bykova, Elena'
'Hanfland, Michael'
'Gegenwart, Philipp'
'van Smaalen, Sander'
'Dubrovinsky, Leonid'
'Dubrovinskaia, Natalia'
_publ_section_title
;
 Pressure dependence of spin canting in ammonium metal formate
 antiferromagnets.
;
_journal_issue                   37
_journal_name_full               'Physical chemistry chemical physics : PCCP'
_journal_page_first              24465
_journal_page_last               24476
_journal_paper_doi               10.1039/c8cp03761b
_journal_volume                  20
_journal_year                    2018
_chemical_formula_moiety         'C6 H6 Fe2 O12, N2 H8'
_chemical_formula_sum            'C6 H14 Fe2 N2 O12'
_chemical_formula_weight         417.9
_space_group_IT_number           4
_space_group_name_Hall           'P 2yb'
_space_group_name_H-M_alt        'P 1 21 1'
_symmetry_cell_setting           monoclinic
_symmetry_Int_Tables_number      4
_symmetry_space_group_name_Hall  'P 2yb'
_symmetry_space_group_name_H-M   'P 1 21 1'
_audit_creation_method           'Jana2006 Version : 25/10/2015'
_audit_update_record
;
2018-08-09 deposited with the CCDC.
2018-08-22 downloaded from the CCDC.
;
_cell_angle_alpha                90
_cell_angle_beta                 90.19(7)
_cell_angle_gamma                90
_cell_formula_units_Z            2
_cell_length_a                   6.599(5)
_cell_length_b                   6.957(5)
_cell_length_c                   13.695(11)
_cell_measurement_reflns_used    124
_cell_measurement_temperature    293
_cell_measurement_theta_max      12.07
_cell_measurement_theta_min      2.46
_cell_volume                     628.7(8)
_computing_cell_refinement       'CrysAlisPro 1.171.38.46 (Rigaku OD, 2015)'
_computing_data_collection       'CrysAlisPro 1.171.38.46 (Rigaku OD, 2015)'
_computing_data_reduction        'CrysAlisPro 1.171.38.46 (Rigaku OD, 2015)'
_diffrn_ambient_pressure         '2.55 GPa'
_diffrn_ambient_temperature      293
_diffrn_detector                 'CCD plate'
_diffrn_measured_fraction_theta_full 0.88
_diffrn_measured_fraction_theta_max 0.88
_diffrn_measurement_device       'ID15B beamline, ESRF'
_diffrn_measurement_device_type
'esperanto-CrysAlisPro-abstract goniometer imported esperanto images'
_diffrn_measurement_method       '\w scans'
_diffrn_measurement_specimen_support 'diamond-anvil cell'
_diffrn_radiation_monochromator  synchrotron
_diffrn_radiation_probe          x-ray
_diffrn_radiation_source         synchrotron
_diffrn_radiation_type           synchrotron
_diffrn_radiation_wavelength     0.41111
_diffrn_reflns_av_R_equivalents  0.056
_diffrn_reflns_av_unetI/netI     0.116
_diffrn_reflns_limit_h_max       7
_diffrn_reflns_limit_h_min       -7
_diffrn_reflns_limit_k_max       7
_diffrn_reflns_limit_k_min       -7
_diffrn_reflns_limit_l_max       15
_diffrn_reflns_limit_l_min       -15
_diffrn_reflns_number            3407
_diffrn_reflns_theta_full        12.13
_diffrn_reflns_theta_max         13.21
_diffrn_reflns_theta_min         1.9
_diffrn_source                   synchrotron
_exptl_absorpt_coefficient_mu    0.503
_exptl_absorpt_correction_T_max  1
_exptl_absorpt_correction_T_min  0.736
_exptl_absorpt_correction_type   multi-scan
_exptl_absorpt_process_details
;
CrysAlisPro 1.171.38.46 (Rigaku Oxford Diffraction, 2015)
Empirical absorption correction using spherical harmonics,
 implemented in SCALE3 ABSPACK scaling algorithm.
;
_exptl_crystal_colour            colourless
_exptl_crystal_density_diffrn    2.2073
_exptl_crystal_description       block
_exptl_crystal_F_000             408
_exptl_crystal_size_max          0.170
_exptl_crystal_size_mid          0.110
_exptl_crystal_size_min          0.050
_refine_ls_abs_structure_details
'  956 of Friedel pairs used in the refinement'
_refine_ls_extinction_method     none
_refine_ls_goodness_of_fit_gt    3.80
_refine_ls_goodness_of_fit_ref   2.37
_refine_ls_hydrogen_treatment    constr
_refine_ls_number_constraints    38
_refine_ls_number_parameters     89
_refine_ls_number_reflns         3407
_refine_ls_number_restraints     0
_refine_ls_R_factor_all          0.2354
_refine_ls_R_factor_gt           0.1408
_refine_ls_shift/su_max          0.0229
_refine_ls_shift/su_mean         0.0045
_refine_ls_structure_factor_coef F
_refine_ls_weighting_details     w=1/(\s^2^(F)+0.0001F^2^)
_refine_ls_weighting_scheme      sigma
_refine_ls_wR_factor_gt          0.1638
_refine_ls_wR_factor_ref         0.1765
_reflns_number_gt                1174
_reflns_number_total             3407
_reflns_threshold_expression     I>3\s(I)
_cod_data_source_file            c8cp03761b2.cif
_cod_data_source_block           AFeF_c4_p13
_cod_depositor_comments
;
The following automatic conversions were performed:

'_diffrn_radiation_probe' value 'X-ray' changed to 'x-ray' according
to
/home/data/users/saulius/crontab/automatic-downloads/rss-feeds/RSC/lib/dictionaries/cif_core.dic
dictionary named 'cif_core.dic' version 2.4.2 from 2011-04-26.

Automatic conversion script
Id: cif_fix_values 4973 2017-02-22 13:04:09Z antanas 

 Adding full bibliography for 7231402--7231432.cif.
;
_cod_database_code               7231428
loop_
_space_group_symop_id
_space_group_symop_operation_xyz
1 x,y,z
2 -x,y+1/2,-z
loop_
_atom_site_label
_atom_site_type_symbol
_atom_site_fract_x
_atom_site_fract_y
_atom_site_fract_z
_atom_site_adp_type
_atom_site_U_iso_or_equiv
_atom_site_site_symmetry_multiplicity
_atom_site_occupancy
_atom_site_calc_flag
Fe1 Fe 0.6347(6) 0.7162(7) 0.8496(3) Uani 0.0893(18) 2 1 d
Fe2 Fe 1.1361(6) 1.2149(7) 0.6481(3) Uani 0.0861(17) 2 1 d
O1 O 1.051(4) 1.082(4) 0.7764(15) Uiso 0.109(5) 2 1 d
O2 O 0.515(4) 0.927(3) 0.9376(16) Uiso 0.126(5) 2 1 d
O3 O 0.355(3) 0.591(3) 0.8548(14) Uiso 0.094(4) 2 1 d
O4 O 0.729(4) 0.588(3) 0.9890(16) Uiso 0.126(5) 2 1 d
O5 O 0.755(3) 0.489(3) 0.7844(17) Uiso 0.114(5) 2 1 d
O6 O 0.431(4) 1.080(4) 0.6380(19) Uiso 0.135(6) 2 1 d
O7 O 0.896(3) 0.880(3) 0.8613(16) Uiso 0.109(5) 2 1 d
O8 O 0.284(3) 0.444(3) 0.7213(15) Uiso 0.094(4) 2 1 d
O9 O 0.855(4) 0.337(3) 0.6349(16) Uiso 0.114(5) 2 1 d
O10 O 0.999(4) 0.992(3) 0.5634(16) Uiso 0.119(5) 2 1 d
O11 O 0.569(4) 0.850(4) 0.7234(18) Uiso 0.135(6) 2 1 d
O12 O 1.225(4) 1.342(3) 0.5197(17) Uiso 0.119(5) 2 1 d
N1 N 0.624(3) 0.214(5) 0.4711(18) Uiso 0.120(5) 2 1 d
N2 N 1.116(4) 0.738(5) 1.033(2) Uiso 0.120(5) 2 1 d
C1 C 1.128(6) 1.373(6) 0.456(3) Uiso 0.119(5) 2 1 d
C2 C 0.518(6) 1.013(7) 0.704(3) Uiso 0.135(6) 2 1 d
C3 C 1.019(5) 0.929(5) 0.798(2) Uiso 0.109(5) 2 1 d
C5 C 0.763(5) 0.462(5) 0.688(2) Uiso 0.114(5) 2 1 d
C6 C 0.410(6) 1.068(6) 0.947(3) Uiso 0.126(5) 2 1 d
C4 C 0.234(5) 0.485(4) 0.805(2) Uiso 0.094(4) 2 1 d
H1c1 H 1.150899 1.285625 0.402819 Uiso 0.143 2 1 d
H1c2 H 0.557782 1.105787 0.752469 Uiso 0.1623 2 1 d
H1c3 H 1.092641 0.829078 0.764923 Uiso 0.1305 2 1 d
H1c5 H 0.685749 0.55328 0.650862 Uiso 0.137 2 1 d
H1c6 H 0.43231 1.173079 0.903062 Uiso 0.1507 2 1 d
H1c4 H 0.108899 0.439631 0.832541 Uiso 0.1128 2 1 d
loop_
_atom_site_aniso_label
_atom_site_aniso_type_symbol
_atom_site_aniso_U_11
_atom_site_aniso_U_22
_atom_site_aniso_U_33
_atom_site_aniso_U_12
_atom_site_aniso_U_13
_atom_site_aniso_U_23
Fe1 Fe 0.098(3) 0.060(3) 0.110(3) -0.003(3) -0.012(2) 0.009(3)
Fe2 Fe 0.089(3) 0.062(3) 0.107(3) -0.034(3) -0.010(2) -0.002(3)
loop_
_atom_type_symbol
_atom_type_scat_dispersion_real
_atom_type_scat_dispersion_imag
_atom_type_scat_source
C -0.0001 0.0005 'International Tables Vol C tables 4.2.6.8 and 6.1.1.1'
H 0.0000 0.0000 'International Tables Vol C tables 4.2.6.8 and 6.1.1.1'
Fe 0.1967 0.3056 'International Tables Vol C tables 4.2.6.8 and 6.1.1.1'
N 0.0006 0.0010 'International Tables Vol C tables 4.2.6.8 and 6.1.1.1'
O 0.0018 0.0018 'International Tables Vol C tables 4.2.6.8 and 6.1.1.1'
loop_
_geom_angle_atom_site_label_1
_geom_angle_atom_site_label_2
_geom_angle_atom_site_label_3
_geom_angle_site_symmetry_1
_geom_angle_site_symmetry_3
_geom_angle
O2 Fe1 O3 . . 86.2(9)
O2 Fe1 O5 . . 170.8(9)
O2 Fe1 O7 . . 83.3(9)
O2 Fe1 O11 . . 95.3(10)
O3 Fe1 O5 . . 92.3(9)
O3 Fe1 O7 . . 169.5(9)
O3 Fe1 O11 . . 92.0(10)
O5 Fe1 O7 . . 98.0(9)
O5 Fe1 O11 . . 93.9(10)
O7 Fe1 O11 . . 89.4(10)
O1 Fe2 O8 . 1_665 93.5(9)
O1 Fe2 O9 . 1_565 90.6(9)
O1 Fe2 O10 . . 91.2(9)
O1 Fe2 O12 . . 178.7(9)
O8 Fe2 O9 1_665 1_565 98.3(8)
O8 Fe2 O10 1_665 . 175.2(8)
O8 Fe2 O12 1_665 . 87.2(8)
O9 Fe2 O10 1_565 . 82.4(9)
O9 Fe2 O12 1_565 . 90.4(9)
O10 Fe2 O12 . . 88.1(9)
Fe2 O1 C3 . . 134(2)
Fe1 O2 C6 . . 150(2)
Fe1 O3 C4 . . 142.0(19)
Fe1 O5 C5 . . 125(2)
Fe1 O7 C3 . . 130(2)
Fe2 O8 C4 1_445 . 119.5(19)
Fe2 O9 C5 1_545 . 131(2)
Fe2 O10 C1 . 2_746 156(2)
Fe1 O11 C2 . . 133(3)
Fe2 O12 C1 . . 127(3)
O10 C1 O12 2_756 . 135(4)
O10 C1 H1c1 2_756 . 112.36
O12 C1 H1c1 . . 112.36
O6 C2 O11 . . 132(4)
O6 C2 H1c2 . . 113.81
O11 C2 H1c2 . . 113.81
O1 C3 O7 . . 125(3)
O1 C3 H1c3 . . 117.71
O7 C3 H1c3 . . 117.71
O5 C5 O9 . . 133(3)
O5 C5 H1c5 . . 113.7
O9 C5 H1c5 . . 113.7
O2 C6 O4 . 2_657 125(4)
O2 C6 H1c6 . . 117.38
O4 C6 H1c6 2_657 . 117.38
O3 C4 O8 . . 118(3)
O3 C4 H1c4 . . 121.24
O8 C4 H1c4 . . 121.24
loop_
_geom_bond_atom_site_label_1
_geom_bond_atom_site_label_2
_geom_bond_site_symmetry_2
_geom_bond_distance
Fe1 O2 . 2.06(2)
Fe1 O3 . 2.04(2)
Fe1 O5 . 1.98(2)
Fe1 O7 . 2.07(2)
Fe1 O11 . 2.01(3)
Fe2 O1 . 2.06(2)
Fe2 O8 1_665 2.12(2)
Fe2 O9 1_565 2.05(2)
Fe2 O10 . 2.14(2)
Fe2 O12 . 2.05(2)
O1 C3 . 1.13(4)
O2 C6 . 1.21(5)
O3 C4 . 1.28(4)
O4 C6 2_647 1.27(4)
O5 C5 . 1.34(4)
O6 C2 . 1.17(5)
O7 C3 . 1.24(4)
O8 C4 . 1.23(3)
O9 C5 . 1.29(4)
O10 C1 2_746 1.21(4)
O11 C2 . 1.21(5)
O12 C1 . 1.10(4)
C1 H1c1 . 0.96
C2 H1c2 . 0.96
C3 H1c3 . 0.96
C5 H1c5 . 0.96
C6 H1c6 . 0.96
C4 H1c4 . 0.96
loop_
_geom_hbond_atom_site_label_D
_geom_hbond_atom_site_label_H
_geom_hbond_atom_site_label_A
_geom_hbond_site_symmetry_A
_geom_hbond_distance_DH
_geom_hbond_distance_HA
_geom_hbond_distance_DA
_geom_hbond_angle_DHA
C5 H1c5 O11 . 0.96 2.42 3.03(4) 121.30
C4 H1c4 O5 1_455 0.96 2.45 3.17(4) 131.90
loop_
_twin_individual_id
_twin_individual_mass_fraction_refined
_twin_individual_twin_matrix_11
_twin_individual_twin_matrix_12
_twin_individual_twin_matrix_13
_twin_individual_twin_matrix_21
_twin_individual_twin_matrix_22
_twin_individual_twin_matrix_23
_twin_individual_twin_matrix_31
_twin_individual_twin_matrix_32
_twin_individual_twin_matrix_33
1 0.259(5) 1 0 0 0 1 0 0 0 1
2 0.287(3) 0.9914 0 -0.2788 0 -1 0 -0.0616 0 -0.9914
3 0.231(3) -0.4971 0 -1.7973 0 1 0 0.4173 0 -0.5029
4 0.223(3) -0.6092 0 -1.6416 0 -1 0 -0.3831 0 0.6093
loop_
_twin_refln_datum_id
_twin_refln_individual_id
_twin_refln_index_h
_twin_refln_index_k
_twin_refln_index_l
_twin_refln_f_squared_calc
_twin_refln_f_squared_meas
_twin_refln_f_squared_sigma
_twin_refln_include_status
1 1 0 -6 -8 4.56 -1.27 8.60 <
2 1 0 -6 -9 0.05 -6.99 7.70 <
3 1 0 -5 -6 13.19 1.48 3.15 <
4 1 0 -5 -7 0.75 -3.49 3.29 <
5 1 0 -5 -8 13.46 17.01 12.88 <
6 1 0 -5 -9 0.34 3.39 4.95 <
7 1 0 -5 -10 0.14 3.56 6.69 <
8 1 0 -5 -11 0.12 0.83 6.17 <
9 1 0 -4 -4 136.16 52.68 17.44 o
10 1 0 -4 -5 4.86 19.40 14.80 <
11 1 0 -4 -6 72.31 29.56 13.57 <
12 1 0 -4 -7 0.46 -7.45 7.61 <
13 1 0 -4 -8 1.54 4.23 5.75 <
14 1 0 -4 -9 1.03 2.94 4.10 <
15 1 0 -4 -10 15.70 13.27 9.30 <
16 1 0 -4 -11 0.40 1.34 5.00 <
17 3 -5 -4 6 6.79 19.07 11.69 <
17 1 0 -4 -12 6.79 19.07 11.69 <
18 1 0 -3 -3 194.28 116.04 23.02 o
19 1 0 -3 -4 195.64 136.71 25.81 o
20 1 0 -3 -5 2.66 131.89 30.81 o
21 1 0 -3 -6 106.97 77.25 18.95 o
22 1 0 -3 -7 6.46 3.82 3.68 <
23 1 0 -3 -8 57.02 85.03 20.79 o
24 1 0 -3 -9 3.10 0.11 2.33 <
25 1 0 -3 -10 1.77 5.03 5.62 <
26 1 0 -3 -11 0.73 -1.54 0.87 <
27 3 -5 -3 6 21.81 45.10 15.27 <
27 1 0 -3 -12 21.81 45.10 15.27 <
28 4 5 3 -8 1.86 2.27 4.49 <
28 1 0 -3 -13 1.86 2.27 4.49 <
29 1 0 -2 -2 85.33 108.25 18.99 o
30 1 0 -2 -3 28.58 17.75 6.35 <
31 1 0 -2 -4 767.66 619.66 43.58 o
32 1 0 -2 -5 118.58 90.85 17.55 o
33 1 0 -2 -6 439.82 482.95 41.07 o
34 1 0 -2 -7 1.83 -6.76 5.86 <
35 1 0 -2 -8 104.31 85.84 17.35 o
36 1 0 -2 -9 9.35 5.74 4.76 <
37 1 0 -2 -10 91.72 86.14 17.65 o
38 1 0 -2 -11 1.24 1.48 2.74 <
39 3 -5 -2 6 9.27 20.33 9.19 <
39 1 0 -2 -12 9.27 20.33 9.19 <
40 4 5 2 -8 4.80 -1.75 2.94 <
40 1 0 -2 -13 4.80 -1.75 2.94 <
41 1 0 -2 -14 1.01 2.55 4.47 <
42 1 0 -1 -1 19.34 21.59 5.64 o
43 1 0 -1 -2 2961.29 3275.03 73.03 o
44 1 0 -1 -3 214.87 154.38 16.50 o
45 1 0 -1 -4 850.40 774.17 39.33 o
46 1 0 -1 -5 103.74 51.05 10.56 o
47 1 0 -1 -6 728.40 739.54 39.87 o
48 1 0 -1 -7 5.64 -1.67 2.35 <
49 1 0 -1 -8 317.94 575.39 37.45 o
50 1 0 -1 -9 0.89 1.27 1.47 <
51 1 0 -1 -10 1.36 0.30 1.68 <
52 1 0 0 3 6.14 -0.74 0.79 <
53 1 0 0 4 175.51 142.97 12.85 o
54 1 0 0 5 11.64 -2.33 2.06 <
55 1 0 0 6 705.07 461.24 28.00 o
56 1 0 0 7 0.83 15.35 6.57 <
57 1 0 0 8 33.94 33.72 8.85 o
58 1 0 1 1 19.38 22.56 5.45 o
59 1 0 1 2 2963.53 3272.53 75.21 o
60 1 0 1 3 214.25 146.33 16.08 o
61 1 0 1 4 849.50 784.51 42.79 o
62 1 0 1 5 103.78 53.37 12.28 o
63 1 0 1 6 728.94 746.04 47.38 o
64 1 0 1 7 5.57 5.16 3.84 <
65 1 0 1 8 317.33 565.06 47.67 o
66 1 0 1 9 0.93 -0.74 3.15 <
67 1 0 1 10 1.40 -1.54 4.22 <
68 1 0 1 11 5.20 6.43 6.09 <
69 3 5 1 -6 38.90 32.04 13.74 <
69 1 0 1 12 38.90 32.04 13.74 <
70 4 -5 -1 8 1.48 0.25 3.10 <
70 1 0 1 13 1.48 0.25 3.10 <
71 1 0 1 14 1.17 -7.74 7.16 <
72 1 0 1 15 0.15 1.79 5.45 <
73 1 0 2 2 82.79 110.79 18.05 o
74 1 0 2 3 28.67 17.66 7.39 <
75 1 0 2 4 766.94 617.99 44.84 o
76 1 0 2 5 117.92 88.33 18.35 o
77 1 0 2 6 438.64 487.59 45.60 o
78 1 0 2 7 1.84 -5.22 6.48 <
79 1 0 2 8 104.23 83.18 19.95 o
80 1 0 2 9 9.49 4.69 4.87 <
81 1 0 2 10 91.85 87.60 23.28 o
82 1 0 2 11 1.29 -3.30 4.31 <
83 3 5 2 -6 9.44 8.67 8.64 <
83 1 0 2 12 9.44 8.67 8.64 <
84 4 -5 -2 8 4.77 -11.76 11.50 <
84 1 0 2 13 4.77 -11.76 11.50 <
85 1 0 2 14 0.95 -2.18 2.84 <
86 1 0 3 3 194.80 136.11 23.27 o
87 1 0 3 4 194.49 132.49 24.32 o
88 1 0 3 5 2.69 121.38 28.25 o
89 1 0 3 6 106.42 72.66 18.62 o
90 1 0 3 7 6.32 -1.74 5.39 <
91 1 0 3 8 56.31 79.89 21.31 o
92 1 0 3 9 3.16 5.84 6.67 <
93 1 0 3 10 1.83 -3.05 4.31 <
94 1 0 3 11 0.71 8.22 9.52 <
95 3 5 3 -6 21.93 42.58 20.89 <
95 1 0 3 12 21.93 42.58 20.89 <
96 4 -5 -3 8 1.84 -1.62 2.59 <
96 1 0 3 13 1.84 -1.62 2.59 <
97 1 0 4 5 4.96 13.95 10.48 <
98 1 0 4 6 72.27 26.29 12.20 <
99 1 0 4 7 0.47 -14.12 11.43 <
100 1 0 4 8 1.65 -2.82 2.26 <
101 1 0 4 9 1.01 1.10 1.30 <
102 1 0 4 10 15.51 12.23 10.22 <
103 1 0 4 11 0.41 -0.53 7.19 <
104 3 5 4 -6 6.76 8.19 9.38 <
104 1 0 4 12 6.76 8.19 9.38 <
105 1 0 5 6 13.46 -5.11 6.26 <
106 1 0 5 7 0.75 -3.33 6.98 <
107 1 0 5 8 13.39 36.52 17.60 <
108 1 0 5 9 0.34 -2.49 5.59 <
109 1 0 5 10 0.16 -9.97 9.67 <
110 1 0 5 11 0.13 1.90 4.90 <
111 1 0 6 9 0.05 4.60 7.01 <
112 1 -1 -6 -5 0.36 3.50 8.77 <
113 1 -1 -6 -6 10.57 37.46 20.52 <
114 1 -1 -6 -7 12.64 8.06 9.74 <
115 1 -1 -6 -8 10.94 6.06 9.66 <
116 1 -1 -6 -9 1.95 11.64 10.87 <
117 1 1 -5 -11 2.90 -1.56 6.34 <
118 1 1 -5 -10 13.16 6.16 7.71 <
119 1 1 -5 -9 5.17 3.58 3.44 <
120 1 -1 -5 -3 33.13 50.30 20.82 <
121 1 -1 -5 -4 101.24 39.36 16.96 <
122 1 -1 -5 -5 38.63 20.99 12.29 <
123 1 -1 -5 -6 21.55 15.26 11.02 <
124 1 -1 -5 -7 2.61 0.99 3.22 <
125 1 -1 -5 -8 4.46 -0.88 1.97 <
126 1 -1 -5 -9 11.96 18.03 13.03 <
127 1 -1 -5 -10 10.07 29.45 15.25 <
128 1 -1 -5 -11 3.83 -15.84 11.60 <
129 4 4 4 -9 10.22 10.46 7.05 <
129 1 1 -4 -12 10.22 10.46 7.05 <
130 1 1 -4 -11 1.84 6.41 7.83 <
131 1 1 -4 -10 1.24 7.31 8.52 <
132 1 1 -4 -9 3.35 11.08 8.83 <
133 1 1 -4 -8 23.66 11.02 9.06 <
134 1 1 -4 -7 17.03 13.90 8.53 <
135 4 1 4 1 104.19 142.68 27.69 o
135 1 -1 -4 -1 104.19 142.68 27.69 o
136 1 -1 -4 -2 311.74 218.70 35.46 o
137 1 -1 -4 -3 202.92 285.42 41.35 o
138 1 -1 -4 -4 49.12 23.06 9.31 <
139 1 -1 -4 -5 3.13 -3.96 4.80 <
140 1 -1 -4 -6 34.45 58.79 27.26 <
141 1 -1 -4 -7 40.48 9.93 8.20 <
142 1 -1 -4 -8 33.38 20.74 10.89 <
143 1 -1 -4 -9 5.69 16.70 10.35 <
144 1 -1 -4 -10 2.83 6.81 6.50 <
145 1 -1 -4 -11 4.96 11.42 8.00 <
146 1 -1 -4 -12 10.07 15.23 9.67 <
147 1 1 -3 -13 0.52 6.14 7.06 <
148 4 4 3 -9 5.71 2.25 4.75 <
148 1 1 -3 -12 5.71 2.25 4.75 <
149 1 1 -3 -11 4.48 31.36 14.51 <
150 1 1 -3 -10 25.91 16.65 9.37 <
151 1 1 -3 -9 26.61 34.95 13.86 <
152 1 1 -3 -8 5.30 -6.67 6.55 <
153 1 1 -3 -7 18.18 19.42 9.92 <
154 1 1 -3 -6 78.73 61.21 17.62 o
155 1 -1 -3 0 93.72 181.23 28.68 o
156 4 1 3 1 502.08 594.30 48.96 o
156 1 -1 -3 -1 502.08 594.30 48.96 o
157 1 -1 -3 -2 207.42 195.33 28.58 o
158 1 -1 -3 -3 169.91 123.20 22.99 o
159 1 -1 -3 -4 494.29 435.21 44.39 o
160 1 -1 -3 -5 287.41 172.15 26.94 o
161 1 -1 -3 -6 99.28 94.84 20.59 o
162 1 -1 -3 -7 31.33 18.24 8.86 <
163 1 -1 -3 -8 4.18 3.74 3.77 <
164 1 -1 -3 -9 42.65 69.26 17.19 o
165 1 -1 -3 -10 21.93 18.38 9.56 <
166 1 -1 -3 -11 9.05 9.13 7.24 <
167 1 -1 -3 -12 2.25 -0.56 2.95 <
168 1 -1 -3 -13 1.32 3.52 3.76 <
169 1 1 -2 -14 0.23 7.05 6.03 <
170 1 1 -2 -13 3.69 12.86 8.20 <
171 4 4 2 -9 4.99 6.38 5.00 <
171 1 1 -2 -12 4.99 6.38 5.00 <
172 1 1 -2 -11 4.61 11.21 8.89 <
173 1 1 -2 -10 3.44 5.77 7.41 <
174 1 1 -2 -9 1.11 11.81 7.93 <
175 1 1 -2 -8 188.02 141.57 23.96 o
176 1 1 -2 -7 145.22 114.45 20.97 o
177 1 1 -2 -6 139.36 94.78 18.42 o
178 1 1 -2 -5 46.31 55.55 13.62 o
179 1 1 -2 -4 183.02 212.72 26.86 o
180 1 -1 -2 1 134.45 124.90 18.06 o
181 1 -1 -2 0 179.95 185.88 22.69 o
182 4 1 2 1 295.84 270.92 26.00 o
182 1 -1 -2 -1 295.84 270.92 26.00 o
183 1 -1 -2 -2 758.59 789.11 46.75 o
184 1 -1 -2 -3 1388.62 1640.68 67.21 o
185 1 -1 -2 -4 248.86 217.29 24.45 o
186 1 -1 -2 -5 83.22 52.31 11.91 o
187 1 -1 -2 -7 155.16 129.06 19.36 o
188 1 -1 -2 -8 167.74 151.52 22.13 o
189 1 -1 -2 -9 10.78 45.14 12.73 o
190 1 -1 -2 -10 4.66 8.89 6.04 <
191 1 -1 -2 -11 7.27 5.39 4.47 <
192 1 -1 -2 -12 2.78 -0.75 0.26 <
193 1 1 -1 -13 0.57 0.72 2.19 <
194 4 4 1 -9 1.33 3.43 3.65 <
194 1 1 -1 -12 1.33 3.43 3.65 <
195 1 1 -1 -11 5.58 32.01 10.87 <
196 1 1 -1 -10 46.59 36.01 10.31 o
197 1 1 -1 -9 84.74 48.08 11.24 o
198 1 1 -1 -8 24.18 16.05 5.96 <
199 1 1 -1 -7 79.48 49.75 10.86 o
200 1 1 -1 -6 215.11 215.77 23.79 o
201 1 1 -1 -5 272.04 229.78 22.42 o
202 1 1 -1 -4 817.71 828.77 42.21 o
203 1 1 -1 -3 316.64 318.72 24.18 o
204 1 -1 -1 0 1606.14 1655.12 38.16 o
205 4 1 1 1 1615.04 1893.80 45.11 o
205 1 -1 -1 -1 1615.04 1893.80 45.11 o
206 1 -1 -1 -2 123.43 99.80 11.08 o
207 1 -1 -1 -3 435.45 449.32 27.55 o
208 1 -1 -1 -4 671.26 697.45 35.55 o
209 1 -1 -1 -5 308.30 241.22 20.95 o
210 1 -1 -1 -6 213.74 296.79 24.47 o
211 1 -1 -1 -7 78.85 45.55 9.52 o
212 1 -1 0 15 0.44 -8.16 9.50 <
213 1 -1 0 14 3.54 -7.70 8.68 <
214 1 -1 0 13 3.86 0.29 3.40 <
215 4 -4 0 9 19.06 9.61 6.33 <
215 1 -1 0 12 19.06 9.61 6.33 <
216 1 -1 0 11 2.90 47.45 18.29 <
217 1 -1 0 10 19.18 -2.74 5.45 <
218 1 -1 0 9 98.52 53.24 13.34 o
219 1 -1 0 8 133.32 113.69 17.90 o
220 1 1 0 -7 165.75 229.21 17.45 o
221 1 -1 0 7 165.75 227.38 23.39 o
222 1 1 0 -6 22.37 11.95 3.65 o
223 1 -1 0 6 22.37 22.11 6.59 o
224 1 1 0 -5 225.09 215.77 14.56 o
225 1 -1 0 5 225.09 213.50 17.98 o
226 1 -1 0 4 50.29 44.20 7.15 o
227 1 1 0 -4 50.29 43.39 6.39 o
228 1 -1 1 14 2.93 13.19 10.53 <
229 1 -1 1 13 0.60 6.62 7.46 <
230 4 -4 -1 9 1.29 3.44 7.76 <
230 1 -1 1 12 1.29 3.44 7.76 <
231 1 -1 1 11 5.34 74.40 25.47 <
232 1 -1 1 10 48.94 33.73 13.49 <
233 1 -1 1 9 82.73 53.46 15.76 o
234 1 -1 1 8 24.56 23.94 9.50 <
235 1 -1 1 7 80.94 52.66 13.46 o
236 1 -1 1 6 219.61 211.89 25.71 o
237 1 -1 1 5 283.24 235.36 24.07 o
238 1 -1 1 4 789.52 827.63 43.19 o
239 1 1 1 0 1611.34 1658.17 40.70 o
240 4 -1 -1 -1 1615.87 1903.18 47.49 o
240 1 1 1 1 1615.87 1903.18 47.49 o
241 1 1 1 2 120.08 105.70 12.35 o
242 1 1 1 3 444.24 469.03 29.73 o
243 1 1 1 4 697.89 702.54 38.78 o
244 1 1 1 5 295.33 244.23 23.81 o
245 1 1 1 6 208.55 283.64 27.65 o
246 1 1 1 7 76.99 43.72 11.30 o
247 1 1 1 8 19.04 18.32 7.16 <
248 1 1 1 9 81.28 134.84 22.59 o
249 1 1 1 10 35.79 37.49 12.79 <
250 1 -1 2 14 0.25 10.29 13.21 <
251 1 -1 2 13 3.82 6.68 3.32 <
252 4 -4 -2 9 5.32 12.41 10.65 <
252 1 -1 2 12 5.32 12.41 10.65 <
253 1 -1 2 11 4.41 0.96 4.09 <
254 1 -1 2 10 3.43 10.04 11.89 <
255 1 -1 2 9 1.40 8.34 10.77 <
256 1 -1 2 8 190.61 155.40 27.75 o
257 1 -1 2 7 145.98 116.59 22.15 o
258 1 -1 2 6 134.45 107.39 20.51 o
259 1 -1 2 5 46.05 49.55 13.14 o
260 1 1 2 0 179.95 184.25 20.77 o
261 4 -1 -2 -1 297.21 299.01 27.37 o
261 1 1 2 1 297.21 299.01 27.37 o
262 1 1 2 2 752.96 791.41 48.21 o
263 1 1 2 3 1382.20 1629.30 69.97 o
264 1 1 2 4 240.66 224.85 27.78 o
265 1 1 2 5 83.65 53.01 14.00 o
266 1 1 2 7 153.67 108.55 21.57 o
267 1 1 2 8 167.09 120.68 24.20 o
268 1 1 2 9 9.90 89.83 20.86 o
269 1 1 2 10 4.74 9.84 8.39 <
270 1 1 2 11 7.57 10.01 7.58 <
271 1 1 2 12 2.68 2.74 3.67 <
272 1 1 2 13 5.89 -10.80 7.58 <
273 1 1 2 14 0.20 -7.17 6.82 <
274 1 -1 3 13 0.49 0.78 5.26 <
275 4 -4 -3 9 5.78 -2.18 6.72 <
275 1 -1 3 12 5.78 -2.18 6.72 <
276 1 -1 3 11 4.79 46.28 19.42 <
277 1 -1 3 10 26.19 17.24 10.66 <
278 1 -1 3 9 27.00 35.89 15.65 <
279 1 -1 3 8 5.16 -4.59 4.89 <
280 1 -1 3 7 18.07 28.37 11.72 <
281 1 -1 3 6 79.30 83.26 20.50 o
282 4 -1 -3 -1 502.77 604.36 45.77 o
282 1 1 3 1 502.77 604.36 45.77 o
283 1 1 3 2 205.24 204.49 28.20 o
284 1 1 3 3 172.81 137.40 24.83 o
285 1 1 3 4 493.57 422.81 45.42 o
286 1 1 3 5 283.95 172.26 29.15 o
287 1 1 3 6 99.59 95.33 22.40 o
288 1 1 3 7 31.60 18.29 10.33 <
289 1 1 3 8 4.12 0.18 3.38 <
290 1 1 3 9 42.28 45.52 18.61 <
291 1 1 3 10 21.81 25.28 14.29 <
292 1 1 3 11 8.52 12.53 11.72 <
293 1 1 3 12 2.20 -2.48 3.43 <
294 1 1 3 13 1.37 5.22 6.71 <
295 4 -4 -4 9 10.14 10.50 8.43 <
295 1 -1 4 12 10.14 10.50 8.43 <
296 1 -1 4 11 1.88 -4.51 4.14 <
297 1 -1 4 10 1.22 4.89 5.20 <
298 1 -1 4 9 3.30 -4.22 4.08 <
299 1 -1 4 8 23.49 13.83 9.78 <
300 1 1 4 2 308.43 236.63 32.94 o
301 1 1 4 3 205.77 315.55 41.41 o
302 1 1 4 4 49.22 22.79 10.30 <
303 1 1 4 5 2.99 0.22 3.48 <
304 1 1 4 6 33.42 152.19 46.50 o
305 1 1 4 7 40.52 19.81 12.16 <
306 1 1 4 8 33.70 22.90 13.58 <
307 1 1 4 9 5.66 5.48 7.71 <
308 1 1 4 10 2.77 12.55 6.71 <
309 1 1 4 11 4.91 -1.51 8.47 <
310 1 1 4 12 10.09 -3.10 10.49 <
311 1 -1 5 11 2.79 8.02 13.21 <
312 1 -1 5 10 12.91 15.32 11.51 <
313 1 1 5 4 100.43 77.88 24.45 o
314 1 1 5 5 39.75 19.94 12.54 <
315 1 1 5 6 21.38 26.05 14.33 <
316 1 1 5 7 2.70 5.80 9.87 <
317 1 1 5 8 4.44 11.42 10.55 <
318 1 1 5 9 12.16 7.05 6.70 <
319 1 1 5 10 10.16 31.12 18.88 <
320 1 1 5 11 3.96 -4.21 7.33 <
321 1 1 6 6 10.48 119.43 28.80 o
322 1 1 6 7 12.91 22.17 16.76 <
323 1 1 6 8 10.91 7.27 9.69 <
324 1 1 6 9 2.01 6.97 5.42 <
325 1 -2 -7 -3 19.44 10.16 11.82 <
326 1 -2 -7 -4 0.61 4.53 6.61 <
327 1 -2 -6 -1 54.47 29.57 15.38 <
328 4 2 6 2 6.97 -1.22 3.76 <
328 1 -2 -6 -2 6.97 -1.22 3.76 <
329 1 -2 -6 -3 3.66 -5.25 8.53 <
330 1 -2 -6 -4 3.48 -3.51 6.71 <
331 1 -2 -6 -5 50.23 18.89 14.11 <
332 1 -2 -6 -6 1.54 9.14 9.82 <
333 1 -2 -6 -7 9.63 15.80 12.77 <
334 1 -2 -6 -8 0.35 -3.57 6.12 <
335 1 -2 -5 1 93.87 49.18 15.83 o
336 1 -2 -5 0 1.47 11.13 9.26 <
337 1 -2 -5 -1 88.23 46.01 16.30 <
338 4 2 5 2 0.04 5.00 5.71 <
338 1 -2 -5 -2 0.04 5.00 5.71 <
339 1 -2 -5 -3 148.04 78.37 22.84 o
340 1 -2 -5 -4 3.61 -3.52 6.78 <
341 1 -2 -5 -5 7.31 -8.31 7.29 <
342 1 -2 -5 -6 2.49 7.16 5.60 <
343 1 -2 -5 -7 55.74 42.46 17.83 <
344 1 -2 -5 -8 0.85 -6.38 11.63 <
345 1 -2 -5 -9 12.03 5.29 4.93 <
346 1 -2 -5 -10 0.06 -23.73 15.38 <
347 1 2 -4 -12 0.22 5.46 4.65 <
348 4 3 4 -10 9.39 4.12 4.84 <
348 1 2 -4 -11 9.39 4.12 4.84 <
349 1 2 -4 -10 1.29 -2.79 4.74 <
350 1 -2 -4 2 69.90 80.88 16.55 o
351 1 -2 -4 1 285.41 210.28 28.70 o
352 1 -2 -4 0 17.81 16.99 8.34 <
353 1 -2 -4 -1 276.13 197.55 28.99 o
354 4 2 4 2 167.84 197.23 30.11 o
354 1 -2 -4 -2 167.84 197.23 30.11 o
355 1 -2 -4 -3 81.37 80.68 19.43 o
356 1 -2 -4 -4 5.93 -1.38 2.43 <
357 1 -2 -4 -5 330.30 277.20 37.52 o
358 1 -2 -4 -6 2.84 -1.54 3.07 <
359 1 -2 -4 -7 9.99 11.43 11.24 <
360 1 -2 -4 -8 0.27 1.73 3.49 <
361 1 -2 -4 -9 36.28 36.13 14.07 <
362 1 -2 -4 -10 0.30 22.31 12.36 <
363 1 -2 -4 -11 12.45 21.18 12.27 <
364 1 -2 -4 -12 0.09 -3.60 6.47 <
365 1 2 -3 -13 4.26 8.54 7.41 <
366 1 2 -3 -12 0.98 -10.95 9.08 <
367 4 3 3 -10 14.58 25.93 11.86 <
367 1 2 -3 -11 14.58 25.93 11.86 <
368 1 2 -3 -10 1.14 -0.38 0.60 <
369 1 2 -3 -9 15.47 9.43 6.31 <
370 1 2 -3 -8 6.58 4.65 4.98 <
371 1 -2 -3 3 706.42 633.35 39.63 o
372 1 -2 -3 2 15.61 20.74 7.16 <
373 1 -2 -3 1 491.33 443.88 34.41 o
374 1 -2 -3 0 4.35 4.06 1.25 o
375 1 -2 -3 -1 411.78 485.53 39.37 o
376 4 2 3 2 51.91 49.23 12.67 o
376 1 -2 -3 -2 51.91 49.23 12.67 o
377 1 -2 -3 -3 719.51 698.24 48.06 o
378 1 -2 -3 -4 1.60 0.75 1.58 <
379 1 -2 -3 -5 3.49 -7.56 7.64 <
380 1 -2 -3 -6 5.76 13.86 7.61 <
381 1 -2 -3 -7 220.04 331.72 37.25 o
382 1 -2 -3 -8 2.45 2.53 1.93 <
383 1 -2 -3 -9 14.94 19.44 9.83 <
384 1 -2 -3 -10 3.18 14.96 8.47 <
385 1 -2 -3 -11 16.99 22.72 10.03 <
386 1 -2 -3 -12 0.30 -2.70 3.39 <
387 1 -2 -3 -13 7.84 5.65 4.35 <
388 1 2 -2 -14 0.34 8.45 7.25 <
389 1 2 -2 -13 1.08 3.04 3.54 <
390 1 2 -2 -12 0.76 0.92 0.44 <
391 4 3 2 -10 21.25 20.62 9.66 <
391 1 2 -2 -11 21.25 20.62 9.66 <
392 1 2 -2 -10 6.93 -7.86 6.25 <
393 1 2 -2 -9 41.00 54.53 15.63 o
394 1 2 -2 -8 2.84 -5.33 4.64 <
395 1 2 -2 -7 8.05 23.49 8.53 <
396 1 -2 -2 3 49.24 58.64 9.07 o
397 1 -2 -2 2 70.83 81.53 11.64 o
398 1 -2 -2 1 710.83 781.39 34.35 o
399 1 -2 -2 0 12.96 8.02 3.72 <
400 1 -2 -2 -1 762.91 748.50 38.87 o
401 4 2 2 2 171.27 221.53 20.87 o
401 1 -2 -2 -2 171.27 221.53 20.87 o
402 1 -2 -2 -3 57.02 60.43 11.06 o
403 1 -2 -2 -4 38.46 51.82 11.34 o
404 1 -2 -2 -5 602.65 643.40 40.89 o
405 1 -2 -2 -6 1.97 2.76 2.23 <
406 1 -2 -2 -7 8.84 0.33 2.97 <
407 1 -2 -2 -8 4.04 0.71 1.55 <
408 1 -2 -2 -9 57.90 56.16 13.21 o
409 1 2 -1 -14 0.52 20.79 9.50 <
410 1 -2 -1 14 0.52 9.67 8.35 <
411 1 2 -1 -13 3.85 5.85 5.64 <
412 1 -2 -1 13 3.85 13.76 10.02 <
413 1 2 -1 -12 0.25 0.50 1.83 <
414 1 -2 -1 12 0.25 108.21 23.27 o
415 4 3 1 -10 12.96 11.65 7.07 <
415 1 2 -1 -11 12.96 11.65 7.07 <
416 4 -3 1 10 12.96 9.69 7.20 <
416 1 -2 -1 11 12.96 9.69 7.20 <
417 1 -2 -1 10 1.40 -5.80 4.58 <
418 1 2 -1 -10 1.40 0.56 2.02 <
419 1 2 -1 -9 42.86 36.96 11.23 o
420 1 -2 -1 9 42.86 37.63 9.94 o
421 1 -2 -1 8 5.24 3.48 2.59 <
422 1 2 -1 -8 5.24 1.61 2.71 <
423 1 2 -1 -7 154.35 213.74 24.18 o
424 1 -2 -1 7 154.35 140.60 13.59 o
425 1 2 -1 -6 11.93 56.74 11.80 o
426 1 -2 0 14 0.00 -2.93 3.32 <
427 1 -2 0 13 0.02 29.53 17.35 <
428 1 -2 0 12 0.89 7.96 8.79 <
429 4 -3 0 10 11.34 12.78 7.48 <
429 1 -2 0 11 11.34 12.78 7.48 <
430 1 -2 0 10 2.52 -0.05 2.23 <
431 1 2 0 -10 2.52 0.45 0.66 <
432 1 -2 0 9 5.36 12.42 5.98 <
433 1 2 0 -9 5.36 9.83 4.29 <
434 1 2 0 -8 3.75 7.57 3.84 <
435 1 -2 0 8 3.75 6.68 4.66 <
436 1 2 0 -7 6.38 57.66 9.39 o
437 1 -2 0 7 6.38 -1.52 3.34 <
438 1 2 0 -6 181.04 246.85 18.57 o
439 1 2 0 -5 277.65 317.52 19.54 o
440 1 -2 1 14 0.52 42.99 23.54 <
441 1 -2 1 13 3.58 5.74 7.01 <
442 1 -2 1 12 0.25 -3.26 10.92 <
443 4 -3 -1 10 12.35 41.87 16.48 <
443 1 -2 1 11 12.35 41.87 16.48 <
444 1 -2 1 10 1.40 -5.74 6.46 <
445 1 -2 1 9 43.77 42.75 13.36 o
446 1 -2 1 8 5.28 10.79 6.69 <
447 1 2 1 -1 1695.75 1759.43 37.33 o
448 1 2 1 0 5.50 -1.01 3.22 <
449 1 -2 2 14 0.34 -8.29 9.98 <
450 1 -2 2 13 1.07 1.07 2.82 <
451 1 -2 2 12 0.75 -4.74 7.74 <
452 4 -3 -2 10 21.43 27.90 13.98 <
452 1 -2 2 11 21.43 27.90 13.98 <
453 1 -2 2 10 7.13 -7.04 8.09 <
454 1 -2 2 9 40.75 61.15 17.51 o
455 1 2 2 -2 70.26 69.87 10.75 o
456 1 2 2 -1 692.86 771.15 39.71 o
457 1 2 2 0 13.43 4.97 1.73 <
458 1 2 2 1 780.96 744.39 44.20 o
459 4 -2 -2 -2 171.25 223.42 23.93 o
459 1 2 2 2 171.25 223.42 23.93 o
460 1 2 2 3 57.82 57.41 12.24 o
461 1 2 2 4 39.16 39.34 10.93 o
462 1 2 2 5 599.09 614.77 46.66 o
463 1 2 2 6 2.00 6.49 5.59 <
464 1 2 2 7 9.76 2.01 1.57 <
465 1 2 2 8 3.97 7.82 6.70 <
466 1 2 2 9 57.76 35.52 13.22 <
467 1 2 2 10 3.94 5.00 5.44 <
468 1 2 2 11 22.22 12.32 9.39 <
469 1 -2 3 13 4.38 15.12 12.10 <
470 1 -2 3 12 0.95 -5.92 9.12 <
471 4 -3 -3 10 14.82 29.09 15.27 <
471 1 -2 3 11 14.82 29.09 15.27 <
472 1 2 3 -1 486.61 416.27 33.24 o
473 1 2 3 0 4.32 3.31 2.00 <
474 1 2 3 1 419.02 492.00 42.44 o
475 4 -2 -3 -2 51.89 45.70 13.58 o
475 1 2 3 2 51.89 45.70 13.58 o
476 1 2 3 3 725.31 710.32 54.14 o
477 1 2 3 4 1.69 1.84 2.88 <
478 1 2 3 5 3.52 -19.69 11.81 <
479 1 2 3 6 5.78 9.92 6.91 <
480 1 2 3 7 221.41 246.77 39.79 o
481 1 2 3 8 2.55 2.57 4.46 <
482 1 2 3 9 15.95 13.50 9.55 <
483 1 2 3 10 3.16 11.94 11.02 <
484 1 2 3 11 16.92 21.97 12.98 <
485 1 2 3 12 0.30 -9.64 8.82 <
486 1 2 3 13 7.74 8.30 10.61 <
487 1 2 4 0 18.19 22.69 10.00 <
488 1 2 4 1 273.97 197.90 29.75 o
489 4 -2 -4 -2 167.90 212.48 32.01 o
489 1 2 4 2 167.90 212.48 32.01 o
490 1 2 4 3 81.50 78.52 20.20 o
491 1 2 4 4 5.67 -7.39 7.95 <
492 1 2 4 5 332.64 247.86 40.58 o
493 1 2 4 6 2.83 -0.10 4.67 <
494 1 2 4 7 10.42 1.28 6.03 <
495 1 2 4 8 0.25 -9.83 8.32 <
496 1 2 4 9 36.27 28.99 15.64 <
497 1 2 4 10 0.28 20.98 16.73 <
498 1 2 4 11 12.42 21.34 14.97 <
499 1 2 4 12 0.09 10.71 12.05 <
500 1 2 5 1 87.53 60.55 17.50 o
501 4 -2 -5 -2 0.04 3.15 2.18 <
501 1 2 5 2 0.04 3.15 2.18 <
502 1 2 5 3 146.70 94.68 24.72 o
503 1 2 5 4 3.64 11.04 8.75 <
504 1 2 5 5 7.37 -7.86 7.07 <
505 1 2 5 6 2.51 11.63 11.28 <
506 1 2 5 7 55.59 22.02 13.34 <
507 1 2 5 8 0.81 8.73 9.15 <
508 1 2 5 9 11.78 5.67 7.04 <
509 1 2 5 10 0.06 28.11 20.67 <
510 1 2 6 3 3.48 0.16 3.85 <
511 1 2 6 4 3.53 5.30 6.70 <
512 1 2 6 5 49.69 22.25 13.42 <
513 1 2 6 6 1.50 -9.43 10.03 <
514 1 2 6 7 9.31 4.64 8.20 <
515 1 2 6 8 0.36 -17.79 15.37 <
516 1 -3 -7 0 11.08 9.09 9.41 <
517 1 -3 -7 -1 12.96 10.46 8.30 <
518 1 -3 -6 3 23.43 20.22 9.94 <
519 1 -3 -6 2 14.58 24.05 11.54 <
520 1 -3 -6 1 17.14 53.29 22.08 <
521 1 -3 -6 0 5.45 15.06 10.83 <
522 1 -3 -6 -1 14.81 14.79 9.98 <
523 1 -3 -6 -2 23.24 11.07 9.85 <
524 4 3 6 3 54.76 36.92 14.93 <
524 1 -3 -6 -3 54.76 36.92 14.93 <
525 1 -3 -6 -4 5.86 2.83 3.61 <
526 1 -3 -6 -5 1.90 -5.44 7.49 <
527 1 -3 -6 -6 7.08 -2.73 6.12 <
528 1 -3 -6 -7 8.27 34.64 16.24 <
529 1 -3 -5 5 30.80 24.63 9.23 <
530 1 -3 -5 4 20.58 14.23 7.04 <
531 1 -3 -5 3 3.43 -3.28 1.61 <
532 1 -3 -5 2 4.58 3.62 3.20 <
533 1 -3 -5 1 36.78 52.70 15.23 o
534 1 -3 -5 0 33.27 44.23 15.70 <
535 1 -3 -5 -1 52.28 30.85 12.63 <
536 1 -3 -5 -2 3.46 -3.69 5.28 <
537 4 3 5 3 11.80 -1.75 2.80 <
537 1 -3 -5 -3 11.80 -1.75 2.80 <
538 1 -3 -5 -4 32.89 9.03 7.27 <
539 1 -3 -5 -5 37.48 21.46 10.36 <
540 1 -3 -5 -6 19.23 12.86 8.22 <
541 1 -3 -5 -7 7.70 9.09 6.73 <
542 1 -3 -5 -8 1.73 -4.04 8.15 <
543 1 -3 -5 -9 5.66 5.32 2.69 <
544 1 -3 -4 7 23.65 16.25 5.52 <
545 1 -3 -4 6 1.58 0.59 0.97 <
546 1 -3 -4 5 0.26 0.55 2.26 <
547 1 -3 -4 4 8.48 3.38 1.80 <
548 1 -3 -4 3 93.86 94.60 17.05 o
549 1 -3 -4 2 90.35 240.90 29.80 o
550 1 -3 -4 1 22.77 34.60 13.65 <
551 1 -3 -4 0 3.42 -13.18 9.67 <
552 1 -3 -4 -1 9.47 -6.85 9.36 <
553 1 -3 -4 -2 66.55 74.49 17.49 o
554 4 3 4 3 195.58 216.17 30.15 o
554 1 -3 -4 -3 195.58 216.17 30.15 o
555 1 -3 -4 -4 13.19 0.08 3.00 <
556 1 -3 -4 -5 3.50 -2.31 2.89 <
557 1 -3 -4 -6 0.98 2.19 3.79 <
558 1 -3 -4 -7 37.02 34.49 12.48 <
559 1 -3 -4 -8 21.14 17.97 9.29 <
560 1 -3 -4 -9 7.54 9.99 7.58 <
561 1 -3 -4 -10 1.44 3.52 3.24 <
562 1 -3 -4 -11 0.81 5.56 6.68 <
563 1 3 -3 -12 0.34 3.01 4.23 <
564 1 3 -3 -11 5.47 7.40 6.53 <
565 4 2 3 -11 13.06 5.80 6.12 <
565 1 3 -3 -10 13.06 5.80 6.12 <
566 1 -3 -3 7 14.45 6.41 2.56 <
567 1 -3 -3 6 25.93 73.67 14.12 o
568 1 -3 -3 5 49.09 75.95 11.51 o
569 1 -3 -3 4 45.18 66.02 11.51 o
570 1 -3 -3 3 27.26 47.11 10.32 o
571 1 -3 -3 2 10.50 -16.46 9.41 <
572 1 -3 -3 1 177.32 195.07 22.69 o
573 1 -3 -3 0 40.79 106.79 19.46 o
574 1 -3 -3 -1 134.54 181.64 23.82 o
575 1 -3 -3 -2 9.27 4.23 3.75 <
576 4 3 3 3 67.11 88.39 16.17 o
576 1 -3 -3 -3 67.11 88.39 16.17 o
577 1 -3 -3 -4 49.72 63.07 14.56 o
578 1 -3 -3 -5 54.53 63.43 14.92 o
579 1 -3 -3 -6 34.96 24.18 8.34 <
580 1 -3 -3 -7 9.30 26.79 10.07 <
581 1 -3 -3 -8 3.76 5.87 4.35 <
582 1 -3 -3 -9 19.54 33.63 11.71 <
583 1 -3 -3 -10 5.30 0.76 2.18 <
584 1 -3 -2 13 4.41 24.38 12.08 <
585 1 3 -2 -13 4.41 17.40 9.13 <
586 1 -3 -2 12 2.27 9.43 6.69 <
587 1 3 -2 -12 2.27 12.52 8.89 <
588 1 -3 -2 11 4.84 4.76 3.45 <
589 1 3 -2 -11 4.84 -0.20 1.75 <
590 4 2 2 -11 19.43 12.11 7.57 <
590 1 3 -2 -10 19.43 12.11 7.57 <
591 1 3 -2 -9 19.31 15.62 7.75 <
592 1 3 -1 -13 0.45 2.30 2.60 <
593 1 -3 -1 13 0.45 20.55 9.96 <
594 1 -3 -1 12 0.06 6.71 5.55 <
595 1 3 -1 -12 0.06 -8.35 4.82 <
596 1 3 -1 -11 5.73 6.32 5.07 <
597 1 -3 -1 11 5.73 7.72 4.31 <
598 4 2 1 -11 12.59 30.26 11.04 <
598 1 3 -1 -10 12.59 30.26 11.04 <
599 1 3 -1 -9 47.56 44.61 12.44 o
600 1 3 -1 -8 9.96 26.60 8.52 o
601 1 3 -1 -7 33.72 20.40 6.77 o
602 1 -3 0 13 2.24 11.96 6.69 <
603 1 -3 0 12 0.01 -0.39 0.97 <
604 1 3 0 -11 4.01 6.08 3.65 <
605 4 2 0 -11 10.41 6.95 3.77 <
605 1 3 0 -10 10.41 6.95 3.77 <
606 1 3 0 -9 1.64 2.04 2.00 <
607 1 3 0 -8 57.06 65.42 11.43 o
608 1 3 0 -7 159.85 137.99 15.06 o
609 1 3 0 -6 142.87 89.45 10.59 o
610 1 -3 1 13 0.49 11.66 7.68 <
611 1 3 2 -4 19.88 12.77 3.77 o
612 1 3 2 -3 281.74 235.74 19.02 o
613 1 3 2 -2 145.54 535.73 32.18 o
614 1 3 2 -1 193.35 152.71 17.31 o
615 1 3 2 0 88.07 98.73 16.39 o
616 1 3 2 1 253.66 193.18 21.72 o
617 1 3 2 2 144.26 183.06 22.02 o
618 4 -3 -2 -3 469.77 646.78 43.29 o
618 1 3 2 3 469.77 646.78 43.29 o
619 1 3 2 4 26.54 21.14 7.65 <
620 1 3 2 5 16.21 6.79 4.42 <
621 1 3 3 -3 27.17 13.34 4.85 <
622 1 3 3 -2 10.33 3.75 4.40 <
623 1 3 3 -1 175.60 185.91 24.83 o
624 1 3 3 0 40.19 56.26 15.15 o
625 1 3 3 1 136.01 151.87 24.54 o
626 1 3 3 2 9.75 7.63 4.35 <
627 4 -3 -3 -3 67.05 84.05 18.90 o
627 1 3 3 3 67.05 84.05 18.90 o
628 1 3 3 4 47.47 49.32 15.37 o
629 1 3 3 5 53.41 45.76 15.59 <
630 1 3 3 6 35.35 25.93 11.99 <
631 1 3 3 7 9.79 9.73 7.95 <
632 1 3 3 8 3.75 1.40 2.88 <
633 1 3 3 9 19.38 24.21 13.10 <
634 1 3 3 10 5.51 0.69 1.58 <
635 1 3 3 11 7.02 26.15 14.02 <
636 1 3 4 -2 90.90 246.04 29.00 o
637 1 3 4 -1 21.19 -12.61 1.25 <
638 1 3 4 0 3.29 -21.47 13.62 <
639 1 3 4 1 10.61 -16.44 12.21 <
640 1 3 4 2 65.00 76.92 20.75 o
641 4 -3 -4 -3 195.64 217.26 34.77 o
641 1 3 4 3 195.64 217.26 34.77 o
642 1 3 4 4 12.99 10.47 7.84 <
643 1 3 4 5 3.39 -3.59 4.03 <
644 1 3 4 6 1.04 5.64 6.42 <
645 1 3 4 7 36.86 30.98 15.96 <
646 1 3 4 8 21.14 15.11 10.67 <
647 1 3 4 9 7.40 7.90 7.44 <
648 1 3 4 10 1.43 -1.99 6.47 <
649 1 3 4 11 0.88 13.40 14.22 <
650 1 3 5 0 33.17 22.78 13.95 <
651 1 3 5 1 51.79 41.31 16.83 <
652 1 3 5 2 3.27 -1.18 3.53 <
653 4 -3 -5 -3 11.86 11.48 8.82 <
653 1 3 5 3 11.86 11.48 8.82 <
654 1 3 5 4 33.06 -1.04 3.98 <
655 1 3 5 5 37.55 8.94 9.77 <
656 1 3 5 6 18.99 13.69 12.44 <
657 1 3 5 7 7.63 19.57 14.53 <
658 1 3 5 8 1.75 14.97 13.72 <
659 1 3 5 9 5.77 5.56 7.29 <
660 1 3 6 1 15.07 10.85 6.78 <
661 1 3 6 2 23.56 9.63 6.42 <
662 4 -3 -6 -3 54.78 62.87 23.77 <
662 1 3 6 3 54.78 62.87 23.77 <
663 1 3 6 4 5.79 8.69 11.72 <
664 1 3 6 5 1.95 4.45 7.04 <
665 1 3 6 6 7.12 10.59 11.17 <
666 1 3 6 7 8.35 28.74 17.53 <
667 1 -4 -6 4 10.42 9.64 6.45 <
668 1 -4 -6 3 0.06 2.18 2.50 <
669 1 -4 -6 2 2.55 0.37 2.20 <
670 1 -4 -6 1 5.40 70.28 21.09 o
671 1 -4 -6 0 40.24 62.68 19.18 o
672 1 -4 -6 -1 4.93 7.30 6.42 <
673 1 -4 -6 -2 4.57 0.57 4.46 <
674 1 -4 -6 -3 0.96 -0.49 1.93 <
675 1 -4 -6 -4 11.33 19.44 10.81 <
676 1 -4 -5 8 6.54 6.16 4.81 <
677 1 -4 -5 7 2.75 0.75 3.44 <
678 1 -4 -5 6 9.76 31.75 11.35 <
679 1 -4 -5 5 0.41 14.35 8.36 <
680 1 -4 -5 4 7.12 23.23 9.84 <
681 1 -4 -5 3 3.39 7.00 5.63 <
682 1 -4 -5 2 22.49 35.03 13.14 <
683 1 -4 -5 1 1.67 -5.63 9.16 <
684 1 -4 -5 0 4.47 -14.20 9.93 <
685 1 -4 -5 -1 7.20 -4.27 5.80 <
686 1 -4 -5 -2 34.41 26.06 11.35 <
687 1 -4 -5 -3 14.30 0.59 4.77 <
688 1 -4 -5 -4 11.57 29.11 12.34 <
689 1 -4 -5 -5 1.29 5.61 5.63 <
690 1 -4 -5 -6 15.45 28.39 12.88 <
691 1 -4 -5 -7 2.74 1.51 4.37 <
692 1 -4 -4 8 4.32 0.80 2.19 <
693 1 -4 -4 7 0.64 -4.03 1.98 <
694 1 -4 -4 6 15.63 38.81 10.69 o
695 1 -4 -4 5 8.70 5.18 2.55 <
696 1 -4 -4 4 12.84 30.89 10.29 o
697 1 -4 -4 3 6.12 -0.77 1.18 <
698 1 -4 -4 2 1.89 -3.47 5.16 <
699 1 -4 -4 1 12.81 36.65 13.39 <
700 1 -4 -4 0 44.12 43.62 12.64 o
701 1 -4 -4 -1 4.25 6.86 5.05 <
702 1 -4 -4 -2 4.80 1.48 1.80 <
703 1 -4 -4 -3 1.86 0.98 0.98 <
704 1 -4 -4 -4 37.75 63.02 16.07 o
705 1 -4 -4 -5 8.03 4.29 3.72 <
706 1 -4 -4 -6 35.12 49.02 14.75 o
707 1 -4 -4 -7 1.27 7.26 6.74 <
708 1 -4 -4 -8 5.63 10.35 6.16 <
709 1 -4 -4 -9 2.01 -0.90 2.17 <
710 1 -4 -3 -1 9.10 -8.19 7.14 <
711 1 -4 -3 -2 100.75 145.69 20.47 o
712 1 4 -2 -12 0.32 2.80 4.13 <
713 1 4 -2 -11 0.36 1.16 2.45 <
714 1 4 -1 -12 4.47 26.07 11.80 <
715 1 4 -1 -11 1.30 5.45 5.56 <
716 1 4 -1 -10 0.90 0.62 2.12 <
717 4 1 1 -12 1.15 4.00 3.92 <
717 1 4 -1 -9 1.15 4.00 3.92 <
718 1 4 0 -12 0.04 -1.87 2.21 <
719 1 4 0 -11 0.24 -4.04 2.62 <
720 1 4 0 -10 30.97 41.23 10.40 o
721 4 1 0 -12 17.85 -0.01 2.73 <
721 1 4 0 -9 17.85 -0.01 2.73 <
722 1 4 0 -8 27.41 13.16 4.81 <
723 1 4 2 -5 5.77 -1.01 0.99 <
724 1 4 2 -4 58.27 58.46 9.42 o
725 1 4 2 -3 11.38 0.06 1.50 <
726 1 4 2 -2 40.87 12.64 4.12 o
727 1 4 2 -1 33.31 504.99 36.19 o
728 1 4 3 -4 36.58 54.40 10.74 o
729 1 4 3 -3 23.92 -14.68 9.64 <
730 1 4 3 -2 120.81 92.50 16.86 o
731 1 4 3 0 1.59 -4.13 10.67 <
732 1 4 3 1 9.65 -28.07 13.35 <
733 1 4 3 2 99.75 115.45 22.15 o
734 1 4 3 3 4.67 7.65 5.92 <
735 1 4 3 4 41.85 106.62 22.42 o
736 1 4 3 5 3.26 4.92 5.33 <
737 1 4 3 6 12.80 4.16 4.68 <
738 1 4 4 -3 6.00 5.39 4.79 <
739 1 4 4 -2 2.12 -2.75 2.62 <
740 1 4 4 -1 12.77 107.13 23.01 o
741 1 4 4 0 43.82 37.64 14.26 <
742 1 4 4 1 4.46 4.63 4.28 <
743 1 4 4 2 4.22 2.27 4.52 <
744 1 4 4 3 1.98 -2.30 3.85 <
745 1 4 4 4 37.47 50.09 17.71 <
746 1 4 4 5 8.03 2.62 1.82 <
747 1 4 4 6 35.20 41.47 17.99 <
748 1 4 4 7 1.24 1.87 6.75 <
749 1 4 4 8 5.57 2.71 2.92 <
750 1 4 4 9 1.98 -2.02 5.77 <
751 1 4 5 -2 22.16 30.25 12.51 <
752 1 4 5 -1 1.60 -9.71 11.71 <
753 1 4 5 0 4.40 25.63 14.48 <
754 1 4 5 1 7.02 -12.36 11.84 <
755 1 4 5 2 34.81 20.73 13.39 <
756 1 4 5 3 14.21 0.31 4.19 <
757 1 4 5 4 11.92 19.86 12.47 <
758 1 4 5 5 1.26 -4.84 7.73 <
759 1 4 5 6 15.16 35.78 18.39 <
760 1 4 5 7 2.85 -4.53 6.65 <
761 1 4 6 0 40.28 51.30 19.39 <
762 1 4 6 1 4.93 6.77 8.78 <
763 1 4 6 2 4.64 -6.30 9.15 <
764 1 4 6 3 0.92 -3.37 6.44 <
765 1 4 6 4 11.28 31.86 16.75 <
766 1 -5 -5 5 2.69 39.13 14.08 <
767 1 -5 -5 4 8.31 48.43 19.74 <
768 1 -5 -5 3 0.42 1.66 4.25 <
769 1 -5 -5 2 3.88 5.14 5.27 <
770 1 -5 -5 1 4.73 33.20 14.84 <
771 1 -5 -5 0 26.54 83.41 21.38 o
772 1 -5 -5 -1 8.40 10.20 7.69 <
773 1 -5 -5 -2 3.87 8.04 5.40 <
774 1 -5 -5 -3 1.25 -4.87 4.96 <
775 1 -5 -5 -4 12.69 35.62 14.58 <
776 1 -5 -5 -5 4.71 7.81 7.94 <
777 1 5 0 -11 0.47 -7.60 5.31 <
778 1 5 0 -10 0.34 -1.29 2.25 <
779 3 -5 2 -6 15.09 2.79 2.47 <
779 1 5 2 -6 15.09 2.79 2.47 <
780 1 5 2 -5 5.70 2.60 2.05 <
781 1 5 2 -4 12.15 0.18 1.29 <
782 1 5 3 -5 3.34 3.14 1.76 <
783 1 5 3 -4 22.07 56.31 14.53 o
784 1 5 3 -3 13.84 14.13 7.51 <
785 1 5 3 -2 6.12 2.65 0.87 o
786 1 5 3 -1 14.32 38.09 12.23 o
787 1 5 3 0 74.03 60.31 16.08 o
788 1 5 3 1 8.71 5.65 5.94 <
789 1 5 3 2 10.80 6.15 5.56 <
790 1 5 4 -4 4.88 15.78 8.45 <
791 1 5 4 -3 10.52 1.51 7.27 <
792 1 5 4 -2 34.94 61.39 19.28 o
793 1 5 4 -1 5.15 -7.32 7.31 <
794 1 5 4 0 0.66 -7.59 8.02 <
795 1 5 4 1 3.26 -14.63 10.91 <
796 1 5 4 2 43.50 54.57 18.42 <
797 1 5 4 3 15.93 11.30 9.34 <
798 1 5 4 4 10.90 21.96 13.38 <
799 1 5 4 5 1.83 4.40 7.58 <
800 3 0 4 -12 7.88 16.58 11.35 <
800 1 5 4 6 7.88 16.58 11.35 <
801 1 5 4 7 4.74 -23.79 12.54 <
802 1 5 5 -3 0.46 -5.28 4.77 <
803 1 5 5 -2 3.85 12.06 8.19 <
804 1 5 5 -1 4.64 89.31 24.66 o
805 1 5 5 0 26.38 43.76 18.71 <
806 1 5 5 1 8.52 11.37 11.06 <
807 1 5 5 2 3.90 6.55 3.47 <
808 1 5 5 3 1.28 0.14 5.54 <
809 1 5 5 4 12.58 47.89 21.64 <
810 1 5 5 5 4.64 2.72 5.59 <
811 1 6 2 -7 0.36 -2.40 2.92 <
812 1 6 2 -6 2.84 -8.94 5.15 <
813 1 6 3 -6 0.43 7.36 4.48 <
814 1 6 3 -5 0.10 0.04 2.64 <
815 1 6 3 -4 1.06 3.91 3.59 <
816 1 6 3 -3 8.12 10.09 6.21 <
817 1 6 3 -2 3.00 29.67 11.04 <
818 1 6 4 -3 1.40 6.14 8.63 <
819 1 6 4 -2 0.22 12.16 10.77 <
820 1 6 4 -1 9.55 19.47 11.84 <
821 1 6 4 0 4.14 14.12 10.06 <
822 1 6 4 1 13.34 12.25 9.48 <
823 1 6 4 2 0.89 -0.42 5.10 <
824 1 6 4 3 2.36 -0.13 1.43 <
825 2 0 -6 -7 0.28 11.53 5.25 <
826 2 0 -6 -8 5.05 13.19 6.32 <
827 2 0 -6 -9 0.06 2.47 2.78 <
828 2 0 -5 -5 2.32 -2.26 2.82 <
829 2 0 -5 -6 14.63 5.57 3.24 <
830 2 0 -5 -7 0.83 -0.68 1.66 <
831 2 0 -5 -8 14.92 58.07 13.36 o
832 2 0 -5 -9 0.38 -2.40 2.66 <
833 2 0 -5 -10 0.16 -2.79 4.35 <
834 2 0 -5 -11 0.14 1.99 3.20 <
835 2 0 -4 -4 150.98 127.06 13.75 o
836 2 0 -4 -5 5.39 -1.40 1.97 <
837 2 0 -4 -6 80.18 59.26 10.89 o
838 2 0 -4 -7 0.51 0.29 1.12 <
839 2 0 -4 -8 1.71 -0.03 0.98 <
840 2 0 -4 -9 1.15 -0.85 0.61 <
841 2 0 -4 -10 17.41 44.99 15.07 <
842 2 0 -4 -11 0.45 -3.37 4.44 <
843 4 -5 -4 6 6.60 4.55 6.16 <
843 2 0 -4 -12 6.60 4.55 6.16 <
844 3 5 4 -8 7.77 -4.99 4.45 <
844 2 0 -4 -13 7.77 -4.99 4.45 <
845 2 0 -3 -3 215.43 171.79 14.18 o
846 2 0 -3 -4 216.94 190.75 16.65 o
847 2 0 -3 -5 2.95 8.03 4.82 <
848 2 0 -3 -6 118.61 103.46 16.19 o
849 2 0 -3 -7 7.16 1.01 2.17 <
850 2 0 -3 -8 63.22 111.96 20.28 o
851 2 0 -3 -9 3.43 2.99 3.93 <
852 2 0 -3 -10 1.96 -1.64 3.10 <
853 2 0 -3 -11 0.81 0.99 1.42 <
854 4 -5 -3 6 22.97 33.66 14.10 <
854 2 0 -3 -12 22.97 33.66 14.10 <
855 3 5 3 -8 1.95 -2.77 6.88 <
855 2 0 -3 -13 1.95 -2.77 6.88 <
856 2 0 -3 -14 1.41 0.08 1.11 <
857 2 0 -2 -2 94.62 105.36 9.12 o
858 2 0 -2 -3 31.69 27.60 5.68 o
859 2 0 -2 -4 851.22 744.68 36.00 o
860 2 0 -2 -5 131.49 119.96 16.43 o
861 2 0 -2 -6 487.69 576.74 38.12 o
862 2 0 -2 -7 2.02 0.70 2.56 <
863 2 0 -2 -8 115.66 118.43 20.53 o
864 2 0 -2 -9 10.37 2.30 2.90 <
865 2 0 -2 -10 101.70 120.16 23.63 o
866 2 0 -2 -11 1.38 0.24 1.76 <
867 4 -5 -2 6 9.69 8.11 7.37 <
867 2 0 -2 -12 9.69 8.11 7.37 <
868 3 5 2 -8 5.02 -6.28 7.15 <
868 2 0 -2 -13 5.02 -6.28 7.15 <
869 2 0 -2 -14 1.12 -0.86 4.11 <
870 2 0 -1 -1 21.44 15.64 2.49 o
871 2 0 -1 -2 3283.59 3269.01 53.08 o
872 2 0 -1 -3 238.26 189.18 15.61 o
873 2 0 -1 -4 942.96 967.59 40.75 o
874 2 0 -1 -5 115.03 73.34 14.36 o
875 2 0 -1 -6 807.68 908.77 50.16 o
876 2 0 -1 -7 6.26 1.83 2.22 <
877 2 0 -1 -8 352.55 756.43 52.16 o
878 2 0 -1 -9 0.99 0.15 0.78 <
879 2 0 -1 -10 1.51 -2.19 3.51 <
880 2 0 -1 -11 5.71 2.27 3.90 <
881 4 -5 -1 6 41.30 29.66 13.61 <
881 2 0 -1 -12 41.30 29.66 13.61 <
882 2 0 1 1 21.49 13.88 2.29 o
883 2 0 1 2 3286.09 3275.03 53.75 o
884 2 0 1 3 237.57 183.06 15.58 o
885 2 0 1 4 941.97 983.00 39.38 o
886 2 0 1 5 115.07 87.27 14.19 o
887 2 0 1 6 808.27 936.39 45.26 o
888 2 0 1 7 6.17 5.88 4.23 <
889 2 0 1 8 351.87 711.70 47.18 o
890 2 0 1 9 1.03 0.74 0.83 <
891 2 0 2 2 91.80 109.03 10.81 o
892 2 0 2 3 31.79 29.95 7.19 o
893 2 0 2 4 850.41 753.88 38.33 o
894 2 0 2 5 130.76 109.26 15.95 o
895 2 0 2 6 486.39 602.09 39.94 o
896 2 0 2 7 2.04 0.66 0.92 <
897 2 0 2 8 115.57 100.22 17.68 o
898 2 0 2 9 10.52 -0.10 0.83 <
899 2 0 2 10 101.85 100.27 19.84 o
900 2 0 2 11 1.43 -2.96 3.03 <
901 4 5 2 -6 9.85 8.25 6.67 <
901 2 0 2 12 9.85 8.25 6.67 <
902 3 -5 -2 8 4.98 -2.13 2.65 <
902 2 0 2 13 4.98 -2.13 2.65 <
903 2 0 3 3 216.00 160.35 16.83 o
904 2 0 3 4 215.66 193.29 20.95 o
905 2 0 3 5 2.98 8.23 6.74 <
906 2 0 3 6 118.00 82.19 15.72 o
907 2 0 3 7 7.00 -1.02 0.37 <
908 2 0 3 8 62.44 78.95 17.51 o
909 2 0 3 9 3.51 0.09 1.30 <
910 2 0 3 10 2.03 0.71 2.61 <
911 2 0 3 11 0.79 2.02 3.24 <
912 4 5 3 -6 23.08 29.19 12.54 <
912 2 0 3 12 23.08 29.19 12.54 <
913 3 -5 -3 8 1.93 -0.70 2.01 <
913 2 0 3 13 1.93 -0.70 2.01 <
914 2 0 3 14 1.39 0.99 2.18 <
915 2 0 4 4 149.88 110.71 16.32 o
916 2 0 4 5 5.50 -2.55 2.78 <
917 2 0 4 6 80.13 33.72 10.29 o
918 2 0 4 7 0.52 1.78 2.17 <
919 2 0 4 8 1.83 4.71 4.44 <
920 2 0 4 9 1.12 1.62 1.94 <
921 2 0 4 10 17.20 27.95 12.75 <
922 2 0 4 11 0.45 -1.50 3.64 <
923 4 5 4 -6 6.57 6.16 7.12 <
923 2 0 4 12 6.57 6.16 7.12 <
924 3 -5 -4 8 7.74 -8.40 7.45 <
924 2 0 4 13 7.74 -8.40 7.45 <
925 2 0 5 5 2.33 -1.12 1.62 <
926 2 0 5 6 14.93 8.55 6.17 <
927 2 0 5 7 0.84 -2.16 4.19 <
928 2 0 5 8 14.84 17.81 9.48 <
929 2 0 5 9 0.37 -1.60 2.18 <
930 2 0 5 10 0.18 5.37 5.53 <
931 2 0 5 11 0.14 -6.23 5.92 <
932 2 0 6 7 0.28 3.37 5.19 <
933 2 0 6 8 5.06 2.46 1.89 <
934 2 0 6 9 0.06 0.05 0.98 <
935 2 1 -6 -9 1.81 4.70 3.85 <
936 2 1 -6 -8 16.51 31.13 10.13 o
937 2 1 -6 -7 9.27 19.19 7.12 <
938 2 1 -6 -6 11.54 14.94 6.01 <
939 2 1 -6 -5 0.28 1.34 1.19 <
940 2 1 -5 -11 3.21 17.04 11.37 <
941 2 1 -5 -10 14.59 22.87 10.71 <
942 2 1 -5 -9 5.73 20.24 9.78 <
943 2 1 -5 -8 3.52 7.88 6.46 <
944 2 1 -5 -7 5.77 14.74 6.46 <
945 2 1 -5 -6 32.68 13.59 6.01 <
946 2 1 -5 -5 33.32 41.28 9.32 o
947 2 1 -5 -4 89.82 120.88 15.60 o
948 2 1 -5 -3 34.62 95.45 12.65 o
949 2 -1 -5 -8 4.94 15.12 5.65 <
950 2 -1 -5 -9 13.26 56.66 11.88 o
951 2 -1 -5 -10 11.17 33.30 9.32 o
952 2 -1 -5 -11 4.25 16.34 6.94 <
953 3 4 4 -9 11.30 19.99 11.86 <
953 2 1 -4 -12 11.30 19.99 11.86 <
954 2 1 -4 -11 2.04 7.91 6.81 <
955 2 1 -4 -10 1.37 -1.49 3.74 <
956 2 1 -4 -9 3.71 1.51 1.54 <
957 2 1 -4 -8 26.24 22.07 9.54 <
958 2 1 -4 -7 18.89 24.97 10.30 <
959 2 1 -4 -6 26.44 12.02 4.16 <
960 2 1 -4 -5 2.17 4.91 3.58 <
961 2 1 -4 -4 97.39 44.89 8.84 o
962 2 1 -4 -3 220.88 239.25 19.47 o
963 2 1 -4 -2 348.72 300.09 20.31 o
964 2 -1 -4 -6 38.20 11.29 3.23 o
965 2 -1 -4 -7 44.88 38.51 8.25 o
966 2 -1 -4 -8 37.01 28.34 7.25 o
967 2 -1 -4 -9 6.31 27.52 8.01 o
968 2 -1 -4 -10 3.14 3.77 3.42 <
969 2 -1 -4 -11 5.49 7.34 4.85 <
970 2 -1 -4 -12 11.16 21.48 8.36 <
971 2 1 -3 -13 0.58 9.63 10.70 <
972 3 4 3 -9 6.12 1.61 4.23 <
972 2 1 -3 -12 6.12 1.61 4.23 <
973 2 1 -3 -11 4.97 14.88 9.69 <
974 2 1 -3 -10 28.73 18.58 10.52 <
975 2 1 -3 -9 29.51 24.21 11.09 <
976 2 1 -3 -8 5.87 5.65 4.67 <
977 2 1 -3 -7 20.15 32.32 11.43 <
978 2 1 -3 -6 87.30 85.23 16.47 o
979 2 1 -3 -5 186.88 226.15 25.94 o
980 2 1 -3 -4 528.95 561.91 37.66 o
981 2 1 -3 -3 116.89 110.17 14.23 o
982 2 1 -3 -2 222.82 223.56 16.88 o
983 2 1 -3 -1 273.06 286.72 17.45 o
984 2 -1 -3 -5 318.69 217.48 16.93 o
985 2 -1 -3 -6 110.08 97.93 11.88 o
986 2 -1 -3 -7 34.74 27.46 6.76 o
987 2 -1 -3 -8 4.64 7.30 3.63 <
988 2 -1 -3 -9 47.29 115.55 18.67 o
989 2 -1 -3 -10 24.31 29.67 10.57 <
990 2 -1 -3 -11 10.04 7.39 4.27 <
991 2 -1 -3 -12 2.49 -1.25 3.25 <
992 2 -1 -3 -13 1.46 5.25 6.16 <
993 3 4 2 -9 5.40 4.16 6.39 <
993 2 1 -2 -12 5.40 4.16 6.39 <
994 2 1 -2 -11 5.12 8.11 7.66 <
995 2 1 -2 -10 3.82 4.07 4.12 <
996 2 1 -2 -9 1.23 0.27 3.09 <
997 2 1 -2 -8 208.48 204.65 32.50 o
998 2 1 -2 -7 161.02 145.11 25.36 o
999 2 1 -2 -6 154.53 85.44 17.13 o
1000 2 1 -2 -5 51.35 65.89 13.72 o
1001 2 1 -2 -4 202.94 300.51 27.48 o
1002 2 1 -2 -3 1184.47 1328.12 50.97 o
1003 2 1 -2 -2 847.58 957.98 39.43 o
1004 2 1 -2 -1 149.08 157.08 13.53 o
1005 2 1 -2 0 199.53 170.21 10.47 o
1006 2 -1 -2 -4 275.95 206.01 14.05 o
1007 2 -1 -2 -5 92.28 59.84 8.26 o
1008 2 -1 -2 -6 97.23 94.99 11.78 o
1009 2 -1 -2 -7 172.04 147.46 17.52 o
1010 2 -1 -2 -8 186.00 180.13 21.01 o
1011 2 -1 -2 -9 11.96 83.20 15.70 o
1012 2 -1 -2 -10 5.16 9.08 5.20 <
1013 2 -1 -2 -11 8.06 9.34 5.71 <
1014 2 -1 -2 -12 3.08 5.38 5.21 <
1015 2 -1 -2 -13 6.81 7.94 5.61 <
1016 2 -1 -2 -14 0.22 4.01 5.44 <
1017 2 1 -1 -6 238.52 347.87 34.89 o
1018 2 1 -1 -5 301.65 380.54 32.42 o
1019 2 1 -1 -4 906.71 1134.86 52.89 o
1020 2 1 -1 -3 351.11 480.93 31.27 o
1021 2 1 -1 -2 124.77 143.19 14.49 o
1022 2 1 -1 -1 890.88 1240.41 36.78 o
1023 2 1 -1 0 1780.95 1967.77 35.66 o
1024 2 -1 -1 -3 482.84 324.21 14.06 o
1025 2 -1 -1 -4 744.32 663.60 24.45 o
1026 2 -1 -1 -5 341.85 251.06 18.47 o
1027 2 -1 -1 -6 237.00 204.89 18.84 o
1028 2 -1 -1 -7 87.43 58.17 11.22 o
1029 2 -1 -1 -8 21.51 27.71 8.50 o
1030 2 -1 -1 -9 87.73 271.23 28.60 o
1031 2 -1 -1 -10 41.24 43.77 12.53 o
1032 2 -1 -1 -11 16.07 -0.94 2.55 <
1033 2 -1 -1 -12 2.29 -2.08 3.56 <
1034 2 -1 -1 -13 1.37 0.65 0.46 <
1035 2 -1 -1 -14 2.45 1.48 3.72 <
1036 2 1 0 4 52.83 40.55 6.55 o
1037 2 -1 0 -4 52.83 40.10 6.74 o
1038 2 -1 0 -5 348.52 248.35 20.10 o
1039 2 1 0 5 348.52 301.75 19.55 o
1040 2 -1 0 -6 25.93 3.06 1.80 <
1041 2 -1 0 -7 214.27 116.73 16.51 o
1042 2 -1 0 -8 147.64 109.00 17.87 o
1043 2 -1 0 -9 149.08 319.00 31.99 o
1044 2 -1 0 -10 15.63 11.95 7.86 <
1045 2 -1 0 -11 5.36 0.92 4.11 <
1046 2 -1 0 -12 8.02 5.15 5.35 <
1047 2 -1 1 5 314.07 383.22 30.46 o
1048 2 -1 1 4 875.45 1105.00 48.61 o
1049 2 -1 1 3 343.40 468.59 29.56 o
1050 2 -1 1 2 129.30 135.38 13.36 o
1051 2 -1 1 1 883.16 1231.97 36.18 o
1052 2 -1 1 0 1786.72 1971.77 36.19 o
1053 2 1 1 3 492.59 346.51 16.67 o
1054 2 1 1 4 773.84 699.04 28.36 o
1055 2 1 1 5 327.47 259.85 20.25 o
1056 2 1 1 6 231.25 218.93 21.48 o
1057 2 1 1 7 85.37 51.83 10.91 o
1058 2 1 1 8 21.12 22.58 7.42 o
1059 2 1 1 9 90.12 138.52 21.24 o
1060 2 1 1 10 39.69 44.47 12.33 o
1061 2 1 1 11 16.40 5.37 4.69 <
1062 2 -1 2 11 4.89 12.04 7.68 <
1063 2 -1 2 10 3.81 1.95 3.14 <
1064 2 -1 2 9 1.56 -2.53 3.23 <
1065 2 -1 2 8 211.36 202.18 27.35 o
1066 2 -1 2 7 161.87 138.88 21.25 o
1067 2 -1 2 6 149.09 98.89 16.51 o
1068 2 -1 2 5 51.06 74.69 14.27 o
1069 2 -1 2 4 212.38 285.40 25.55 o
1070 2 -1 2 3 1191.20 1327.37 51.16 o
1071 2 -1 2 2 859.62 960.37 40.69 o
1072 2 -1 2 1 139.52 143.36 13.91 o
1073 2 -1 2 0 199.53 174.91 13.31 o
1074 2 1 2 4 266.86 217.20 17.58 o
1075 2 1 2 5 92.75 61.22 10.60 o
1076 2 1 2 6 101.82 25.93 4.32 o
1077 2 1 2 7 170.40 106.87 16.80 o
1078 2 1 2 8 185.28 130.41 20.07 o
1079 2 1 2 9 10.98 38.93 11.13 o
1080 2 1 2 10 5.25 7.35 5.49 <
1081 2 1 2 11 8.40 4.36 4.44 <
1082 2 1 2 12 2.97 3.40 4.77 <
1083 2 1 2 13 6.53 9.62 6.46 <
1084 2 1 2 14 0.22 0.97 3.31 <
1085 2 -1 3 13 0.55 5.26 6.00 <
1086 3 -4 -3 9 6.20 -6.09 5.65 <
1086 2 -1 3 12 6.20 -6.09 5.65 <
1087 2 -1 3 11 5.31 23.34 11.35 <
1088 2 -1 3 10 29.04 19.83 9.79 <
1089 2 -1 3 9 29.94 26.01 10.27 <
1090 2 -1 3 8 5.73 4.94 4.52 <
1091 2 -1 3 7 20.04 24.99 9.46 <
1092 2 -1 3 6 87.94 79.50 16.82 o
1093 2 -1 3 5 189.08 198.44 24.84 o
1094 2 -1 3 4 531.29 540.39 39.11 o
1095 2 -1 3 3 114.83 103.49 15.33 o
1096 2 -1 3 2 225.94 238.80 21.70 o
1097 2 -1 3 1 271.12 270.73 20.93 o
1098 2 -1 3 0 100.40 106.64 10.83 o
1099 2 1 3 5 314.86 211.36 21.50 o
1100 2 1 3 6 110.43 92.63 15.48 o
1101 2 1 3 7 35.04 17.49 7.20 <
1102 2 1 3 8 4.57 3.35 2.74 <
1103 2 1 3 9 46.88 66.57 16.01 o
1104 2 1 3 10 24.19 16.42 7.89 <
1105 2 1 3 11 9.45 5.04 4.88 <
1106 2 1 3 12 2.44 -4.45 4.63 <
1107 2 1 3 13 1.52 3.79 3.94 <
1108 3 -4 -4 9 11.22 11.52 7.73 <
1108 2 -1 4 12 11.22 11.52 7.73 <
1109 2 -1 4 11 2.08 8.97 7.18 <
1110 2 -1 4 10 1.35 -0.49 2.45 <
1111 2 -1 4 9 3.66 0.58 2.31 <
1112 2 -1 4 8 26.04 6.31 5.50 <
1113 2 -1 4 7 19.50 15.67 8.50 <
1114 2 -1 4 6 27.00 7.76 5.08 <
1115 2 -1 4 5 2.21 1.95 0.25 o
1116 2 -1 4 4 96.18 33.73 9.84 o
1117 2 -1 4 3 220.27 230.21 24.62 o
1118 2 -1 4 2 350.37 285.82 25.53 o
1119 2 -1 4 1 60.17 60.48 9.86 o
1120 2 1 4 6 37.06 -15.75 7.47 <
1121 2 1 4 7 44.93 28.64 9.68 <
1122 2 1 4 8 37.37 17.19 8.06 <
1123 2 1 4 9 6.28 13.21 7.89 <
1124 2 1 4 10 3.08 6.72 6.44 <
1125 2 1 4 11 5.45 6.13 5.42 <
1126 2 1 4 12 11.19 14.87 8.96 <
1127 2 -1 5 11 3.09 3.83 5.44 <
1128 2 -1 5 10 14.32 6.90 6.32 <
1129 2 -1 5 9 5.74 9.54 6.31 <
1130 2 -1 5 8 3.53 3.81 3.99 <
1131 2 -1 5 7 5.70 8.48 6.03 <
1132 2 -1 5 6 32.20 4.69 3.83 <
1133 2 -1 5 5 32.81 17.40 8.19 <
1134 2 -1 5 4 90.28 84.04 17.10 o
1135 2 -1 5 3 35.23 55.59 13.02 o
1136 2 -1 5 2 52.66 31.01 8.63 o
1137 2 1 5 7 2.99 5.96 4.83 <
1138 2 1 5 8 4.93 6.30 4.60 <
1139 2 1 5 9 13.48 26.37 11.73 <
1140 2 1 5 10 11.26 16.30 9.68 <
1141 2 1 5 11 4.40 7.43 6.19 <
1142 2 -1 6 9 1.81 5.03 6.84 <
1143 2 -1 6 8 16.45 10.91 8.91 <
1144 2 -1 6 7 9.12 1.97 4.23 <
1145 2 -1 6 6 11.53 1.17 3.15 <
1146 2 -1 6 5 0.29 1.04 2.21 <
1147 2 -1 6 4 19.47 5.83 4.62 <
1148 2 1 6 9 2.23 10.25 7.90 <
1149 2 -1 7 6 8.11 -0.16 1.49 <
1150 2 2 -6 -8 0.60 5.21 5.07 <
1151 2 2 -6 -7 3.93 9.12 5.27 <
1152 2 2 -6 -6 1.07 27.64 9.64 <
1153 2 2 -6 -5 41.67 64.55 13.33 o
1154 2 2 -6 -4 1.52 8.18 4.81 <
1155 2 2 -6 -3 2.41 0.74 2.55 <
1156 2 2 -5 -10 0.04 -2.99 3.25 <
1157 2 2 -5 -9 6.66 13.08 8.48 <
1158 2 2 -5 -8 1.57 0.59 1.62 <
1159 2 2 -5 -7 40.41 65.01 16.87 o
1160 2 2 -5 -6 2.06 13.63 6.93 <
1161 2 2 -5 -5 0.57 -2.72 3.42 <
1162 2 2 -5 -4 8.79 2.74 2.91 <
1163 2 2 -5 -3 141.40 169.48 18.26 o
1164 2 2 -5 -2 16.20 5.81 3.07 <
1165 2 2 -4 -12 0.24 -1.45 2.81 <
1166 3 3 4 -10 10.37 15.83 11.37 <
1166 2 2 -4 -11 10.37 15.83 11.37 <
1167 2 2 -4 -10 1.43 -0.22 3.44 <
1168 2 2 -4 -9 26.76 37.06 16.47 <
1169 2 2 -4 -8 0.50 1.27 2.31 <
1170 2 2 -4 -7 4.22 7.21 5.96 <
1171 2 2 -4 -6 10.63 35.50 12.88 <
1172 2 2 -4 -5 314.33 339.79 36.29 o
1173 2 2 -4 -4 3.53 9.59 8.22 <
1174 2 2 -4 -3 110.73 128.53 17.98 o
1175 2 2 -4 -2 77.51 114.80 13.56 o
1176 2 2 -4 -1 316.48 260.92 18.58 o
1177 2 2 -4 0 19.75 33.84 6.92 o
1178 2 -2 -4 -9 40.23 96.15 13.97 o
1179 2 -2 -4 -10 0.33 29.16 8.32 o
1180 2 -2 -4 -11 13.80 46.26 10.36 o
1181 2 -2 -4 -12 0.10 1.62 0.78 <
1182 2 2 -3 -13 4.72 8.42 11.49 <
1183 2 2 -3 -12 1.08 5.26 5.43 <
1184 3 3 3 -10 16.09 18.40 12.21 <
1184 2 2 -3 -11 16.09 18.40 12.21 <
1185 2 2 -3 -10 1.26 7.11 9.54 <
1186 2 2 -3 -9 17.15 14.52 11.38 <
1187 2 2 -3 -8 7.30 3.54 4.78 <
1188 2 2 -3 -7 195.34 283.97 40.41 o
1189 2 2 -3 -6 19.52 29.29 10.80 <
1190 2 2 -3 -5 0.76 0.33 3.66 <
1191 2 2 -3 -4 9.02 0.26 1.16 <
1192 2 2 -3 -3 783.31 856.20 46.27 o
1193 2 2 -3 -2 17.31 25.28 7.05 o
1194 2 2 -3 -1 544.81 547.42 29.96 o
1195 2 2 -3 0 4.83 9.52 2.99 o
1196 2 2 -3 1 456.60 529.73 20.96 o
1197 2 -2 -3 -8 2.72 0.36 0.68 <
1198 2 -2 -3 -9 16.57 33.83 7.19 o
1199 2 -2 -3 -10 3.52 24.70 7.11 o
1200 2 -2 -3 -11 18.84 46.45 10.21 o
1201 2 -2 -3 -12 0.33 -0.40 0.23 <
1202 2 -2 -3 -13 8.70 13.31 5.63 <
1203 2 2 -2 -8 3.15 3.57 5.11 <
1204 2 2 -2 -7 8.93 -11.97 9.20 <
1205 2 2 -2 -6 15.50 185.69 29.43 o
1206 2 2 -2 -5 544.79 807.89 53.60 o
1207 2 2 -2 -4 54.24 54.47 13.25 o
1208 2 2 -2 -3 54.60 82.30 14.57 o
1209 2 2 -2 -2 78.54 120.24 16.18 o
1210 2 2 -2 -1 788.19 972.83 41.28 o
1211 2 2 -2 0 14.37 12.61 3.31 o
1212 2 2 -2 1 845.95 833.72 26.05 o
1213 2 -2 -2 -7 9.80 13.13 2.43 o
1214 2 -2 -2 -8 4.48 0.00 0.83 <
1215 2 -2 -2 -9 64.20 80.98 11.38 o
1216 2 -2 -2 -10 4.35 18.84 6.27 o
1217 2 -2 -2 -11 24.48 39.06 10.07 o
1218 2 -2 -2 -12 0.08 -3.19 4.08 <
1219 2 -2 -2 -13 2.61 1.46 0.98 <
1220 2 -2 -2 -14 0.05 2.14 3.46 <
1221 2 2 -1 0 6.13 6.21 1.59 o
1222 2 2 -1 1 2125.40 2534.96 43.96 o
1223 2 -2 -1 -6 12.38 10.38 2.93 o
1224 2 -2 -1 -7 221.35 194.51 14.16 o
1225 2 -2 -1 -8 1.50 1.54 1.02 <
1226 2 -2 -1 -9 59.89 61.93 11.16 o
1227 2 -2 -1 -10 4.98 6.27 4.12 <
1228 2 -2 -1 -11 11.59 16.63 6.86 <
1229 2 -2 -1 -12 0.07 0.44 0.72 <
1230 2 -2 -1 -13 5.85 10.27 6.45 <
1231 2 -2 -1 -14 0.41 0.50 3.40 <
1232 2 2 0 4 19.96 24.03 3.58 o
1233 2 2 0 5 407.25 362.77 18.55 o
1234 2 -2 0 -5 407.25 351.22 13.18 o
1235 2 2 0 6 68.65 109.33 11.49 o
1236 2 -2 0 -6 68.65 127.15 10.76 o
1237 2 2 0 7 0.73 -4.28 2.83 <
1238 2 -2 0 -7 0.73 -2.95 2.45 <
1239 2 2 0 8 30.69 8.70 4.01 <
1240 2 -2 0 -8 30.69 10.80 4.52 <
1241 2 -2 0 -9 15.07 9.22 4.62 <
1242 2 -2 0 -10 2.67 31.22 9.03 o
1243 2 -2 0 -11 31.84 9.39 5.63 <
1244 2 -2 0 -12 0.07 -0.67 2.60 <
1245 2 -2 0 -13 0.13 -3.27 3.99 <
1246 2 -2 0 -14 0.00 -0.97 2.73 <
1247 2 2 1 4 24.10 16.47 3.14 o
1248 2 2 1 5 123.57 66.76 8.40 o
1249 2 2 1 6 12.65 7.29 3.23 <
1250 2 -2 1 -6 12.65 3.08 1.77 <
1251 2 2 1 7 216.92 165.82 18.77 o
1252 2 -2 1 -7 216.92 114.55 14.09 o
1253 2 -2 1 -8 1.59 -0.01 0.71 <
1254 2 2 1 8 1.59 0.84 0.21 o
1255 2 -2 1 -9 59.69 24.21 8.05 o
1256 2 2 1 9 59.69 33.61 10.06 o
1257 2 -2 1 -10 5.00 4.21 4.27 <
1258 2 2 1 10 5.00 7.07 5.07 <
1259 2 -2 1 -11 12.09 6.17 5.82 <
1260 2 2 1 11 12.09 5.29 5.07 <
1261 2 2 1 12 0.07 0.65 2.58 <
1262 2 2 1 13 6.24 0.92 2.70 <
1263 2 -2 2 7 8.23 -10.49 7.40 <
1264 2 -2 2 6 14.72 180.36 25.95 o
1265 2 -2 2 5 548.54 836.00 49.69 o
1266 2 -2 2 4 54.04 62.81 13.12 o
1267 2 -2 2 3 53.02 72.09 12.50 o
1268 2 -2 2 2 77.91 118.00 15.05 o
1269 2 -2 2 1 768.27 991.51 41.43 o
1270 2 -2 2 0 14.89 11.68 4.05 <
1271 2 -2 2 -1 865.96 854.28 30.36 o
1272 3 2 -2 2 184.31 214.88 12.70 o
1272 2 -2 2 -2 184.31 214.88 12.70 o
1273 2 -2 2 -3 64.11 42.18 4.19 o
1274 2 2 2 5 664.29 528.70 25.27 o
1275 2 2 2 6 2.22 4.58 3.09 <
1276 2 2 2 7 10.83 -1.15 3.97 <
1277 2 2 2 8 4.40 -0.24 0.84 <
1278 2 2 2 9 64.04 44.45 11.66 o
1279 2 2 2 10 4.37 4.26 4.81 <
1280 2 2 2 11 24.64 14.49 7.36 <
1281 2 2 2 12 0.08 -0.37 1.17 <
1282 2 2 2 13 2.59 -2.48 3.91 <
1283 2 2 2 14 0.05 -3.03 4.54 <
1284 2 -2 3 12 1.06 -2.32 4.32 <
1285 3 -3 -3 10 16.35 33.40 14.39 <
1285 2 -2 3 11 16.35 33.40 14.39 <
1286 2 -2 3 10 1.25 -1.42 3.68 <
1287 2 -2 3 9 16.17 21.95 10.34 <
1288 2 -2 3 8 7.24 -1.14 2.26 <
1289 2 -2 3 7 194.18 328.41 37.24 o
1290 2 -2 3 6 19.83 25.71 9.38 <
1291 2 -2 3 5 0.83 1.73 1.55 <
1292 2 -2 3 4 8.52 0.07 1.37 <
1293 2 -2 3 3 781.32 901.24 50.17 o
1294 2 -2 3 2 18.03 22.47 7.14 o
1295 2 -2 3 1 539.58 547.83 33.44 o
1296 2 -2 3 0 4.79 5.44 2.68 <
1297 2 -2 3 -1 464.63 536.36 27.68 o
1298 3 2 -3 2 55.85 68.08 8.02 o
1298 2 -2 3 -2 55.85 68.08 8.02 o
1299 2 2 3 6 6.41 8.08 3.70 <
1300 2 2 3 7 245.51 272.71 27.16 o
1301 2 2 3 8 2.83 3.13 3.20 <
1302 2 2 3 9 17.69 17.63 7.89 <
1303 2 2 3 10 3.51 14.46 8.10 <
1304 2 2 3 11 18.76 18.47 9.42 <
1305 2 2 3 12 0.33 -2.09 3.79 <
1306 2 2 3 13 8.59 4.43 4.07 <
1307 2 -2 4 12 0.23 -0.18 3.65 <
1308 3 -3 -4 10 10.41 10.74 9.06 <
1308 2 -2 4 11 10.41 10.74 9.06 <
1309 2 -2 4 10 1.38 -5.77 6.57 <
1310 2 -2 4 9 26.93 33.43 13.17 <
1311 2 -2 4 8 0.49 0.42 1.34 <
1312 2 -2 4 7 3.84 10.20 7.17 <
1313 2 -2 4 6 10.34 13.29 7.73 <
1314 2 -2 4 5 313.32 326.49 35.30 o
1315 2 -2 4 4 3.77 2.59 3.09 <
1316 2 -2 4 3 110.24 94.85 16.84 o
1317 2 -2 4 2 77.97 99.78 16.30 o
1318 2 -2 4 1 320.77 242.81 23.39 o
1319 2 -2 4 0 20.17 25.31 7.14 o
1320 2 -2 4 -1 303.79 272.00 22.21 o
1321 2 2 4 8 0.28 -3.32 3.94 <
1322 2 2 4 9 40.21 40.76 12.28 o
1323 2 2 4 10 0.31 16.41 8.68 <
1324 2 2 4 11 13.77 12.73 7.41 <
1325 2 2 4 12 0.10 -1.49 2.43 <
1326 2 -2 5 10 0.04 5.29 5.35 <
1327 2 -2 5 9 6.92 3.73 4.25 <
1328 2 -2 5 8 1.58 6.45 6.49 <
1329 2 -2 5 7 40.76 35.45 14.28 <
1330 2 -2 5 6 2.08 3.47 3.19 <
1331 2 -2 5 5 0.56 -1.25 2.89 <
1332 2 -2 5 4 8.96 0.01 2.45 <
1333 2 -2 5 3 141.88 118.98 20.28 o
1334 2 -2 5 2 15.80 3.29 3.50 <
1335 2 -2 5 1 105.16 79.42 15.02 o
1336 2 -2 5 0 1.61 1.60 2.07 <
1337 2 2 5 9 13.06 11.24 6.91 <
1338 2 2 5 10 0.06 1.47 3.10 <
1339 2 -2 6 8 0.60 -10.01 8.44 <
1340 2 -2 6 7 4.14 11.79 8.38 <
1341 2 -2 6 6 1.12 3.59 3.74 <
1342 2 -2 6 5 42.12 22.56 10.31 <
1343 2 -2 6 4 1.56 7.40 5.94 <
1344 2 -2 6 3 2.59 4.67 4.00 <
1345 2 -2 6 2 0.13 0.84 1.89 <
1346 2 -2 6 1 49.22 32.08 10.70 <
1347 2 -2 7 4 0.06 -7.39 7.16 <
1348 2 -2 7 3 16.93 4.60 4.76 <
1349 2 3 -6 -7 7.36 12.93 8.20 <
1350 2 3 -6 -6 2.96 4.98 5.05 <
1351 2 3 -6 -5 1.01 10.31 5.43 <
1352 2 3 -6 -4 3.36 6.33 3.81 <
1353 2 3 -6 -3 25.98 41.47 9.67 o
1354 2 3 -6 -2 16.17 22.60 7.08 o
1355 2 3 -5 -9 4.35 0.10 2.28 <
1356 2 3 -5 -8 1.95 8.56 8.66 <
1357 2 3 -5 -7 6.70 15.29 9.34 <
1358 2 3 -5 -6 10.50 11.21 7.70 <
1359 2 3 -5 -5 34.15 47.11 14.80 o
1360 2 3 -5 -4 22.82 14.53 7.50 <
1361 2 3 -5 -3 3.81 2.88 2.79 <
1362 2 3 -5 -2 5.08 -1.53 3.08 <
1363 2 3 -5 -1 40.79 56.73 9.69 o
1364 2 3 -5 0 36.89 26.93 6.58 o
1365 2 3 -4 -11 0.52 2.22 2.08 <
1366 3 2 4 -11 8.58 10.89 11.14 <
1366 2 3 -4 -10 8.58 10.89 11.14 <
1367 2 3 -4 -9 4.59 8.91 7.93 <
1368 2 3 -4 -8 13.43 12.66 8.00 <
1369 2 3 -4 -7 26.22 31.77 13.88 <
1370 2 3 -4 -6 1.75 2.58 3.67 <
1371 2 3 -4 -5 0.29 1.95 3.19 <
1372 2 3 -4 -4 9.40 2.55 3.98 <
1373 2 3 -4 -3 104.08 107.84 18.62 o
1374 2 3 -4 -2 100.18 152.64 21.22 o
1375 2 3 -4 -1 25.25 -12.04 7.33 <
1376 2 3 -4 0 3.79 -3.33 2.53 <
1377 2 3 -4 1 10.50 -2.18 2.51 <
1378 2 3 -3 -9 12.56 24.40 15.23 <
1379 2 3 -3 -8 4.68 11.17 9.07 <
1380 2 3 -3 -7 16.03 19.03 11.77 <
1381 2 3 -3 -6 28.75 23.22 12.72 <
1382 2 3 -3 -5 54.43 135.02 26.63 o
1383 2 3 -3 -4 50.09 57.85 15.38 o
1384 2 3 -3 -3 30.23 35.41 10.99 o
1385 2 3 -3 -2 11.64 -2.51 4.95 <
1386 2 3 -3 -1 196.62 168.99 19.58 o
1387 2 3 -3 0 45.23 41.63 9.29 o
1388 2 3 -3 1 149.18 149.99 13.27 o
1389 2 3 -3 2 10.28 4.10 1.67 <
1390 2 -3 -3 -11 8.06 55.67 10.39 o
1391 2 -3 -3 -12 1.05 3.32 2.69 <
1392 2 3 -2 -4 22.68 35.52 12.15 <
1393 2 3 -2 -3 317.44 375.37 36.98 o
1394 2 3 -2 -2 163.69 401.88 35.01 o
1395 2 3 -2 -1 206.75 256.50 24.05 o
1396 2 3 -2 0 97.17 85.99 13.31 o
1397 2 3 -2 1 289.78 228.97 17.83 o
1398 2 3 -2 2 156.87 222.43 14.07 o
1399 3 -3 2 -3 505.57 588.42 13.84 o
1399 2 3 -2 3 505.57 588.42 13.84 o
1400 2 -3 -2 -10 3.67 11.26 3.73 o
1401 2 -3 -2 -11 7.01 18.70 5.28 o
1402 2 -3 -2 -12 6.97 15.65 5.22 <
1403 2 -3 -2 -13 4.57 27.69 7.77 o
1404 2 -3 -1 -9 59.08 137.45 12.34 o
1405 2 -3 -1 -10 27.10 29.13 6.01 o
1406 2 -3 -1 -11 8.22 25.21 6.14 o
1407 2 -3 -1 -12 0.59 0.54 1.45 <
1408 2 -3 -1 -13 1.22 2.23 3.26 <
1409 2 3 0 5 1.42 3.64 1.52 <
1410 2 3 0 6 146.78 129.22 10.95 o
1411 2 3 0 7 220.73 144.21 13.38 o
1412 2 -3 0 -8 106.32 119.67 8.74 o
1413 2 3 0 8 106.32 46.16 8.09 o
1414 2 3 0 9 9.11 2.00 2.36 <
1415 2 -3 0 -9 9.11 3.94 1.86 <
1416 2 3 0 10 5.61 2.18 1.83 <
1417 2 -3 0 -10 5.61 -0.51 1.61 <
1418 2 -3 0 -11 10.28 17.56 5.66 o
1419 2 -3 0 -12 2.77 2.90 2.95 <
1420 2 -3 0 -13 4.65 10.31 5.71 <
1421 2 3 1 6 55.18 35.88 6.48 o
1422 2 3 1 7 32.35 34.34 7.20 o
1423 2 3 1 8 8.78 6.96 3.90 <
1424 2 -3 1 -8 8.78 6.13 2.12 <
1425 2 -3 1 -9 59.27 61.46 8.47 o
1426 2 3 1 9 59.27 52.77 11.26 o
1427 2 -3 1 -10 26.83 13.86 4.72 <
1428 2 3 1 10 26.83 6.57 3.89 <
1429 2 3 1 11 8.38 11.77 6.24 <
1430 2 -3 1 -11 8.38 14.37 5.04 <
1431 2 -3 1 -12 0.64 3.40 3.04 <
1432 2 3 1 12 0.64 -1.30 2.40 <
1433 2 3 1 13 1.15 0.74 1.57 <
1434 2 -3 1 -13 1.15 0.01 2.32 <
1435 2 3 2 7 63.93 85.93 12.59 o
1436 2 3 2 8 29.45 17.69 6.28 <
1437 2 -3 2 -8 29.45 4.53 2.33 <
1438 2 3 2 9 18.12 17.38 6.93 <
1439 2 -3 2 -9 18.12 7.97 3.51 <
1440 2 -3 2 -10 3.59 1.01 1.18 <
1441 2 3 2 10 3.59 2.84 2.97 <
1442 2 3 2 11 7.00 14.35 7.43 <
1443 2 -3 2 -11 7.00 9.24 4.95 <
1444 2 -3 2 -12 7.07 3.57 3.74 <
1445 2 3 2 12 7.07 5.60 4.88 <
1446 2 3 2 13 4.59 3.08 3.76 <
1447 2 -3 3 8 4.71 11.81 7.40 <
1448 2 -3 3 7 15.38 17.26 8.48 <
1449 2 -3 3 6 28.27 32.07 10.91 <
1450 2 -3 3 5 53.11 141.11 23.19 o
1451 2 -3 3 4 51.93 67.63 15.82 o
1452 2 -3 3 3 30.13 36.79 10.47 o
1453 2 -3 3 2 11.46 -2.08 3.86 <
1454 2 -3 3 1 194.72 198.70 22.65 o
1455 2 -3 3 0 44.57 39.08 9.63 o
1456 2 -3 3 -1 150.81 153.07 17.22 o
1457 2 -3 3 -2 10.81 2.14 2.30 <
1458 3 3 -3 3 72.15 101.86 11.22 o
1458 2 -3 3 -3 72.15 101.86 11.22 o
1459 2 -3 3 -4 52.64 49.78 6.85 o
1460 2 -3 3 -5 59.23 44.09 5.87 o
1461 2 3 3 8 4.16 5.92 4.10 <
1462 2 3 3 9 21.49 26.77 9.48 <
1463 2 3 3 10 6.10 6.03 5.04 <
1464 2 3 3 11 7.78 20.03 9.08 <
1465 2 3 3 12 1.06 1.76 3.15 <
1466 2 -3 4 11 0.51 5.13 4.84 <
1467 3 -2 -4 11 8.54 10.34 7.20 <
1467 2 -3 4 10 8.54 10.34 7.20 <
1468 2 -3 4 9 4.64 5.93 6.10 <
1469 2 -3 4 8 13.25 13.78 8.42 <
1470 2 -3 4 7 26.43 34.14 12.73 <
1471 2 -3 4 6 1.83 -4.15 4.62 <
1472 2 -3 4 5 0.33 2.06 3.75 <
1473 2 -3 4 4 9.78 3.97 4.23 <
1474 2 -3 4 3 104.72 89.58 17.01 o
1475 2 -3 4 2 100.80 141.82 21.68 o
1476 2 -3 4 1 23.49 -1.64 4.71 <
1477 2 -3 4 0 3.65 -2.60 3.17 <
1478 2 -3 4 -1 11.76 3.46 2.82 <
1479 2 -3 4 -2 72.07 87.32 13.38 o
1480 3 3 -4 3 210.58 336.50 23.26 o
1480 2 -3 4 -3 210.58 336.50 23.26 o
1481 2 -3 4 -4 14.40 3.98 2.39 <
1482 2 3 4 10 1.58 1.54 1.64 <
1483 2 3 4 11 0.97 -2.35 2.62 <
1484 2 -3 5 9 4.29 7.29 5.84 <
1485 2 -3 5 8 1.90 3.86 4.84 <
1486 2 -3 5 7 6.97 2.52 4.02 <
1487 2 -3 5 6 10.50 12.68 8.73 <
1488 2 -3 5 5 34.41 20.19 8.57 <
1489 2 -3 5 4 22.44 5.59 5.27 <
1490 2 -3 5 3 3.77 1.08 1.71 <
1491 2 -3 5 2 5.31 -1.99 3.72 <
1492 2 -3 5 1 41.76 39.64 11.49 o
1493 2 -3 5 0 36.78 13.83 6.78 <
1494 2 -3 5 -1 57.43 48.06 11.31 o
1495 2 -3 5 -2 3.63 -0.27 1.73 <
1496 3 3 -5 3 12.78 14.16 5.13 <
1496 2 -3 5 -3 12.78 14.16 5.13 <
1497 2 -3 6 7 7.29 7.21 6.38 <
1498 2 -3 6 6 2.90 1.56 3.66 <
1499 2 -3 6 5 1.02 2.89 4.06 <
1500 2 -3 6 4 3.30 5.08 5.08 <
1501 2 -3 6 3 26.27 17.43 8.74 <
1502 2 -3 6 2 15.78 10.99 6.99 <
1503 2 -3 6 1 18.78 20.22 9.31 <
1504 2 -3 6 0 6.02 3.16 4.12 <
1505 2 -3 6 -1 16.71 19.66 8.37 <
1506 2 -3 6 -2 26.13 14.24 7.24 <
1507 2 -3 7 1 12.95 11.76 8.50 <
1508 2 -3 7 0 12.29 3.98 3.54 <
1509 2 4 -6 -4 11.55 22.32 9.38 <
1510 2 4 -6 -3 0.06 2.26 2.63 <
1511 2 4 -6 -2 2.83 5.28 3.66 <
1512 2 4 -6 -1 5.98 13.88 5.51 <
1513 2 4 -6 0 44.62 125.99 15.60 o
1514 2 4 -5 -8 7.25 5.97 6.10 <
1515 2 4 -5 -7 3.05 -0.79 4.52 <
1516 2 4 -5 -6 10.82 11.63 7.67 <
1517 2 4 -5 -5 0.46 2.74 6.19 <
1518 2 4 -5 -4 7.90 42.22 14.38 <
1519 2 4 -5 -3 3.76 3.92 2.67 <
1520 2 4 -5 -2 24.94 29.12 8.97 o
1521 2 4 -5 -1 1.85 -2.33 2.41 <
1522 2 4 -5 0 4.95 -2.52 3.43 <
1523 2 4 -5 1 7.98 -1.61 2.07 <
1524 2 4 -4 -10 4.42 37.58 22.68 <
1525 3 1 4 -12 9.06 -2.12 7.55 <
1525 2 4 -4 -9 9.06 -2.12 7.55 <
1526 2 4 -4 -8 4.79 10.56 9.63 <
1527 2 4 -4 -7 0.71 5.42 7.59 <
1528 2 4 -4 -6 17.33 29.12 12.34 <
1529 2 4 -4 -5 9.65 4.37 5.04 <
1530 2 4 -4 -4 14.23 19.40 10.58 <
1531 2 4 -4 -3 6.79 4.17 3.90 <
1532 2 4 -4 -2 2.10 -0.17 2.98 <
1533 2 4 -4 -1 14.21 8.63 5.45 <
1534 2 4 -4 0 48.93 41.24 8.88 o
1535 2 4 -4 1 4.71 5.38 2.82 <
1536 2 4 -4 2 5.32 1.49 1.32 <
1537 2 4 -3 -6 3.22 6.10 7.05 <
1538 2 4 -3 -5 7.12 1.85 3.19 <
1539 2 4 -3 -4 39.45 110.80 25.26 o
1540 2 4 -3 -3 26.96 9.45 6.73 <
1541 2 4 -3 -2 133.65 119.37 21.43 o
1542 2 4 -3 -1 14.05 -7.75 6.31 <
1543 2 4 -3 1 10.09 1.16 2.05 <
1544 2 4 -3 2 111.71 128.87 12.94 o
1545 2 4 -3 3 4.70 15.68 3.13 o
1546 2 4 -2 -1 36.76 58.74 14.04 o
1547 2 4 -2 0 590.09 607.33 38.96 o
1548 2 4 -2 1 27.76 14.48 4.19 o
1549 2 4 -2 2 61.40 32.99 7.55 o
1550 2 4 -2 3 0.77 5.10 2.54 <
1551 2 4 0 6 149.72 80.05 6.75 o
1552 2 4 0 7 8.44 9.63 3.19 o
1553 2 4 0 8 21.61 7.75 3.36 <
1554 2 4 0 9 1.03 2.44 2.29 <
1555 2 4 0 10 53.34 16.74 6.57 <
1556 2 4 0 11 0.66 -3.51 2.90 <
1557 2 -4 0 -12 0.61 12.98 3.43 o
1558 2 4 1 7 3.08 14.24 3.88 o
1559 2 4 1 8 46.69 48.25 8.89 o
1560 2 4 1 9 0.41 -0.98 1.62 <
1561 2 4 1 10 1.46 5.87 4.04 <
1562 2 4 1 11 0.75 -1.12 1.14 <
1563 2 -4 1 -11 0.75 2.52 1.28 <
1564 2 -4 1 -12 10.83 52.70 6.86 o
1565 2 4 1 12 10.83 11.00 5.84 <
1566 2 4 2 9 1.52 3.55 3.33 <
1567 2 4 2 10 17.17 15.25 6.71 <
1568 2 4 2 11 0.56 1.48 1.29 <
1569 2 -4 2 -11 0.56 0.90 0.61 <
1570 2 -4 2 -12 1.53 1.48 0.88 <
1571 2 4 2 12 1.53 0.36 3.06 <
1572 2 -4 3 1 13.59 -0.54 3.38 <
1573 2 -4 3 0 1.77 -13.38 7.29 <
1574 2 -4 3 -1 10.70 -4.79 6.01 <
1575 2 -4 3 -2 110.60 121.32 17.39 o
1576 2 -4 3 -3 5.18 11.15 4.54 <
1577 2 4 3 10 1.20 -0.35 2.18 <
1578 2 4 3 11 0.47 -2.20 2.93 <
1579 2 -4 3 -11 0.47 -0.05 0.26 <
1580 2 -4 4 8 4.80 16.71 9.89 <
1581 2 -4 4 7 0.76 1.33 4.51 <
1582 2 -4 4 6 17.15 51.28 17.92 <
1583 2 -4 4 5 9.54 4.32 4.50 <
1584 2 -4 4 4 14.22 23.87 10.23 <
1585 2 -4 4 3 6.65 1.58 0.98 <
1586 2 -4 4 2 2.35 1.01 1.36 <
1587 2 -4 4 1 14.16 4.84 4.84 <
1588 2 -4 4 0 48.59 36.09 10.38 o
1589 2 -4 4 -1 4.94 3.18 3.02 <
1590 2 -4 4 -2 4.68 -0.25 1.37 <
1591 2 -4 4 -3 2.20 3.03 2.65 <
1592 2 -4 4 -4 41.54 56.09 9.69 o
1593 2 -4 4 -5 8.90 5.17 2.95 <
1594 2 -4 4 -6 39.03 33.97 6.73 o
1595 2 -4 4 -7 1.37 -1.77 2.18 <
1596 2 -4 4 -8 6.18 8.70 2.76 o
1597 2 -4 5 8 7.24 15.17 10.01 <
1598 2 -4 5 7 3.08 4.15 2.36 <
1599 2 -4 5 6 10.88 17.94 9.75 <
1600 2 -4 5 5 0.43 1.48 1.15 <
1601 2 -4 5 4 7.57 18.84 9.11 <
1602 2 -4 5 3 3.93 4.25 4.30 <
1603 2 -4 5 2 24.57 28.81 11.00 <
1604 2 -4 5 1 1.77 -1.57 4.30 <
1605 2 -4 5 0 4.88 -1.78 4.66 <
1606 2 -4 5 -1 7.78 -3.24 4.01 <
1607 2 -4 5 -2 38.60 25.99 8.76 <
1608 2 -4 5 -3 15.76 9.17 4.95 <
1609 2 -4 5 -4 13.21 42.56 9.40 o
1610 2 -4 5 -5 1.39 2.27 2.72 <
1611 2 -4 5 -6 16.81 30.57 7.34 o
1612 2 -4 5 -7 3.16 3.32 2.76 <
1613 2 -4 6 4 11.72 12.25 8.00 <
1614 2 -4 6 3 0.09 2.28 3.22 <
1615 2 -4 6 2 2.75 1.23 2.11 <
1616 2 -4 6 1 5.98 18.88 9.56 <
1617 2 -4 6 0 44.67 51.50 14.22 o
1618 2 -4 6 -1 5.47 0.20 2.15 <
1619 2 -4 6 -2 5.14 4.34 4.88 <
1620 2 -4 6 -3 1.02 0.88 0.85 <
1621 2 -4 6 -4 12.51 46.64 11.29 o
1622 2 5 -5 -5 2.98 4.60 6.61 <
1623 2 5 -5 -4 9.21 11.71 7.26 <
1624 2 5 -5 -3 0.46 2.01 3.49 <
1625 2 5 -5 -2 4.30 10.30 5.76 <
1626 2 5 -5 -1 5.24 13.72 6.66 <
1627 2 5 -5 0 29.43 65.30 11.35 o
1628 2 5 -5 1 9.32 9.90 3.81 <
1629 2 5 -5 2 4.29 8.91 3.13 <
1630 2 5 -4 -7 2.61 9.07 9.91 <
1631 4 -5 -4 -6 14.60 14.83 11.13 <
1631 2 5 -4 -6 14.60 14.83 11.13 <
1632 2 5 -4 -5 0.24 9.58 8.91 <
1633 2 5 -4 -4 5.51 6.96 7.02 <
1634 2 5 -4 -3 11.66 16.33 8.48 <
1635 2 5 -4 -2 38.71 67.63 15.74 o
1636 2 5 -4 -1 5.66 3.83 3.82 <
1637 2 5 -4 0 0.76 2.06 1.57 <
1638 2 5 -4 1 3.52 1.32 0.47 <
1639 2 5 -4 2 48.00 61.00 8.97 o
1640 2 5 -4 3 17.79 20.52 3.97 o
1641 2 5 -3 -3 15.37 14.55 8.57 <
1642 2 5 -3 -2 6.91 6.38 4.89 <
1643 2 5 -3 -1 15.77 12.36 6.65 <
1644 2 5 -3 0 81.65 73.87 14.10 o
1645 2 5 -3 1 10.00 8.86 4.64 <
1646 2 5 -3 2 11.71 6.28 3.79 <
1647 2 5 -3 3 8.34 14.05 4.28 o
1648 2 5 -3 4 30.21 47.98 5.22 o
1649 2 5 -2 2 59.61 36.15 9.80 o
1650 2 5 -2 3 15.35 2.74 1.95 <
1651 2 5 -2 4 13.32 6.54 2.84 <
1652 2 5 0 7 1.94 0.16 0.36 <
1653 2 5 0 8 7.01 4.79 2.74 <
1654 2 5 0 9 0.56 -0.46 0.89 <
1655 2 5 0 10 0.01 -2.89 2.82 <
1656 2 5 0 11 0.21 -0.65 0.69 <
1657 2 5 1 9 2.59 4.58 3.03 <
1658 2 5 1 10 6.30 4.78 3.22 <
1659 2 5 2 10 1.04 8.15 4.54 <
1660 2 -5 5 5 3.05 8.35 7.89 <
1661 2 -5 5 4 9.33 7.21 5.04 <
1662 2 -5 5 3 0.51 0.54 1.67 <
1663 2 -5 5 2 4.27 1.29 1.66 <
1664 2 -5 5 1 5.15 8.61 6.53 <
1665 2 -5 5 0 29.25 52.03 14.08 o
1666 2 -5 5 -1 9.45 8.78 5.80 <
1667 2 -5 5 -2 4.33 8.41 5.37 <
1668 2 -5 5 -3 1.42 2.93 2.62 <
1669 2 -5 5 -4 13.95 20.73 7.59 <
1670 2 -5 5 -5 5.14 4.03 3.21 <
1671 2 6 -4 -3 1.51 -0.60 2.35 <
1672 2 6 -4 -2 0.26 3.45 4.76 <
1673 2 6 -4 -1 10.75 12.55 6.03 <
1674 2 6 -4 0 4.61 5.87 3.59 <
1675 2 6 -4 1 14.70 13.88 8.83 <
1676 2 6 -4 2 1.04 2.72 2.21 <
1677 2 6 -4 3 2.56 -0.01 1.10 <
1678 2 6 -3 0 0.32 -3.32 3.68 <
1679 2 6 -3 1 10.10 10.80 5.87 <
1680 2 6 -3 2 3.98 1.29 1.91 <
1681 2 6 -3 3 17.67 9.79 3.81 <
1682 2 6 -3 4 2.10 0.06 1.16 <
1683 2 6 -2 4 1.59 -0.31 0.81 <
1684 2 6 -2 5 21.11 10.07 2.96 o
1685 3 0 -7 5 0.30 0.46 2.36 <
1686 3 0 -7 6 15.50 34.09 11.36 o
1687 3 0 -6 4 49.55 68.51 13.43 o
1688 3 0 -6 5 0.00 -0.69 2.43 <
1689 3 0 -6 6 27.48 19.11 7.75 <
1690 3 0 -6 7 0.23 0.66 2.13 <
1691 3 0 -6 8 4.07 2.05 2.42 <
1692 3 0 -6 9 0.04 -2.44 4.02 <
1693 3 0 -5 3 10.39 21.85 5.96 o
1694 3 0 -5 4 80.58 82.90 12.31 o
1695 3 0 -5 5 1.87 0.43 2.75 <
1696 3 0 -5 6 11.78 4.42 3.36 <
1697 3 0 -5 7 0.67 -0.93 1.95 <
1698 3 0 -5 8 12.01 17.69 9.08 <
1699 3 0 -5 9 0.31 0.68 0.23 <
1700 3 0 -5 10 0.13 -0.52 0.76 <
1701 3 0 -5 11 0.11 -1.68 5.74 <
1702 3 0 -4 3 3.14 4.17 3.36 <
1703 3 0 -4 4 121.56 101.56 12.70 o
1704 3 0 -4 5 4.34 -2.86 2.67 <
1705 3 0 -4 6 64.56 27.75 9.09 o
1706 3 0 -4 7 0.41 3.35 3.57 <
1707 3 0 -4 8 1.38 2.16 3.33 <
1708 3 0 -4 9 0.92 -0.17 1.41 <
1709 3 0 -4 10 14.02 5.59 3.84 <
1710 3 0 -4 11 0.36 -0.23 1.50 <
1711 3 0 -3 2 167.96 123.85 10.62 o
1712 3 0 -3 3 173.45 159.53 14.11 o
1713 3 0 -3 4 174.66 197.43 18.23 o
1714 3 0 -3 5 2.38 -8.16 4.15 <
1715 3 0 -3 6 95.50 98.27 16.56 o
1716 3 0 -3 7 5.76 1.88 2.10 <
1717 3 0 -3 8 50.90 107.22 21.95 o
1718 3 0 -3 9 2.76 3.30 3.57 <
1719 3 0 -2 1 174.98 209.30 10.77 o
1720 3 0 -2 2 76.18 97.79 8.29 o
1721 3 0 -2 3 25.52 30.81 6.83 o
1722 3 0 -2 4 685.34 722.66 35.49 o
1723 3 0 -2 5 105.86 127.47 17.26 o
1724 3 0 -2 6 392.66 705.95 46.15 o
1725 3 0 -1 1 17.26 14.89 2.18 o
1726 3 0 -1 2 2643.73 3275.03 49.87 o
1727 3 0 -1 3 191.83 215.22 17.16 o
1728 3 0 1 -1 17.31 17.02 2.38 o
1729 3 0 1 -2 2645.73 3256.15 48.76 o
1730 3 0 1 -3 191.28 224.76 16.52 o
1731 3 0 1 -4 758.41 1192.71 47.12 o
1732 3 0 2 -1 175.13 205.40 9.48 o
1733 3 0 2 -2 73.91 106.08 8.07 o
1734 3 0 2 -3 25.60 35.43 6.67 o
1735 3 0 2 -4 684.70 709.24 33.23 o
1736 3 0 2 -5 105.28 129.92 17.19 o
1737 3 0 2 -6 391.60 652.81 42.39 o
1738 3 0 2 -7 1.64 2.62 4.24 <
1739 3 0 3 -2 166.50 114.23 9.03 o
1740 3 0 3 -3 173.91 154.91 11.53 o
1741 3 0 3 -4 173.63 204.15 16.06 o
1742 3 0 3 -5 2.40 -5.93 3.27 <
1743 3 0 3 -6 95.01 108.14 15.08 o
1744 3 0 3 -7 5.64 3.48 2.82 <
1745 3 0 3 -8 50.28 83.50 17.11 o
1746 3 0 3 -9 2.83 -1.67 2.51 <
1747 3 0 3 -10 1.63 0.23 1.96 <
1748 3 0 4 -3 3.10 2.85 2.51 <
1749 3 0 4 -4 120.68 115.94 11.77 o
1750 3 0 4 -5 4.43 -2.33 1.78 <
1751 3 0 4 -6 64.52 59.68 10.54 o
1752 3 0 4 -7 0.42 0.17 0.80 <
1753 3 0 4 -8 1.48 2.38 2.54 <
1754 3 0 4 -9 0.90 0.95 1.31 <
1755 3 0 4 -10 13.85 20.08 8.33 <
1756 3 0 4 -11 0.36 -2.33 3.56 <
1757 3 0 4 -12 7.89 4.90 5.47 <
1757 1 5 4 6 7.89 4.90 5.47 <
1758 3 0 5 -4 81.14 99.55 11.21 o
1759 3 0 5 -5 1.88 -0.15 1.64 <
1760 3 0 5 -6 12.02 7.48 3.58 <
1761 3 0 5 -7 0.67 -0.18 1.23 <
1762 3 0 5 -8 11.95 27.08 8.83 o
1763 3 0 5 -9 0.30 -0.26 1.07 <
1764 3 0 5 -10 0.14 -2.91 4.35 <
1765 3 0 5 -11 0.11 -0.92 2.28 <
1766 3 0 6 -5 0.00 0.31 0.45 <
1767 3 0 6 -6 27.53 39.41 8.52 o
1768 3 0 6 -7 0.23 8.73 4.46 <
1769 3 0 6 -8 4.07 9.17 4.84 <
1770 3 0 6 -9 0.05 0.21 1.57 <
1771 3 -1 -7 6 6.51 6.94 5.44 <
1772 3 -1 -7 5 7.21 7.31 4.86 <
1773 3 1 -7 5 11.65 6.06 4.28 <
1774 3 1 -7 6 6.14 5.58 4.65 <
1775 3 -1 -6 9 1.46 1.72 3.53 <
1776 3 -1 -6 8 13.30 7.16 6.37 <
1777 3 -1 -6 7 7.46 7.35 6.03 <
1778 3 -1 -6 6 9.29 5.27 4.04 <
1779 3 -1 -6 5 0.23 1.36 1.69 <
1780 3 -1 -6 4 16.03 8.62 5.28 <
1781 3 1 -6 4 12.00 11.53 5.10 <
1782 3 1 -6 5 0.32 1.28 2.30 <
1783 3 1 -6 6 9.44 7.83 4.75 <
1784 3 1 -6 7 11.28 9.82 6.42 <
1785 3 1 -6 8 9.77 11.07 6.68 <
1786 3 1 -6 9 1.74 7.19 6.56 <
1787 3 -1 -5 11 2.59 1.65 3.86 <
1788 3 -1 -5 10 11.75 8.79 7.40 <
1789 3 -1 -5 9 4.61 12.84 8.42 <
1790 3 -1 -5 8 2.84 1.79 2.73 <
1791 3 -1 -5 7 4.65 6.26 5.19 <
1792 3 -1 -5 6 26.31 9.06 5.90 <
1793 3 -1 -5 5 26.82 25.49 7.66 o
1794 3 -1 -5 4 72.32 95.26 14.93 o
1795 3 -1 -5 3 27.88 62.82 10.77 o
1796 3 1 -5 3 29.58 103.68 13.47 o
1797 3 1 -5 4 90.38 108.86 13.70 o
1798 3 1 -5 5 34.48 32.70 7.83 o
1799 3 1 -5 6 19.24 10.00 5.26 <
1800 3 1 -5 7 2.33 5.04 3.88 <
1801 3 1 -5 8 3.98 5.95 5.56 <
1802 3 1 -5 9 10.68 17.79 9.41 <
1803 3 1 -5 10 8.99 14.25 9.35 <
1804 3 1 -5 11 3.42 19.19 11.03 <
1805 3 -1 -4 12 9.26 12.09 9.78 <
1805 2 -4 4 9 9.26 12.09 9.78 <
1806 3 -1 -4 11 1.64 2.15 3.69 <
1807 3 -1 -4 10 1.10 5.66 6.80 <
1808 3 -1 -4 9 2.99 0.59 3.24 <
1809 3 -1 -4 8 21.13 13.59 7.48 <
1810 3 -1 -4 7 15.21 19.36 8.50 <
1811 3 -1 -4 6 21.29 -4.86 5.82 <
1812 3 -1 -4 5 1.75 3.30 2.84 <
1813 3 -1 -4 4 78.41 33.76 7.58 o
1814 3 -1 -4 3 177.84 219.30 18.54 o
1815 3 -1 -4 2 280.76 234.46 17.58 o
1816 3 1 -4 3 181.16 314.82 20.63 o
1817 3 1 -4 4 43.85 49.81 8.19 o
1818 3 1 -4 5 2.80 4.16 2.59 <
1819 3 1 -4 6 30.76 9.65 3.93 <
1820 3 1 -4 7 36.14 21.59 8.36 <
1821 3 1 -4 8 29.80 21.43 9.38 <
1822 3 1 -4 9 5.08 18.90 9.64 <
1823 3 1 -4 10 2.53 1.36 2.72 <
1824 3 -1 -3 10 23.13 17.15 10.54 <
1825 3 -1 -3 9 23.76 24.49 12.02 <
1826 3 -1 -3 8 4.73 4.29 4.61 <
1827 3 -1 -3 7 16.23 18.40 8.27 <
1828 3 -1 -3 6 70.29 108.50 19.35 o
1829 3 -1 -3 5 150.47 174.98 20.41 o
1830 3 -1 -3 4 425.88 454.09 30.39 o
1831 3 -1 -3 3 94.11 83.91 10.74 o
1832 3 -1 -3 2 179.40 192.76 14.72 o
1833 3 1 -3 2 185.17 223.81 13.43 o
1834 3 1 -3 3 151.69 129.52 11.83 o
1835 3 1 -3 4 441.28 488.13 27.36 o
1836 3 1 -3 5 256.59 217.49 21.76 o
1837 3 1 -3 6 88.63 84.93 14.66 o
1838 3 1 -3 7 27.97 20.68 8.33 <
1839 3 1 -3 8 3.73 11.72 7.93 <
1840 3 -1 -2 7 129.64 107.97 20.63 o
1841 3 -1 -2 6 124.42 109.02 20.29 o
1842 3 -1 -2 5 41.34 53.69 11.33 o
1843 3 -1 -2 4 163.39 211.07 20.34 o
1844 3 -1 -2 3 953.66 891.72 34.95 o
1845 3 -1 -2 2 682.41 645.82 26.36 o
1846 3 -1 -2 1 120.03 89.73 7.73 o
1847 3 1 -2 2 677.24 701.50 19.78 o
1848 3 1 -2 3 1239.71 1581.58 38.46 o
1849 3 1 -2 4 222.17 244.09 18.93 o
1850 3 1 -2 5 74.30 75.84 12.98 o
1851 3 -1 -1 4 730.02 685.79 42.54 o
1852 3 -1 -1 3 282.69 296.73 22.45 o
1853 3 -1 -1 2 100.45 91.68 9.45 o
1854 3 -1 -1 1 717.27 559.79 16.87 o
1855 3 1 -1 2 110.19 136.40 9.27 o
1856 3 1 1 -5 252.86 222.62 25.59 o
1857 3 1 1 -4 704.85 731.12 37.88 o
1858 3 1 1 -3 276.48 299.42 19.87 o
1859 3 1 1 -2 104.10 93.91 9.02 o
1860 3 1 1 -1 711.06 558.72 16.01 o
1861 3 -1 1 -2 107.21 136.90 8.31 o
1862 3 -1 1 -3 396.60 953.05 33.85 o
1863 3 1 2 -8 170.17 143.68 24.02 o
1864 3 1 2 -7 130.32 125.70 21.21 o
1865 3 1 2 -6 120.03 86.26 14.98 o
1866 3 1 2 -5 41.11 54.34 10.43 o
1867 3 1 2 -4 170.99 189.52 17.48 o
1868 3 1 2 -3 959.07 878.68 31.55 o
1869 3 1 2 -2 692.11 632.44 23.02 o
1870 3 1 2 -1 112.33 99.80 7.43 o
1871 3 -1 2 -2 672.21 689.99 17.81 o
1872 3 -1 2 -3 1233.98 1554.20 36.73 o
1873 3 -1 2 -4 214.85 247.93 18.14 o
1874 3 -1 2 -5 74.68 59.37 11.44 o
1875 3 -1 2 -6 81.97 122.06 18.13 o
1876 3 -1 2 -7 137.19 162.73 21.80 o
1877 3 1 3 -10 23.38 19.59 9.06 <
1878 3 1 3 -9 24.10 34.85 11.57 o
1879 3 1 3 -8 4.61 5.67 4.11 <
1880 3 1 3 -7 16.13 23.75 8.17 <
1881 3 1 3 -6 70.80 85.30 13.92 o
1882 3 1 3 -5 152.24 189.93 18.77 o
1883 3 1 3 -4 427.76 448.02 25.65 o
1884 3 1 3 -3 92.45 82.52 9.05 o
1885 3 1 3 -2 181.91 194.52 13.05 o
1886 3 -1 3 -3 154.28 108.39 9.10 o
1887 3 -1 3 -4 440.64 505.87 23.50 o
1888 3 -1 3 -5 253.51 246.25 19.76 o
1889 3 -1 3 -6 88.91 103.95 14.09 o
1890 3 -1 3 -7 28.21 22.15 7.53 <
1891 3 -1 3 -8 3.68 5.93 4.41 <
1892 3 -1 3 -9 37.74 81.02 17.11 o
1893 3 -1 3 -10 19.47 21.38 9.93 <
1894 3 1 4 -12 9.18 21.17 11.02 <
1894 2 4 -4 -9 9.18 21.17 11.02 <
1895 3 1 4 -11 1.68 4.89 3.40 <
1896 3 1 4 -10 1.09 6.16 4.63 <
1897 3 1 4 -9 2.95 2.79 2.33 <
1898 3 1 4 -8 20.97 19.29 7.25 <
1899 3 1 4 -7 15.70 31.01 9.31 o
1900 3 1 4 -6 21.74 2.01 3.64 <
1901 3 1 4 -5 1.78 4.63 2.43 <
1902 3 1 4 -4 77.44 40.17 6.82 o
1903 3 1 4 -3 177.35 225.25 16.31 o
1904 3 -1 4 -4 43.94 53.04 7.16 o
1905 3 -1 4 -5 2.67 5.49 2.39 <
1906 3 -1 4 -6 29.84 14.96 3.58 o
1907 3 -1 4 -7 36.18 35.54 8.61 o
1908 3 -1 4 -8 30.09 26.48 8.12 o
1909 3 -1 4 -9 5.06 10.80 5.93 <
1910 3 -1 4 -10 2.48 3.16 4.30 <
1911 3 -1 4 -11 4.39 6.91 5.38 <
1912 3 -1 4 -12 9.01 18.27 9.20 <
1913 3 1 5 -11 2.49 8.61 5.58 <
1914 3 1 5 -10 11.53 25.18 9.61 <
1915 3 1 5 -9 4.62 19.08 7.78 <
1916 3 1 5 -8 2.84 4.29 2.95 <
1917 3 1 5 -7 4.59 11.52 5.38 <
1918 3 1 5 -6 25.92 14.93 5.48 <
1919 3 1 5 -5 26.41 40.62 8.09 o
1920 3 1 5 -4 72.69 100.23 12.26 o
1921 3 -1 5 -5 35.48 45.69 7.68 o
1922 3 -1 5 -6 19.08 16.11 4.77 o
1923 3 -1 5 -7 2.41 9.41 4.36 <
1924 3 -1 5 -8 3.97 8.91 4.38 <
1925 3 -1 5 -9 10.85 33.41 9.62 o
1926 3 -1 5 -10 9.07 28.44 9.64 <
1927 3 -1 5 -11 3.54 12.08 7.08 <
1928 3 1 6 -9 1.46 2.32 2.56 <
1929 3 1 6 -8 13.25 26.75 8.16 o
1930 3 1 6 -7 7.34 22.25 7.21 o
1931 3 1 6 -6 9.28 10.62 4.55 <
1932 3 1 6 -5 0.23 1.36 1.64 <
1933 3 -1 6 -6 9.35 15.59 4.95 o
1934 3 -1 6 -7 11.53 19.63 5.59 o
1935 3 -1 6 -8 9.74 35.17 8.67 o
1936 3 -1 6 -9 1.80 16.03 6.93 <
1937 3 1 7 -6 6.53 12.36 5.13 <
1938 4 3 7 -2 2.48 1.80 2.77 <
1938 3 -2 -7 5 2.48 1.80 2.77 <
1939 3 -2 -6 8 0.48 -3.15 3.45 <
1940 3 -2 -6 7 3.17 4.32 4.04 <
1941 3 -2 -6 6 0.87 -0.51 1.67 <
1942 4 3 6 -2 45.82 36.96 10.59 o
1942 3 -2 -6 5 45.82 36.96 10.59 o
1943 3 -2 -6 4 1.23 -1.03 2.60 <
1944 3 2 -6 4 3.11 4.30 3.13 <
1945 3 2 -6 5 44.84 63.05 11.84 o
1946 3 2 -6 6 1.37 1.59 1.23 <
1947 3 2 -6 7 8.60 5.75 3.61 <
1948 3 2 -6 8 0.31 1.99 1.37 <
1949 3 -2 -5 10 0.03 -3.89 5.13 <
1950 3 -2 -5 9 5.36 3.50 4.89 <
1951 3 -2 -5 8 1.26 2.04 4.40 <
1952 3 -2 -5 7 32.54 30.04 11.16 <
1953 3 -2 -5 6 1.66 5.78 4.50 <
1954 4 3 5 -2 4.61 0.81 1.91 <
1954 3 -2 -5 5 4.61 0.81 1.91 <
1955 3 -2 -5 4 7.07 1.56 2.59 <
1956 3 -2 -5 3 113.85 127.74 16.58 o
1957 3 2 -5 3 132.16 196.90 17.86 o
1958 3 2 -5 4 3.23 4.49 3.11 <
1959 3 2 -5 5 6.53 1.92 2.16 <
1960 3 2 -5 6 2.23 8.12 4.46 <
1961 3 2 -5 7 49.76 39.14 10.71 o
1962 3 2 -5 8 0.76 4.43 4.38 <
1963 3 2 -5 9 10.74 4.15 4.33 <
1964 3 2 -5 10 0.05 2.90 4.15 <
1965 3 -2 -4 12 0.19 1.64 5.50 <
1966 3 -2 -4 11 8.58 8.00 6.74 <
1966 2 -3 4 10 8.58 8.00 6.74 <
1967 3 -2 -4 10 1.15 -3.77 5.32 <
1968 3 -2 -4 9 21.55 22.90 11.66 <
1969 3 -2 -4 8 0.40 1.41 2.04 <
1970 3 -2 -4 7 3.40 3.60 4.20 <
1971 3 -2 -4 6 8.55 8.44 5.79 <
1972 4 3 4 -2 331.81 280.93 29.90 o
1972 3 -2 -4 5 331.81 280.93 29.90 o
1973 3 -2 -4 4 2.84 -0.11 1.51 <
1974 3 -2 -4 3 89.16 95.23 12.80 o
1975 3 -2 -4 2 62.41 92.77 11.74 o
1976 3 2 -4 3 72.64 129.88 12.07 o
1977 3 2 -4 4 5.29 1.08 0.78 <
1978 3 2 -4 5 294.88 330.62 24.10 o
1979 3 2 -4 6 2.53 12.59 11.26 <
1980 3 2 -4 7 8.92 8.22 4.48 <
1981 3 2 -4 8 0.24 -1.84 2.90 <
1982 3 2 -4 9 32.39 46.88 13.42 o
1983 3 -2 -3 10 1.02 -1.70 0.70 <
1984 3 -2 -3 9 13.81 8.58 7.64 <
1985 3 -2 -3 8 5.87 -1.73 3.25 <
1986 3 -2 -3 7 157.27 165.57 25.91 o
1987 3 -2 -3 6 15.71 14.48 7.48 <
1988 4 3 3 -2 9.57 4.73 4.03 <
1988 3 -2 -3 5 9.57 4.73 4.03 <
1989 3 -2 -3 4 7.26 1.22 1.57 <
1990 3 -2 -3 3 630.66 577.07 30.23 o
1991 3 -2 -3 2 13.93 18.03 4.75 o
1992 3 -2 -3 1 438.64 301.97 16.83 o
1993 3 2 -3 2 55.85 49.10 5.79 o
1993 2 -2 3 -2 55.85 49.10 5.79 o
1994 3 2 -3 3 642.35 661.65 23.45 o
1995 3 2 -3 4 1.43 -3.65 2.62 <
1996 3 2 -3 5 3.12 1.97 2.10 <
1997 3 2 -3 6 5.14 17.37 6.86 <
1998 3 2 -3 7 196.44 378.89 34.02 o
1999 3 -2 -2 8 2.54 1.74 2.91 <
2000 3 -2 -2 7 7.19 -1.08 2.99 <
2001 3 -2 -2 6 12.48 33.87 12.14 <
2002 4 3 2 -2 564.62 501.17 39.69 o
2002 3 -2 -2 5 564.62 501.17 39.69 o
2003 3 -2 -2 4 43.67 25.41 7.67 o
2004 3 -2 -2 3 43.96 48.48 9.35 o
2005 3 -2 -2 2 63.23 72.49 9.26 o
2006 3 -2 -2 1 634.60 525.39 21.71 o
2007 3 2 -2 2 184.31 151.63 8.48 o
2007 2 -2 2 -2 184.31 151.63 8.48 o
2008 3 2 -2 3 50.90 60.51 7.50 o
2009 3 2 -2 4 34.34 62.78 9.74 o
2010 4 3 1 -2 162.00 51.26 13.66 o
2010 3 -2 -1 5 162.00 51.26 13.66 o
2011 3 -2 -1 4 11.14 4.29 3.19 <
2012 3 -2 -1 3 80.08 82.30 13.65 o
2013 3 -2 -1 2 141.46 141.78 13.60 o
2014 3 -2 -1 1 1478.03 1298.53 30.86 o
2015 3 -2 -1 0 4.94 2.03 0.82 <
2016 3 2 0 -2 2.11 0.62 1.20 <
2017 3 -2 0 1 263.52 262.17 16.89 o
2018 3 2 0 -1 263.52 238.57 12.80 o
2019 4 -3 -1 2 162.51 41.53 10.39 o
2019 3 2 1 -5 162.51 41.53 10.39 o
2020 3 2 1 -4 11.46 7.33 4.06 <
2021 3 2 1 -3 81.69 69.12 10.11 o
2022 3 2 1 -2 144.35 119.13 10.14 o
2023 3 2 1 -1 1513.90 1285.15 27.69 o
2024 3 2 1 0 4.91 0.84 0.77 <
2025 3 -2 1 -3 169.85 122.22 11.27 o
2026 3 2 2 -8 2.59 -1.15 2.40 <
2027 3 2 2 -7 6.63 7.77 4.45 <
2028 3 2 2 -6 11.85 51.61 12.08 o
2029 4 -3 -2 2 569.46 523.97 34.77 o
2029 3 2 2 -5 569.46 523.97 34.77 o
2030 3 2 2 -4 43.51 26.38 6.32 o
2031 3 2 2 -3 42.69 38.31 6.46 o
2032 3 2 2 -2 62.73 65.07 7.47 o
2033 3 2 2 -1 618.56 510.97 18.87 o
2034 3 -2 2 -3 51.62 55.48 5.27 o
2035 3 -2 2 -4 34.96 54.29 7.45 o
2036 3 -2 2 -5 534.84 728.45 35.51 o
2037 3 -2 2 -6 1.79 2.91 3.73 <
2038 3 2 3 -10 1.01 4.09 4.31 <
2039 3 2 3 -9 13.02 10.78 6.52 <
2040 3 2 3 -8 5.83 0.82 2.74 <
2041 3 2 3 -7 156.34 222.41 25.45 o
2042 3 2 3 -6 15.97 16.24 6.00 <
2043 4 -3 -3 2 9.77 4.75 3.03 <
2043 3 2 3 -5 9.77 4.75 3.03 <
2044 3 2 3 -4 6.86 0.46 0.77 <
2045 3 2 3 -3 629.07 593.36 26.28 o
2046 3 2 3 -2 14.52 18.52 4.16 o
2047 3 -2 3 -3 647.53 658.42 18.58 o
2048 3 -2 3 -4 1.51 -0.82 1.64 <
2049 3 -2 3 -5 3.14 9.61 2.21 o
2050 3 -2 3 -6 5.16 13.74 4.72 <
2051 3 -2 3 -7 197.67 333.63 29.16 o
2052 3 -2 3 -8 2.28 0.21 1.84 <
2053 3 -2 3 -9 14.24 16.50 7.67 <
2054 3 -2 3 -10 2.82 10.82 7.25 <
2055 3 2 4 -12 0.18 1.87 3.41 <
2056 3 2 4 -11 8.62 20.09 9.05 <
2056 2 3 -4 -10 8.62 20.09 9.05 <
2057 3 2 4 -10 1.11 -0.51 2.36 <
2058 3 2 4 -9 21.68 47.14 12.54 o
2059 3 2 4 -8 0.39 0.86 1.70 <
2060 3 2 4 -7 3.09 7.40 4.41 <
2061 3 2 4 -6 8.32 10.45 4.78 <
2062 4 -3 -4 2 330.52 339.15 25.75 o
2062 3 2 4 -5 330.52 339.15 25.75 o
2063 3 2 4 -4 3.04 1.42 1.11 <
2064 3 2 4 -3 88.76 103.53 11.52 o
2065 3 2 4 -2 62.78 102.07 10.51 o
2066 3 -2 4 -4 5.06 1.64 1.00 <
2067 3 -2 4 -5 296.97 389.90 19.13 o
2068 3 -2 4 -6 2.53 0.99 2.49 <
2069 3 -2 4 -7 9.30 13.50 4.49 o
2070 3 -2 4 -8 0.22 1.22 1.43 <
2071 3 -2 4 -9 32.38 51.70 11.34 o
2072 3 -2 4 -10 0.25 7.10 4.80 <
2073 3 -2 4 -11 11.09 24.21 10.10 <
2074 3 -2 4 -12 0.08 -0.20 1.40 <
2075 3 2 5 -10 0.03 0.60 2.92 <
2076 3 2 5 -9 5.57 11.45 5.89 <
2077 3 2 5 -8 1.27 0.59 0.56 <
2078 3 2 5 -7 32.81 60.52 13.51 o
2079 3 2 5 -6 1.68 9.64 4.52 <
2080 4 -3 -5 2 4.42 2.01 2.57 <
2080 3 2 5 -5 4.42 2.01 2.57 <
2081 3 2 5 -4 7.22 4.92 2.79 <
2082 3 2 5 -3 114.23 150.99 14.41 o
2083 3 -2 5 -5 6.58 0.21 0.58 <
2084 3 -2 5 -6 2.24 12.65 4.08 o
2085 3 -2 5 -7 49.63 86.78 12.22 o
2086 3 -2 5 -8 0.72 4.32 3.35 <
2087 3 -2 5 -9 10.52 20.81 7.28 <
2088 3 -2 5 -10 0.05 1.20 2.30 <
2089 3 2 6 -8 0.48 0.76 0.81 <
2090 3 2 6 -7 3.33 6.03 3.72 <
2091 3 2 6 -6 0.90 9.74 4.47 <
2092 4 -3 -6 2 46.49 61.56 11.19 o
2092 3 2 6 -5 46.49 61.56 11.19 o
2093 3 -2 6 -6 1.34 4.09 2.49 <
2094 3 -2 6 -7 8.31 17.98 5.21 o
2095 3 -2 6 -8 0.32 2.26 1.37 <
2096 3 -3 -6 7 5.92 -0.06 0.77 <
2097 3 -3 -6 6 2.38 -1.08 2.87 <
2098 3 -3 -6 5 0.81 5.09 4.39 <
2099 3 -3 -6 4 2.70 1.88 1.34 <
2100 3 3 -6 4 5.23 9.59 5.25 <
2101 3 3 -6 5 1.69 0.91 2.03 <
2102 3 3 -6 6 6.32 2.85 2.72 <
2103 3 3 -6 7 7.38 8.08 5.45 <
2104 3 -3 -5 9 3.51 -5.89 6.44 <
2105 3 -3 -5 8 1.57 -0.96 2.81 <
2106 3 -3 -5 7 5.40 6.83 6.39 <
2107 3 -3 -5 6 8.45 10.48 6.51 <
2108 3 -3 -5 5 27.50 20.45 8.16 <
2109 3 -3 -5 4 18.37 7.38 4.08 <
2110 3 -3 -5 3 3.07 0.59 1.85 <
2111 3 3 -5 3 12.78 10.32 3.78 <
2111 2 -3 5 -3 12.78 10.32 3.78 <
2112 3 3 -5 4 29.36 17.02 4.93 o
2113 3 3 -5 5 33.46 40.89 8.59 o
2114 3 3 -5 6 17.17 14.48 5.54 <
2115 3 3 -5 7 6.88 12.44 5.86 <
2116 3 3 -5 8 1.54 0.17 1.86 <
2117 3 3 -5 9 5.06 15.15 7.56 <
2118 3 -3 -4 11 0.42 6.03 9.95 <
2119 3 -3 -4 10 10.36 7.47 7.82 <
2119 2 -2 4 11 10.36 7.47 7.82 <
2120 3 -3 -4 9 3.70 7.08 6.96 <
2121 3 -3 -4 8 10.81 6.74 6.42 <
2122 3 -3 -4 7 21.11 21.69 9.86 <
2123 3 -3 -4 6 1.41 -3.47 3.17 <
2124 3 -3 -4 5 0.24 0.97 0.82 <
2125 3 -3 -4 4 7.57 0.33 1.25 <
2126 3 -3 -4 3 83.80 72.58 12.20 o
2127 4 2 4 -5 321.52 87.50 12.53 o
2127 3 -3 -4 2 321.52 87.50 12.53 o
2128 3 3 -4 2 59.41 108.92 9.66 o
2129 3 3 -4 3 210.58 194.60 13.91 o
2129 2 -3 4 -3 210.58 194.60 13.91 o
2130 3 3 -4 4 11.77 2.60 1.52 <
2131 3 3 -4 5 3.13 0.35 1.11 <
2132 3 3 -4 6 0.88 1.75 1.53 <
2133 3 3 -4 7 33.05 39.90 10.09 o
2134 3 3 -4 8 18.88 13.10 6.30 <
2135 3 -3 -3 10 16.26 0.63 3.33 <
2135 2 -2 3 11 16.26 0.63 3.33 <
2136 3 -3 -3 9 10.11 16.00 10.77 <
2137 3 -3 -3 8 3.77 2.97 2.27 <
2138 3 -3 -3 7 12.90 11.24 6.91 <
2139 3 -3 -3 6 23.15 13.92 6.87 <
2140 3 -3 -3 5 43.82 57.24 13.68 o
2141 3 -3 -3 4 40.33 40.73 10.28 o
2142 3 -3 -3 3 24.34 24.07 6.44 o
2143 4 2 3 -5 10.00 9.55 3.43 <
2143 3 -3 -3 2 10.00 9.55 3.43 <
2144 3 -3 -3 1 158.30 102.57 11.23 o
2145 3 3 -3 2 8.28 3.87 1.28 o
2146 3 3 -3 3 72.15 64.30 7.26 o
2146 2 -3 3 -3 72.15 64.30 7.26 o
2147 3 3 -3 4 44.39 47.31 7.79 o
2148 3 3 -3 5 48.68 48.26 9.64 o
2149 3 -3 -2 8 6.73 5.57 5.40 <
2150 3 -3 -2 7 44.35 20.90 10.21 <
2151 3 -3 -2 6 1.67 0.63 2.71 <
2152 3 -3 -2 5 9.01 26.26 9.47 <
2153 3 -3 -2 4 18.26 16.47 6.38 <
2154 3 -3 -2 3 255.58 200.93 20.83 o
2155 4 2 2 -5 553.77 198.26 17.15 o
2155 3 -3 -2 2 553.77 198.26 17.15 o
2156 3 -3 -2 1 166.46 142.77 11.98 o
2157 3 -3 -2 0 78.23 46.03 5.69 o
2158 3 -3 -1 5 224.99 261.51 34.79 o
2159 3 -3 -1 4 166.44 121.07 19.54 o
2160 3 -3 -1 3 63.47 58.09 11.86 o
2161 4 2 1 -5 159.57 102.45 12.57 o
2161 3 -3 -1 2 159.57 102.45 12.57 o
2162 3 -3 -1 1 340.91 298.92 17.54 o
2163 3 -3 -1 0 152.12 163.98 10.97 o
2164 3 3 0 -3 530.38 304.49 24.81 o
2165 4 -2 0 5 321.91 157.29 13.31 o
2165 3 3 0 -2 321.91 157.29 13.31 o
2166 4 2 0 -5 321.91 160.29 18.10 o
2166 3 -3 0 2 321.91 160.29 18.10 o
2167 3 3 0 -1 143.50 90.97 7.39 o
2168 3 -3 0 1 143.50 81.60 11.17 o
2169 3 -3 0 0 3.06 0.44 1.06 <
2170 3 3 0 0 3.06 1.74 1.01 <
2171 3 -3 0 -1 159.91 117.66 6.50 o
2172 3 3 1 -6 7.55 17.50 7.00 <
2173 3 3 1 -5 223.57 319.53 30.19 o
2174 3 3 1 -4 163.31 147.93 16.47 o
2175 3 3 1 -3 63.50 62.92 9.37 o
2176 4 -2 -1 5 159.01 100.31 9.51 o
2176 3 3 1 -2 159.01 100.31 9.51 o
2177 3 3 1 -1 335.38 296.32 13.96 o
2178 3 3 1 0 153.21 170.33 9.35 o
2179 3 3 2 -9 16.69 7.25 5.02 <
2180 3 3 2 -8 6.47 8.87 5.49 <
2181 3 3 2 -7 44.42 49.77 12.35 o
2182 3 3 2 -6 2.07 4.06 3.67 <
2183 3 3 2 -5 9.12 43.00 9.88 o
2184 3 3 2 -4 17.75 19.00 5.24 o
2185 3 3 2 -3 251.52 207.95 15.97 o
2186 4 -2 -2 5 549.04 172.21 12.97 o
2186 3 3 2 -2 549.04 172.21 12.97 o
2187 3 3 2 -1 172.61 141.04 10.14 o
2188 3 -3 2 -3 505.57 387.42 9.39 o
2188 2 3 -2 3 505.57 387.42 9.39 o
2189 3 -3 2 -4 23.69 24.04 3.80 o
2190 3 -3 2 -5 14.47 5.53 2.64 <
2191 3 -3 2 -6 4.80 1.04 1.36 <
2192 3 -3 2 -7 51.47 57.18 12.67 o
2193 3 3 3 -11 5.00 1.63 2.24 <
2194 3 3 3 -10 16.00 7.96 5.52 <
2194 2 2 -3 -11 16.00 7.96 5.52 <
2195 3 3 3 -9 10.41 18.39 8.57 <
2196 3 3 3 -8 3.79 1.27 0.76 <
2197 3 3 3 -7 12.38 14.88 6.40 <
2198 3 3 3 -6 22.76 21.54 7.01 o
2199 3 3 3 -5 42.76 61.96 10.55 o
2200 3 3 3 -4 41.81 40.40 7.64 o
2201 3 3 3 -3 24.26 25.53 5.19 o
2202 4 -2 -3 5 9.80 1.83 0.99 <
2202 3 3 3 -2 9.80 1.83 0.99 <
2203 3 -3 3 -4 42.38 61.85 5.18 o
2204 3 -3 3 -5 47.69 63.31 7.09 o
2205 3 -3 3 -6 31.56 36.13 7.16 o
2206 3 -3 3 -7 8.74 23.26 6.98 o
2207 3 -3 3 -8 3.35 1.65 0.68 <
2208 3 -3 3 -9 17.30 31.71 10.03 o
2209 3 -3 3 -10 4.91 4.73 4.07 <
2210 3 3 4 -11 0.41 3.57 3.43 <
2211 3 3 4 -10 10.32 0.57 1.83 <
2211 2 2 -4 -11 10.32 0.57 1.83 <
2212 3 3 4 -9 3.74 10.09 5.84 <
2213 3 3 4 -8 10.67 9.60 4.82 <
2214 3 3 4 -7 21.28 33.07 9.06 o
2215 3 3 4 -6 1.47 -0.46 0.98 <
2216 3 3 4 -5 0.26 1.37 1.88 <
2217 3 3 4 -4 7.88 2.11 1.82 <
2218 3 3 4 -3 84.31 84.01 10.99 o
2219 4 -2 -4 5 322.79 91.36 10.75 o
2219 3 3 4 -2 322.79 91.36 10.75 o
2220 3 -3 4 -5 3.03 0.77 0.98 <
2221 3 -3 4 -6 0.93 2.69 1.70 <
2222 3 -3 4 -7 32.91 65.27 9.50 o
2223 3 -3 4 -8 18.88 23.53 6.50 o
2224 3 -3 4 -9 6.61 12.97 5.52 <
2225 3 -3 4 -10 1.27 2.08 2.39 <
2226 3 -3 4 -11 0.78 2.11 1.91 <
2227 3 3 5 -9 3.45 11.58 6.53 <
2228 3 3 5 -8 1.53 -1.27 3.10 <
2229 3 3 5 -7 5.61 11.70 5.82 <
2230 3 3 5 -6 8.46 12.32 5.03 <
2231 3 3 5 -5 27.70 36.24 8.21 o
2232 3 3 5 -4 18.06 12.74 4.66 <
2233 3 3 5 -3 3.04 8.82 4.44 <
2234 3 -3 5 -6 16.95 25.74 4.76 o
2235 3 -3 5 -7 6.81 28.60 5.65 o
2236 3 -3 5 -8 1.56 0.53 1.97 <
2237 3 -3 5 -9 5.15 16.19 5.25 o
2238 3 3 6 -7 5.87 9.09 5.05 <
2239 3 3 6 -6 2.34 6.32 3.83 <
2240 3 3 6 -5 0.82 8.11 4.10 <
2241 3 -3 6 -7 7.45 15.27 4.25 o
2242 3 -4 -6 4 9.30 5.09 4.33 <
2243 3 4 -6 4 10.11 27.86 7.32 o
2244 3 -4 -5 8 5.84 7.22 6.15 <
2245 3 -4 -5 7 2.45 2.04 2.06 <
2246 3 -4 -5 6 8.71 13.13 7.66 <
2247 3 -4 -5 5 0.37 1.81 2.67 <
2248 3 -4 -5 4 6.36 11.55 5.70 <
2249 3 -4 -5 3 3.02 2.88 2.64 <
2250 3 4 -5 3 12.77 10.68 3.54 o
2251 3 4 -5 4 10.33 25.25 5.89 o
2252 3 4 -5 5 1.15 3.77 2.26 <
2253 3 4 -5 6 13.80 21.54 7.08 o
2254 3 4 -5 7 2.45 1.58 2.03 <
2255 3 4 -5 8 10.74 9.21 5.30 <
2256 3 -4 -4 10 3.56 6.01 5.92 <
2257 3 -4 -4 9 11.06 4.80 6.64 <
2257 2 -1 4 12 11.06 4.80 6.64 <
2258 3 -4 -4 8 3.86 5.29 5.26 <
2259 3 -4 -4 7 0.57 0.46 1.60 <
2260 3 -4 -4 6 13.95 24.25 9.96 <
2261 3 -4 -4 5 7.77 3.82 4.13 <
2262 3 -4 -4 4 11.46 13.09 6.18 <
2263 3 -4 -4 3 5.47 0.75 1.09 <
2264 3 -4 -4 2 1.69 -0.27 0.78 <
2265 3 4 -4 2 4.29 1.70 1.17 <
2266 3 4 -4 3 1.66 3.23 1.71 <
2267 3 4 -4 4 33.70 34.12 6.57 o
2268 3 4 -4 5 7.17 6.43 3.20 <
2269 3 4 -4 6 31.35 32.16 9.00 o
2270 3 -4 -3 10 0.42 0.76 2.97 <
2271 3 -4 -3 9 6.04 2.31 3.84 <
2271 2 -1 3 12 6.04 2.31 3.84 <
2272 3 -4 -3 8 5.91 4.64 4.26 <
2273 3 -4 -3 7 3.55 2.39 3.24 <
2274 3 -4 -3 6 2.60 3.39 3.81 <
2275 3 -4 -3 5 5.74 2.98 3.27 <
2276 3 -4 -3 4 31.76 44.81 11.47 o
2277 3 -4 -3 3 21.70 9.91 4.66 <
2278 3 -4 -3 2 107.61 94.47 13.02 o
2279 3 -4 -3 1 11.31 2.71 1.29 <
2280 3 4 -3 2 89.94 107.88 7.25 o
2281 3 4 -3 3 3.78 8.34 2.59 o
2282 3 -4 -2 8 0.30 0.47 1.90 <
2283 3 -4 -2 7 2.44 4.62 5.45 <
2284 3 -4 -2 6 34.65 23.51 11.03 <
2285 3 -4 -2 5 4.79 0.51 0.51 <
2286 3 -4 -2 4 53.89 34.43 9.94 o
2287 3 -4 -2 3 10.35 1.55 0.89 <
2288 3 -4 -2 2 35.78 39.58 8.21 o
2289 3 -4 -2 1 29.59 28.24 6.58 o
2290 3 -4 -2 0 475.10 413.68 20.73 o
2291 3 -4 -1 5 2.20 -1.38 1.71 <
2292 3 -4 -1 4 92.88 75.65 16.44 o
2293 3 -4 -1 3 14.03 6.11 4.03 <
2294 3 -4 -1 2 160.28 168.61 18.79 o
2295 3 4 -1 -2 160.28 112.89 14.52 o
2296 3 4 -1 -1 13.67 7.86 2.27 o
2297 3 -4 -1 1 13.67 16.78 4.48 o
2298 3 -4 -1 0 3.05 -3.33 2.45 <
2299 3 -4 -1 -1 12.30 22.09 3.66 o
2300 3 4 0 -4 226.62 186.74 21.36 o
2301 3 4 0 -3 46.52 20.55 5.74 o
2302 3 4 0 -2 0.21 -1.45 1.67 <
2303 3 -4 0 2 0.21 -0.30 0.48 <
2304 3 4 0 -1 2.07 0.11 0.37 <
2305 3 -4 0 1 2.07 2.10 2.18 <
2306 3 4 0 0 155.32 175.80 8.43 o
2307 3 -4 0 0 155.32 154.87 14.41 o
2308 3 -4 0 -1 1.96 -1.67 1.17 <
2309 3 -4 0 -2 1.60 3.44 1.31 <
2310 3 4 1 -7 5.18 6.38 4.83 <
2311 3 4 1 -6 83.69 74.92 13.77 o
2312 3 4 1 -5 2.17 3.96 3.07 <
2313 3 4 1 -4 94.44 140.09 15.89 o
2314 3 4 1 -3 14.47 9.37 3.21 <
2315 3 4 1 -2 160.67 161.23 12.27 o
2316 3 4 1 -1 13.94 18.70 3.33 o
2317 3 4 2 -9 5.38 5.04 4.75 <
2317 2 1 -2 -12 5.38 5.04 4.75 <
2318 3 4 2 -8 0.38 -2.31 3.13 <
2319 3 4 2 -7 2.41 2.38 2.24 <
2320 3 4 2 -6 35.12 38.12 9.15 o
2321 3 4 2 -5 5.15 4.83 2.81 <
2322 3 4 2 -4 52.02 46.17 7.98 o
2323 3 4 2 -3 10.16 3.79 2.06 <
2324 3 4 2 -2 36.49 35.00 5.60 o
2325 3 4 2 -1 29.73 28.20 4.89 o
2326 3 -4 2 -5 8.32 4.81 2.23 <
2327 3 -4 2 -6 45.49 28.98 6.97 o
2328 3 -4 2 -7 0.10 -1.28 2.23 <
2329 3 4 3 -11 0.00 6.22 6.47 <
2330 3 4 3 -10 0.40 0.52 2.26 <
2331 3 4 3 -9 5.97 -2.55 4.07 <
2331 2 1 -3 -12 5.97 -2.55 4.07 <
2332 3 4 3 -8 5.83 11.40 5.59 <
2333 3 4 3 -7 3.46 3.40 2.86 <
2334 3 4 3 -6 2.49 1.21 1.59 <
2335 3 4 3 -5 5.82 3.89 2.85 <
2336 3 4 3 -4 32.66 66.27 10.30 o
2337 3 4 3 -3 21.36 10.82 3.50 o
2338 3 4 3 -2 107.86 103.07 10.63 o
2339 3 -4 3 -5 2.91 6.11 1.46 o
2340 3 -4 3 -6 11.43 4.93 2.10 <
2341 3 -4 3 -7 4.86 1.31 1.20 <
2342 3 -4 3 -8 19.90 14.74 5.59 <
2343 3 -4 3 -9 0.36 1.95 1.69 <
2344 3 -4 3 -10 0.97 0.20 1.02 <
2345 3 4 4 -10 3.51 11.17 6.65 <
2346 3 4 4 -9 11.15 2.67 2.81 <
2346 2 1 -4 -12 11.15 2.67 2.81 <
2347 3 4 4 -8 3.87 9.18 4.82 <
2348 3 4 4 -7 0.61 1.77 1.89 <
2349 3 4 4 -6 13.81 35.76 9.23 o
2350 3 4 4 -5 7.68 6.44 3.73 <
2351 3 4 4 -4 11.45 19.63 5.66 o
2352 3 4 4 -3 5.36 1.68 1.40 <
2353 3 -4 4 -6 31.42 63.04 5.98 o
2354 3 -4 4 -7 1.11 2.85 1.25 <
2355 3 -4 4 -8 4.97 16.89 4.58 o
2356 3 -4 4 -9 1.76 0.25 0.67 <
2357 3 4 5 -8 5.83 15.59 7.41 <
2358 3 4 5 -7 2.48 -0.52 1.37 <
2359 3 4 5 -6 8.76 18.40 5.89 o
2360 3 4 5 -5 0.35 1.68 2.26 <
2361 3 4 5 -4 6.09 31.92 7.23 o
2362 3 -4 5 -7 2.55 4.66 1.94 <
2363 3 -4 5 -8 10.71 27.14 5.15 o
2364 3 -5 -5 5 2.40 0.80 1.82 <
2365 3 -5 -5 4 7.42 7.26 4.86 <
2366 3 -5 -5 3 0.37 -0.21 1.48 <
2367 3 5 -5 3 1.12 2.17 1.51 <
2368 3 5 -5 4 11.33 16.90 4.78 o
2369 3 5 -5 5 4.20 2.17 2.57 <
2370 4 5 4 -7 4.14 7.81 6.50 <
2370 3 -5 -4 7 4.14 7.81 6.50 <
2371 3 -5 -4 6 6.85 6.50 5.31 <
2371 1 0 -4 -12 6.85 6.50 5.31 <
2372 3 -5 -4 5 0.19 0.10 1.93 <
2373 3 -5 -4 4 4.44 4.55 4.10 <
2374 3 -5 -4 3 9.39 12.36 5.73 <
2375 3 -5 -4 2 31.17 47.26 10.47 o
2376 3 5 -4 2 38.65 79.70 7.38 o
2377 3 5 -4 3 14.32 8.79 2.69 o
2378 3 5 -4 4 9.69 4.84 2.65 <
2379 3 -5 -3 9 1.46 0.06 3.25 <
2380 3 -5 -3 8 1.88 0.58 2.48 <
2380 2 0 3 13 1.88 0.58 2.48 <
2381 4 5 3 -7 2.54 -1.01 2.79 <
2381 3 -5 -3 7 2.54 -1.01 2.79 <
2382 3 -5 -3 6 21.90 13.97 8.54 <
2382 1 0 -3 -12 21.90 13.97 8.54 <
2383 3 -5 -3 5 2.89 3.29 3.26 <
2384 3 -5 -3 4 19.95 26.03 9.30 <
2385 3 -5 -3 3 12.37 11.96 6.09 <
2386 3 -5 -3 2 5.56 3.74 2.74 <
2387 3 -5 -3 1 12.70 5.40 2.92 <
2388 3 -5 -3 0 65.74 56.90 8.73 o
2389 3 -5 -2 8 4.95 9.46 8.80 <
2389 2 0 2 13 4.95 9.46 8.80 <
2390 4 5 2 -7 7.42 3.17 5.18 <
2390 3 -5 -2 7 7.42 3.17 5.18 <
2391 3 -5 -2 6 9.34 0.36 2.72 <
2391 1 0 -2 -12 9.34 0.36 2.72 <
2392 3 -5 -2 5 5.08 -0.52 2.31 <
2393 3 -5 -2 4 10.27 4.51 4.08 <
2394 3 -5 -2 3 11.20 1.78 3.62 <
2395 3 -5 -2 2 47.62 58.50 11.59 o
2396 3 -5 -2 1 6.93 4.04 2.39 <
2397 3 -5 -2 0 4.82 0.97 0.55 <
2398 3 -5 -2 -1 4.13 3.55 1.83 <
2399 3 -5 -1 5 7.84 7.02 6.08 <
2400 3 -5 -1 4 27.02 15.91 9.15 <
2401 3 5 -1 -3 2.91 1.88 2.75 <
2402 3 -5 -1 3 2.91 -2.13 3.18 <
2403 3 5 -1 -2 13.25 8.00 3.08 <
2404 3 -5 -1 2 13.25 9.50 4.93 <
2405 3 -5 -1 1 12.29 10.11 4.43 <
2406 3 5 -1 -1 12.29 7.81 2.11 o
2407 3 5 -1 0 22.88 18.19 2.47 o
2408 3 -5 -1 0 22.88 19.30 5.04 o
2409 3 -5 -1 -1 15.87 13.22 3.52 o
2410 3 -5 -1 -2 9.06 16.06 3.16 o
2411 3 5 0 -5 0.00 -0.16 0.80 <
2412 3 5 0 -4 21.80 22.93 6.47 o
2413 3 5 0 -3 26.08 19.50 5.11 o
2414 3 5 0 -2 33.56 41.87 6.30 o
2415 3 5 0 -1 0.28 0.23 0.77 <
2416 3 -5 0 1 0.28 3.20 2.99 <
2417 3 -5 0 0 0.01 -5.41 3.30 <
2418 3 5 0 0 0.01 -0.89 0.76 <
2419 3 -5 0 -1 0.00 -0.47 0.21 <
2420 3 -5 0 -2 48.43 42.78 5.06 o
2421 3 -5 0 -3 32.66 20.65 2.73 o
2422 4 -5 -1 7 0.49 -0.56 1.81 <
2422 3 5 1 -7 0.49 -0.56 1.81 <
2423 3 5 1 -6 39.09 10.49 5.10 <
2423 1 0 1 12 39.09 10.49 5.10 <
2424 3 5 1 -5 7.42 11.17 4.87 <
2425 3 5 1 -4 27.00 34.96 6.86 o
2426 3 5 1 -3 2.70 3.14 1.88 <
2427 3 5 1 -2 13.63 16.09 3.96 o
2428 3 5 1 -1 12.62 11.65 3.02 o
2429 3 5 2 -9 1.13 -0.05 2.03 <
2430 3 5 2 -8 4.98 11.86 6.28 <
2430 2 0 -2 -13 4.98 11.86 6.28 <
2431 4 -5 -2 7 7.42 4.28 3.49 <
2431 3 5 2 -7 7.42 4.28 3.49 <
2432 3 5 2 -6 9.51 4.44 2.72 <
2432 1 0 2 12 9.51 4.44 2.72 <
2433 3 5 2 -5 5.09 5.49 3.18 <
2434 3 5 2 -4 10.84 6.77 3.15 <
2435 3 5 2 -3 11.45 11.23 3.64 o
2436 3 5 2 -2 47.84 69.00 8.54 o
2437 3 5 2 -1 6.73 4.34 1.97 <
2438 3 -5 2 -6 15.05 6.51 2.49 <
2438 1 5 2 -6 15.05 6.51 2.49 <
2439 3 -5 2 -7 8.21 1.77 1.74 <
2440 3 5 3 -9 1.43 6.40 4.87 <
2441 3 5 3 -8 1.90 8.55 4.85 <
2441 2 0 -3 -13 1.90 8.55 4.85 <
2442 4 -5 -3 7 2.54 4.31 3.54 <
2442 3 5 3 -7 2.54 4.31 3.54 <
2443 3 5 3 -6 22.03 18.55 6.32 <
2443 1 0 3 12 22.03 18.55 6.32 <
2444 3 5 3 -5 2.98 4.76 3.05 <
2445 3 5 3 -4 19.70 40.40 7.85 o
2446 3 5 3 -3 12.36 16.24 4.58 o
2447 3 5 3 -2 5.47 5.24 2.32 <
2448 3 -5 3 -6 25.53 21.45 2.53 o
2448 1 5 3 -6 25.53 21.45 2.53 o
2449 3 -5 3 -7 2.97 1.77 1.21 <
2450 3 -5 3 -8 3.63 8.53 2.88 <
2451 3 -5 3 -9 3.53 3.20 2.20 <
2452 4 -5 -4 7 4.14 2.71 2.74 <
2452 3 5 4 -7 4.14 2.71 2.74 <
2453 3 5 4 -6 6.82 8.46 4.32 <
2453 1 0 4 12 6.82 8.46 4.32 <
2454 3 5 4 -5 0.16 0.16 0.57 <
2455 3 5 4 -4 4.35 8.83 3.88 <
2456 3 5 4 -3 9.40 18.13 5.20 o
2457 3 -5 4 -7 4.23 6.94 1.65 o
2458 3 5 5 -5 2.46 3.20 2.77 <
2459 3 5 5 -4 7.52 14.84 5.22 <
2460 3 -6 -4 3 1.22 1.36 1.47 <
2461 3 -6 -4 2 0.21 0.78 1.29 <
2462 3 -6 -4 1 8.66 10.71 5.00 <
2463 3 6 -4 1 11.84 13.11 2.55 o
2464 3 -6 -3 6 0.36 4.41 5.28 <
2465 3 -6 -3 5 0.09 3.07 5.10 <
2466 3 -6 -3 4 0.97 -1.31 1.59 <
2467 3 -6 -3 3 7.28 12.07 5.90 <
2468 3 -6 -3 2 2.71 9.00 4.85 <
2469 3 -6 -3 1 9.34 15.09 5.34 <
2470 3 6 -3 0 0.26 0.41 0.55 <
2471 3 -6 -3 0 0.26 0.94 1.62 <
2472 3 -6 -2 7 0.35 0.39 1.48 <
2473 3 -6 -2 6 2.52 -7.86 6.76 <
2474 3 -6 -2 5 8.93 10.99 8.08 <
2475 3 -6 -2 4 2.41 -0.13 2.22 <
2476 3 -6 -2 3 1.95 5.25 4.29 <
2477 3 -6 -2 2 2.04 5.78 4.04 <
2478 3 6 -2 -2 2.04 2.86 2.65 <
2479 3 6 -2 -1 11.77 8.54 2.55 o
2480 3 -6 -2 1 11.77 17.08 6.24 <
2481 3 -6 -2 0 5.14 5.90 2.80 <
2482 3 -6 -2 -1 12.77 15.81 4.17 o
2483 3 -6 -1 4 1.96 2.31 4.75 <
2484 3 6 -1 -4 1.96 0.12 1.43 <
2485 3 -6 -1 3 11.15 4.89 4.39 <
2486 3 6 -1 -3 11.15 7.77 3.28 <
2487 3 -6 -1 2 6.89 8.63 5.35 <
2488 3 6 -1 -2 6.89 7.15 2.51 <
2489 3 6 -1 -1 9.17 13.53 2.73 o
2490 3 -6 -1 1 9.17 7.99 4.50 <
2491 3 -6 -1 0 1.42 -0.22 1.01 <
2492 3 -6 -1 -1 8.09 6.83 2.49 <
2493 3 -6 -1 -2 4.76 9.53 2.91 o
2494 3 6 0 -6 0.24 2.36 2.93 <
2495 3 6 0 -5 10.60 17.03 5.80 <
2496 3 6 0 -4 1.29 7.83 3.50 <
2497 3 6 0 -3 0.20 1.09 1.47 <
2498 3 6 0 -2 1.25 7.87 2.70 <
2499 3 6 0 -1 3.65 14.68 3.30 o
2500 3 -6 0 1 3.65 7.23 4.26 <
2501 3 -6 0 0 0.90 -1.75 2.11 <
2502 3 -6 0 -1 11.35 5.01 2.80 <
2503 3 -6 0 -2 1.70 -0.37 0.70 <
2504 3 -6 0 -3 0.37 0.05 0.23 <
2505 3 6 1 -8 1.02 1.33 2.58 <
2506 3 6 1 -7 2.03 8.39 5.58 <
2507 3 6 1 -6 0.09 1.54 1.84 <
2508 3 6 1 -5 0.04 1.04 1.44 <
2509 3 6 1 -4 1.94 -0.02 1.28 <
2510 3 6 1 -3 11.03 21.72 4.96 o
2511 3 6 1 -2 6.73 14.92 3.74 o
2512 3 6 1 -1 8.99 22.82 4.53 o
2513 3 6 2 -7 0.32 0.55 0.95 <
2514 3 6 2 -6 2.53 3.85 2.88 <
2515 3 6 2 -5 8.72 26.12 6.83 o
2516 3 6 2 -4 2.42 2.63 2.35 <
2517 3 6 2 -3 1.97 4.40 2.25 <
2518 3 6 2 -2 1.97 12.11 3.78 o
2519 3 -6 2 -7 1.10 0.59 0.35 <
2520 3 6 3 -6 0.38 2.53 2.58 <
2521 3 6 3 -5 0.09 -1.30 1.81 <
2522 3 6 3 -4 0.95 3.37 2.41 <
2523 3 6 3 -3 7.25 19.92 5.22 o
2524 3 6 3 -2 2.68 32.14 6.29 o
2525 3 6 4 -3 1.25 0.65 0.52 <
2526 3 -7 -2 2 1.76 3.59 2.79 <
2527 3 7 -2 -1 0.93 0.85 0.46 <
2528 3 -7 -2 1 0.93 -0.13 1.41 <
2529 3 -7 -2 0 0.05 0.11 1.60 <
2530 3 -7 -2 -1 1.67 1.17 1.47 <
2531 3 -7 -1 4 1.21 2.27 3.40 <
2532 3 7 -1 -3 0.97 3.51 2.13 <
2533 3 -7 -1 3 0.97 2.76 3.57 <
2534 3 7 -1 -2 0.03 0.31 0.79 <
2535 3 -7 -1 2 0.03 2.34 2.56 <
2536 3 -7 -1 1 4.38 10.69 5.69 <
2537 3 7 -1 -1 4.38 34.78 4.89 o
2538 3 -7 -1 0 0.89 3.99 3.27 <
2539 3 -7 -1 -1 5.33 9.51 4.11 <
2540 3 -7 -1 -2 0.30 -0.25 0.46 <
2541 3 -7 -1 -3 1.37 3.84 1.94 <
2542 3 7 0 -4 0.18 1.86 2.05 <
2543 3 7 0 -3 8.57 35.63 6.58 o
2544 3 7 0 -2 0.91 0.09 0.72 <
2545 3 7 0 -1 4.50 9.39 2.57 o
2546 3 -7 0 0 0.21 -2.48 2.82 <
2547 3 -7 0 -1 2.14 2.71 3.11 <
2548 3 -7 0 -2 1.12 0.09 1.17 <
2549 3 -7 0 -3 8.78 13.06 4.32 o
2550 3 -7 0 -4 0.52 0.57 0.60 <
2551 3 7 1 -4 1.25 0.30 1.22 <
2552 3 7 1 -3 1.00 3.99 1.96 <
2553 3 7 1 -2 0.03 -0.34 0.47 <
2554 3 7 2 -2 1.80 4.14 2.22 <
2555 4 0 2 4 659.32 506.02 20.61 o
2556 4 0 2 5 101.38 73.93 7.35 o
2557 4 0 3 5 2.31 25.35 6.94 o
2558 4 0 3 6 91.49 67.05 8.87 o
2559 4 0 3 7 5.43 6.23 3.22 <
2560 4 0 3 8 48.41 51.71 6.84 o
2561 4 0 3 9 2.72 -0.23 0.99 <
2562 4 0 4 6 62.12 18.96 7.61 <
2563 4 0 4 7 0.40 2.18 4.83 <
2564 4 0 4 8 1.42 1.69 2.71 <
2565 4 0 4 9 0.86 -0.63 1.49 <
2566 4 0 4 10 13.34 2.22 3.56 <
2567 4 0 4 11 0.35 0.12 1.22 <
2568 4 0 5 8 11.51 2.89 6.87 <
2569 4 0 5 9 0.29 0.05 2.46 <
2570 4 0 5 10 0.14 6.20 9.77 <
2571 4 0 5 11 0.11 -0.29 2.36 <
2572 4 -1 -3 1 211.70 185.28 18.08 o
2573 4 -1 -3 0 80.56 76.38 11.72 o
2574 4 -1 -3 -1 502.77 338.32 26.26 o
2574 1 1 3 1 502.77 338.32 26.26 o
2575 4 -1 -3 -2 178.31 172.95 17.68 o
2576 4 -1 -3 -3 146.07 358.92 23.57 o
2577 4 -1 -3 -4 424.92 331.80 24.46 o
2578 4 -1 -3 -5 247.08 139.05 14.34 o
2579 4 -1 -3 -6 85.35 66.60 9.53 o
2580 4 -1 -3 -7 26.93 3.88 6.33 <
2581 4 -1 -3 -8 3.60 4.45 3.08 <
2582 4 -1 -3 -9 36.67 28.93 6.96 o
2583 4 -1 -3 -10 18.85 5.79 3.63 <
2584 4 -1 -3 -11 7.78 57.27 9.56 o
2585 4 -1 -3 -12 1.93 -2.74 2.22 <
2586 4 -1 -2 4 157.34 203.63 18.37 o
2587 4 -1 -2 3 918.30 743.96 34.86 o
2588 4 -1 -2 2 657.11 568.32 30.73 o
2589 4 -1 -2 1 115.58 99.80 12.29 o
2590 4 -1 -2 0 154.69 111.42 12.27 o
2591 4 -1 -2 -1 297.21 191.76 16.30 o
2591 1 1 2 1 297.21 191.76 16.30 o
2592 4 -1 -2 -2 652.14 673.24 29.22 o
2593 4 -1 -2 -3 1193.75 2939.73 55.98 o
2594 4 -1 -2 -4 213.94 161.99 13.68 o
2595 4 -1 -2 -5 71.55 38.81 6.70 o
2596 4 -1 -2 -6 75.38 52.29 5.73 o
2597 4 -1 -2 -7 133.38 104.98 9.77 o
2598 4 -1 -2 -8 144.20 113.50 10.03 o
2599 4 -1 -2 -9 9.27 20.70 4.94 o
2600 4 -1 -2 -10 4.00 0.74 0.74 <
2601 4 -1 -2 -11 6.25 6.94 2.60 <
2602 4 -1 -2 -12 2.39 0.61 0.97 <
2603 4 -1 -2 -13 5.28 1.12 1.26 <
2604 4 -1 -2 -14 0.17 -0.51 0.38 <
2605 4 -1 -1 5 233.87 177.63 14.81 o
2606 4 -1 -1 4 702.96 665.75 28.67 o
2607 4 -1 -1 3 272.21 236.77 15.59 o
2608 4 -1 -1 2 96.73 75.37 8.45 o
2609 4 -1 -1 1 690.68 740.50 25.67 o
2610 4 -1 -1 0 1380.75 1305.20 31.65 o
2611 4 -1 -1 -1 1615.87 1551.91 33.18 o
2611 1 1 1 1 1615.87 1551.91 33.18 o
2612 4 -1 -1 -2 106.11 112.37 8.40 o
2613 4 -1 -1 -3 374.34 829.95 23.29 o
2614 4 -1 -1 -4 577.06 670.02 20.12 o
2615 4 1 0 -15 0.38 -2.20 2.09 <
2616 4 1 0 -14 3.04 -5.38 2.90 <
2617 4 1 0 -13 3.32 -1.29 1.64 <
2618 4 1 0 -12 18.10 -5.73 3.14 <
2618 1 4 0 -9 18.10 -5.73 3.14 <
2619 4 1 0 -11 2.49 1.82 1.48 <
2620 4 1 0 -10 16.48 7.79 2.85 <
2621 4 1 0 -9 84.70 48.39 6.17 o
2622 4 1 0 -8 114.61 96.04 8.60 o
2623 4 1 0 -7 142.49 167.20 11.04 o
2624 4 -1 0 6 19.23 33.58 6.38 o
2625 4 1 0 -6 19.23 23.25 3.28 o
2626 4 1 0 -5 193.50 167.51 9.86 o
2627 4 -1 0 5 193.50 167.63 11.17 o
2628 4 1 0 -4 43.23 39.93 4.52 o
2629 4 -1 0 4 43.23 38.10 4.75 o
2630 4 1 0 -3 52.04 59.22 5.31 o
2631 4 -1 0 3 52.04 59.49 5.61 o
2632 4 -1 0 2 563.84 593.25 16.41 o
2633 4 1 0 -2 563.84 587.78 16.14 o
2634 4 1 1 -14 2.52 4.23 2.46 <
2635 4 1 1 -13 0.51 -4.32 2.40 <
2636 4 1 1 -12 1.17 3.37 3.33 <
2636 1 4 -1 -9 1.17 3.37 3.33 <
2637 4 1 1 -11 4.59 -2.75 3.38 <
2638 4 1 1 -10 42.08 23.48 6.20 o
2639 4 1 1 -9 71.12 41.82 8.18 o
2640 4 1 1 -8 21.11 16.39 4.49 o
2641 4 1 1 -7 69.58 43.28 8.03 o
2642 4 1 1 -6 188.79 179.64 15.16 o
2643 4 1 1 -5 243.49 185.89 16.09 o
2644 4 1 1 -4 678.73 674.23 29.17 o
2645 4 1 1 -3 266.23 260.07 16.22 o
2646 4 1 1 -2 100.24 71.42 8.12 o
2647 4 1 1 -1 684.70 734.20 25.06 o
2648 4 1 1 0 1385.22 1304.28 31.11 o
2649 4 1 1 1 1615.04 1548.07 32.04 o
2649 1 -1 -1 -1 1615.04 1548.07 32.04 o
2650 4 1 1 2 103.23 108.82 7.37 o
2651 4 1 2 -6 115.58 219.89 21.89 o
2652 4 1 2 -5 39.58 42.80 8.36 o
2653 4 1 2 -4 164.66 200.04 19.18 o
2654 4 1 2 -3 923.52 755.32 36.01 o
2655 4 1 2 -2 666.45 575.73 32.39 o
2656 4 1 2 -1 108.17 108.56 13.71 o
2657 4 1 2 0 154.70 114.28 13.36 o
2658 4 1 2 1 295.84 211.59 17.70 o
2658 1 -1 -2 -1 295.84 211.59 17.70 o
2659 4 1 2 2 647.29 682.53 27.52 o
2660 4 1 2 3 1188.23 2934.82 56.26 o
2661 4 1 2 4 206.89 180.52 11.89 o
2662 4 1 2 5 71.91 56.71 6.91 o
2663 4 1 3 -2 175.17 147.84 18.91 o
2664 4 1 3 -1 210.20 181.59 19.87 o
2665 4 1 3 0 77.84 66.04 12.09 o
2666 4 1 3 1 502.08 352.57 28.57 o
2666 1 -1 -3 -1 502.08 352.57 28.57 o
2667 4 1 3 2 176.44 167.14 17.84 o
2668 4 1 3 3 148.56 328.44 23.26 o
2669 4 1 3 4 424.31 367.29 24.38 o
2670 4 1 3 5 244.11 167.85 15.28 o
2671 4 1 3 6 85.61 69.08 10.42 o
2672 4 1 3 7 27.16 8.69 4.22 <
2673 4 1 3 8 3.54 4.37 2.62 <
2674 4 -1 4 11 1.62 0.56 1.74 <
2675 4 -1 4 10 1.05 1.65 2.47 <
2676 4 1 4 1 104.19 80.03 15.07 o
2676 1 -1 -4 -1 104.19 80.03 15.07 o
2677 4 1 4 2 265.15 197.12 22.46 o
2678 4 1 4 3 176.90 796.52 42.84 o
2679 4 1 4 4 42.31 26.20 8.96 <
2680 4 1 4 5 2.57 2.46 4.20 <
2681 4 1 4 6 28.73 1.61 1.71 <
2682 4 1 4 7 34.83 4.80 6.16 <
2683 4 1 4 8 28.97 4.07 5.20 <
2684 4 1 4 9 4.87 2.96 4.17 <
2685 4 1 4 10 2.38 1.07 2.16 <
2686 4 1 5 3 27.72 88.04 25.63 o
2687 4 1 5 4 86.34 12.52 14.00 <
2688 4 1 5 5 34.17 8.94 7.56 <
2689 4 1 5 6 18.38 2.37 6.94 <
2690 4 1 5 7 2.32 2.53 3.32 <
2691 4 1 5 8 3.82 -0.10 3.08 <
2692 4 1 5 9 10.45 3.57 5.82 <
2693 4 1 5 10 8.73 2.85 4.95 <
2694 4 1 5 11 3.41 1.70 4.50 <
2695 4 1 6 6 9.01 1.35 5.75 <
2696 4 1 6 7 11.10 5.01 6.88 <
2697 4 1 6 8 9.38 0.95 4.51 <
2698 4 1 6 9 1.73 0.15 3.87 <
2699 4 -2 -5 2 12.56 6.44 4.21 <
2700 4 -2 -5 1 80.70 41.44 10.94 o
2701 4 -2 -5 0 1.26 3.45 3.97 <
2702 4 -2 -5 -1 75.85 52.41 12.77 o
2703 4 -2 -5 -2 0.04 1.48 2.19 <
2703 1 2 5 2 0.04 1.48 2.19 <
2704 4 -2 -5 -3 127.26 74.94 16.21 o
2705 4 -2 -5 -4 3.11 0.52 2.61 <
2706 4 -2 -5 -5 6.28 -1.41 4.90 <
2707 4 -2 -5 -6 2.14 35.29 10.86 o
2708 4 -2 -5 -7 47.92 45.14 12.51 o
2709 4 -2 -5 -8 0.73 0.46 1.72 <
2710 4 -2 -5 -9 10.35 5.75 5.53 <
2711 4 -2 -5 -10 0.05 -6.63 3.94 <
2712 4 -2 -4 5 325.46 372.20 33.10 o
2712 3 3 4 -2 325.46 372.20 33.10 o
2713 4 -2 -4 4 2.73 -6.53 5.41 <
2714 4 -2 -4 3 85.85 256.05 27.13 o
2715 4 -2 -4 2 60.10 66.21 13.80 o
2716 4 -2 -4 1 245.36 160.96 20.36 o
2717 4 -2 -4 0 15.31 8.58 4.68 <
2718 4 -2 -4 -1 237.38 156.71 19.43 o
2719 4 -2 -4 -2 167.90 125.86 16.95 o
2719 1 2 4 2 167.90 125.86 16.95 o
2720 4 -2 -4 -3 69.95 70.96 12.51 o
2721 4 -2 -4 -4 5.10 -1.57 2.17 <
2722 4 -2 -4 -5 283.95 276.03 25.54 o
2723 4 -2 -4 -6 2.44 161.94 41.99 o
2724 4 -2 -4 -7 8.59 0.00 3.78 <
2725 4 -2 -4 -8 0.23 0.31 1.38 <
2726 4 -2 -4 -9 31.19 16.54 7.75 <
2727 4 -2 -4 -10 0.25 -0.11 1.82 <
2728 4 -2 -4 -11 10.70 9.95 5.77 <
2729 4 -2 -4 -12 0.08 -4.84 3.07 <
2730 4 -2 -3 7 151.45 215.03 24.31 o
2731 4 -2 -3 6 15.13 18.00 7.31 <
2732 4 -2 -3 4 6.99 -2.04 3.11 <
2733 4 -2 -3 3 607.29 1076.92 52.87 o
2734 4 -2 -3 2 13.42 18.56 6.50 <
2735 4 -2 -3 1 422.38 359.86 28.69 o
2736 4 -2 -3 0 3.74 -0.12 3.65 <
2737 4 -2 -3 -1 354.00 381.58 29.04 o
2738 4 -2 -3 -2 51.89 26.08 7.78 o
2738 1 2 3 2 51.89 26.08 7.78 o
2739 4 -2 -3 -3 618.54 662.66 37.22 o
2740 4 -2 -3 -4 1.38 -5.79 5.14 <
2741 4 -2 -3 -5 3.00 1.03 1.82 <
2742 4 -2 -3 -6 4.95 27.80 7.44 o
2743 4 -2 -3 -7 189.16 250.37 21.28 o
2744 4 -2 -3 -8 2.11 0.00 1.97 <
2745 4 -2 -3 -9 12.84 7.26 5.06 <
2746 4 -2 -3 -10 2.73 3.14 3.52 <
2747 4 -2 -3 -11 14.61 9.86 5.35 <
2748 4 -2 -3 -12 0.26 -1.00 1.39 <
2749 4 -2 -3 -13 6.74 3.68 3.18 <
2750 4 -2 -2 8 2.44 -0.26 1.57 <
2751 4 -2 -2 7 6.92 -3.29 3.78 <
2752 4 -2 -2 6 12.02 65.65 11.95 o
2753 4 -2 -2 5 553.21 527.26 33.04 o
2753 3 3 2 -2 553.21 527.26 33.04 o
2754 4 -2 -2 4 42.05 26.37 7.41 o
2755 4 -2 -2 3 42.33 57.85 10.95 o
2756 4 -2 -2 2 60.89 67.19 11.53 o
2757 4 -2 -2 1 611.08 610.26 33.25 o
2758 4 -2 -2 0 11.14 0.56 2.58 <
2759 4 -2 -2 -1 655.85 656.32 32.73 o
2760 4 -2 -2 -2 171.25 157.38 16.54 o
2760 1 2 2 2 171.25 157.38 16.54 o
2761 4 -2 -2 -3 49.02 58.42 9.21 o
2762 4 -2 -2 -4 33.07 40.53 7.83 o
2763 4 -2 -2 -5 518.08 539.25 27.36 o
2764 4 -2 -2 -6 1.69 5.17 3.30 <
2765 4 -2 -2 -8 3.47 0.00 1.16 <
2766 4 -2 -2 -9 49.78 36.27 8.66 o
2767 4 -2 -1 9 36.85 34.15 8.18 o
2768 4 -2 -1 8 4.50 1.54 2.52 <
2769 4 -2 -1 7 132.69 147.82 16.05 o
2770 4 -2 -1 6 10.26 27.84 7.13 o
2771 4 -2 -1 5 162.41 33.08 6.97 o
2771 3 3 1 -2 162.41 33.08 6.97 o
2772 4 -2 -1 4 10.72 9.14 3.97 <
2773 4 -2 -1 3 77.11 131.81 15.25 o
2774 4 -2 -1 2 136.22 141.37 14.38 o
2775 4 -2 -1 1 1423.24 1521.19 43.62 o
2776 4 -2 -1 0 4.76 -1.28 4.14 <
2777 4 -2 -1 -1 1647.79 1826.72 45.52 o
2778 4 2 0 -14 0.00 0.63 1.62 <
2779 4 2 0 -13 0.02 -0.22 0.78 <
2780 4 2 0 -12 0.76 -5.11 2.45 <
2781 4 2 0 -11 10.45 8.36 3.00 <
2781 1 3 0 -10 10.45 8.36 3.00 <
2782 4 2 0 -10 2.17 -1.19 1.13 <
2783 4 -2 0 10 2.17 0.94 1.28 <
2784 4 -2 0 9 4.61 14.60 4.27 o
2785 4 2 0 -9 4.61 9.99 2.89 o
2786 4 2 0 -8 3.22 8.18 2.69 o
2787 4 -2 0 8 3.22 8.98 3.34 <
2788 4 2 0 -7 5.48 -3.60 2.37 <
2789 4 -2 0 7 5.48 5.58 2.43 <
2790 4 -2 0 6 155.64 139.97 13.75 o
2791 4 2 0 -6 155.64 158.97 12.18 o
2792 4 -2 0 5 321.67 286.24 17.87 o
2792 3 3 0 -2 321.67 286.24 17.87 o
2793 4 -2 0 4 8.07 14.02 4.12 o
2794 4 2 1 -14 0.45 5.80 3.67 <
2795 4 2 1 -13 3.08 3.91 2.55 <
2796 4 2 1 -12 0.21 1.30 1.78 <
2797 4 -2 1 11 12.62 16.14 3.89 o
2797 1 -3 -1 10 12.62 16.14 3.89 o
2798 4 2 1 -11 12.62 19.40 6.43 o
2798 1 3 -1 -10 12.62 19.40 6.43 o
2799 4 2 1 -10 1.20 -0.88 1.95 <
2800 4 -2 1 10 1.20 0.29 1.94 <
2801 4 2 1 -9 37.63 30.68 7.49 o
2802 4 -2 1 9 37.63 22.50 4.61 o
2803 4 2 1 -8 4.54 -1.30 1.91 <
2804 4 -2 1 8 4.54 1.25 1.31 <
2805 4 2 1 -7 136.39 161.76 15.32 o
2806 4 -2 1 7 136.39 126.10 10.62 o
2807 4 2 1 -6 10.07 32.60 6.80 o
2808 4 2 1 -5 162.98 -3.77 5.82 <
2808 3 -3 -1 2 162.98 -3.77 5.82 <
2809 4 2 1 -4 11.04 8.20 3.12 <
2810 4 2 1 -3 78.67 118.05 12.73 o
2811 4 2 1 -2 138.99 138.93 13.00 o
2812 4 2 1 -1 1457.78 1502.35 41.97 o
2813 4 2 1 0 4.73 -2.14 3.71 <
2814 4 2 1 1 1613.77 1831.47 42.87 o
2815 4 2 2 -14 0.29 5.39 4.48 <
2816 4 2 2 -13 0.92 3.80 4.52 <
2817 4 2 2 -12 0.64 -5.46 5.38 <
2818 4 -2 2 11 19.54 8.20 2.29 o
2818 1 -3 -2 10 19.54 8.20 2.29 o
2819 4 2 2 -11 19.54 11.53 5.80 <
2819 1 3 -2 -10 19.54 11.53 5.80 <
2820 4 2 2 -10 6.13 2.03 2.92 <
2821 4 -2 2 10 6.13 1.46 0.97 <
2822 4 2 2 -9 35.03 45.53 11.01 o
2823 4 2 2 -8 2.49 -2.75 2.57 <
2824 4 2 2 -7 6.38 -0.05 3.62 <
2825 4 2 2 -6 11.41 69.63 12.17 o
2826 4 2 2 -5 558.01 529.79 31.92 o
2826 3 -3 -2 2 558.01 529.79 31.92 o
2827 4 2 2 -4 41.89 29.14 7.32 o
2828 4 2 2 -3 41.11 66.12 11.70 o
2829 4 2 2 -2 60.40 65.13 10.89 o
2830 4 2 2 -1 595.63 630.51 31.95 o
2831 4 2 2 0 11.55 12.43 5.31 <
2832 4 2 2 1 671.36 638.05 28.18 o
2833 4 2 2 2 171.27 170.27 14.50 o
2833 1 -2 -2 -2 171.27 170.27 14.50 o
2834 4 2 2 3 49.70 56.25 7.42 o
2835 4 2 2 4 33.67 70.29 9.40 o
2836 4 2 3 -13 3.77 -1.02 2.92 <
2837 4 2 3 -12 0.82 1.24 2.15 <
2838 4 2 3 -11 13.13 14.98 7.48 <
2838 1 3 -3 -10 13.13 14.98 7.48 <
2839 4 2 3 -10 0.97 17.25 9.08 <
2840 4 2 3 -9 12.53 4.90 4.83 <
2841 4 2 3 -8 5.61 0.58 1.79 <
2842 4 2 3 -7 150.54 199.93 25.85 o
2843 4 2 3 -6 15.37 15.09 6.48 <
2844 4 2 3 -5 10.09 -18.27 8.20 <
2844 3 -3 -3 2 10.09 -18.27 8.20 <
2845 4 2 3 -4 6.60 3.39 3.08 <
2846 4 2 3 -3 605.75 1023.44 58.43 o
2847 4 2 3 -2 13.98 13.56 6.04 <
2848 4 2 3 -1 418.33 344.71 27.20 o
2849 4 2 3 0 3.71 4.14 3.05 <
2850 4 2 3 1 360.22 388.57 27.52 o
2851 4 2 3 2 51.91 34.24 8.65 o
2851 1 -2 -3 -2 51.91 34.24 8.65 o
2852 4 2 3 3 623.52 664.41 33.14 o
2853 4 2 3 4 1.45 -1.42 2.87 <
2854 4 2 3 5 3.02 -8.23 5.49 <
2855 4 2 3 6 4.97 11.06 5.92 <
2856 4 2 3 7 190.34 224.49 20.99 o
2857 4 2 4 -7 2.98 10.85 7.18 <
2858 4 2 4 -6 8.01 13.31 8.01 <
2859 4 2 4 -5 324.18 339.73 35.93 o
2859 3 -3 -4 2 324.18 339.73 35.93 o
2860 4 2 4 -4 2.92 -4.85 4.98 <
2861 4 2 4 -3 85.47 141.32 22.80 o
2862 4 2 4 -2 60.45 61.30 13.37 o
2863 4 2 4 -1 248.69 148.81 21.46 o
2864 4 2 4 0 15.64 11.98 6.31 <
2865 4 2 4 1 235.53 169.94 22.03 o
2866 4 2 4 2 167.84 124.70 18.06 o
2866 1 -2 -4 -2 167.84 124.70 18.06 o
2867 4 2 4 3 70.06 77.43 13.67 o
2868 4 2 4 4 4.87 -0.37 2.04 <
2869 4 2 4 5 285.96 143.90 24.99 o
2870 4 2 4 6 2.44 306.83 49.44 o
2871 4 2 4 7 8.96 1.34 1.57 <
2872 4 2 4 8 0.21 0.20 2.16 <
2873 4 2 4 9 31.18 7.84 7.85 <
2874 4 2 5 -3 110.00 143.41 30.99 o
2875 4 2 5 -2 12.25 -2.14 4.03 <
2876 4 2 5 -1 81.53 33.02 11.12 <
2877 4 2 5 0 1.25 -4.27 4.41 <
2878 4 2 5 1 75.25 39.43 11.80 o
2879 4 2 5 2 0.04 5.23 4.88 <
2879 1 -2 -5 -2 0.04 5.23 4.88 <
2880 4 2 5 3 126.11 71.25 14.63 o
2881 4 2 5 4 3.13 1.25 4.49 <
2882 4 2 5 5 6.34 -0.24 2.79 <
2883 4 2 5 6 2.16 3.06 7.77 <
2884 4 2 5 7 47.79 20.90 11.32 <
2885 4 2 5 8 0.69 0.21 2.90 <
2886 4 2 5 9 10.13 3.02 4.35 <
2887 4 2 5 10 0.05 0.26 1.41 <
2888 4 2 6 0 4.81 7.76 7.34 <
2889 4 2 6 1 46.69 3275.03 138.93 o
2890 4 2 6 2 6.97 0.64 1.84 <
2890 1 -2 -6 -2 6.97 0.64 1.84 <
2891 4 2 6 3 2.99 3.54 4.33 <
2892 4 2 6 4 3.04 3.41 4.61 <
2893 4 2 6 5 42.71 12.87 9.32 <
2894 4 2 6 6 1.29 0.44 3.74 <
2895 4 2 6 7 8.00 -1.07 5.70 <
2896 4 2 6 8 0.31 0.46 3.20 <
2897 4 2 7 4 0.50 3.23 2.27 <
2898 4 -3 -7 0 9.52 18.73 10.49 <
2899 4 -3 -7 -1 11.14 6.11 4.37 <
2900 4 -3 -6 4 2.60 7.93 7.46 <
2901 4 -3 -6 3 20.14 15.28 8.39 <
2902 4 -3 -6 2 46.35 31.05 11.58 <
2902 3 2 6 -5 46.35 31.05 11.58 <
2903 4 -3 -6 1 14.74 11.75 6.63 <
2904 4 -3 -6 0 4.68 16.71 10.00 <
2905 4 -3 -6 -1 12.73 3.51 4.98 <
2906 4 -3 -6 -2 19.98 0.00 4.13 <
2907 4 -3 -6 -3 54.78 26.28 12.75 <
2907 1 3 6 3 54.78 26.28 12.75 <
2908 4 -3 -6 -4 5.04 -3.20 5.28 <
2909 4 -3 -6 -5 1.63 -0.80 1.84 <
2910 4 -3 -6 -6 6.09 3.59 4.82 <
2911 4 -3 -6 -7 7.11 6.71 5.37 <
2912 4 -3 -5 7 5.20 11.12 7.06 <
2913 4 -3 -5 6 8.14 9.69 7.01 <
2914 4 -3 -5 5 26.48 31.80 11.05 <
2915 4 -3 -5 4 17.69 7.44 6.40 <
2916 4 -3 -5 3 2.95 -6.00 4.82 <
2917 4 -3 -5 2 4.39 -7.73 6.12 <
2917 3 2 5 -5 4.39 -7.73 6.12 <
2918 4 -3 -5 1 31.62 19.21 9.05 <
2919 4 -3 -5 0 28.60 26.64 10.80 <
2920 4 -3 -5 -1 44.94 23.24 9.02 <
2921 4 -3 -5 -2 2.97 1.02 3.79 <
2922 4 -3 -5 -3 11.86 6.65 5.71 <
2922 1 3 5 3 11.86 6.65 5.71 <
2923 4 -3 -5 -4 28.28 9.90 6.96 <
2924 4 -3 -5 -5 32.22 14.16 7.28 <
2925 4 -3 -5 -6 16.53 20.97 11.33 <
2926 4 -3 -5 -7 6.62 18.13 8.74 <
2927 4 -3 -5 -8 1.49 2.29 3.43 <
2928 4 -3 -5 -9 4.87 25.63 9.47 <
2929 4 -3 -4 9 3.56 -0.33 4.26 <
2930 4 -3 -4 8 10.41 10.09 6.43 <
2931 4 -3 -4 7 20.33 24.61 9.99 <
2932 4 -3 -4 6 1.36 5.90 5.44 <
2933 4 -3 -4 5 0.23 -3.59 4.16 <
2934 4 -3 -4 4 7.29 6.05 4.76 <
2935 4 -3 -4 3 80.69 49.59 12.93 o
2936 4 -3 -4 2 327.80 292.26 33.07 o
2936 3 2 4 -5 327.80 292.26 33.07 o
2937 4 -3 -4 1 19.58 -20.71 8.81 <
2938 4 -3 -4 0 2.94 -13.38 6.71 <
2939 4 -3 -4 -2 57.21 46.87 11.71 o
2940 4 -3 -4 -3 195.64 131.66 19.59 o
2940 1 3 4 3 195.64 131.66 19.59 o
2941 4 -3 -4 -4 11.34 1.41 3.52 <
2942 4 -3 -4 -5 3.01 1.91 3.41 <
2943 4 -3 -4 -6 0.84 2.88 3.95 <
2944 4 -3 -4 -7 31.82 27.79 9.90 <
2945 4 -3 -4 -8 18.18 4.90 4.18 <
2946 4 -3 -4 -9 6.49 23.05 8.51 <
2947 4 -3 -4 -10 1.24 2.92 3.46 <
2948 4 -3 -4 -11 0.70 -14.11 7.77 <
2949 4 -3 -3 11 4.70 43.03 13.18 o
2950 4 -3 -3 10 14.75 7.86 4.96 <
2950 1 -2 3 11 14.75 7.86 4.96 <
2951 4 -3 -3 9 9.74 18.99 7.70 <
2952 4 -3 -3 8 3.63 9.62 6.33 <
2953 4 -3 -3 7 12.43 6.34 3.58 <
2954 4 -3 -3 6 22.29 17.94 7.12 <
2955 4 -3 -3 5 42.20 51.31 12.49 o
2956 4 -3 -3 4 38.84 30.73 10.61 <
2957 4 -3 -3 3 23.44 21.43 8.16 <
2958 4 -3 -3 2 9.68 -5.84 5.24 <
2958 3 2 3 -5 9.68 -5.84 5.24 <
2959 4 -3 -3 1 152.43 118.09 18.95 o
2960 4 -3 -3 0 35.07 38.80 13.18 <
2961 4 -3 -3 -1 115.66 124.03 17.84 o
2962 4 -3 -3 -2 7.97 2.90 2.28 <
2963 4 -3 -3 -3 67.05 58.16 11.96 o
2963 1 3 3 3 67.05 58.16 11.96 o
2964 4 -3 -3 -4 42.74 55.20 11.51 o
2965 4 -3 -3 -5 46.88 35.92 11.48 o
2966 4 -3 -3 -6 30.06 28.90 10.87 <
2967 4 -3 -3 -7 8.00 17.89 7.16 <
2968 4 -3 -3 -8 3.23 -0.66 3.55 <
2969 4 -3 -3 -9 16.80 34.08 12.06 <
2970 4 -3 -3 -10 4.56 6.90 5.09 <
2971 4 -3 -3 -11 6.25 10.33 6.80 <
2972 4 -3 -3 -12 0.81 4.28 4.90 <
2973 4 -3 -2 12 1.96 -0.48 2.78 <
2974 4 -3 -2 11 4.16 18.83 8.78 <
2975 4 -3 -2 10 21.32 12.31 6.07 <
2975 1 -2 2 11 21.32 12.31 6.07 <
2976 4 -3 -2 9 16.60 14.58 6.62 <
2977 4 -3 -2 8 6.48 18.40 12.18 <
2978 4 -3 -2 7 42.71 43.33 11.10 o
2979 4 -3 -2 6 1.60 5.89 4.00 <
2980 4 -3 -2 5 8.67 51.62 12.49 o
2981 4 -3 -2 4 17.58 17.27 6.71 <
2982 4 -3 -2 3 246.10 207.62 22.55 o
2983 4 -3 -2 2 565.13 491.42 36.60 o
2983 3 2 2 -5 565.13 491.42 36.60 o
2984 4 -3 -2 1 160.29 152.05 18.68 o
2985 4 -3 -2 0 75.33 37.88 8.96 o
2986 4 -3 -2 -1 224.66 164.69 17.35 o
2987 4 -3 -2 -2 121.62 192.16 19.06 o
2988 4 -3 -2 -3 469.77 600.18 34.89 o
2988 1 3 2 3 469.77 600.18 34.89 o
2989 4 -3 -2 -4 22.49 29.45 7.38 o
2990 4 -3 -1 13 0.39 11.08 5.42 <
2991 4 -3 -1 12 0.05 3.38 3.89 <
2992 4 -3 -1 11 4.93 26.39 9.33 <
2993 4 -3 -1 10 12.32 14.77 6.81 <
2993 1 -2 1 11 12.32 14.77 6.81 <
2994 4 -3 -1 9 40.88 34.04 9.49 o
2995 4 -3 -1 8 8.56 14.99 6.28 <
2996 4 -3 -1 7 28.98 14.54 6.35 <
2997 4 -3 -1 6 8.07 17.92 6.42 <
2998 4 -3 -1 5 216.65 375.88 30.35 o
2999 4 -3 -1 4 160.27 151.98 17.42 o
3000 4 -3 -1 3 61.11 66.24 10.94 o
3001 4 -3 -1 2 159.10 103.65 13.89 o
3001 3 2 1 -5 159.10 103.65 13.89 o
3002 4 -3 -1 1 328.27 446.17 30.09 o
3003 4 -3 0 13 1.92 5.79 3.56 <
3004 4 -3 0 12 0.01 3.27 2.79 <
3005 4 -3 0 11 3.45 18.97 6.67 <
3006 4 -3 0 10 11.31 2.00 2.71 <
3006 1 -2 0 11 11.31 2.00 2.71 <
3007 4 -3 0 9 1.41 -0.02 1.06 <
3008 4 -3 0 8 49.05 47.02 9.48 o
3009 4 -3 0 7 137.41 109.48 13.45 o
3010 4 -3 0 6 122.82 85.71 12.09 o
3011 4 -3 0 5 12.52 20.17 6.52 o
3012 4 3 1 -13 0.42 3.86 2.93 <
3013 4 -3 1 13 0.42 4.97 2.63 <
3014 4 -3 1 12 0.04 0.83 1.93 <
3015 4 3 1 -12 0.04 1.09 1.78 <
3016 4 3 1 -11 4.67 10.69 4.60 <
3017 4 -3 1 11 4.67 10.89 4.73 <
3018 4 -3 1 10 12.92 11.05 3.97 <
3018 1 -2 -1 11 12.92 11.05 3.97 <
3019 4 3 1 -10 12.92 13.86 4.73 <
3019 1 2 -1 -11 12.92 13.86 4.73 <
3020 4 3 1 -9 40.11 32.02 7.12 o
3021 4 -3 1 9 40.11 27.65 6.01 o
3022 4 3 1 -8 8.95 8.81 3.67 <
3023 4 3 1 -7 28.29 17.61 5.26 o
3024 4 3 1 -6 7.27 20.24 5.65 o
3025 4 3 1 -5 215.28 406.37 24.05 o
3026 4 3 1 -4 157.26 160.24 14.25 o
3027 4 3 1 -3 61.14 68.17 9.41 o
3028 4 3 1 -2 158.59 104.90 12.07 o
3028 3 -2 -1 5 158.59 104.90 12.07 o
3029 4 -3 2 13 3.70 2.61 1.50 <
3030 4 3 2 -13 3.70 9.26 5.18 <
3031 4 3 2 -12 1.97 10.87 5.60 <
3032 4 -3 2 12 1.97 2.71 1.57 <
3033 4 3 2 -11 4.08 5.65 3.91 <
3034 4 -3 2 11 4.08 9.61 3.32 <
3035 4 3 2 -10 21.14 11.62 5.16 <
3035 1 2 -2 -11 21.14 11.62 5.16 <
3036 4 3 2 -9 16.07 7.70 4.82 <
3037 4 3 2 -8 6.23 12.68 6.92 <
3038 4 3 2 -7 42.78 43.71 9.57 o
3039 4 3 2 -6 1.99 2.78 2.63 <
3040 4 3 2 -5 8.78 50.10 9.72 o
3041 4 3 2 -4 17.09 16.02 5.17 o
3042 4 3 2 -3 242.20 233.65 21.09 o
3043 4 3 2 -2 560.36 506.48 30.56 o
3043 3 -2 -2 5 560.36 506.48 30.56 o
3044 4 3 2 -1 166.21 184.46 17.93 o
3045 4 3 2 0 75.71 68.49 10.58 o
3046 4 3 2 1 218.07 181.88 15.75 o
3047 4 3 2 2 124.01 187.36 16.11 o
3048 4 3 3 -12 0.29 -2.48 3.35 <
3049 4 3 3 -11 4.82 28.10 10.73 <
3050 4 3 3 -10 14.51 12.04 6.68 <
3050 1 2 -3 -11 14.51 12.04 6.68 <
3051 4 3 3 -9 10.03 6.66 2.99 <
3052 4 3 3 -8 3.65 8.27 5.82 <
3053 4 3 3 -7 11.93 8.98 5.49 <
3054 4 3 3 -6 21.92 16.53 6.68 <
3055 4 3 3 -5 41.18 67.55 13.95 o
3056 4 3 3 -4 40.26 37.70 10.34 o
3057 4 3 3 -3 23.36 24.78 8.33 <
3058 4 3 3 -2 9.48 -1.48 2.93 <
3058 3 -2 -3 5 9.48 -1.48 2.93 <
3059 4 3 3 -1 150.96 122.74 16.21 o
3060 4 3 3 0 34.55 39.35 10.12 o
3061 4 3 3 1 116.92 149.43 17.66 o
3062 4 3 3 2 8.38 2.13 2.19 <
3063 4 3 3 3 67.11 65.19 10.98 o
3063 1 -3 -3 -3 67.11 65.19 10.98 o
3064 4 3 3 4 40.81 61.26 9.76 o
3065 4 3 3 5 45.92 32.81 9.79 o
3066 4 3 4 -11 0.39 2.56 4.44 <
3067 4 3 4 -10 9.34 4.22 4.55 <
3067 1 2 -4 -11 9.34 4.22 4.55 <
3068 4 3 4 -9 3.60 0.99 2.92 <
3069 4 3 4 -8 10.28 8.05 6.46 <
3070 4 3 4 -7 20.49 21.77 9.16 <
3071 4 3 4 -6 1.42 0.13 2.48 <
3072 4 3 4 -5 0.25 4.84 4.56 <
3073 4 3 4 -4 7.58 2.91 2.92 <
3074 4 3 4 -3 81.19 53.24 13.34 o
3075 4 3 4 -2 329.08 230.81 28.05 o
3075 3 -2 -4 5 329.08 230.81 28.05 o
3076 4 3 4 -1 18.21 -22.13 8.32 <
3077 4 3 4 0 2.83 -0.15 1.99 <
3078 4 3 4 2 55.88 55.58 11.74 o
3079 4 3 4 3 195.58 145.66 17.81 o
3079 1 -3 -4 -3 195.58 145.66 17.81 o
3080 4 3 4 4 11.17 2.40 3.89 <
3081 4 3 4 5 2.92 1.49 3.12 <
3082 4 3 4 6 0.90 0.17 1.13 <
3083 4 3 4 7 31.69 11.06 9.36 <
3084 4 3 4 8 18.18 5.90 6.21 <
3085 4 3 5 -9 3.32 12.14 8.91 <
3086 4 3 5 -8 1.48 5.60 7.19 <
3087 4 3 5 -7 5.40 15.20 10.57 <
3088 4 3 5 -6 8.14 10.89 7.19 <
3089 4 3 5 -5 26.68 17.17 9.51 <
3090 4 3 5 -4 17.39 -2.32 3.99 <
3091 4 3 5 -3 2.92 7.51 6.30 <
3092 4 3 5 -2 4.58 -0.91 2.44 <
3092 3 -2 -5 5 4.58 -0.91 2.44 <
3093 4 3 5 -1 32.37 22.36 9.46 <
3094 4 3 5 0 28.52 15.83 8.57 <
3095 4 3 5 1 44.52 21.61 8.80 <
3096 4 3 5 2 2.81 -2.18 4.19 <
3097 4 3 5 3 11.80 -1.23 2.73 <
3097 1 -3 -5 -3 11.80 -1.23 2.73 <
3098 4 3 5 4 28.42 1.96 5.26 <
3099 4 3 5 5 32.28 3.37 6.70 <
3100 4 3 5 6 16.33 9.09 7.50 <
3101 4 3 5 7 6.56 6.65 6.01 <
3102 4 3 5 8 1.51 -7.98 4.38 <
3103 4 3 5 9 4.96 3.93 6.19 <
3104 4 3 6 -6 2.25 7.41 7.00 <
3105 4 3 6 -5 0.79 -2.88 6.15 <
3106 4 3 6 -4 2.56 1.48 4.47 <
3107 4 3 6 -3 20.36 4.72 3.79 <
3108 4 3 6 -2 45.68 -3.49 4.49 <
3108 3 -2 -6 5 45.68 -3.49 4.49 <
3109 4 3 6 -1 14.56 8.08 6.89 <
3110 4 3 6 0 4.67 4.68 5.76 <
3111 4 3 6 1 12.95 13.24 7.88 <
3112 4 3 6 2 20.26 6.78 5.92 <
3113 4 3 6 3 54.76 24.87 9.80 <
3113 1 -3 -6 -3 54.76 24.87 9.80 <
3114 4 3 6 4 4.98 1.32 3.06 <
3115 4 3 6 5 1.67 2.36 3.42 <
3116 4 3 6 6 6.12 1.00 1.53 <
3117 4 3 6 7 7.18 2.15 5.90 <
3118 4 3 7 -1 10.04 5.74 7.23 <
3119 4 3 7 0 9.53 8.57 7.39 <
3120 4 3 7 1 11.08 5.48 7.05 <
3121 4 -4 -6 4 8.96 3.85 4.74 <
3122 4 -4 -6 3 0.05 11.72 9.01 <
3123 4 -4 -6 2 2.19 -17.17 10.24 <
3124 4 -4 -6 1 4.64 3.27 6.11 <
3125 4 -4 -6 0 34.59 14.30 7.44 <
3126 4 -4 -6 -1 4.23 -3.65 5.81 <
3127 4 -4 -6 -2 3.93 -5.41 4.49 <
3128 4 -4 -6 -3 0.83 6.34 6.72 <
3129 4 -4 -6 -4 9.74 13.87 10.16 <
3130 4 -4 -5 8 5.62 9.70 8.14 <
3131 4 -4 -5 7 2.36 -0.79 4.28 <
3132 4 -4 -5 6 8.39 24.46 10.55 <
3133 4 -4 -5 5 0.36 5.72 3.97 <
3134 4 -4 -5 4 6.12 8.95 6.85 <
3135 4 -4 -5 3 2.91 -6.31 5.63 <
3136 4 -4 -5 2 19.34 11.97 7.30 <
3137 4 -4 -5 1 1.43 -1.46 3.72 <
3138 4 -4 -5 0 3.84 -22.34 9.07 <
3139 4 -4 -5 -1 6.19 -5.18 3.68 <
3140 4 -4 -5 -2 29.58 15.52 8.64 <
3141 4 -4 -5 -3 12.29 1.20 3.71 <
3142 4 -4 -5 -4 9.95 11.15 7.48 <
3143 4 -4 -5 -5 1.11 0.43 1.68 <
3144 4 -4 -5 -6 13.28 12.38 9.35 <
3145 4 -4 -5 -7 2.36 1.21 1.84 <
3146 4 -4 -5 -8 10.34 12.08 7.67 <
3147 4 -4 -4 9 9.99 -5.01 5.70 <
3147 1 -1 4 12 9.99 -5.01 5.70 <
3148 4 -4 -4 8 3.71 4.76 3.26 <
3149 4 -4 -4 7 0.55 3.80 4.86 <
3150 4 -4 -4 6 13.44 34.04 12.40 <
3151 4 -4 -4 5 7.48 -5.48 5.70 <
3152 4 -4 -4 4 11.04 6.09 5.75 <
3153 4 -4 -4 3 5.26 -1.17 1.76 <
3154 4 -4 -4 2 1.62 -1.72 2.26 <
3155 4 -4 -4 1 11.01 5.03 5.60 <
3156 4 -4 -4 0 37.93 16.28 7.74 <
3157 4 -4 -4 -1 3.65 -1.88 3.09 <
3158 4 -4 -4 -2 4.13 0.06 1.88 <
3159 4 -4 -4 -3 1.60 1.70 2.51 <
3160 4 -4 -4 -4 32.45 26.39 10.33 <
3161 4 -4 -4 -5 6.90 2.20 3.12 <
3162 4 -4 -4 -6 30.19 24.38 11.25 <
3163 4 -4 -4 -7 1.09 0.00 2.42 <
3164 4 -4 -4 -8 4.84 9.03 7.22 <
3165 4 -4 -4 -9 1.73 1.89 4.18 <
3166 4 -4 -4 -10 5.85 6.66 5.26 <
3167 4 -4 -3 11 0.00 -8.75 6.86 <
3168 4 -4 -3 10 0.40 2.15 2.87 <
3169 4 -4 -3 9 5.64 2.45 2.75 <
3169 1 -1 3 12 5.64 2.45 2.75 <
3170 4 -4 -3 8 5.69 14.30 8.28 <
3171 4 -4 -3 7 3.41 6.47 5.71 <
3172 4 -4 -3 6 2.50 3.57 2.37 <
3173 4 -4 -3 5 5.52 3.09 5.08 <
3174 4 -4 -3 4 30.59 32.11 11.66 <
3175 4 -4 -3 3 20.90 4.00 4.21 <
3176 4 -4 -3 2 103.62 67.95 15.26 o
3177 4 -4 -3 1 10.89 -18.27 9.59 <
3178 4 -4 -3 -1 7.82 7.95 5.05 <
3179 4 -4 -3 -2 86.61 109.83 18.77 o
3180 4 -4 -3 -3 3.64 12.07 5.42 <
3181 4 -4 -3 -4 37.07 68.49 16.28 o
3182 4 -4 -3 -5 2.79 -3.17 3.93 <
3183 4 -4 -3 -6 10.37 0.52 3.28 <
3184 4 -4 -2 12 0.28 0.25 2.69 <
3185 4 -4 -2 11 0.31 2.63 3.35 <
3186 4 -4 -2 10 3.76 6.55 5.57 <
3187 4 -4 -2 9 5.30 1.10 3.39 <
3187 1 -1 2 12 5.30 1.10 3.39 <
3188 4 -4 -2 8 0.29 3.15 4.60 <
3189 4 -4 -2 7 2.35 3.98 4.29 <
3190 4 -4 -2 6 33.36 31.76 11.46 <
3191 4 -4 -2 5 4.61 -3.77 3.73 <
3192 4 -4 -2 4 51.89 65.21 14.98 o
3193 4 -4 -2 3 9.96 6.88 5.50 <
3194 4 -4 -2 2 34.45 18.17 7.15 <
3195 4 -4 -2 1 28.50 28.55 8.87 o
3196 4 -4 -2 0 457.49 441.60 37.23 o
3197 4 -4 -2 -1 21.52 31.89 11.15 <
3198 4 -4 -1 12 3.85 16.99 7.38 <
3199 4 -4 -1 11 1.12 1.22 3.55 <
3200 4 -4 -1 10 0.77 7.08 5.13 <
3201 4 -4 -1 9 1.26 7.17 5.04 <
3201 1 -1 1 12 1.26 7.17 5.04 <
3202 4 -4 -1 8 18.79 21.44 8.84 <
3203 4 -4 -1 7 4.74 1.76 2.84 <
3204 4 -4 -1 6 80.39 85.68 16.88 o
3205 4 -4 -1 5 2.11 2.58 2.72 <
3206 4 -4 -1 4 89.44 108.79 17.49 o
3207 4 -4 0 12 0.03 5.44 4.91 <
3208 4 -4 0 11 0.20 3.76 3.10 <
3209 4 -4 0 10 26.63 29.21 8.78 o
3210 4 -4 0 9 18.83 4.85 3.15 <
3210 1 -1 0 12 18.83 4.85 3.15 <
3211 4 -4 0 8 23.56 4.55 3.10 <
3212 4 -4 0 7 0.87 -0.97 2.76 <
3213 4 4 1 -12 3.86 8.16 3.96 <
3214 4 -4 1 12 3.86 5.87 3.78 <
3215 4 4 1 -11 1.09 -2.04 2.55 <
3216 4 -4 1 11 1.09 0.14 1.29 <
3217 4 4 1 -10 0.76 3.15 2.49 <
3218 4 -4 1 10 0.76 -1.43 2.40 <
3219 4 4 1 -9 1.31 5.05 3.13 <
3219 1 1 -1 -12 1.31 5.05 3.13 <
3220 4 4 1 -8 18.91 27.66 7.37 o
3221 4 4 1 -7 4.99 5.39 3.37 <
3222 4 4 1 -6 80.58 89.49 13.18 o
3223 4 4 2 -12 0.30 0.30 1.93 <
3224 4 4 2 -11 0.33 0.42 1.36 <
3225 4 4 2 -10 3.92 6.89 4.49 <
3226 4 4 2 -9 4.98 4.31 3.16 <
3226 1 1 -2 -12 4.98 4.31 3.16 <
3227 4 4 2 -8 0.37 2.32 1.80 <
3228 4 4 2 -7 2.32 -3.86 3.17 <
3229 4 4 2 -6 33.82 32.96 9.04 o
3230 4 4 2 -5 4.96 2.54 2.80 <
3231 4 4 2 -4 50.09 31.25 7.74 o
3232 4 4 2 -3 9.79 5.89 3.73 <
3233 4 4 2 -2 35.13 24.06 6.47 o
3234 4 4 2 -1 28.63 71.11 11.56 o
3235 4 4 2 0 459.18 473.98 30.76 o
3236 4 4 3 -11 0.00 1.30 2.20 <
3237 4 4 3 -10 0.38 1.98 2.54 <
3238 4 4 3 -9 5.57 3.23 2.84 <
3238 1 1 -3 -12 5.57 3.23 2.84 <
3239 4 4 3 -8 5.62 16.00 6.83 <
3240 4 4 3 -7 3.34 -2.46 2.57 <
3241 4 4 3 -6 2.40 -2.52 2.52 <
3242 4 4 3 -5 5.60 1.97 2.43 <
3243 4 4 3 -4 31.45 48.12 11.32 o
3244 4 4 3 -3 20.56 7.37 4.31 <
3245 4 4 3 -2 103.86 101.83 15.58 o
3246 4 4 3 -1 10.54 -7.30 5.47 <
3247 4 4 3 1 8.30 6.14 3.47 <
3248 4 4 3 2 85.75 129.71 15.88 o
3249 4 4 3 3 4.02 18.53 6.04 o
3250 4 4 4 -9 10.07 -2.30 3.75 <
3250 1 1 -4 -12 10.07 -2.30 3.75 <
3251 4 4 4 -8 3.72 0.29 2.12 <
3252 4 4 4 -7 0.59 -0.52 2.20 <
3253 4 4 4 -6 13.30 34.85 11.71 <
3254 4 4 4 -5 7.40 -0.63 4.29 <
3255 4 4 4 -4 11.03 13.38 6.54 <
3256 4 4 4 -3 5.16 0.75 1.97 <
3257 4 4 4 -2 1.83 -6.02 4.20 <
3258 4 4 4 -1 10.98 0.56 1.19 <
3259 4 4 4 0 37.67 20.61 7.16 <
3260 4 4 4 1 3.83 4.86 3.73 <
3261 4 4 4 2 3.63 -1.57 2.96 <
3262 4 4 4 3 1.70 -0.42 1.64 <
3263 4 4 4 4 32.21 43.40 10.27 o
3264 4 4 4 5 6.90 10.51 5.13 <
3265 4 4 4 6 30.26 58.85 11.43 o
3266 4 4 5 -8 5.61 13.88 9.02 <
3267 4 4 5 -7 2.38 0.73 1.99 <
3268 4 4 5 -6 8.43 16.13 9.31 <
3269 4 4 5 -5 0.34 7.90 6.66 <
3270 4 4 5 -4 5.87 16.27 8.76 <
3271 4 4 5 -3 3.05 0.29 2.49 <
3272 4 4 5 -2 19.05 6.44 4.77 <
3273 4 4 5 -1 1.38 2.44 2.29 <
3274 4 4 5 0 3.79 -7.54 5.49 <
3275 4 4 5 1 6.03 2.97 3.41 <
3276 4 4 5 2 29.93 14.53 6.82 <
3277 4 4 5 3 12.22 11.81 7.03 <
3278 4 4 5 4 10.24 22.65 8.56 <
3279 4 4 5 5 1.08 1.48 1.91 <
3280 4 4 5 6 13.03 27.37 8.38 o
3281 4 4 5 7 2.45 1.02 3.35 <
3282 4 4 5 8 10.32 4.59 7.93 <
3283 4 4 6 -4 9.08 6.20 6.42 <
3284 4 4 6 -3 0.07 -4.11 5.79 <
3285 4 4 6 -2 2.14 0.69 3.20 <
3286 4 4 6 -1 4.64 -2.25 4.21 <
3287 4 4 6 0 34.63 18.09 8.96 <
3288 4 4 6 1 4.24 1.33 3.63 <
3289 4 4 6 2 3.99 2.33 3.49 <
3290 4 4 6 3 0.79 -2.49 3.58 <
3291 4 4 6 4 9.70 13.10 6.09 <
3292 4 -5 -5 5 2.31 23.86 12.05 <
3293 4 -5 -5 4 7.14 22.36 13.37 <
3294 4 -5 -5 3 0.36 4.38 7.01 <
3295 4 -5 -5 2 3.33 -4.37 6.62 <
3296 4 -5 -5 1 4.06 9.01 7.53 <
3297 4 -5 -5 0 22.82 14.75 9.47 <
3298 4 -5 -5 -1 7.22 8.25 6.91 <
3299 4 -5 -5 -2 3.32 6.39 7.06 <
3300 4 -5 -5 -3 1.08 3.89 5.70 <
3301 4 -5 -5 -4 10.91 3.01 5.25 <
3302 4 -5 -5 -5 4.05 1.85 4.69 <
3303 4 -5 -4 7 4.14 1.50 3.57 <
3303 3 5 4 -7 4.14 1.50 3.57 <
3304 4 -5 -4 6 6.65 14.20 9.40 <
3304 2 0 -4 -12 6.65 14.20 9.40 <
3305 4 -5 -4 5 0.18 18.19 10.69 <
3306 4 -5 -4 4 4.27 9.24 7.56 <
3307 4 -5 -4 3 9.04 3.82 4.77 <
3308 4 -5 -4 2 30.01 25.11 11.71 <
3309 4 -5 -4 1 4.39 4.59 4.49 <
3310 4 -5 -4 0 0.59 -6.03 6.41 <
3311 4 -5 -4 -1 2.73 5.09 5.12 <
3312 4 -5 -4 -2 37.22 36.18 12.16 <
3313 4 -5 -4 -3 13.79 16.52 11.23 <
3314 4 -5 -4 -4 9.33 5.32 6.86 <
3315 4 -5 -4 -5 1.56 1.28 2.16 <
3316 4 -5 -4 -6 14.50 7.67 8.04 <
3316 2 5 -4 -6 14.50 7.67 8.04 <
3317 4 -5 -4 -7 4.05 1.07 5.40 <
3318 4 -5 -3 9 1.41 -9.66 7.40 <
3319 4 -5 -3 8 1.79 7.67 6.72 <
3319 1 0 3 13 1.79 7.67 6.72 <
3320 4 -5 -3 7 2.54 -7.40 6.94 <
3320 3 5 3 -7 2.54 -7.40 6.94 <
3321 4 -5 -3 6 23.07 27.41 12.04 <
3321 2 0 -3 -12 23.07 27.41 12.04 <
3322 4 -5 -3 5 2.78 18.15 9.63 <
3323 4 -5 -3 4 19.21 3.46 3.86 <
3324 4 -5 -3 3 11.91 -1.06 5.14 <
3325 4 -5 -3 2 5.35 -0.90 4.59 <
3326 4 -5 -3 1 12.23 1.54 4.01 <
3327 4 -5 -3 0 63.30 44.56 14.45 o
3328 4 -5 -3 -1 7.75 0.38 2.89 <
3329 4 -5 -3 -2 9.08 1.69 3.23 <
3330 4 -5 -2 10 0.84 5.37 4.99 <
3331 4 -5 -2 9 1.09 -3.21 5.05 <
3332 4 -5 -2 8 4.74 8.05 5.58 <
3332 1 0 2 13 4.74 8.05 5.58 <
3333 4 -5 -2 7 7.42 6.03 5.13 <
3333 3 5 2 -7 7.42 6.03 5.13 <
3334 4 -5 -2 6 9.77 7.11 6.20 <
3334 2 0 -2 -12 9.77 7.11 6.20 <
3335 4 -5 -2 5 4.89 4.44 5.54 <
3336 4 -5 -2 4 9.89 8.30 5.92 <
3337 4 -5 -2 3 10.79 3.79 4.29 <
3338 4 -5 -1 10 2.17 6.27 5.95 <
3339 4 -5 -1 9 1.63 5.93 5.27 <
3340 4 -5 -1 8 1.41 -3.74 4.16 <
3340 1 0 1 13 1.41 -3.74 4.16 <
3341 4 -5 -1 7 0.49 -4.17 3.89 <
3341 3 5 1 -7 0.49 -4.17 3.89 <
3342 4 -5 0 11 0.41 3.65 3.93 <
3343 4 -5 0 10 0.29 6.06 5.24 <
3344 4 5 2 -10 0.85 -4.99 3.26 <
3345 4 5 2 -9 1.09 -0.03 1.54 <
3346 4 5 2 -8 4.77 7.48 3.78 <
3346 1 0 -2 -13 4.77 7.48 3.78 <
3347 4 5 2 -7 7.42 4.55 3.21 <
3347 3 -5 -2 7 7.42 4.55 3.21 <
3348 4 5 2 -6 9.93 6.05 3.73 <
3348 2 0 2 12 9.93 6.05 3.73 <
3349 4 5 2 -5 4.90 0.85 2.02 <
3350 4 5 2 -4 10.44 9.01 5.35 <
3351 4 5 3 -9 1.38 6.70 5.66 <
3352 4 5 3 -8 1.81 9.09 5.57 <
3352 1 0 -3 -13 1.81 9.09 5.57 <
3353 4 5 3 -7 2.54 0.64 2.53 <
3353 3 -5 -3 7 2.54 0.64 2.53 <
3354 4 5 3 -6 23.18 35.16 10.47 o
3354 2 0 3 12 23.18 35.16 10.47 o
3355 4 5 3 -5 2.87 9.77 5.49 <
3356 4 5 3 -4 18.97 15.15 6.01 <
3357 4 5 3 -3 11.90 6.47 4.12 <
3358 4 5 3 -2 5.26 -0.26 1.47 <
3359 4 5 3 -1 12.31 3.10 2.92 <
3360 4 5 3 0 63.64 54.24 11.05 o
3361 4 5 3 1 7.49 5.37 3.56 <
3362 4 5 4 -7 4.14 -0.68 2.53 <
3362 3 -5 -4 7 4.14 -0.68 2.53 <
3363 4 5 4 -6 6.62 7.44 5.48 <
3363 2 0 4 12 6.62 7.44 5.48 <
3364 4 5 4 -5 0.16 7.31 5.36 <
3365 4 5 4 -4 4.19 6.90 4.29 <
3366 4 5 4 -3 9.05 12.17 6.25 <
3367 4 5 4 -2 30.04 41.87 11.47 o
3368 4 5 4 -1 4.43 1.17 1.26 <
3369 4 5 4 0 0.57 -1.30 2.48 <
3370 4 5 4 1 2.80 2.00 2.64 <
3371 4 5 4 2 37.40 66.26 12.94 o
3372 4 5 4 3 13.70 15.66 6.16 <
3373 4 5 4 4 9.37 10.93 5.54 <
3374 4 5 5 -5 2.37 10.45 7.40 <
3375 4 5 5 -4 7.24 14.93 9.50 <
3376 4 5 5 -3 0.39 11.07 7.97 <
3377 4 5 5 -2 3.31 2.47 2.45 <
3378 4 5 5 -1 3.99 10.96 7.07 <
3379 4 5 5 0 22.67 35.74 11.79 o
3380 4 5 5 1 7.33 3.52 2.82 <
3381 4 5 5 2 3.36 -2.18 4.21 <
3382 4 5 5 3 1.10 0.33 1.28 <
3383 4 5 5 4 10.82 12.15 6.07 <
3384 4 5 5 5 3.99 6.39 5.31 <
3385 4 -6 -4 3 1.17 5.11 7.08 <
3386 4 -6 -4 2 0.20 4.80 5.26 <
3387 4 -6 -4 1 8.34 11.11 9.10 <
3388 4 -6 -4 0 3.57 8.72 7.68 <
3389 4 -6 -4 -1 11.40 17.77 10.99 <
3390 4 -6 -4 -2 0.81 2.10 2.71 <
3391 4 -6 -4 -3 1.98 1.73 5.86 <
3392 4 -6 -3 6 0.34 6.67 7.35 <
3393 4 -6 -3 5 0.09 -0.96 4.30 <
3394 4 -6 -3 4 0.93 -5.48 5.41 <
3395 4 -6 -3 3 7.01 8.23 8.29 <
3396 4 -6 -3 2 2.61 -6.26 4.66 <
3397 4 -6 -2 7 0.34 9.46 7.59 <
3398 4 -6 -2 6 2.42 2.53 4.99 <
3399 4 6 3 -6 0.37 2.81 3.47 <
3400 4 6 3 -5 0.09 -2.76 3.68 <
3401 4 6 3 -4 0.91 1.32 2.24 <
3402 4 6 3 -3 6.98 6.47 4.16 <
3403 4 6 4 -3 1.20 -0.59 1.92 <
3404 4 6 4 -2 0.19 10.91 7.47 <
3405 4 6 4 -1 8.21 12.10 5.86 <
3406 4 6 4 0 3.56 5.36 4.56 <
3407 4 6 4 1 11.47 9.24 5.54 <
