#------------------------------------------------------------------------------
#$Date: 2019-11-17 15:32:33 +0200 (Sun, 17 Nov 2019) $
#$Revision: 230902 $
#$URL: file:///home/coder/svn-repositories/cod/cif/7/23/14/7231406.cif $
#------------------------------------------------------------------------------
#
# This file is available in the Crystallography Open Database (COD),
# http://www.crystallography.net/
#
# All data on this site have been placed in the public domain by the
# contributors.
#
data_7231406
loop_
_publ_author_name
'Collings, Ines E.'
'Manna, Rudra Sekhar'
'Tsirlin, Alexander A.'
'Bykov, Maxim'
'Bykova, Elena'
'Hanfland, Michael'
'Gegenwart, Philipp'
'van Smaalen, Sander'
'Dubrovinsky, Leonid'
'Dubrovinskaia, Natalia'
_publ_section_title
;
 Pressure dependence of spin canting in ammonium metal formate
 antiferromagnets.
;
_journal_issue                   37
_journal_name_full               'Physical chemistry chemical physics : PCCP'
_journal_page_first              24465
_journal_page_last               24476
_journal_paper_doi               10.1039/c8cp03761b
_journal_volume                  20
_journal_year                    2018
_chemical_formula_moiety         'C3 H3 Mn O6, N H4'
_chemical_formula_sum            'C3 H7 Mn N O6'
_chemical_formula_weight         208
_space_group_IT_number           4
_space_group_name_Hall           'P 2yb'
_space_group_name_H-M_alt        'P 1 21 1'
_symmetry_cell_setting           monoclinic
_symmetry_Int_Tables_number      4
_symmetry_space_group_name_Hall  'P 2yb'
_symmetry_space_group_name_H-M   'P 1 21 1'
_audit_creation_method           'Jana2006 Version : 25/10/2015'
_audit_update_record
;
2018-08-09 deposited with the CCDC.
2018-08-22 downloaded from the CCDC.
;
_cell_angle_alpha                90
_cell_angle_beta                 116.45(4)
_cell_angle_gamma                90
_cell_formula_units_Z            2
_cell_length_a                   6.6400(19)
_cell_length_b                   8.4889(18)
_cell_length_c                   7.422(2)
_cell_measurement_reflns_used    168
_cell_measurement_temperature    293
_cell_measurement_theta_max      13.19
_cell_measurement_theta_min      1.77
_cell_volume                     374.6(2)
_computing_cell_refinement       'CrysAlisPro 1.171.38.46 (Rigaku OD, 2015)'
_computing_data_collection       'CrysAlisPro 1.171.38.46 (Rigaku OD, 2015)'
_computing_data_reduction        'CrysAlisPro 1.171.38.46 (Rigaku OD, 2015)'
_diffrn_ambient_pressure         '0.62 GPa'
_diffrn_ambient_temperature      293
_diffrn_detector                 'CCD plate'
_diffrn_measured_fraction_theta_full 0.95
_diffrn_measured_fraction_theta_max 0.93
_diffrn_measurement_device       'ID15B beamline, ESRF'
_diffrn_measurement_device_type
'esperanto-CrysAlisPro-abstract goniometer imported esperanto images'
_diffrn_measurement_method       '\w scans'
_diffrn_measurement_specimen_support 'diamond-anvil cell'
_diffrn_radiation_monochromator  synchrotron
_diffrn_radiation_probe          x-ray
_diffrn_radiation_source         synchrotron
_diffrn_radiation_type           synchrotron
_diffrn_radiation_wavelength     0.41111
_diffrn_reflns_av_R_equivalents  0.0324
_diffrn_reflns_av_unetI/netI     0.0588
_diffrn_reflns_limit_h_max       7
_diffrn_reflns_limit_h_min       -7
_diffrn_reflns_limit_k_max       8
_diffrn_reflns_limit_k_min       -8
_diffrn_reflns_limit_l_max       8
_diffrn_reflns_limit_l_min       -8
_diffrn_reflns_number            3023
_diffrn_reflns_theta_full        7.23
_diffrn_reflns_theta_max         13.22
_diffrn_reflns_theta_min         1.77
_diffrn_source                   synchrotron
_exptl_absorpt_coefficient_mu    0.374
_exptl_absorpt_correction_T_max  1
_exptl_absorpt_correction_T_min  0.325
_exptl_absorpt_correction_type   multi-scan
_exptl_absorpt_process_details
;
CrysAlisPro 1.171.38.46 (Rigaku Oxford Diffraction, 2015)
Empirical absorption correction using spherical harmonics,
implemented in SCALE3 ABSPACK scaling algorithm.
;
_exptl_crystal_colour            colourless
_exptl_crystal_density_diffrn    1.8445
_exptl_crystal_description       block
_exptl_crystal_F_000             202
_exptl_crystal_size_max          0.130
_exptl_crystal_size_mid          0.110
_exptl_crystal_size_min          0.050
_refine_ls_abs_structure_details
'  802 of Friedel pairs used in the refinement'
_refine_ls_extinction_method     none
_refine_ls_goodness_of_fit_gt    2.38
_refine_ls_goodness_of_fit_ref   2.14
_refine_ls_hydrogen_treatment    constr
_refine_ls_number_constraints    13
_refine_ls_number_parameters     104
_refine_ls_number_reflns         3023
_refine_ls_number_restraints     0
_refine_ls_R_factor_all          0.0880
_refine_ls_R_factor_gt           0.0687
_refine_ls_shift/su_max          0.0292
_refine_ls_shift/su_mean         0.0063
_refine_ls_structure_factor_coef F
_refine_ls_weighting_details     w=1/(\s^2^(F)+0.0001F^2^)
_refine_ls_weighting_scheme      sigma
_refine_ls_wR_factor_gt          0.0798
_refine_ls_wR_factor_ref         0.0851
_reflns_number_gt                2179
_reflns_number_total             3023
_reflns_threshold_expression     I>3\s(I)
_cod_data_source_file            c8cp03761b2.cif
_cod_data_source_block           AMnF_c1_p06
_cod_depositor_comments
;
The following automatic conversions were performed:

'_diffrn_radiation_probe' value 'X-ray' changed to 'x-ray' according
to
/home/data/users/saulius/crontab/automatic-downloads/rss-feeds/RSC/lib/dictionaries/cif_core.dic
dictionary named 'cif_core.dic' version 2.4.2 from 2011-04-26.

Automatic conversion script
Id: cif_fix_values 4973 2017-02-22 13:04:09Z antanas 

 Adding full bibliography for 7231402--7231432.cif.
;
_cod_original_formula_sum        'C3 H7 Mn1 N1 O6'
_cod_database_code               7231406
loop_
_space_group_symop_id
_space_group_symop_operation_xyz
1 x,y,z
2 -x,y+1/2,-z
loop_
_atom_site_label
_atom_site_type_symbol
_atom_site_fract_x
_atom_site_fract_y
_atom_site_fract_z
_atom_site_adp_type
_atom_site_U_iso_or_equiv
_atom_site_site_symmetry_multiplicity
_atom_site_occupancy
_atom_site_calc_flag
Mn1 Mn 0.6620(2) 0.25 0.32432(15) Uani 0.0456(5) 2 1 d
O1 O 0.8774(10) 0.1013(8) 0.5715(7) Uani 0.058(3) 2 1 d
O2 O 0.3677(11) 0.1133(8) 0.2903(9) Uani 0.060(3) 2 1 d
O3 O 0.7033(11) 0.0996(9) 0.1028(8) Uani 0.059(3) 2 1 d
O4 O 0.9234(10) 0.3828(8) 0.2939(8) Uani 0.056(3) 2 1 d
O5 O 0.6904(11) 0.3968(9) 0.5710(8) Uani 0.062(4) 2 1 d
O6 O 0.4017(10) 0.3976(8) 0.1036(8) Uani 0.055(3) 2 1 d
C1 C 0.9406(16) -0.0336(13) 0.5700(14) Uani 0.063(5) 2 1 d
C2 C 0.6241(16) 0.5336(14) 0.5640(14) Uani 0.066(6) 2 1 d
C3 C 0.4350(17) 0.4995(15) 0.0001(17) Uani 0.063(5) 2 1 d
N1 N -0.0220(10) 0.2514(14) -0.0482(8) Uani 0.054(3) 2 1 d
H1c1 H 0.872714 -0.083431 0.440345 Uiso 0.0752 2 1 d
H1c2 H 0.560153 0.583954 0.43467 Uiso 0.0795 2 1 d
H1c3 H 0.57958 0.500635 0.000039 Uiso 0.0761 2 1 d
loop_
_atom_site_aniso_label
_atom_site_aniso_type_symbol
_atom_site_aniso_U_11
_atom_site_aniso_U_22
_atom_site_aniso_U_33
_atom_site_aniso_U_12
_atom_site_aniso_U_13
_atom_site_aniso_U_23
Mn1 Mn 0.0691(8) 0.0164(6) 0.0450(6) 0.0008(7) 0.0197(6) 0.0013(7)
O1 O 0.078(5) 0.028(4) 0.055(4) 0.019(3) 0.018(3) -0.005(3)
O2 O 0.087(5) 0.035(4) 0.061(4) 0.003(3) 0.034(4) 0.023(3)
O3 O 0.097(5) 0.025(4) 0.052(4) -0.018(3) 0.031(3) -0.009(3)
O4 O 0.058(4) 0.040(4) 0.054(4) -0.016(3) 0.010(3) -0.027(3)
O5 O 0.083(5) 0.036(5) 0.062(4) 0.011(4) 0.029(4) 0.002(3)
O6 O 0.070(4) 0.035(4) 0.049(3) 0.002(3) 0.017(3) 0.018(3)
C1 C 0.068(7) 0.046(8) 0.066(7) 0.005(5) 0.023(6) -0.005(5)
C2 C 0.086(8) 0.046(8) 0.069(7) 0.004(5) 0.037(6) 0.014(5)
C3 C 0.055(8) 0.073(9) 0.055(5) 0.019(6) 0.019(6) 0.028(5)
N1 N 0.049(4) 0.048(5) 0.064(4) -0.017(5) 0.024(3) -0.004(7)
loop_
_atom_type_symbol
_atom_type_scat_dispersion_real
_atom_type_scat_dispersion_imag
_atom_type_scat_source
C -0.0001 0.0005 'International Tables Vol C tables 4.2.6.8 and 6.1.1.1'
H 0.0000 0.0000 'International Tables Vol C tables 4.2.6.8 and 6.1.1.1'
Mn 0.1790 0.2615 'International Tables Vol C tables 4.2.6.8 and 6.1.1.1'
N 0.0006 0.0010 'International Tables Vol C tables 4.2.6.8 and 6.1.1.1'
O 0.0018 0.0018 'International Tables Vol C tables 4.2.6.8 and 6.1.1.1'
loop_
_geom_angle_atom_site_label_1
_geom_angle_atom_site_label_2
_geom_angle_atom_site_label_3
_geom_angle_site_symmetry_1
_geom_angle_site_symmetry_3
_geom_angle
O1 Mn1 O2 . . 90.4(2)
O1 Mn1 O3 . . 92.3(2)
O1 Mn1 O4 . . 97.7(2)
O1 Mn1 O5 . . 80.9(2)
O1 Mn1 O6 . . 168.8(3)
O2 Mn1 O3 . . 90.5(3)
O2 Mn1 O4 . . 168.7(2)
O2 Mn1 O5 . . 98.1(3)
O2 Mn1 O6 . . 81.3(2)
O3 Mn1 O4 . . 81.5(3)
O3 Mn1 O5 . . 169.1(3)
O3 Mn1 O6 . . 95.4(2)
O4 Mn1 O5 . . 90.9(3)
O4 Mn1 O6 . . 91.5(2)
O5 Mn1 O6 . . 92.7(2)
Mn1 O1 C1 . . 129.8(6)
Mn1 O2 C2 . 2_646 119.5(5)
Mn1 O3 C3 . 2_645 123.9(8)
Mn1 O4 C1 . 2_756 122.8(7)
Mn1 O5 C2 . . 127.9(6)
Mn1 O6 C3 . . 124.6(6)
O1 C1 O4 . 2_746 131.3(9)
O1 C1 H1c1 . . 114.35
O4 C1 H1c1 2_746 . 114.35
O2 C2 O5 2_656 . 126.4(9)
O2 C2 H1c2 2_656 . 116.82
O5 C2 H1c2 . . 116.82
O3 C3 O6 2_655 . 125.1(11)
O3 C3 H1c3 2_655 . 117.47
O6 C3 H1c3 . . 117.47
loop_
_geom_bond_atom_site_label_1
_geom_bond_atom_site_label_2
_geom_bond_site_symmetry_2
_geom_bond_distance
Mn1 O1 . 2.160(6)
Mn1 O2 . 2.188(7)
Mn1 O3 . 2.193(7)
Mn1 O4 . 2.164(7)
Mn1 O5 . 2.152(7)
Mn1 O6 . 2.172(6)
O1 C1 . 1.222(13)
O2 C2 2_646 1.256(14)
O3 C3 2_645 1.234(13)
O4 C1 2_756 1.236(11)
O5 C2 . 1.235(14)
O6 C3 . 1.240(15)
C1 H1c1 . 0.96
C2 H1c2 . 0.96
C3 H1c3 . 0.96
loop_
_twin_individual_id
_twin_individual_mass_fraction_refined
_twin_individual_twin_matrix_11
_twin_individual_twin_matrix_12
_twin_individual_twin_matrix_13
_twin_individual_twin_matrix_21
_twin_individual_twin_matrix_22
_twin_individual_twin_matrix_23
_twin_individual_twin_matrix_31
_twin_individual_twin_matrix_32
_twin_individual_twin_matrix_33
1 0.161(3) 1 0 0 0 1 0 0 0 1
2 0.1583(15) 1 0 0 0 -1 0 0.797 0 -1
3 0.1404(14) -0.0692 0 -1.0812 0 1 0 0.8654 0 -0.9308
4 0.1243(14) -0.9308 0 1.0812 0 -1 0 0.1235 0 0.9309
5 0.2159(14) -0.9308 0 1.0812 0 1 0 -0.8654 0 -0.0692
6 0.2004(14) -0.0692 0 -1.0812 0 -1 0 -0.9205 0 0.0691
loop_
_twin_refln_datum_id
_twin_refln_individual_id
_twin_refln_index_h
_twin_refln_index_k
_twin_refln_index_l
_twin_refln_f_squared_calc
_twin_refln_f_squared_meas
_twin_refln_f_squared_sigma
_twin_refln_include_status
1 1 0 -8 -3 47.45 49.77 2.73 o
2 1 0 -7 -2 2.91 1.74 0.20 o
3 1 0 -7 -3 15.87 17.70 1.59 o
4 1 0 -6 -2 21.45 24.49 1.78 o
5 1 0 -6 -3 35.66 33.08 1.90 o
6 1 0 -5 -2 85.10 90.84 3.30 o
7 1 0 -5 -3 0.37 0.00 0.12 <
8 1 0 -4 -2 4.84 5.54 0.70 o
9 1 0 -3 -1 10.27 9.15 0.78 o
10 1 0 -3 -2 362.11 392.89 5.34 o
11 1 0 2 2 158.50 162.50 3.34 o
12 1 0 3 2 362.07 389.50 5.56 o
13 1 0 3 3 1.14 0.76 0.33 <
14 1 0 4 2 4.78 4.71 0.62 o
15 1 0 4 3 96.77 101.62 3.25 o
16 1 0 4 4 0.23 0.05 0.18 <
17 1 0 5 3 0.38 0.37 0.16 <
18 1 0 5 4 4.67 5.35 0.85 o
19 2 4 -5 -5 15.12 13.07 1.62 o
19 1 0 5 5 15.12 13.07 1.62 o
20 1 0 6 4 9.74 9.95 1.11 o
21 2 4 -6 -5 36.03 41.19 2.63 o
21 1 0 6 5 36.03 41.19 2.63 o
22 1 1 -8 -4 11.96 7.31 1.37 o
23 1 1 -8 -3 10.83 14.91 1.94 o
24 1 -1 -8 -2 13.75 16.31 1.29 o
25 2 -3 7 5 7.95 5.02 1.31 o
25 1 1 -7 -5 7.95 5.02 1.31 o
26 1 1 -7 -4 31.66 27.96 2.40 o
27 1 1 -7 -3 6.71 5.22 1.07 o
28 1 -1 -7 -2 7.39 7.25 0.83 o
29 1 1 -6 -4 13.16 12.54 1.53 o
30 1 1 -6 -3 26.59 23.79 2.11 o
31 1 1 -6 -2 71.27 85.34 3.95 o
32 1 -1 -6 -2 27.24 24.14 1.26 o
33 1 1 -5 -4 48.00 43.95 2.88 o
34 1 1 -5 -3 74.94 75.53 3.54 o
35 1 1 -5 -2 43.23 49.60 2.85 o
36 1 1 -4 -3 36.27 43.69 2.64 o
37 1 1 -4 -2 261.66 300.91 6.61 o
38 1 1 -3 -3 184.40 183.09 5.14 o
39 1 1 -3 -2 20.63 23.77 1.68 o
40 1 1 -3 -1 65.18 70.84 2.90 o
41 1 1 -2 -2 568.16 663.76 8.35 o
42 1 1 -2 -1 9.01 9.60 0.91 o
43 1 1 -1 -2 260.19 273.90 5.37 o
44 1 1 -1 -1 394.41 434.85 5.78 o
45 1 -1 0 1 120.92 87.50 2.34 o
46 1 1 0 -1 120.92 86.09 2.31 o
47 2 1 0 0 247.72 179.96 2.97 o
47 1 1 0 0 247.72 179.96 2.97 o
48 1 -1 1 2 261.19 275.89 5.24 o
49 1 -1 1 1 394.92 433.99 5.72 o
50 1 -1 2 3 154.76 150.72 4.59 o
51 1 -1 2 2 568.76 665.05 8.48 o
52 1 -1 2 1 10.20 10.77 0.94 o
53 1 -1 3 4 48.83 48.39 2.93 o
54 1 -1 3 3 184.26 187.24 5.09 o
55 1 -1 3 2 20.85 23.91 1.67 o
56 2 3 -4 -5 14.93 13.41 1.60 o
56 1 -1 4 5 14.93 13.41 1.60 o
57 1 -1 4 4 36.14 35.53 2.59 o
58 1 -1 4 3 36.89 45.77 2.64 o
59 1 -1 4 2 260.17 291.93 6.46 o
60 1 1 4 3 32.90 31.54 1.49 o
61 1 -1 5 6 17.47 12.68 1.73 o
62 2 3 -5 -5 27.83 21.90 2.07 o
62 1 -1 5 5 27.83 21.90 2.07 o
63 1 -1 5 4 49.42 51.44 3.02 o
64 1 -1 5 3 74.39 79.62 3.69 o
65 1 1 5 3 43.39 32.16 1.49 o
66 1 1 5 4 7.75 3.95 0.64 o
67 1 -1 6 6 3.33 1.21 0.58 <
68 2 3 -6 -5 62.53 73.05 3.84 o
68 1 -1 6 5 62.53 73.05 3.84 o
69 1 -1 6 4 13.29 15.45 1.64 o
70 1 1 6 4 51.47 40.64 1.85 o
71 2 5 -6 -5 4.58 2.13 0.52 o
71 1 1 6 5 4.58 2.13 0.52 o
72 2 3 -7 -5 7.85 9.98 1.40 o
72 1 -1 7 5 7.85 9.98 1.40 o
73 1 -1 7 4 31.54 27.31 2.51 o
74 1 2 -8 -4 14.65 15.06 2.16 o
75 1 2 -8 -3 12.73 12.72 1.96 o
76 2 -2 7 5 16.49 13.24 1.81 o
76 1 2 -7 -5 16.49 13.24 1.81 o
77 1 2 -7 -4 0.86 0.76 0.46 <
78 1 2 -7 -3 23.94 19.89 2.32 o
79 2 -2 6 5 25.57 26.55 2.61 o
79 1 2 -6 -5 25.57 26.55 2.61 o
80 1 2 -6 -4 38.07 35.46 2.99 o
81 1 2 -6 -3 18.76 18.95 2.18 o
82 2 -2 5 5 80.17 67.59 4.31 o
82 1 2 -5 -5 80.17 67.59 4.31 o
83 1 2 -5 -4 12.30 13.53 1.74 o
84 1 2 -5 -3 67.02 73.53 4.20 o
85 1 2 -5 -2 68.96 79.73 4.15 o
86 1 2 -4 -4 130.31 140.11 5.60 o
87 1 2 -4 -3 62.76 64.21 3.75 o
88 1 2 -4 -2 2.75 2.44 0.65 o
89 1 2 -3 -4 3.18 2.48 0.82 o
90 1 2 -3 -3 134.61 155.92 5.52 o
91 1 2 -3 -2 283.01 303.83 7.58 o
92 2 -2 3 0 578.73 544.17 5.43 o
92 1 -2 -3 0 578.73 544.17 5.43 o
93 1 2 -2 -3 95.55 93.04 4.06 o
94 1 2 -2 -2 34.49 35.45 2.44 o
95 1 2 -2 -1 302.52 325.19 6.87 o
96 1 -2 -2 1 302.52 321.98 5.43 o
97 2 -2 2 0 74.71 69.04 2.09 o
97 1 -2 -2 0 74.71 69.04 2.09 o
98 1 2 -1 -3 124.64 126.96 4.78 o
99 1 2 -1 -2 36.78 36.92 2.33 o
100 1 2 -1 -1 504.09 483.87 8.10 o
101 1 -2 -1 1 504.09 486.15 6.74 o
102 2 -2 1 0 74.81 66.70 2.35 o
102 1 -2 -1 0 74.81 66.70 2.35 o
103 1 -2 0 2 2.10 0.02 0.11 <
104 1 2 0 -2 2.10 0.02 0.05 <
105 1 2 0 -1 108.34 119.90 3.68 o
106 1 -2 0 1 108.34 125.54 3.75 o
107 2 2 0 0 1.53 0.32 0.23 <
107 1 2 0 0 1.53 0.32 0.23 <
108 1 -2 1 3 121.04 116.43 4.62 o
109 1 -2 1 2 34.36 31.59 2.17 o
110 1 2 1 -1 504.12 485.80 6.69 o
111 1 -2 1 1 504.12 479.40 7.77 o
112 2 2 -1 0 74.85 68.09 2.39 o
112 1 2 1 0 74.85 68.09 2.39 o
113 1 -2 2 4 75.17 64.46 3.91 o
114 1 -2 2 3 98.40 98.85 4.25 o
115 1 -2 2 2 35.67 39.23 2.56 o
116 1 -2 2 1 302.50 327.96 6.67 o
117 2 2 -2 0 74.69 70.63 2.06 o
117 1 2 2 0 74.69 70.63 2.06 o
118 2 2 -3 -5 83.51 63.60 4.20 o
118 1 -2 3 5 83.51 63.60 4.20 o
119 1 -2 3 4 3.21 2.40 0.67 o
120 1 -2 3 3 135.27 170.52 5.62 o
121 1 -2 3 2 283.43 317.04 7.43 o
122 1 -2 4 6 25.48 19.42 2.33 o
123 2 2 -4 -5 0.92 0.73 0.59 <
123 1 -2 4 5 0.92 0.73 0.59 <
124 1 -2 4 4 130.76 147.60 5.75 o
125 1 -2 4 3 61.74 70.09 3.79 o
126 1 -2 4 2 2.30 3.08 0.78 o
127 1 -2 5 6 16.95 14.47 2.02 o
128 2 2 -5 -5 80.19 83.72 4.57 o
128 1 -2 5 5 80.19 83.72 4.57 o
129 1 -2 5 4 12.21 12.36 1.65 o
130 1 -2 5 3 67.32 71.13 3.96 o
131 1 -2 6 6 4.18 1.83 0.71 <
132 2 2 -6 -5 25.57 33.74 2.83 o
132 1 -2 6 5 25.57 33.74 2.83 o
133 1 -2 6 4 37.43 35.90 2.77 o
134 2 2 -7 -5 16.48 17.81 2.01 o
134 1 -2 7 5 16.48 17.81 2.01 o
135 1 -2 7 4 0.90 2.03 0.74 <
136 2 -1 7 5 7.87 5.69 1.17 o
136 1 3 -7 -5 7.87 5.69 1.17 o
137 1 3 -7 -4 40.07 46.21 4.13 o
138 1 3 -7 -3 0.98 0.60 0.64 <
139 1 3 -6 -6 7.00 5.27 1.28 o
140 2 -1 6 5 62.02 59.16 4.46 o
140 1 3 -6 -5 62.02 59.16 4.46 o
141 1 3 -6 -4 0.85 1.08 0.76 <
142 1 3 -6 -3 61.31 64.97 4.56 o
143 2 -3 6 0 112.86 76.36 2.55 o
143 1 -3 -6 0 112.86 76.36 2.55 o
144 1 3 -5 -6 4.40 6.22 1.60 o
145 2 -1 5 5 28.00 25.30 2.72 o
145 1 3 -5 -5 28.00 25.30 2.72 o
146 1 3 -5 -4 19.66 21.26 2.44 o
147 1 3 -5 -3 0.41 0.82 0.59 <
148 2 -3 5 0 2.43 1.94 0.36 o
148 1 -3 -5 0 2.43 1.94 0.36 o
149 2 -1 4 5 14.75 12.88 2.05 o
149 1 3 -4 -5 14.75 12.88 2.05 o
150 1 3 -4 -4 6.64 5.92 1.28 o
151 1 3 -4 -3 34.80 34.99 3.16 o
152 1 3 -4 -2 28.01 34.06 3.03 o
153 1 -3 -4 1 29.77 29.34 1.97 o
154 2 -3 4 0 73.83 59.92 2.15 o
154 1 -3 -4 0 73.83 59.92 2.15 o
155 2 -1 3 5 64.69 57.46 4.35 o
155 1 3 -3 -5 64.69 57.46 4.35 o
156 1 3 -3 -4 5.72 5.55 1.23 o
157 1 3 -3 -3 25.60 28.36 2.67 o
158 1 3 -3 -2 47.75 55.59 3.77 o
159 1 -3 -3 1 48.45 55.72 2.64 o
160 2 -3 3 0 49.75 51.91 2.17 o
160 1 -3 -3 0 49.75 51.91 2.17 o
161 1 3 -2 -4 0.63 0.33 0.24 <
162 1 3 -2 -3 86.31 100.24 4.76 o
163 1 -3 -2 2 82.01 75.62 3.51 o
164 1 3 -2 -2 82.01 80.46 4.15 o
165 1 3 -2 -1 75.41 73.57 3.90 o
166 1 -3 -2 1 75.41 76.25 3.19 o
167 2 -3 2 0 190.27 197.29 4.68 o
167 1 -3 -2 0 190.27 197.29 4.68 o
168 1 3 -1 -4 104.67 95.99 4.99 o
169 1 3 -1 -3 2.63 1.73 0.71 <
170 1 -3 -1 2 117.36 115.33 4.41 o
171 1 3 -1 -2 117.36 117.99 4.91 o
172 1 3 -1 -1 113.29 117.58 4.72 o
173 1 -3 -1 1 113.29 110.34 4.15 o
174 1 -3 0 3 339.93 318.36 8.10 o
175 1 3 0 -3 339.93 316.62 7.99 o
176 1 3 0 -2 1.16 0.64 0.29 <
177 1 -3 0 2 1.16 0.15 0.37 <
178 1 -3 0 1 1.58 0.45 0.20 <
179 1 3 0 -1 1.58 0.49 0.32 <
180 1 -3 1 4 105.89 93.89 5.00 o
181 1 -3 1 3 2.71 1.84 0.71 <
182 1 3 1 -2 119.18 121.54 4.40 o
183 1 -3 1 2 119.18 111.68 4.77 o
184 1 3 1 -1 111.27 115.16 4.03 o
185 1 -3 1 1 111.27 117.28 4.55 o
186 2 3 -1 0 5.27 3.22 0.70 o
186 1 3 1 0 5.27 3.22 0.70 o
187 2 1 -2 -5 58.08 52.28 3.88 o
187 1 -3 2 5 58.08 52.28 3.88 o
188 1 -3 2 4 0.79 0.35 0.40 <
189 1 -3 2 3 86.09 97.59 4.73 o
190 1 -3 2 2 79.39 79.54 4.04 o
191 1 3 2 -1 77.95 78.25 3.10 o
192 2 3 -2 0 190.28 203.19 4.71 o
192 1 3 2 0 190.28 203.19 4.71 o
193 1 3 2 1 0.59 0.20 0.16 <
194 2 1 -3 -5 64.80 61.43 4.10 o
194 1 -3 3 5 64.80 61.43 4.10 o
195 1 -3 3 4 6.30 6.96 1.40 o
196 1 -3 3 3 25.51 29.97 2.71 o
197 1 -3 3 2 47.96 59.09 3.65 o
198 2 3 -3 0 49.75 52.48 2.19 o
198 1 3 3 0 49.75 52.48 2.19 o
199 1 3 3 1 5.87 6.71 0.72 o
200 1 -3 4 6 22.30 17.98 2.40 o
201 2 1 -4 -5 14.22 14.53 2.04 o
201 1 -3 4 5 14.22 14.53 2.04 o
202 1 -3 4 4 6.60 5.42 1.30 o
203 1 -3 4 3 35.06 38.31 3.18 o
204 1 -3 4 2 28.62 33.65 2.93 o
205 1 3 4 1 7.50 6.13 0.55 o
206 1 3 4 2 1.18 0.88 0.26 o
207 1 -3 5 7 2.96 0.36 0.51 <
208 1 -3 5 6 4.58 4.23 1.19 o
209 2 1 -5 -5 27.08 27.48 2.84 o
209 1 -3 5 5 27.08 27.48 2.84 o
210 1 -3 5 4 18.55 21.33 2.37 o
211 1 -3 5 3 0.42 0.91 0.62 <
212 1 -3 6 6 6.80 4.53 1.12 o
213 2 1 -6 -5 61.69 71.46 4.68 o
213 1 -3 6 5 61.69 71.46 4.68 o
214 1 -3 6 4 0.82 2.21 0.79 <
215 2 1 -7 -5 7.97 7.30 1.53 o
215 1 -3 7 5 7.97 7.30 1.53 o
216 1 -3 7 4 40.46 37.90 3.65 o
217 1 4 -7 -4 31.95 37.64 4.12 o
218 2 -4 7 0 59.88 38.71 1.71 o
218 1 -4 -7 0 59.88 38.71 1.71 o
219 1 4 -6 -6 0.51 0.39 0.08 o
220 2 0 6 5 35.92 46.93 4.37 o
220 1 4 -6 -5 35.92 46.93 4.37 o
221 1 4 -6 -4 7.24 10.80 2.01 o
222 1 4 -6 -3 3.99 1.59 0.63 <
223 1 -4 -6 1 3.18 2.46 0.51 o
224 2 -4 6 0 17.21 14.85 1.09 o
224 1 -4 -6 0 17.21 14.85 1.09 o
225 1 4 -5 -6 9.20 8.49 1.83 o
226 2 0 5 5 14.98 12.46 2.23 o
226 1 4 -5 -5 14.98 12.46 2.23 o
227 1 4 -5 -4 8.55 9.86 1.88 o
228 1 4 -5 -3 21.33 21.70 2.89 o
229 1 -4 -5 1 20.77 18.56 1.60 o
230 2 -4 5 0 16.67 17.04 1.25 o
230 1 -4 -5 0 16.67 17.04 1.25 o
231 1 4 -4 -6 4.87 3.34 1.20 <
232 2 0 4 5 13.25 13.07 2.10 o
232 1 4 -4 -5 13.25 13.07 2.10 o
233 1 4 -4 -4 0.32 0.64 0.65 <
234 1 4 -4 -3 3.18 1.92 1.01 <
235 1 -4 -4 2 61.08 59.64 3.57 o
236 1 -4 -4 1 2.86 0.97 0.40 <
237 2 -4 4 0 0.09 0.25 0.20 <
237 1 -4 -4 0 0.09 0.25 0.20 <
238 1 4 -3 -6 10.76 9.33 1.97 o
239 2 0 3 5 18.38 11.99 1.98 o
239 1 4 -3 -5 18.38 11.99 1.98 o
240 1 4 -3 -4 5.51 3.68 1.13 o
241 1 4 -3 -3 20.34 24.47 2.86 o
242 1 -4 -3 2 0.47 0.00 0.08 <
243 1 4 -3 -2 0.47 -0.19 0.50 <
244 1 -4 -3 1 22.67 22.84 1.99 o
245 2 -4 3 0 11.31 9.16 1.12 o
245 1 -4 -3 0 11.31 9.16 1.12 o
246 2 0 2 5 60.16 52.74 4.18 o
246 1 4 -2 -5 60.16 52.74 4.18 o
247 1 4 -2 -4 2.08 2.30 0.99 <
248 1 4 -2 -3 22.62 18.80 2.33 o
249 1 -4 -2 3 22.62 21.28 2.30 o
250 1 4 -2 -2 115.25 109.39 5.58 o
251 1 -4 -2 2 115.25 105.40 4.81 o
252 1 -4 -2 1 23.70 20.55 1.94 o
253 2 0 1 5 49.59 45.46 3.90 o
253 1 4 -1 -5 49.59 45.46 3.90 o
254 1 4 -1 -4 79.79 90.41 5.06 o
255 1 -4 -1 3 47.23 45.81 3.37 o
256 1 4 -1 -3 47.23 50.37 3.65 o
257 1 4 -1 -2 3.51 1.41 0.72 <
258 1 -4 -1 2 3.51 0.72 0.37 <
259 1 4 -1 -1 52.46 49.37 3.65 o
260 1 -4 -1 1 52.46 46.63 3.13 o
261 1 -4 0 4 55.60 69.85 4.54 o
262 1 4 0 -4 55.60 73.02 4.59 o
263 1 -4 0 3 1.15 1.18 0.59 <
264 1 4 0 -3 1.15 1.78 0.60 <
265 1 4 0 -2 25.26 21.84 2.26 o
266 1 -4 0 2 25.26 20.67 2.22 o
267 1 4 0 -1 1.09 2.12 0.79 <
268 1 -4 0 1 1.09 0.99 0.19 o
269 2 0 -1 -5 49.50 46.58 3.86 o
269 1 -4 1 5 49.50 46.58 3.86 o
270 1 -4 1 4 79.22 85.94 5.11 o
271 1 4 1 -3 47.20 49.61 3.50 o
272 1 -4 1 3 47.20 46.67 3.54 o
273 1 -4 1 2 3.51 0.00 0.20 <
274 1 4 1 -2 3.51 0.56 0.45 <
275 1 4 1 -1 52.40 49.57 3.25 o
276 1 -4 1 1 52.40 55.39 3.55 o
277 2 4 -1 0 164.43 186.88 6.20 o
277 1 4 1 0 164.43 186.88 6.20 o
278 1 -4 2 6 2.64 1.20 0.68 <
279 2 0 -2 -5 60.78 56.17 4.36 o
279 1 -4 2 5 60.78 56.17 4.36 o
280 1 -4 2 4 2.31 1.24 0.51 <
281 1 -4 2 3 21.80 20.23 2.41 o
282 1 -4 2 2 115.14 119.00 5.60 o
283 1 4 2 -2 115.14 109.43 4.86 o
284 1 4 2 -1 24.56 23.43 2.01 o
285 2 4 -2 0 2.99 4.89 0.89 o
285 1 4 2 0 2.99 4.89 0.89 o
286 1 -4 3 6 10.60 8.13 1.62 o
287 2 0 -3 -5 18.48 15.15 2.36 o
287 1 -4 3 5 18.48 15.15 2.36 o
288 1 -4 3 4 5.26 3.40 1.10 o
289 1 -4 3 3 19.62 22.97 2.64 o
290 1 -4 3 2 0.47 0.72 0.52 <
291 1 4 3 -1 23.49 25.89 2.09 o
292 2 4 -3 0 11.32 9.47 1.16 o
292 1 4 3 0 11.32 9.47 1.16 o
293 1 4 3 1 1.98 2.08 0.33 o
294 1 -4 4 7 3.62 2.26 1.08 <
295 1 -4 4 6 4.80 2.30 0.99 <
296 2 0 -4 -5 12.67 12.87 2.13 o
296 1 -4 4 5 12.67 12.87 2.13 o
297 1 -4 4 4 0.23 0.19 0.26 <
298 1 -4 4 3 3.52 1.31 0.75 <
299 2 4 -4 0 0.09 0.47 0.30 <
299 1 4 4 0 0.09 0.47 0.30 <
300 1 4 4 1 13.87 16.26 1.25 o
301 1 4 4 2 4.04 4.07 0.76 o
302 1 -4 5 6 9.29 11.27 2.23 o
303 2 0 -5 -5 14.91 15.74 2.35 o
303 1 -4 5 5 14.91 15.74 2.35 o
304 1 -4 5 4 8.86 6.96 1.57 o
305 1 -4 5 3 22.48 19.60 2.56 o
306 1 4 5 2 9.40 10.53 0.88 o
307 1 -4 6 6 0.57 1.09 1.08 <
308 2 0 -6 -5 36.13 50.55 4.63 o
308 1 -4 6 5 36.13 50.55 4.63 o
309 1 -4 6 4 7.22 8.70 1.73 o
310 2 1 6 5 4.59 3.59 1.13 o
310 1 5 -6 -5 4.59 3.59 1.13 o
311 1 5 -6 -4 12.70 10.56 2.06 o
312 1 -5 -6 2 3.36 2.05 0.53 o
313 1 -5 -6 1 12.29 9.89 1.26 o
314 1 5 -5 -6 6.36 5.49 1.77 o
315 2 1 5 5 25.30 19.88 2.99 o
315 1 5 -5 -5 25.30 19.88 2.99 o
316 1 5 -5 -4 0.53 0.56 0.96 <
317 1 5 -5 -3 17.42 22.24 3.22 o
318 1 -5 -5 2 15.96 17.65 1.89 o
319 1 -5 -5 1 1.13 0.42 0.25 <
320 1 5 -4 -6 7.73 8.15 1.94 o
321 2 1 4 5 3.51 1.29 0.82 <
321 1 5 -4 -5 3.51 1.29 0.82 <
322 1 5 -4 -4 24.33 26.83 3.25 o
323 1 5 -4 -3 2.18 2.35 1.04 <
324 1 -5 -4 3 2.18 1.71 0.82 <
325 1 -5 -4 2 2.78 2.23 0.79 <
326 1 -5 -4 1 25.53 24.44 2.23 o
327 1 5 -3 -7 1.17 1.84 1.03 <
328 1 5 -3 -6 6.24 5.65 1.55 o
329 2 1 3 5 28.78 31.71 3.63 o
329 1 5 -3 -5 28.78 31.71 3.63 o
330 1 5 -3 -4 0.01 0.07 0.50 <
331 1 -5 -3 3 40.30 37.09 3.25 o
332 1 5 -3 -3 40.30 41.44 4.03 o
333 1 -5 -3 2 36.22 36.23 3.13 o
334 1 5 -3 -2 36.22 39.86 4.01 o
335 1 -5 -3 1 0.06 0.45 0.27 <
336 1 5 -2 -6 5.94 4.21 1.20 o
337 2 1 2 5 1.71 2.87 1.26 <
337 1 5 -2 -5 1.71 2.87 1.26 <
338 1 5 -2 -4 25.67 29.58 3.23 o
339 1 -5 -2 4 25.67 26.69 2.92 o
340 1 -5 -2 3 2.76 2.88 0.91 o
341 1 5 -2 -3 2.76 2.59 0.99 <
342 1 5 -2 -2 3.37 3.98 1.23 o
343 1 -5 -2 2 3.37 2.08 0.82 <
344 1 -5 -2 1 26.84 23.70 2.38 o
345 2 1 1 5 26.02 27.86 3.24 o
345 1 5 -1 -5 26.02 27.86 3.24 o
346 1 -5 -1 4 1.66 2.36 1.89 <
347 1 5 -1 -4 1.66 0.26 0.41 <
348 1 5 -1 -3 6.53 4.28 1.12 o
349 1 -5 -1 3 6.53 5.46 1.34 o
350 1 5 -1 -2 6.49 4.59 1.28 o
351 1 -5 -1 2 6.49 5.33 1.33 o
352 1 -5 -1 1 1.81 1.01 0.60 <
353 1 5 -1 -1 1.81 1.45 0.78 <
354 2 -1 0 -5 9.80 7.18 1.50 o
354 1 -5 0 5 9.80 7.18 1.50 o
355 2 1 0 5 9.80 8.59 1.85 o
355 1 5 0 -5 9.80 8.59 1.85 o
356 1 5 0 -4 27.05 32.90 3.29 o
357 1 -5 0 4 27.05 26.19 3.14 o
358 1 -5 0 3 0.29 0.58 0.72 <
359 1 5 0 -3 0.29 0.30 0.23 <
360 1 -5 0 2 0.03 0.83 0.48 <
361 1 5 0 -2 0.03 -0.35 0.60 <
362 1 5 0 -1 31.66 32.97 3.20 o
363 1 -5 0 1 31.66 37.12 3.12 o
364 1 -5 1 6 8.09 4.74 1.41 o
365 2 -1 -1 -5 25.06 27.95 3.36 o
365 1 -5 1 5 25.06 27.95 3.36 o
366 1 5 1 -4 1.66 2.86 1.80 <
367 1 -5 1 4 1.66 0.83 0.68 <
368 1 -5 1 3 6.14 7.45 1.61 o
369 1 5 1 -3 6.14 7.11 1.38 o
370 1 5 1 -2 6.84 8.15 1.43 o
371 1 -5 1 2 6.84 6.66 1.33 o
372 1 5 1 -1 1.80 0.98 0.57 <
373 2 5 -1 0 15.87 26.20 2.59 o
373 1 5 1 0 15.87 26.20 2.59 o
374 1 -5 2 6 6.10 4.84 1.35 o
375 2 -1 -2 -5 1.64 1.04 0.65 <
375 1 -5 2 5 1.64 1.04 0.65 <
376 1 -5 2 4 24.99 26.60 3.19 o
377 1 -5 2 3 2.86 2.93 1.04 <
378 1 5 2 -3 2.86 3.66 1.06 o
379 1 -5 2 2 3.22 3.95 1.27 o
380 1 5 2 -2 3.22 2.91 0.84 o
381 1 5 2 -1 27.57 28.56 2.41 o
382 2 5 -2 0 1.38 1.31 0.48 <
382 1 5 2 0 1.38 1.31 0.48 <
383 1 -5 3 7 1.16 1.96 0.95 <
384 1 -5 3 6 6.24 4.70 1.40 o
385 2 -1 -3 -5 29.33 25.23 3.42 o
385 1 -5 3 5 29.33 25.23 3.42 o
386 1 -5 3 4 0.01 -1.52 1.05 <
387 1 -5 3 3 39.83 41.97 3.83 o
388 1 5 3 -2 36.70 45.79 3.30 o
389 1 5 3 -1 0.06 0.24 0.32 <
390 2 5 -3 0 21.27 28.27 2.28 o
390 1 5 3 0 21.27 28.27 2.28 o
391 1 5 3 1 5.95 8.14 1.28 o
392 1 -5 4 6 7.67 5.64 1.60 o
393 2 -1 -4 -5 3.42 1.75 0.94 <
393 1 -5 4 5 3.42 1.75 0.94 <
394 1 -5 4 4 24.85 26.05 3.29 o
395 1 -5 4 3 2.29 5.00 1.49 o
396 1 5 4 -1 24.92 26.24 2.37 o
397 2 5 -4 0 0.95 -0.31 0.24 <
397 1 5 4 0 0.95 -0.31 0.24 <
398 1 5 4 1 9.93 11.58 1.32 o
399 1 -5 5 6 6.32 4.78 1.65 <
400 2 -1 -5 -5 25.19 24.78 3.25 o
400 1 -5 5 5 25.19 24.78 3.25 o
401 1 -5 5 4 0.53 0.02 0.57 <
402 1 5 5 1 7.28 8.65 0.96 o
403 2 -1 -6 -5 4.66 2.94 1.21 <
403 1 -5 6 5 4.66 2.94 1.21 <
404 1 -5 6 4 12.75 9.42 1.97 o
405 1 6 -5 -4 4.86 4.19 1.28 o
406 1 -6 -5 3 0.21 0.54 0.45 <
407 1 -6 -5 2 4.68 2.15 0.84 <
408 2 2 4 5 15.89 9.51 2.36 o
408 1 6 -4 -5 15.89 9.51 2.36 o
409 1 6 -4 -4 4.80 2.61 0.95 <
410 1 6 -4 -3 12.71 10.05 2.41 o
411 1 -6 -4 3 12.71 10.04 1.88 o
412 1 -6 -4 2 4.77 2.92 0.98 <
413 1 -6 -4 1 0.81 1.29 0.75 <
414 1 6 -3 -6 4.82 3.94 1.61 <
415 2 2 3 5 15.07 8.80 2.05 o
415 1 6 -3 -5 15.07 8.80 2.05 o
416 1 -6 -3 4 2.50 3.60 1.25 <
417 1 6 -3 -4 2.50 3.17 1.17 <
418 1 -6 -3 3 0.03 0.26 0.64 <
419 1 6 -3 -3 0.03 -1.12 0.77 <
420 1 -6 -3 2 2.79 3.40 1.10 o
421 1 -6 -3 1 6.38 5.58 1.37 o
422 6 6 2 -7 0.01 0.50 1.06 <
422 1 6 -2 -7 0.01 0.50 1.06 <
423 1 6 -2 -6 8.42 11.87 2.53 o
424 2 -2 2 -5 10.34 6.13 1.76 o
424 1 -6 -2 5 10.34 6.13 1.76 o
425 2 2 2 5 10.34 5.26 1.61 o
425 1 6 -2 -5 10.34 5.26 1.61 o
426 1 6 -2 -4 0.24 0.44 0.46 <
427 1 -6 -2 4 0.24 -0.28 0.52 <
428 1 -6 -2 3 10.91 4.67 1.26 o
429 1 6 -2 -3 10.91 9.43 2.04 o
430 1 -6 -2 2 0.55 0.36 0.51 <
431 1 6 -2 -2 0.55 0.30 0.67 <
432 1 -6 -2 1 1.56 1.76 0.69 <
433 1 6 -1 -6 0.60 0.77 1.54 <
434 2 -2 1 -5 10.18 4.38 1.28 o
434 1 -6 -1 5 10.18 4.38 1.28 o
435 2 2 1 5 10.18 6.41 1.78 o
435 1 6 -1 -5 10.18 6.41 1.78 o
436 1 -6 -1 4 5.66 4.19 1.39 o
437 1 6 -1 -4 5.66 4.32 1.30 o
438 1 6 -1 -3 0.03 -0.10 0.50 <
439 1 -6 -1 3 0.03 0.05 0.35 <
440 1 -6 -1 2 6.58 5.13 1.40 o
441 1 6 -1 -2 6.58 7.42 1.85 o
442 1 -6 0 6 2.19 3.18 1.32 <
443 1 6 0 -6 2.19 3.22 1.33 <
444 2 -2 0 -5 15.00 6.49 1.79 o
444 1 -6 0 5 15.00 6.49 1.79 o
445 2 2 0 5 15.00 7.19 1.97 o
445 1 6 0 -5 15.00 7.19 1.97 o
446 1 -6 0 4 0.01 0.37 0.44 <
447 1 6 0 -4 0.01 0.93 0.73 <
448 1 6 0 -3 10.56 8.23 1.68 o
449 1 -6 0 3 10.56 6.49 1.55 o
450 1 -6 0 2 0.00 0.59 0.70 <
451 1 6 0 -2 0.00 -0.13 0.39 <
452 1 6 0 -1 0.88 1.04 0.55 <
453 1 -6 1 6 0.58 0.67 0.63 <
454 2 2 -1 5 10.52 6.48 1.67 o
454 1 6 1 -5 10.52 6.48 1.67 o
455 2 -2 -1 -5 10.52 5.35 1.52 o
455 1 -6 1 5 10.52 5.35 1.52 o
456 1 -6 1 4 5.74 3.40 1.19 <
457 1 6 1 -4 5.74 4.29 1.20 o
458 1 -6 1 3 0.03 0.45 0.70 <
459 1 6 1 -3 0.03 0.17 0.39 <
460 1 6 1 -2 6.50 3.14 0.70 o
461 1 -6 1 2 6.50 6.03 1.57 o
462 1 6 1 -1 4.66 5.38 1.37 o
463 6 -6 -2 7 0.01 -0.72 0.82 <
463 1 -6 2 7 0.01 -0.72 0.82 <
464 1 -6 2 6 8.55 9.86 2.26 o
465 2 -2 -2 -5 10.53 6.82 2.04 o
465 1 -6 2 5 10.53 6.82 2.04 o
466 1 -6 2 4 0.29 0.64 0.51 <
467 1 6 2 -4 0.29 0.68 0.54 <
468 1 6 2 -3 10.91 10.04 1.84 o
469 1 -6 2 3 10.91 9.33 1.96 o
470 1 6 2 -2 0.47 0.46 0.18 <
471 1 -6 2 2 0.47 -0.57 0.23 <
472 1 6 2 -1 1.69 3.36 1.00 o
473 2 6 -2 0 20.25 28.56 2.85 o
473 1 6 2 0 20.25 28.56 2.85 o
474 1 -6 3 6 4.81 2.02 0.87 <
475 2 -2 -3 -5 15.24 14.87 3.00 o
475 1 -6 3 5 15.24 14.87 3.00 o
476 1 -6 3 4 2.41 1.90 0.84 <
477 1 6 3 -3 0.03 0.03 0.13 <
478 1 -6 3 3 0.03 -0.92 0.88 <
479 1 6 3 -2 2.86 3.48 1.08 o
480 1 6 3 -1 6.24 7.52 1.46 o
481 2 6 -3 0 9.68 8.19 1.46 o
481 1 6 3 0 9.68 8.19 1.46 o
482 2 -2 -4 -5 15.70 10.96 2.56 o
482 1 -6 4 5 15.70 10.96 2.56 o
483 1 -6 4 4 4.79 4.38 1.69 <
484 1 -6 4 3 12.71 10.30 2.10 o
485 1 6 4 -2 4.75 2.83 1.08 <
486 1 6 4 -1 0.82 1.33 0.53 <
487 1 -6 5 4 4.96 5.64 1.79 o
488 2 -3 2 -5 7.58 4.02 1.53 <
488 1 -7 -2 5 7.58 4.02 1.53 <
489 2 3 2 5 7.58 3.69 1.36 <
489 1 7 -2 -5 7.58 3.69 1.36 <
490 1 -7 -2 4 0.34 0.33 0.39 <
491 1 7 -2 -4 0.34 -0.25 0.77 <
492 1 7 -2 -3 0.38 0.11 0.80 <
493 1 -7 -2 3 0.38 -0.15 0.17 <
494 1 -7 -2 2 3.26 4.14 1.28 o
495 2 -3 1 -5 5.27 2.71 1.38 <
495 1 -7 -1 5 5.27 2.71 1.38 <
496 2 3 1 5 5.27 1.59 0.87 <
496 1 7 -1 -5 5.27 1.59 0.87 <
497 1 7 -1 -4 2.83 5.55 1.63 o
498 1 -7 -1 4 2.83 2.94 1.32 <
499 1 -7 -1 3 2.40 2.89 1.26 <
500 1 7 -1 -3 2.40 2.83 1.22 <
501 1 7 -1 -2 0.81 -0.84 0.44 <
502 1 -7 -1 2 0.81 1.32 0.84 <
503 2 -3 0 -5 16.63 10.56 2.42 o
503 1 -7 0 5 16.63 10.56 2.42 o
504 2 3 0 5 16.63 12.01 2.67 o
504 1 7 0 -5 16.63 12.01 2.67 o
505 1 -7 0 4 0.66 1.74 0.46 o
506 1 7 0 -4 0.66 2.99 1.25 <
507 1 7 0 -3 0.64 0.44 0.31 <
508 1 -7 0 3 0.64 1.42 0.83 <
509 1 -7 0 2 6.09 5.54 1.62 o
510 1 7 0 -2 6.09 4.90 1.49 o
511 2 -3 -1 -5 5.36 1.95 1.04 <
511 1 -7 1 5 5.36 1.95 1.04 <
512 2 3 -1 5 5.36 1.53 0.54 <
512 1 7 1 -5 5.36 1.53 0.54 <
513 1 -7 1 4 2.88 4.69 1.53 o
514 1 7 1 -4 2.88 5.99 1.38 o
515 1 -7 1 3 2.36 2.32 1.16 <
516 1 7 1 -3 2.36 3.56 1.39 <
517 1 7 1 -2 0.82 0.97 0.78 <
518 2 3 -2 5 7.90 2.87 0.87 o
518 1 7 2 -5 7.90 2.87 0.87 o
519 2 -3 -2 -5 7.90 4.06 1.39 <
519 1 -7 2 5 7.90 4.06 1.39 <
520 1 -7 2 4 0.37 0.31 0.40 <
521 1 7 2 -4 0.37 2.22 1.02 <
522 1 -7 2 3 0.37 1.14 0.90 <
523 1 7 2 -3 0.37 0.35 0.57 <
524 1 7 2 -2 3.18 2.02 0.86 <
525 2 0 -7 -4 83.08 92.60 6.45 o
526 2 0 -6 -4 9.61 11.12 2.31 o
527 2 0 -6 -5 36.18 48.08 5.47 o
527 1 -4 6 5 36.18 48.08 5.47 o
528 2 0 -5 -3 0.37 0.01 0.12 <
529 2 0 -5 -4 4.55 3.87 1.28 o
530 2 0 -5 -5 14.94 15.69 3.21 o
530 1 -4 5 5 14.94 15.69 3.21 o
531 2 0 -5 -6 3.36 4.39 2.11 <
532 2 0 -4 -2 4.77 5.80 1.08 o
533 2 0 -4 -3 95.25 111.18 6.72 o
534 2 0 -4 -4 0.19 0.68 1.02 <
535 2 0 -4 -5 12.69 8.16 2.40 o
535 1 -4 4 5 12.69 8.16 2.40 o
536 2 0 -4 -6 29.81 26.38 4.72 o
537 2 0 -3 -2 356.88 412.85 10.58 o
538 2 0 -3 -3 1.12 0.27 0.16 <
539 2 0 -3 -4 0.46 0.36 0.54 <
540 2 0 -3 -5 18.51 14.87 2.99 o
540 1 -4 3 5 18.51 14.87 2.99 o
541 2 0 -3 -6 0.06 -0.43 0.78 <
542 2 0 -3 -7 13.43 7.83 3.00 <
543 2 0 -2 -1 1.02 0.18 0.21 <
544 2 0 -2 -2 156.23 161.63 6.53 o
545 2 0 -2 -3 163.93 156.71 8.07 o
546 2 0 -2 -4 5.56 3.51 1.32 <
547 2 0 -2 -5 60.91 50.19 6.02 o
547 1 -4 2 5 60.91 50.19 6.02 o
548 2 0 -2 -6 26.13 21.29 4.21 o
549 2 0 -2 -7 3.83 3.52 2.10 <
550 2 0 -1 -1 533.95 540.53 8.34 o
551 2 0 -1 -2 77.21 80.00 4.53 o
552 2 0 -1 -3 40.39 35.15 3.85 o
553 2 0 -1 -4 174.14 148.02 8.76 o
554 2 0 -1 -5 49.62 44.41 5.51 o
554 1 -4 1 5 49.62 44.41 5.51 o
555 2 0 0 1 139.48 92.79 3.00 o
556 2 0 0 -1 139.48 92.20 3.10 o
557 2 0 0 2 7.10 7.76 1.35 o
558 2 0 0 -2 7.10 8.13 1.50 o
559 2 0 1 1 534.01 540.88 8.42 o
560 2 0 1 2 77.46 80.41 4.40 o
561 2 0 1 3 40.38 31.90 3.40 o
562 2 0 1 4 174.11 152.95 8.18 o
563 2 0 1 5 49.72 45.19 4.94 o
563 1 4 -1 -5 49.72 45.19 4.94 o
564 2 0 2 1 1.03 -0.02 0.22 <
565 2 0 2 2 156.21 161.12 6.78 o
566 2 0 2 3 164.04 154.49 7.96 o
567 2 0 2 4 5.59 4.17 1.36 o
568 2 0 2 5 60.29 44.44 5.35 o
568 1 4 -2 -5 60.29 44.44 5.35 o
569 2 0 2 6 26.17 19.15 3.63 o
570 2 0 3 1 10.14 8.97 1.18 o
571 2 0 3 2 356.83 409.39 11.55 o
572 2 0 3 3 1.12 1.01 0.76 <
573 2 0 3 4 0.60 0.44 0.20 <
574 2 0 3 5 18.41 13.02 3.03 o
574 1 4 -3 -5 18.41 13.02 3.03 o
575 2 0 3 6 0.07 0.36 0.55 <
576 2 0 3 7 13.47 7.17 2.59 <
577 2 0 4 2 4.71 6.17 1.39 o
578 2 0 4 3 95.37 102.63 6.92 o
579 2 0 4 4 0.23 0.00 0.58 <
580 2 0 4 5 13.26 9.02 2.70 o
580 1 4 -4 -5 13.26 9.02 2.70 o
581 2 0 4 6 29.75 22.20 4.30 o
582 2 0 5 2 83.84 107.62 6.39 o
583 2 0 5 3 0.38 0.10 0.44 <
584 2 0 5 4 4.60 2.52 1.43 <
585 2 0 5 5 15.01 12.98 3.35 o
585 1 4 -5 -5 15.01 12.98 3.35 o
586 2 0 5 6 3.35 2.12 1.33 <
587 2 0 6 3 35.08 33.89 4.42 o
588 2 0 6 4 9.60 10.09 2.71 o
589 2 0 6 5 35.97 43.23 6.09 o
589 1 4 -6 -5 35.97 43.23 6.09 o
590 2 0 7 3 15.68 19.00 3.22 o
591 2 0 7 4 82.91 97.56 8.32 o
592 2 1 -7 -5 7.97 7.23 1.89 o
592 1 -3 7 5 7.97 7.23 1.89 o
593 2 1 -7 -4 31.20 29.76 3.23 o
594 2 1 -6 -6 3.15 2.68 1.57 <
595 2 1 -6 -5 61.74 72.05 6.50 o
595 1 -3 6 5 61.74 72.05 6.50 o
596 2 1 -6 -4 12.97 14.46 2.29 o
597 2 -1 -6 -4 51.30 66.21 6.07 o
598 2 -1 -6 -5 4.67 2.75 1.47 <
598 1 -5 6 5 4.67 2.75 1.47 <
599 2 1 -5 -6 17.25 17.75 3.30 o
600 2 1 -5 -5 27.11 21.79 3.57 o
600 1 -3 5 5 27.11 21.79 3.57 o
601 2 1 -5 -4 47.31 48.85 4.54 o
602 2 1 -5 -3 73.85 89.17 5.24 o
603 2 -1 -5 -3 44.15 56.07 4.94 o
604 2 -1 -5 -4 7.84 5.75 1.78 o
605 2 -1 -5 -5 25.24 27.71 4.32 o
605 1 -5 5 5 25.24 27.71 4.32 o
606 2 1 -4 -7 11.28 9.52 2.96 o
607 2 1 -4 -6 4.05 2.03 0.88 <
608 2 1 -4 -5 14.23 15.35 2.87 o
608 1 -3 4 5 14.23 15.35 2.87 o
609 2 1 -4 -4 34.94 36.86 4.05 o
610 2 1 -4 -3 35.74 41.79 3.61 o
611 2 1 -4 -2 257.88 311.38 7.97 o
612 2 -1 -4 -2 36.03 41.63 3.69 o
613 2 -1 -4 -3 32.97 38.97 4.36 o
614 2 -1 -4 -4 11.82 14.88 2.97 o
615 2 -1 -4 -5 3.42 2.28 1.44 <
615 1 -5 4 5 3.42 2.28 1.44 <
616 2 -1 -4 -6 12.35 11.09 3.17 o
617 2 1 -3 -7 13.93 10.27 3.04 o
618 2 1 -3 -6 18.05 16.58 3.58 o
619 2 1 -3 -5 64.88 49.75 5.53 o
619 1 -3 3 5 64.88 49.75 5.53 o
620 2 1 -3 -4 49.57 48.33 4.66 o
621 2 1 -3 -3 181.73 183.24 7.37 o
622 2 1 -3 -2 20.33 24.90 2.15 o
623 2 -1 -3 -2 188.54 195.32 8.23 o
624 2 -1 -3 -3 52.65 57.80 5.27 o
625 2 -1 -3 -4 14.05 14.17 2.91 o
626 2 -1 -3 -5 29.41 28.98 4.76 o
626 1 -5 3 5 29.41 28.98 4.76 o
627 2 -1 -3 -6 14.19 8.57 2.90 <
628 2 1 -2 -5 58.14 49.44 5.72 o
628 1 -3 2 5 58.14 49.44 5.72 o
629 2 1 -2 -4 10.20 6.49 1.78 o
630 2 1 -2 -3 155.55 141.62 6.49 o
631 2 1 -2 -2 559.95 601.50 10.23 o
632 3 1 2 1 1050.09 1138.50 15.05 o
632 2 -1 -2 -1 1050.09 1138.50 15.05 o
633 2 -1 -2 -2 157.95 165.77 7.80 o
634 2 -1 -2 -3 9.85 7.03 1.80 o
635 2 -1 -2 -4 43.26 39.61 4.86 o
636 2 -1 -2 -5 1.64 0.01 0.56 <
636 1 -5 2 5 1.64 0.01 0.56 <
637 2 -1 -2 -6 7.06 5.11 2.26 <
638 3 -1 1 -1 468.63 538.54 9.30 o
638 2 1 -1 1 468.63 538.54 9.30 o
639 3 1 1 1 468.63 528.42 11.06 o
639 2 -1 -1 -1 468.63 528.42 11.06 o
640 2 -1 -1 -2 48.66 45.42 4.19 o
641 2 1 -1 2 48.66 41.27 3.26 o
642 2 -1 -1 -3 111.88 104.43 6.85 o
643 2 1 -1 3 111.88 109.36 6.03 o
644 2 -1 -1 -4 17.83 15.77 2.89 o
645 2 -1 -1 -5 25.12 25.79 4.51 o
645 1 -5 1 5 25.12 25.79 4.51 o
646 2 -1 -1 -6 5.63 4.90 2.35 <
647 3 -1 0 -1 35.07 51.14 3.19 o
647 2 1 0 1 35.07 51.14 3.19 o
648 3 1 0 1 35.07 26.81 2.77 o
648 2 -1 0 -1 35.07 26.81 2.77 o
649 2 1 0 2 2.96 4.22 1.24 o
650 2 -1 0 -2 2.96 3.49 1.18 <
651 2 -1 0 -3 95.69 87.04 6.37 o
652 2 1 0 3 95.69 94.74 6.12 o
653 2 1 0 4 131.71 122.08 8.02 o
654 2 -1 0 -4 131.71 119.73 8.32 o
655 2 -1 0 -5 9.84 6.92 2.30 o
655 1 -5 0 5 9.84 6.92 2.30 o
656 2 1 0 5 9.84 8.28 2.39 o
656 1 5 0 -5 9.84 8.28 2.39 o
657 2 -1 0 -6 6.86 2.63 1.36 <
658 3 1 -1 1 468.52 538.44 9.57 o
658 2 -1 1 -1 468.52 538.44 9.57 o
659 3 -1 -1 -1 468.52 530.63 11.38 o
659 2 1 1 1 468.52 530.63 11.38 o
660 2 1 1 2 45.88 41.97 4.07 o
661 2 -1 1 -2 45.88 37.21 3.48 o
662 2 1 1 3 112.36 102.88 6.83 o
663 2 -1 1 -3 112.36 101.31 6.80 o
664 2 -1 1 -4 18.31 13.66 2.87 o
665 2 1 1 4 18.31 14.71 2.92 o
666 2 1 1 5 26.09 22.46 4.09 o
666 1 5 -1 -5 26.09 22.46 4.09 o
667 2 1 1 6 5.90 3.96 1.87 <
668 2 -1 2 4 9.35 6.60 1.53 o
669 2 -1 2 3 152.52 143.07 6.28 o
670 2 -1 2 2 560.54 596.59 10.08 o
671 3 -1 -2 -1 1050.03 1140.70 16.61 o
671 2 1 2 1 1050.03 1140.70 16.61 o
672 2 1 2 2 161.01 173.13 8.29 o
673 2 1 2 3 10.59 10.54 2.41 o
674 2 1 2 4 44.47 36.08 4.77 o
675 2 1 2 5 1.72 2.38 1.86 <
675 1 5 -2 -5 1.72 2.38 1.86 <
676 2 1 2 6 6.91 8.14 2.73 <
677 2 -1 3 6 18.20 17.55 3.53 o
678 2 -1 3 5 64.78 52.73 5.32 o
678 1 3 -3 -5 64.78 52.73 5.32 o
679 2 -1 3 4 48.12 47.37 4.56 o
680 2 -1 3 3 181.60 184.30 7.73 o
681 2 -1 3 2 20.55 24.24 2.21 o
682 2 -1 3 1 63.60 79.67 2.80 o
683 2 1 3 2 188.61 197.76 9.41 o
684 2 1 3 3 54.33 59.19 5.67 o
685 2 1 3 4 13.99 10.60 2.58 o
686 2 1 3 5 28.86 30.97 5.23 o
686 1 5 -3 -5 28.86 30.97 5.23 o
687 2 1 3 6 14.38 11.05 3.30 o
688 2 -1 4 7 11.27 13.51 3.37 o
689 2 -1 4 6 3.97 2.86 1.67 <
690 2 -1 4 5 14.76 12.64 2.92 o
690 1 3 -4 -5 14.76 12.64 2.92 o
691 2 -1 4 4 35.62 34.39 4.07 o
692 2 -1 4 3 36.36 40.81 3.82 o
693 2 -1 4 2 256.41 314.46 8.85 o
694 2 1 4 2 35.37 45.82 4.59 o
695 2 1 4 3 32.42 40.86 4.89 o
696 2 1 4 4 11.41 13.17 3.14 o
697 2 1 4 5 3.52 1.48 0.66 <
697 1 5 -4 -5 3.52 1.48 0.66 <
698 2 1 4 6 12.36 7.74 2.39 o
699 2 -1 5 6 17.22 14.89 3.44 o
700 2 -1 5 5 28.03 20.21 3.62 o
700 1 3 -5 -5 28.03 20.21 3.62 o
701 2 -1 5 4 48.71 48.53 5.02 o
702 2 -1 5 3 73.31 83.35 5.64 o
703 2 -1 5 2 42.28 50.80 3.76 o
704 2 1 5 3 42.76 53.99 5.86 o
705 2 1 5 4 7.63 2.97 1.22 <
706 2 1 5 5 25.35 26.06 4.88 o
706 1 5 -5 -5 25.35 26.06 4.88 o
707 2 -1 6 6 3.28 1.27 1.41 <
708 2 -1 6 5 62.07 59.90 6.50 o
708 1 3 -6 -5 62.07 59.90 6.50 o
709 2 -1 6 4 13.10 12.81 2.53 o
710 2 -1 6 3 27.34 27.70 3.38 o
711 2 -1 6 2 71.50 100.57 5.67 o
712 2 1 6 3 12.42 12.87 2.92 o
713 2 1 6 4 50.73 58.28 6.88 o
714 2 1 6 5 4.60 2.74 0.67 o
714 1 5 -6 -5 4.60 2.74 0.67 o
715 2 -1 7 5 7.87 5.21 1.67 o
715 1 3 -7 -5 7.87 5.21 1.67 o
716 2 -1 7 4 31.09 30.01 4.47 o
717 2 -1 7 3 6.68 8.13 2.21 o
718 2 1 7 4 2.63 2.84 1.89 <
719 2 -1 8 4 11.36 6.95 2.23 o
720 2 -1 8 3 10.14 12.84 2.39 o
721 2 2 -7 -5 16.48 15.41 2.57 o
721 1 -2 7 5 16.48 15.41 2.57 o
722 2 2 -7 -4 0.84 1.70 0.81 <
723 2 2 -6 -6 3.93 1.97 0.77 <
724 2 2 -6 -5 25.57 28.66 3.58 o
724 1 -2 6 5 25.57 28.66 3.58 o
725 2 2 -6 -4 37.52 37.94 3.56 o
726 2 -2 -6 -4 4.02 4.27 1.40 o
727 2 2 -5 -6 17.05 16.22 3.11 o
728 2 2 -5 -5 80.19 78.94 6.33 o
728 1 -2 5 5 80.19 78.94 6.33 o
729 2 2 -5 -4 12.13 10.17 1.94 o
730 2 2 -5 -3 66.06 69.61 4.06 o
731 2 -2 -5 -3 40.01 47.89 4.77 o
732 2 -2 -5 -4 20.24 21.93 3.66 o
733 2 2 -4 -7 12.33 10.74 3.05 o
734 2 2 -4 -6 25.08 27.31 4.36 o
735 2 2 -4 -5 0.92 0.69 0.89 <
735 1 -2 4 5 0.92 0.69 0.89 <
736 2 2 -4 -4 128.43 123.22 6.59 o
737 2 2 -4 -3 61.85 70.17 4.00 o
738 2 2 -4 -2 2.71 2.88 0.61 o
739 2 -2 -4 -3 0.49 -0.02 0.29 <
740 2 -2 -4 -4 28.05 31.09 4.55 o
741 2 -2 -4 -5 15.74 16.19 3.88 o
741 1 -6 4 5 15.74 16.19 3.88 o
742 2 2 -3 -5 83.51 75.76 6.57 o
742 1 -2 3 5 83.51 75.76 6.57 o
743 2 2 -3 -4 3.14 2.05 0.92 <
744 2 2 -3 -3 132.66 135.02 5.66 o
745 2 2 -3 -2 278.92 265.70 5.58 o
746 3 2 3 2 7.24 6.42 1.53 o
746 2 -2 -3 -2 7.24 6.42 1.53 o
747 2 -2 -3 -3 40.43 50.98 5.30 o
748 2 -2 -3 -4 11.47 11.51 2.70 o
749 2 -2 -3 -5 15.29 12.93 3.34 o
749 1 -6 3 5 15.29 12.93 3.34 o
750 2 -2 -2 -1 95.15 98.83 5.06 o
751 2 2 -2 1 95.15 94.36 4.46 o
752 3 -2 2 -2 142.21 155.18 7.02 o
752 2 2 -2 2 142.21 155.18 7.02 o
753 3 2 2 2 142.21 146.76 8.06 o
753 2 -2 -2 -2 142.21 146.76 8.06 o
754 2 -2 -2 -3 22.56 26.40 3.90 o
755 2 2 -2 3 22.56 20.74 2.75 o
756 2 -2 -2 -4 22.15 29.09 4.58 o
757 2 -2 -2 -5 10.57 7.38 2.37 o
757 1 -6 2 5 10.57 7.38 2.37 o
758 2 2 -1 1 121.94 119.30 5.70 o
759 2 -2 -1 -1 121.94 134.59 6.16 o
760 3 2 1 2 24.07 25.30 3.33 o
760 2 -2 -1 -2 24.07 25.30 3.33 o
761 3 -2 1 -2 24.07 25.76 3.00 o
761 2 2 -1 2 24.07 25.76 3.00 o
762 2 -2 -1 -3 21.53 23.74 3.70 o
763 2 2 -1 3 21.53 19.18 2.97 o
764 2 2 -1 4 25.56 25.47 3.74 o
765 2 -2 -1 -4 25.56 29.56 4.51 o
766 2 2 -1 5 10.56 4.93 1.95 <
766 1 6 1 -5 10.56 4.93 1.95 <
767 2 -2 -1 -5 10.56 4.50 2.01 <
767 1 -6 1 5 10.56 4.50 2.01 <
768 2 -2 -1 -6 7.35 5.67 2.41 <
769 2 2 0 1 5.01 2.86 1.12 <
770 2 -2 0 -1 5.01 4.34 1.18 o
771 3 -2 0 -2 183.62 159.00 8.17 o
771 2 2 0 2 183.62 159.00 8.17 o
772 3 2 0 2 183.62 156.98 8.09 o
772 2 -2 0 -2 183.62 156.98 8.09 o
773 2 -2 0 -3 2.85 2.51 1.31 <
774 2 2 0 3 2.85 3.03 1.30 <
775 2 -2 0 -4 0.07 -0.20 0.72 <
776 2 2 0 4 0.07 0.27 0.15 <
777 2 -2 0 -5 15.05 10.00 2.97 o
777 1 -6 0 5 15.05 10.00 2.97 o
778 2 2 0 5 15.05 9.49 2.58 o
778 1 6 0 -5 15.05 9.49 2.58 o
779 2 -2 0 -6 1.03 0.66 1.17 <
780 2 2 0 6 1.03 1.01 1.11 <
781 2 -2 1 -1 125.53 130.84 6.04 o
782 2 2 1 1 125.53 128.98 6.71 o
783 3 -2 -1 -2 24.06 26.67 3.41 o
783 2 2 1 2 24.06 26.67 3.41 o
784 3 2 -1 2 24.06 24.97 3.04 o
784 2 -2 1 -2 24.06 24.97 3.04 o
785 2 2 1 3 22.20 23.28 3.83 o
786 2 -2 1 -3 22.20 23.86 3.59 o
787 2 -2 1 -4 25.51 24.30 4.17 o
788 2 2 1 4 25.51 26.32 4.42 o
789 2 -2 1 -5 10.21 4.23 2.13 <
789 1 -6 -1 5 10.21 4.23 2.13 <
790 2 2 1 5 10.21 4.23 2.02 <
790 1 6 -1 -5 10.21 4.23 2.02 <
791 2 -2 1 -6 6.96 5.71 2.65 <
792 2 2 1 6 6.96 3.25 2.04 <
793 2 -2 2 -1 92.29 88.77 4.71 o
794 2 2 2 1 92.29 91.33 5.71 o
795 3 2 -2 2 142.15 150.15 7.83 o
795 2 -2 2 -2 142.15 150.15 7.83 o
796 3 -2 -2 -2 142.15 159.46 9.04 o
796 2 2 2 2 142.15 159.46 9.04 o
797 2 -2 2 -3 21.92 20.39 3.31 o
798 2 2 2 3 21.92 23.15 3.89 o
799 2 -2 2 -4 22.44 22.25 3.94 o
800 2 2 2 4 22.44 19.21 3.98 o
801 2 2 2 5 10.37 7.68 2.64 <
801 1 6 -2 -5 10.37 7.68 2.64 <
802 2 -2 3 -1 132.24 144.04 5.85 o
803 3 -2 -3 -2 7.24 6.09 1.65 o
803 2 2 3 2 7.24 6.09 1.65 o
804 3 2 -3 2 7.24 5.78 1.52 o
804 2 -2 3 -2 7.24 5.78 1.52 o
805 2 2 3 3 40.78 46.33 5.52 o
806 2 2 3 4 11.03 7.94 2.54 o
807 2 2 3 5 15.12 8.61 3.04 <
807 1 6 -3 -5 15.12 8.61 3.04 <
808 2 -2 4 4 128.87 123.75 6.69 o
809 2 -2 4 3 60.84 62.27 3.83 o
810 2 -2 4 2 2.27 1.74 0.43 o
811 3 -2 -4 -2 247.93 286.81 12.79 o
811 2 2 4 2 247.93 286.81 12.79 o
812 2 2 4 3 0.58 0.57 0.65 <
813 2 2 4 4 27.95 28.86 4.83 o
814 2 2 4 5 15.93 14.28 4.04 o
814 1 6 -4 -5 15.93 14.28 4.04 o
815 2 -2 5 6 16.70 17.49 3.16 o
816 2 -2 5 5 80.17 67.78 5.74 o
816 1 2 -5 -5 80.17 67.78 5.74 o
817 2 -2 5 4 12.03 9.28 2.02 o
818 2 -2 5 3 66.34 63.32 4.19 o
819 2 -2 5 2 68.00 77.21 3.76 o
820 2 2 5 3 39.14 47.16 6.02 o
821 2 2 5 4 20.62 17.06 3.87 o
822 2 -2 6 6 4.12 3.30 1.22 <
823 2 -2 6 5 25.57 26.50 3.63 o
823 1 2 -6 -5 25.57 26.50 3.63 o
824 2 -2 6 4 36.88 29.53 3.60 o
825 2 -2 6 3 17.29 19.99 2.49 o
826 2 -2 6 2 23.68 31.41 2.66 o
827 2 2 6 4 3.92 3.20 1.62 <
828 2 -2 7 5 16.49 11.88 2.88 o
828 1 2 -7 -5 16.49 11.88 2.88 o
829 2 -2 7 4 0.89 1.44 0.92 <
830 2 -2 7 3 23.69 21.58 2.78 o
831 2 -2 7 2 11.00 16.88 2.17 o
832 2 -2 8 4 14.84 17.22 2.78 o
833 2 -2 8 3 13.50 16.64 2.49 o
834 2 -2 8 2 1.68 1.58 0.95 <
835 2 3 -7 -5 7.84 10.48 1.89 o
835 1 -1 7 5 7.84 10.48 1.89 o
836 2 3 -6 -6 6.90 4.74 1.49 o
837 2 3 -6 -5 62.48 59.78 4.69 o
837 1 -1 6 5 62.48 59.78 4.69 o
838 2 3 -6 -4 0.84 1.31 0.65 <
839 2 3 -5 -6 4.34 4.60 1.75 <
840 2 3 -5 -5 27.80 21.87 3.04 o
840 1 -1 5 5 27.80 21.87 3.04 o
841 2 3 -5 -4 19.38 19.90 2.23 o
842 2 3 -5 -3 0.41 0.60 0.31 <
843 2 -3 -5 -4 2.80 2.86 1.50 <
844 2 3 -4 -5 14.92 13.35 2.54 o
844 1 -1 4 5 14.92 13.35 2.54 o
845 2 3 -4 -4 6.55 4.88 1.22 o
846 2 3 -4 -3 34.29 29.37 2.19 o
847 2 -3 -4 -3 23.64 41.25 5.02 o
848 2 -3 -4 -4 0.24 0.32 0.11 <
849 2 3 -3 1 6.44 6.19 1.36 o
850 2 -3 -3 -2 52.20 60.66 5.16 o
851 2 3 -3 2 52.20 46.53 4.15 o
852 2 -3 -3 -3 6.15 7.66 2.20 o
853 2 -3 -3 -4 12.82 14.39 3.27 o
854 2 3 -2 1 0.72 0.49 0.57 <
855 2 -3 -2 -2 16.17 25.33 3.59 o
856 2 3 -2 2 16.17 20.12 2.93 o
857 2 3 -2 3 48.36 93.66 6.99 o
858 2 -3 -2 -3 48.36 106.90 8.39 o
859 2 -3 -2 -4 0.94 1.08 1.47 <
860 2 3 -2 4 0.94 0.20 0.82 <
861 2 -3 -2 -5 7.92 3.03 1.72 <
861 1 -7 2 5 7.92 3.03 1.72 <
862 2 3 -2 5 7.92 3.77 1.63 <
862 1 7 2 -5 7.92 3.77 1.63 <
863 2 3 -1 1 107.64 93.40 6.01 o
864 2 -3 -1 -1 107.64 112.30 5.95 o
865 2 3 -1 2 48.12 50.41 4.87 o
866 2 -3 -1 -2 48.12 59.28 5.51 o
867 2 -3 -1 -3 10.03 19.11 3.66 o
868 2 3 -1 3 10.03 17.13 3.10 o
869 2 3 -1 4 8.47 7.05 2.31 o
870 2 -3 -1 -4 8.47 7.91 2.42 o
871 2 -3 -1 -5 5.38 3.35 2.15 <
871 1 -7 1 5 5.38 3.35 2.15 <
872 2 3 -1 5 5.38 2.47 1.42 <
872 1 7 1 -5 5.38 2.47 1.42 <
873 2 3 0 1 18.63 23.55 3.47 o
874 2 -3 0 -1 18.63 34.33 3.45 o
875 2 3 0 2 31.47 32.26 4.20 o
876 2 -3 0 -2 31.47 36.62 4.35 o
877 2 3 0 3 2.62 2.57 0.08 o
878 2 -3 0 -3 2.62 2.92 0.84 o
879 2 -3 0 -4 0.28 0.39 0.83 <
880 2 3 0 4 0.28 -0.33 1.15 <
881 2 -3 0 -5 16.68 14.95 4.01 o
881 1 -7 0 5 16.68 14.95 4.01 o
882 2 3 0 5 16.68 13.47 3.69 o
882 1 7 0 -5 16.68 13.47 3.69 o
883 2 3 1 1 106.59 108.45 7.05 o
884 2 -3 1 -1 106.59 104.19 6.17 o
885 2 3 1 2 46.39 51.94 5.57 o
886 2 -3 1 -2 46.39 55.77 5.27 o
887 2 -3 1 -3 10.22 20.50 3.74 o
888 2 3 1 3 10.22 17.22 3.60 o
889 2 3 1 4 8.49 7.97 2.63 o
890 2 -3 1 -4 8.49 7.77 2.71 <
891 2 -3 1 -5 5.28 4.62 2.53 <
891 1 -7 -1 5 5.28 4.62 2.53 <
892 2 3 1 5 5.28 2.52 1.61 <
892 1 7 -1 -5 5.28 2.52 1.61 <
893 2 -3 2 -1 0.58 0.38 0.23 <
894 2 3 2 2 16.53 23.34 3.95 o
895 2 -3 2 -2 16.53 22.39 3.36 o
896 2 3 2 3 47.94 99.33 8.77 o
897 2 -3 2 -3 47.94 97.00 7.75 o
898 2 3 2 4 0.93 0.39 0.32 <
899 2 -3 2 -4 0.93 0.22 0.75 <
900 2 3 2 5 7.61 3.93 2.30 <
900 1 7 -2 -5 7.61 3.93 2.30 <
901 2 -3 2 -5 7.61 4.74 2.57 <
901 1 -7 -2 5 7.61 4.74 2.57 <
902 2 -3 3 -1 5.78 3.11 1.04 <
903 2 -3 3 -2 51.90 50.39 4.88 o
904 2 3 3 2 51.90 55.18 6.14 o
905 2 -3 3 -3 6.34 6.10 1.94 o
906 2 3 3 3 6.34 5.29 2.16 <
907 2 -3 3 -4 12.64 9.70 2.93 o
908 2 3 3 4 12.64 12.36 3.46 o
909 2 -3 4 -1 7.39 3.72 1.00 o
910 2 -3 4 -2 1.17 1.39 2.02 <
911 2 -3 4 -3 23.65 92.40 8.65 o
912 2 3 4 3 23.65 45.08 6.34 o
913 2 3 4 4 0.24 0.08 1.01 <
914 2 -3 5 -1 19.80 16.60 2.27 o
915 2 -3 5 -2 25.51 16.45 2.58 o
916 2 3 5 3 6.43 6.68 2.23 <
917 2 3 5 4 3.02 0.48 0.48 <
918 2 -3 7 4 39.88 38.99 3.41 o
919 2 -3 7 3 0.98 0.56 0.29 <
920 2 -3 7 2 11.96 9.19 1.00 o
921 2 -3 8 4 1.93 0.85 0.70 <
922 2 -3 8 3 31.91 29.82 2.70 o
923 2 -3 8 2 7.21 9.37 1.21 o
924 2 4 -6 -6 0.50 0.44 0.55 <
925 2 4 -6 -5 35.98 39.89 3.66 o
925 1 0 6 5 35.98 39.89 3.66 o
926 2 4 -6 -4 7.14 10.70 1.47 o
927 2 4 -5 -5 15.10 15.71 2.21 o
927 1 0 5 5 15.10 15.71 2.21 o
928 2 4 -5 -4 8.42 6.91 1.27 o
929 2 4 -4 -1 2.82 1.52 0.45 o
930 2 4 -4 1 13.10 12.64 2.14 o
931 2 4 -3 -1 22.34 27.14 2.30 o
932 2 4 -3 1 2.04 1.28 0.79 <
933 2 4 -3 2 10.92 8.29 2.10 o
934 2 -4 -3 -3 9.93 11.77 2.76 o
935 2 4 -3 3 9.93 9.48 2.59 o
936 2 4 -2 -1 23.36 21.48 2.35 o
937 2 4 -2 1 29.19 24.85 3.36 o
938 2 -4 -2 -2 2.33 2.79 1.43 <
939 2 4 -2 2 2.33 1.73 1.04 <
940 2 -4 -2 -3 4.78 4.07 1.87 <
941 2 4 -2 3 4.78 2.47 1.32 <
942 2 4 -2 4 4.18 5.66 2.25 <
943 2 -4 -2 -4 4.18 5.60 2.20 <
944 2 4 -1 1 8.05 6.40 1.84 o
945 2 4 -1 2 9.62 8.81 2.44 o
946 2 -4 -1 -2 9.62 16.06 3.11 o
947 2 4 -1 3 9.48 4.65 2.06 <
948 2 -4 -1 -3 9.48 9.53 2.87 o
949 2 -4 -1 -4 2.74 3.29 2.13 <
950 2 4 -1 4 2.74 0.51 0.98 <
951 2 4 0 1 75.50 88.54 7.14 o
952 2 -4 0 -1 75.50 104.78 6.24 o
953 2 -4 0 -2 0.68 0.20 0.32 <
954 2 4 0 2 0.68 0.47 1.01 <
955 2 4 0 3 9.53 5.41 1.74 o
956 2 -4 0 -3 9.53 11.96 2.96 o
957 2 -4 0 -4 12.76 29.27 5.39 o
958 2 4 0 4 12.76 26.44 5.21 o
959 2 -4 1 -1 8.13 9.64 1.96 o
960 2 4 1 1 8.13 6.50 2.10 o
961 2 -4 1 -2 9.44 14.49 2.83 o
962 2 4 1 2 9.44 11.38 2.96 o
963 2 4 1 3 9.83 6.20 2.58 <
964 2 -4 1 -3 9.83 6.81 2.37 <
965 2 4 1 4 2.79 0.69 1.00 <
966 2 -4 1 -4 2.79 1.33 0.58 <
967 2 -4 2 -1 28.59 31.07 3.50 o
968 2 -4 2 -2 2.34 2.12 1.19 <
969 2 4 2 2 2.34 2.04 1.44 <
970 2 -4 2 -3 5.01 2.64 1.57 <
971 2 4 2 3 5.01 1.96 1.26 <
972 2 -4 2 -4 4.41 3.90 2.01 <
973 2 4 2 4 4.41 4.83 2.71 <
974 2 -4 3 -1 1.95 2.14 0.83 <
975 2 -4 3 -2 11.14 11.25 2.47 o
976 2 -4 3 -3 10.02 7.48 2.30 o
977 2 4 3 3 10.02 4.65 2.15 <
978 2 -4 4 -1 13.67 13.12 2.36 o
979 2 -4 4 -2 3.99 3.87 1.30 <
980 2 4 4 3 3.22 1.33 1.20 <
981 2 -4 4 -3 3.22 1.37 1.35 <
982 2 -4 5 -1 3.92 2.51 1.11 <
983 2 -4 5 -2 9.26 11.56 2.33 o
984 2 -4 6 -1 21.98 23.65 2.72 o
985 2 -4 6 -2 0.29 -0.66 1.20 <
986 2 5 -6 -5 4.58 1.99 0.63 o
986 1 1 6 5 4.58 1.99 0.63 o
987 2 5 -4 -2 2.74 1.52 0.54 <
988 2 5 -4 -1 25.16 26.64 2.63 o
989 2 5 -4 1 9.71 5.82 1.78 o
990 2 5 -3 -1 0.06 0.33 0.36 <
991 2 5 -3 1 5.82 5.20 1.59 o
992 2 5 -3 2 2.26 0.71 0.78 <
993 2 5 -2 1 5.98 3.86 1.49 <
994 2 5 -2 2 5.27 2.99 1.50 <
995 2 5 -1 1 8.73 5.73 1.94 <
996 2 5 -1 2 3.62 1.57 1.09 <
997 2 -5 -1 -2 3.62 4.99 1.56 o
998 2 5 0 1 0.57 -0.09 0.53 <
999 2 -5 0 -2 4.61 4.57 1.91 <
1000 2 5 0 2 4.61 0.32 0.99 <
1001 2 -5 1 -1 8.74 8.24 1.75 o
1002 2 -5 1 -2 3.52 3.03 1.52 <
1003 2 5 1 2 3.52 3.37 2.05 <
1004 2 -5 2 -1 5.78 7.62 1.70 o
1005 2 5 2 2 5.46 3.23 1.99 <
1006 2 -5 2 -2 5.46 6.38 2.05 o
1007 2 -5 3 -1 5.87 11.44 2.22 o
1008 2 -5 3 -2 2.28 1.63 1.47 <
1009 2 -5 4 -1 9.79 10.06 1.86 o
1010 2 -5 5 -1 7.17 4.53 1.41 o
1011 2 6 -5 -3 0.21 0.48 0.30 <
1012 2 6 -5 -2 4.61 3.54 0.86 o
1013 2 6 -4 -2 4.70 3.78 1.18 o
1014 2 6 -4 -1 0.80 1.12 0.59 <
1015 2 6 -3 -1 6.28 5.86 1.55 o
1016 2 6 -2 1 0.04 -0.46 0.93 <
1017 2 6 -1 1 1.36 0.39 0.68 <
1018 2 6 0 1 0.93 3.02 1.86 <
1019 3 0 -7 4 73.72 42.42 2.14 o
1020 3 0 -6 4 8.53 4.73 0.70 o
1021 3 0 -5 3 0.33 0.26 0.24 <
1022 3 0 -5 4 4.04 2.09 0.56 o
1023 3 0 -4 3 84.51 70.68 2.96 o
1024 3 0 -4 4 0.17 0.25 0.34 <
1025 3 0 -3 3 1.00 0.59 0.27 <
1026 3 0 -2 2 138.62 126.37 3.62 o
1027 3 0 -2 3 145.45 153.11 4.97 o
1028 3 0 -1 2 68.50 69.65 2.83 o
1029 3 0 1 -2 68.72 66.70 2.92 o
1030 3 0 1 -3 35.83 32.31 2.73 o
1031 3 0 1 -4 154.48 133.07 7.09 o
1032 4 -4 -1 5 43.21 45.77 5.06 o
1032 3 0 1 -5 43.21 45.77 5.06 o
1033 3 0 2 -2 138.60 132.06 3.23 o
1034 3 0 2 -3 145.55 153.93 5.13 o
1035 3 0 2 -4 4.96 3.71 0.94 o
1036 4 -4 -2 5 50.05 58.59 4.67 o
1036 3 0 2 -5 50.05 58.59 4.67 o
1037 3 0 2 -6 23.22 22.71 3.99 o
1038 3 0 2 -7 3.40 6.13 2.49 <
1039 3 0 3 -3 1.00 1.10 0.26 o
1040 3 0 3 -4 0.53 0.49 0.32 <
1041 4 -4 -3 5 16.10 17.74 2.11 o
1041 3 0 3 -5 16.10 17.74 2.11 o
1042 3 0 3 -6 0.06 -0.48 0.67 <
1043 4 -4 -4 5 10.24 11.39 1.35 o
1043 3 0 4 -5 10.24 11.39 1.35 o
1044 3 0 4 -6 26.40 24.49 2.26 o
1045 3 0 5 -6 2.97 3.94 0.66 o
1046 3 -1 -7 3 5.87 3.83 0.87 o
1047 3 1 -7 4 2.21 0.33 0.28 <
1048 3 1 -6 4 45.52 38.24 3.13 o
1049 4 5 6 -5 3.83 1.29 0.50 <
1049 3 1 -6 5 3.83 1.29 0.50 <
1050 3 -1 -5 2 37.80 30.52 2.57 o
1051 3 1 -5 3 39.17 36.91 2.69 o
1052 3 1 -5 4 6.96 3.59 1.18 o
1053 4 5 5 -5 21.71 19.13 2.41 o
1053 3 1 -5 5 21.71 19.13 2.41 o
1054 3 -1 -4 1 16.44 23.78 2.19 o
1055 3 1 -4 3 29.25 27.73 2.78 o
1056 3 1 -4 4 10.49 10.37 1.78 o
1057 4 5 4 -5 3.02 2.36 0.94 <
1057 3 1 -4 5 3.02 2.36 0.94 <
1058 3 1 -4 6 10.96 10.31 2.17 o
1059 3 -1 -3 1 57.00 63.53 2.87 o
1060 4 -1 3 0 106.26 157.54 5.99 o
1060 3 -1 -3 0 106.26 157.54 5.99 o
1061 3 1 -3 2 167.29 168.37 5.62 o
1062 3 1 -3 3 46.71 46.67 3.66 o
1063 3 1 -3 4 12.47 10.82 1.86 o
1064 4 5 3 -5 24.84 24.84 3.17 o
1064 3 1 -3 5 24.84 24.84 3.17 o
1065 3 -1 -2 1 7.88 8.61 0.83 o
1066 4 -1 2 0 15.17 15.91 1.52 o
1066 3 -1 -2 0 15.17 15.91 1.52 o
1067 3 -1 -2 -1 1050.03 1325.23 24.22 o
1067 2 1 2 1 1050.03 1325.23 24.22 o
1068 3 -1 -2 -2 140.15 146.20 7.43 o
1069 3 1 -2 2 140.15 153.32 6.03 o
1070 3 1 -2 3 8.74 8.12 1.50 o
1071 3 1 -2 4 38.39 30.60 3.18 o
1072 4 5 2 -5 1.38 0.44 0.39 <
1072 3 1 -2 5 1.38 0.44 0.39 <
1073 4 -1 1 0 636.82 749.24 13.19 o
1073 3 -1 -1 0 636.82 749.24 13.19 o
1074 3 -1 -1 -1 468.52 444.02 10.25 o
1074 2 1 1 1 468.52 444.02 10.25 o
1075 3 1 -1 1 468.52 441.20 9.54 o
1075 2 -1 1 -1 468.52 441.20 9.54 o
1076 3 -1 -1 -2 43.17 34.96 3.09 o
1077 3 1 -1 2 43.17 41.41 3.15 o
1078 3 -1 -1 -3 99.27 87.81 5.84 o
1079 3 1 -1 3 99.27 84.69 4.99 o
1080 3 -1 -1 -4 15.82 14.51 2.72 o
1081 3 1 -1 4 15.82 11.42 2.08 o
1082 4 5 1 -5 21.40 29.49 3.74 o
1082 3 1 -1 5 21.40 29.49 3.74 o
1083 4 -1 0 0 205.39 148.69 3.68 o
1083 3 -1 0 0 205.39 148.69 3.68 o
1084 4 1 0 0 205.39 156.14 4.02 o
1084 3 1 0 0 205.39 156.14 4.02 o
1085 3 -1 0 -1 35.07 48.81 3.00 o
1085 2 1 0 1 35.07 48.81 3.00 o
1086 3 1 0 1 35.07 25.39 2.65 o
1086 2 -1 0 -1 35.07 25.39 2.65 o
1087 3 1 0 2 2.63 3.82 0.90 o
1088 3 -1 0 -2 2.63 3.85 1.00 o
1089 3 -1 0 -3 84.91 86.86 5.38 o
1090 3 1 0 3 84.91 85.19 5.18 o
1091 3 1 0 4 116.87 122.24 6.77 o
1092 3 -1 0 -4 116.87 128.54 7.64 o
1093 4 -5 0 5 8.30 7.76 2.20 o
1093 3 -1 0 -5 8.30 7.76 2.20 o
1094 3 -1 0 -6 6.09 4.35 2.22 <
1095 4 1 -1 0 636.76 750.45 13.21 o
1095 3 1 1 0 636.76 750.45 13.21 o
1096 3 1 1 1 468.63 446.26 10.10 o
1096 2 -1 -1 -1 468.63 446.26 10.10 o
1097 3 -1 1 -1 468.63 434.11 8.77 o
1097 2 1 -1 1 468.63 434.11 8.77 o
1098 3 -1 1 -2 40.70 39.24 2.94 o
1099 3 1 1 2 40.70 32.71 2.82 o
1100 3 -1 1 -3 99.70 95.73 5.40 o
1101 3 1 1 3 99.70 92.15 5.38 o
1102 3 -1 1 -4 16.24 17.26 2.50 o
1103 4 -5 -1 5 22.23 33.41 4.28 o
1103 3 -1 1 -5 22.23 33.41 4.28 o
1104 3 -1 1 -6 5.24 3.16 1.74 <
1105 3 1 2 -1 8.92 8.44 0.81 o
1106 4 1 -2 0 15.05 16.09 1.49 o
1106 3 1 2 0 15.05 16.09 1.49 o
1107 3 1 2 1 1050.09 1332.01 23.60 o
1107 2 -1 -2 -1 1050.09 1332.01 23.60 o
1108 3 -1 2 -2 142.86 147.48 4.76 o
1109 3 1 2 2 142.86 145.97 6.86 o
1110 3 -1 2 -3 9.40 7.11 1.18 o
1111 3 -1 2 -4 39.46 35.20 3.37 o
1112 4 -5 -2 5 1.45 1.86 1.05 <
1112 3 -1 2 -5 1.45 1.86 1.05 <
1113 3 -1 2 -6 6.13 9.15 2.29 o
1114 3 1 3 -6 16.15 20.77 2.78 o
1115 4 -3 -3 5 51.32 74.69 4.36 o
1115 3 1 3 -5 51.32 74.69 4.36 o
1116 3 1 3 -4 42.70 39.09 2.48 o
1117 3 -1 3 -3 48.21 50.60 2.80 o
1118 3 -1 3 -4 12.41 13.95 1.73 o
1119 4 -5 -3 5 24.39 27.90 2.88 o
1119 3 -1 3 -5 24.39 27.90 2.88 o
1120 3 -1 3 -6 12.76 14.48 2.35 o
1121 3 1 4 -7 10.00 10.20 1.69 o
1122 3 1 4 -6 3.52 2.70 0.74 o
1123 4 -3 -4 5 12.92 13.79 1.25 o
1123 3 1 4 -5 12.92 13.79 1.25 o
1124 4 -5 -4 5 3.10 2.95 0.64 o
1124 3 -1 4 -5 3.10 2.95 0.64 o
1125 3 -1 4 -6 10.96 14.57 1.73 o
1126 3 1 5 -6 15.28 17.55 1.10 o
1127 3 -2 -8 3 11.13 11.61 1.60 o
1128 3 -2 -8 2 1.50 -0.67 1.19 <
1129 3 -2 -7 3 20.93 19.59 1.79 o
1130 3 -2 -7 2 9.56 14.86 2.06 o
1131 3 -2 -7 1 0.16 -0.22 0.57 <
1132 3 -2 -6 3 16.41 15.49 1.19 o
1133 3 -2 -6 2 21.19 27.73 2.54 o
1134 3 -2 -6 1 57.30 65.40 5.27 o
1135 4 -2 6 0 40.55 65.65 5.91 o
1135 3 -2 -6 0 40.55 65.65 5.91 o
1136 3 2 -6 4 3.56 4.14 1.56 <
1137 3 -2 -5 2 60.30 65.95 4.00 o
1138 3 -2 -5 1 44.44 51.64 4.04 o
1139 4 -2 5 0 123.72 150.89 7.97 o
1139 3 -2 -5 0 123.72 150.89 7.97 o
1140 3 -2 -5 -1 57.08 82.26 6.98 o
1141 3 2 -5 4 17.96 16.25 2.63 o
1142 3 -2 -4 2 2.40 3.09 0.63 o
1143 3 -2 -4 1 272.78 316.26 9.68 o
1144 4 -2 4 0 5.43 6.60 1.45 o
1144 3 -2 -4 0 5.43 6.60 1.45 o
1145 3 -2 -4 -1 53.74 68.91 5.57 o
1146 3 -2 -4 -2 247.93 332.70 14.96 o
1146 2 2 4 2 247.93 332.70 14.96 o
1147 3 2 -4 3 0.44 0.24 0.73 <
1148 3 2 -4 4 24.89 21.00 3.24 o
1149 4 6 4 -5 13.84 11.43 2.33 o
1149 3 2 -4 5 13.84 11.43 2.33 o
1150 3 -2 -3 2 247.48 255.79 5.52 o
1151 3 -2 -3 1 2.94 2.40 0.65 o
1152 4 -2 3 0 479.87 506.32 13.70 o
1152 3 -2 -3 0 479.87 506.32 13.70 o
1153 3 -2 -3 -1 117.99 135.39 7.27 o
1154 3 2 -3 2 7.24 4.22 1.15 o
1154 2 -2 3 -2 7.24 4.22 1.15 o
1155 3 -2 -3 -2 7.24 5.58 1.77 o
1155 2 2 3 2 7.24 5.58 1.77 o
1156 3 2 -3 3 35.87 33.38 3.98 o
1157 3 -2 -3 -3 35.87 41.82 5.21 o
1158 3 2 -3 4 10.18 9.48 2.23 o
1159 4 6 3 -5 12.97 9.67 2.25 o
1159 3 2 -3 5 12.97 9.67 2.25 o
1160 3 -2 -2 1 264.54 255.49 6.73 o
1161 4 -2 2 0 62.00 57.80 3.82 o
1161 3 -2 -2 0 62.00 57.80 3.82 o
1162 3 -2 -2 -1 84.42 78.03 5.16 o
1163 3 -2 -2 -2 142.15 124.43 7.12 o
1163 2 2 2 2 142.15 124.43 7.12 o
1164 3 2 -2 2 142.15 120.51 6.82 o
1164 2 -2 2 -2 142.15 120.51 6.82 o
1165 3 2 -2 3 20.01 22.76 3.15 o
1166 3 -2 -2 -3 20.01 19.13 3.04 o
1167 3 -2 -2 -4 19.66 21.62 3.54 o
1168 3 2 -2 4 19.66 24.24 3.45 o
1169 4 6 2 -5 9.13 7.61 1.96 o
1169 3 2 -2 5 9.13 7.61 1.96 o
1170 4 -6 2 5 9.13 8.17 2.96 <
1170 3 -2 -2 -5 9.13 8.17 2.96 <
1171 4 -2 1 0 61.91 48.58 3.03 o
1171 3 -2 -1 0 61.91 48.58 3.03 o
1172 3 -2 -1 -1 108.19 91.02 5.67 o
1173 3 2 -1 1 108.19 114.33 5.46 o
1174 3 -2 -1 -2 24.06 21.43 3.18 o
1174 2 2 1 2 24.06 21.43 3.18 o
1175 3 2 -1 2 24.06 22.94 3.05 o
1175 2 -2 1 -2 24.06 22.94 3.05 o
1176 3 2 -1 3 19.10 21.99 3.10 o
1177 3 -2 -1 -3 19.10 20.60 3.34 o
1178 3 2 -1 4 22.68 22.81 3.35 o
1179 3 -2 -1 -4 22.68 22.78 4.00 o
1180 4 -6 1 5 8.73 7.45 2.62 <
1180 3 -2 -1 -5 8.73 7.45 2.62 <
1181 4 6 1 -5 8.73 6.57 1.89 o
1181 3 2 -1 5 8.73 6.57 1.89 o
1182 3 2 -1 6 6.52 6.56 1.95 o
1183 3 -2 -1 -6 6.52 6.04 2.77 <
1184 4 -2 0 0 1.27 0.28 0.23 <
1184 3 -2 0 0 1.27 0.28 0.23 <
1185 4 2 0 0 1.27 0.10 0.10 <
1185 3 2 0 0 1.27 0.10 0.10 <
1186 3 2 0 1 4.44 4.89 1.25 o
1187 3 -2 0 -1 4.44 4.35 1.04 o
1188 3 -2 0 -2 183.62 141.14 7.36 o
1188 2 2 0 2 183.62 141.14 7.36 o
1189 3 2 0 2 183.62 159.06 8.16 o
1189 2 -2 0 -2 183.62 159.06 8.16 o
1190 3 -2 0 -3 2.53 1.94 0.75 <
1191 3 2 0 3 2.53 2.68 1.21 <
1192 3 -2 0 -4 0.07 0.25 0.55 <
1193 3 2 0 4 0.07 0.00 0.63 <
1194 4 6 0 -5 13.30 12.87 2.80 o
1194 3 2 0 5 13.30 12.87 2.80 o
1195 4 -6 0 5 13.30 13.73 2.97 o
1195 3 -2 0 -5 13.30 13.73 2.97 o
1196 3 -2 0 -6 0.92 1.20 0.69 <
1197 3 2 1 -1 440.83 450.21 9.48 o
1198 4 2 -1 0 62.18 49.07 3.49 o
1198 3 2 1 0 62.18 49.07 3.49 o
1199 3 2 1 1 111.38 101.96 6.22 o
1200 3 -2 1 -1 111.38 126.95 4.96 o
1201 3 2 1 2 24.07 24.26 3.22 o
1201 2 -2 -1 -2 24.07 24.26 3.22 o
1202 3 -2 1 -2 24.07 19.34 2.22 o
1202 2 2 -1 2 24.07 19.34 2.22 o
1203 3 2 1 3 19.70 23.25 3.24 o
1204 3 -2 1 -3 19.70 21.91 2.82 o
1205 3 -2 1 -4 22.63 26.60 3.67 o
1206 3 2 1 4 22.63 21.21 3.22 o
1207 4 6 -1 -5 8.44 5.76 1.84 o
1207 3 2 1 5 8.44 5.76 1.84 o
1208 4 -6 -1 5 8.44 6.20 1.86 o
1208 3 -2 1 -5 8.44 6.20 1.86 o
1209 3 -2 1 -6 6.17 6.54 2.10 o
1210 3 2 2 -1 264.52 263.92 7.61 o
1211 4 2 -2 0 61.87 55.85 3.77 o
1211 3 2 2 0 61.87 55.85 3.77 o
1212 3 2 2 1 81.89 73.11 4.95 o
1213 3 -2 2 -2 142.21 113.71 5.01 o
1213 2 2 -2 2 142.21 113.71 5.01 o
1214 3 2 2 2 142.21 136.08 6.96 o
1214 2 -2 -2 -2 142.21 136.08 6.96 o
1215 3 -2 2 -3 19.45 23.55 2.49 o
1216 3 2 2 3 19.45 16.55 2.63 o
1217 3 2 2 4 19.91 21.11 3.42 o
1218 3 -2 2 -4 19.91 24.81 2.95 o
1219 4 -6 -2 5 8.94 11.04 2.44 o
1219 3 -2 2 -5 8.94 11.04 2.44 o
1220 3 2 3 -2 247.84 257.88 6.52 o
1221 3 2 3 -1 2.94 2.53 0.74 o
1222 4 2 -3 0 479.79 503.26 12.90 o
1222 3 2 3 0 479.79 503.26 12.90 o
1223 3 2 3 1 117.34 134.10 6.88 o
1224 3 2 3 2 7.24 6.94 1.69 o
1224 2 -2 -3 -2 7.24 6.94 1.69 o
1225 3 -2 3 -3 36.18 44.08 3.03 o
1226 3 2 3 3 36.18 40.90 4.58 o
1227 3 -2 3 -4 9.78 14.30 1.85 o
1228 4 -6 -3 5 12.83 15.38 2.38 o
1228 3 -2 3 -5 12.83 15.38 2.38 o
1229 3 2 4 -3 53.98 42.32 2.04 o
1230 3 2 4 -2 2.01 2.01 0.45 o
1231 3 2 4 -1 272.69 309.40 9.06 o
1232 4 2 -4 0 5.49 5.47 1.16 o
1232 3 2 4 0 5.49 5.47 1.16 o
1233 3 2 4 1 54.53 63.39 5.07 o
1234 4 -6 -4 5 14.01 21.29 2.29 o
1234 3 -2 4 -5 14.01 21.29 2.29 o
1235 3 -3 -8 3 28.47 27.24 2.50 o
1236 3 -3 -8 2 6.80 9.61 1.82 o
1237 3 -3 -8 1 7.85 7.20 1.91 o
1238 3 -3 -7 3 0.85 0.82 0.27 <
1239 3 -3 -7 2 11.02 8.48 1.80 o
1240 3 -3 -7 1 10.47 8.21 2.06 o
1241 4 -3 7 0 1.82 0.98 0.63 <
1241 3 -3 -7 0 1.82 0.98 0.63 <
1242 3 -3 -6 3 53.62 60.22 3.06 o
1243 3 -3 -6 2 10.32 8.30 1.43 o
1244 3 -3 -6 1 10.28 6.37 1.51 o
1245 4 -3 6 0 93.58 115.07 7.97 o
1245 3 -3 -6 0 93.58 115.07 7.97 o
1246 3 -3 -6 -1 0.96 0.63 0.37 <
1247 3 -3 -5 2 55.11 54.11 3.88 o
1248 3 -3 -5 1 52.66 56.60 4.63 o
1249 4 -3 5 0 2.01 0.58 0.42 <
1249 3 -3 -5 0 2.01 0.58 0.42 <
1250 3 -3 -5 -1 16.54 16.45 3.07 o
1251 3 -3 -5 -2 21.94 17.68 3.61 o
1252 3 -3 -5 -3 5.89 7.21 2.46 <
1253 3 -3 -4 2 24.50 31.22 2.47 o
1254 3 -3 -4 1 26.03 26.81 3.09 o
1255 4 -3 4 0 61.22 60.04 5.03 o
1255 3 -3 -4 0 61.22 60.04 5.03 o
1256 3 -3 -4 -1 6.58 3.12 1.26 <
1257 3 -3 -4 -2 0.89 0.99 0.90 <
1258 3 3 -4 3 20.98 42.30 6.44 o
1259 3 -3 -4 -3 20.98 40.43 6.02 o
1260 3 3 -4 4 0.21 0.42 1.12 <
1261 3 -3 -4 -4 0.21 0.21 0.00 o
1262 3 -3 -3 2 41.76 41.00 2.38 o
1263 3 -3 -3 1 42.37 45.11 3.33 o
1264 4 -3 3 0 41.24 46.63 4.20 o
1264 3 -3 -3 0 41.24 46.63 4.20 o
1265 3 -3 -3 -1 5.71 3.12 1.35 <
1266 3 -3 -3 -2 46.32 39.09 4.59 o
1267 3 3 -3 3 5.45 4.45 1.69 <
1268 3 -3 -3 -3 5.45 3.64 1.43 <
1269 3 -3 -3 -4 11.37 7.61 2.78 <
1270 3 3 -3 4 11.37 11.80 2.94 o
1271 3 -3 -2 1 65.94 66.01 3.59 o
1272 4 -3 2 0 157.73 134.67 6.61 o
1272 3 -3 -2 0 157.73 134.67 6.61 o
1273 3 -3 -2 -1 0.64 -0.10 0.39 <
1274 3 3 -2 2 14.35 19.32 3.01 o
1275 3 -3 -2 -2 14.35 16.12 2.99 o
1276 3 3 -2 3 42.91 86.92 7.44 o
1277 3 -3 -2 -3 42.91 93.10 8.22 o
1278 3 3 -2 4 0.83 1.11 0.90 <
1279 3 -3 -2 -4 0.83 0.97 0.86 <
1280 4 -7 2 5 6.68 6.22 2.66 <
1280 3 -3 -2 -5 6.68 6.22 2.66 <
1281 4 7 2 -5 6.68 3.63 1.86 <
1281 3 3 -2 5 6.68 3.63 1.86 <
1282 4 -3 1 0 4.38 3.68 0.97 o
1282 3 -3 -1 0 4.38 3.68 0.97 o
1283 3 3 -1 1 95.50 96.29 6.07 o
1284 3 -3 -1 -1 95.50 79.39 5.68 o
1285 3 -3 -1 -2 42.70 44.48 5.02 o
1286 3 3 -1 2 42.70 48.97 5.13 o
1287 3 -3 -1 -3 8.90 14.58 3.04 o
1288 3 3 -1 3 8.90 19.02 3.70 o
1289 3 -3 -1 -4 7.51 7.61 2.25 o
1290 3 3 -1 4 7.51 7.07 2.42 <
1291 4 7 1 -5 4.70 1.58 0.98 <
1291 3 3 -1 5 4.70 1.58 0.98 <
1292 4 -7 1 5 4.70 2.94 1.88 <
1292 3 -3 -1 -5 4.70 2.94 1.88 <
1293 4 3 0 0 554.52 536.90 14.98 o
1293 3 3 0 0 554.52 536.90 14.98 o
1294 4 -3 0 0 554.52 544.39 12.20 o
1294 3 -3 0 0 554.52 544.39 12.20 o
1295 3 -3 0 -1 16.53 28.16 3.00 o
1296 3 3 0 1 16.53 25.43 3.63 o
1297 3 -3 0 -2 27.92 28.67 3.58 o
1298 3 3 0 2 27.92 29.03 4.19 o
1299 3 -3 0 -3 2.32 2.27 1.17 <
1300 3 3 0 3 2.32 2.60 1.12 <
1301 3 -3 0 -4 0.25 -0.23 0.87 <
1302 3 3 0 4 0.25 -0.19 0.69 <
1303 4 -7 0 5 14.14 20.17 3.98 o
1303 3 -3 0 -5 14.14 20.17 3.98 o
1304 4 7 0 -5 14.14 16.63 3.90 o
1304 3 3 0 5 14.14 16.63 3.90 o
1305 4 3 -1 0 4.37 1.55 0.80 <
1305 3 3 1 0 4.37 1.55 0.80 <
1306 3 -3 1 -1 94.58 98.69 4.83 o
1307 3 3 1 1 94.58 80.96 6.36 o
1308 3 -3 1 -2 41.16 53.09 4.20 o
1309 3 3 1 2 41.16 45.23 5.12 o
1310 3 -3 1 -3 9.07 15.17 2.43 o
1311 3 3 1 3 9.07 16.80 3.31 o
1312 3 3 1 4 7.53 5.23 1.60 o
1313 3 -3 1 -4 7.53 8.32 2.07 o
1314 4 7 -1 -5 4.61 5.02 2.21 <
1314 3 3 1 5 4.61 5.02 2.21 <
1315 4 -7 -1 5 4.61 5.83 2.18 <
1315 3 -3 1 -5 4.61 5.83 2.18 <
1316 3 3 2 -1 68.16 59.62 4.20 o
1317 4 3 -2 0 157.79 134.97 7.36 o
1317 3 3 2 0 157.79 134.97 7.36 o
1318 3 3 2 1 0.52 -0.23 0.57 <
1319 3 -3 2 -2 14.66 23.41 2.43 o
1320 3 3 2 2 14.66 16.05 3.20 o
1321 3 -3 2 -3 42.54 82.50 5.24 o
1322 3 3 2 3 42.54 104.67 8.25 o
1323 3 3 2 4 0.83 0.86 0.92 <
1324 3 -3 2 -4 0.83 1.18 0.57 <
1325 4 7 -2 -5 6.41 5.64 2.43 <
1325 3 3 2 5 6.41 5.64 2.43 <
1326 4 -7 -2 5 6.41 6.64 1.61 o
1326 3 -3 2 -5 6.41 6.64 1.61 o
1327 3 3 3 -2 41.94 46.40 3.28 o
1328 3 3 3 -1 42.25 43.15 3.67 o
1329 4 3 -3 0 41.26 33.64 3.85 o
1329 3 3 3 0 41.26 33.64 3.85 o
1330 3 3 3 1 5.13 2.62 1.00 <
1331 3 3 3 2 46.05 39.04 4.32 o
1332 3 3 3 3 5.62 6.17 1.86 o
1333 3 3 3 4 11.22 8.68 2.35 o
1334 3 -3 3 -4 11.22 16.96 2.30 o
1335 3 3 4 -4 5.77 7.39 1.09 o
1336 3 3 4 -3 30.66 29.35 2.39 o
1337 3 3 4 -2 25.03 26.56 2.64 o
1338 3 3 4 -1 25.42 24.67 2.88 o
1339 4 3 -4 0 61.19 57.04 4.67 o
1339 3 3 4 0 61.19 57.04 4.67 o
1340 3 3 4 1 6.56 3.29 1.28 <
1341 3 3 4 2 1.03 0.11 0.58 <
1342 3 3 4 3 20.99 52.71 6.07 o
1343 3 3 4 4 0.21 -0.73 1.02 <
1344 4 -1 -5 5 23.05 14.51 1.11 o
1344 3 3 5 -5 23.05 14.51 1.11 o
1345 3 3 5 -4 16.22 14.21 1.35 o
1346 3 3 5 -3 0.37 0.62 0.39 <
1347 3 3 5 -2 54.70 51.24 3.60 o
1348 3 3 5 -1 53.18 53.41 4.11 o
1349 4 3 -5 0 2.01 2.13 1.10 <
1349 3 3 5 0 2.01 2.13 1.10 <
1350 3 3 5 1 17.57 17.65 2.88 o
1351 3 3 5 2 22.63 21.26 3.43 o
1352 3 3 6 -4 0.72 0.43 0.28 <
1353 3 3 6 -3 53.77 59.54 3.83 o
1354 3 3 6 -2 11.10 5.61 1.34 o
1355 3 3 6 -1 9.49 6.37 1.41 o
1356 4 3 -6 0 93.57 117.36 7.87 o
1356 3 3 6 0 93.57 117.36 7.87 o
1357 3 -4 -7 3 17.43 22.30 2.35 o
1358 3 -4 -7 2 0.15 0.15 0.73 <
1359 3 -4 -7 1 16.90 17.28 3.07 o
1360 4 -4 7 0 49.65 63.92 6.77 o
1360 3 -4 -7 0 49.65 63.92 6.77 o
1361 3 -4 -6 3 3.49 3.69 0.75 o
1362 3 -4 -6 2 18.43 15.83 2.34 o
1363 3 -4 -6 1 2.78 1.64 1.10 <
1364 4 -4 6 0 14.27 16.78 2.99 o
1364 3 -4 -6 0 14.27 16.78 2.99 o
1365 3 -4 -6 -1 19.70 18.14 3.83 o
1366 3 -4 -6 -2 0.29 -0.34 0.92 <
1367 3 -4 -5 2 1.13 0.14 0.39 <
1368 3 -4 -5 1 18.16 17.35 2.80 o
1369 4 -4 5 0 13.84 17.18 3.02 o
1369 3 -4 -5 0 13.84 17.18 3.02 o
1370 3 -4 -5 -1 3.42 1.11 0.75 <
1371 3 -4 -5 -2 8.39 8.52 2.49 o
1372 3 -4 -4 2 53.41 61.19 3.85 o
1373 3 -4 -4 1 2.50 0.80 0.63 <
1374 4 -4 4 0 0.07 0.61 0.85 <
1374 3 -4 -4 0 0.07 0.61 0.85 <
1375 3 -4 -4 -1 11.62 7.59 1.99 o
1376 3 -4 -4 -2 3.46 2.95 1.47 <
1377 3 -4 -4 -3 2.99 1.78 1.62 <
1378 3 -4 -3 1 19.82 22.38 2.47 o
1379 4 -4 3 0 9.36 6.93 1.53 o
1379 3 -4 -3 0 9.36 6.93 1.53 o
1380 3 -4 -3 -1 1.81 1.43 0.93 <
1381 3 -4 -3 -2 9.69 5.24 1.87 <
1382 3 4 -3 3 8.81 7.39 2.70 <
1383 3 -4 -3 -3 8.81 4.00 1.81 <
1384 3 -4 -2 1 20.73 20.78 2.21 o
1385 4 -4 2 0 2.49 3.50 1.24 <
1385 3 -4 -2 0 2.49 3.50 1.24 <
1386 3 -4 -2 -1 25.90 20.47 3.11 o
1387 3 4 -2 2 2.07 2.07 1.11 <
1388 3 -4 -2 -2 2.07 1.27 0.82 <
1389 3 -4 -2 -3 4.24 1.48 0.77 <
1390 3 4 -2 3 4.24 2.84 1.57 <
1391 3 4 -2 4 3.71 3.62 1.85 <
1392 3 -4 -2 -4 3.71 6.55 2.84 <
1393 4 -4 1 0 136.29 159.77 6.93 o
1393 3 -4 -1 0 136.29 159.77 6.93 o
1394 3 -4 -1 -1 7.14 8.39 1.81 o
1395 3 4 -1 1 7.14 7.66 2.22 o
1396 3 4 -1 2 8.54 5.64 2.17 <
1397 3 -4 -1 -2 8.54 9.27 2.22 o
1398 3 4 -1 3 8.41 3.43 1.59 <
1399 3 -4 -1 -3 8.41 4.47 1.73 <
1400 3 -4 -1 -4 2.43 0.53 0.66 <
1401 3 4 -1 4 2.43 1.89 0.90 <
1402 3 -4 0 -1 66.99 78.50 5.46 o
1403 3 4 0 1 66.99 67.13 6.82 o
1404 3 4 0 2 0.61 0.15 0.93 <
1405 3 -4 0 -2 0.61 0.08 0.39 <
1406 3 4 0 3 8.45 6.97 2.39 <
1407 3 -4 0 -3 8.45 9.79 2.34 o
1408 3 4 0 4 11.32 27.61 5.48 o
1409 3 -4 0 -4 11.32 24.02 4.13 o
1410 4 4 -1 0 136.37 144.47 8.69 o
1410 3 4 1 0 136.37 144.47 8.69 o
1411 3 4 1 1 7.21 5.67 2.07 <
1412 3 4 1 2 8.37 6.87 2.36 <
1413 3 -4 1 -2 8.37 15.29 2.25 o
1414 3 4 1 3 8.72 5.98 2.42 <
1415 3 -4 1 -3 8.72 9.37 1.96 o
1416 3 4 1 4 2.48 2.25 1.63 <
1417 3 -4 1 -4 2.48 2.09 0.87 <
1418 3 4 2 -1 21.48 17.79 2.77 o
1419 4 4 -2 0 2.47 2.06 0.93 <
1419 3 4 2 0 2.47 2.06 0.93 <
1420 3 4 2 1 25.37 16.37 3.18 o
1421 3 4 2 2 2.07 -0.01 0.59 <
1422 3 4 2 3 4.44 2.72 1.54 <
1423 3 -4 2 -3 4.44 5.52 1.34 o
1424 3 4 2 4 3.91 3.40 1.76 <
1425 3 -4 2 -4 3.91 5.94 1.60 o
1426 3 4 3 -2 0.41 0.00 0.20 <
1427 3 4 3 -1 20.54 17.86 2.78 o
1428 4 4 -3 0 9.40 5.09 1.59 o
1428 3 4 3 0 9.40 5.09 1.59 o
1429 3 4 3 1 1.73 1.08 0.92 <
1430 3 4 3 2 9.89 4.32 1.65 <
1431 3 4 3 3 8.89 5.50 2.14 <
1432 3 4 4 -3 3.08 0.81 0.47 <
1433 3 4 4 -2 53.60 48.51 4.27 o
1434 3 4 4 -1 2.23 0.82 0.65 <
1435 4 4 -4 0 0.08 -0.14 0.54 <
1435 3 4 4 0 0.08 -0.14 0.54 <
1436 3 4 4 1 12.13 8.91 2.23 o
1437 3 4 4 2 3.54 1.17 0.99 <
1438 3 4 4 3 2.86 1.65 1.13 <
1439 4 0 -5 5 12.00 5.25 1.07 o
1439 3 4 5 -5 12.00 5.25 1.07 o
1440 3 4 5 -4 7.75 7.41 1.18 o
1441 3 4 5 -3 19.66 14.33 1.97 o
1442 3 4 5 -2 1.13 0.26 0.48 <
1443 3 4 5 -1 17.14 11.60 2.33 o
1444 4 4 -5 0 13.80 17.16 2.96 o
1444 3 4 5 0 13.80 17.16 2.96 o
1445 3 4 5 1 3.48 1.16 0.94 <
1446 3 4 5 2 8.22 7.19 2.30 o
1447 3 4 6 -6 0.50 -0.31 0.34 <
1448 4 0 -6 5 29.80 21.33 2.00 o
1448 3 4 6 -5 29.80 21.33 2.00 o
1449 3 4 6 -4 6.31 7.78 1.22 o
1450 3 4 6 -3 3.62 1.85 0.80 <
1451 3 4 6 -2 18.35 11.84 1.96 o
1452 3 4 6 -1 2.61 1.28 0.25 o
1453 4 4 -6 0 14.27 19.04 3.25 o
1453 3 4 6 0 14.27 19.04 3.25 o
1454 3 4 6 1 19.50 13.65 3.20 o
1455 3 4 6 2 0.26 1.46 1.20 <
1456 3 4 7 -4 27.96 26.47 2.63 o
1457 3 4 7 -3 17.07 17.19 2.41 o
1458 3 4 7 -2 0.15 0.09 0.18 <
1459 3 4 7 -1 17.19 18.10 2.92 o
1460 4 4 -7 0 49.64 63.98 6.34 o
1460 3 4 7 0 49.64 63.98 6.34 o
1461 3 -5 -6 3 4.14 5.53 1.24 o
1462 3 -5 -6 2 2.93 3.68 1.08 o
1463 3 -5 -6 1 10.75 12.00 2.42 o
1464 4 -5 6 0 3.68 3.42 1.72 <
1464 3 -5 -6 0 3.68 3.42 1.72 <
1465 3 -5 -5 2 13.96 22.17 2.72 o
1466 3 -5 -5 1 0.98 0.63 0.75 <
1467 4 -5 5 0 13.66 14.98 3.00 o
1467 3 -5 -5 0 13.66 14.98 3.00 o
1468 3 -5 -5 -1 6.33 4.50 1.98 <
1469 3 -5 -4 2 2.43 2.77 0.79 o
1470 3 -5 -4 1 22.32 30.43 3.58 o
1471 4 -5 4 0 0.79 -0.51 0.54 <
1471 3 -5 -4 0 0.79 -0.51 0.54 <
1472 3 -5 -4 -1 8.61 5.28 1.69 o
1473 3 -5 -3 1 0.05 -0.03 0.20 <
1474 4 -5 3 0 17.65 23.05 3.32 o
1474 3 -5 -3 0 17.65 23.05 3.32 o
1475 3 -5 -3 -1 5.17 6.19 1.89 o
1476 3 -5 -3 -2 2.01 0.66 0.90 <
1477 3 -5 -2 1 23.47 29.25 2.94 o
1478 4 -5 2 0 1.15 2.09 0.86 <
1478 3 -5 -2 0 1.15 2.09 0.86 <
1479 3 -5 -2 -1 5.31 5.67 1.68 o
1480 3 -5 -2 -2 4.68 5.09 2.00 <
1481 4 -5 1 0 13.14 28.15 3.14 o
1481 3 -5 -1 0 13.14 28.15 3.14 o
1482 3 -5 -1 -1 7.75 9.75 2.23 o
1483 3 5 -1 2 3.22 1.94 1.56 <
1484 3 -5 -1 -2 3.22 2.75 1.43 <
1485 3 5 0 1 0.50 0.68 0.94 <
1486 3 -5 0 -1 0.50 -0.27 0.33 <
1487 3 5 0 2 4.09 1.24 0.56 <
1488 3 -5 0 -2 4.09 3.98 1.54 <
1489 4 5 -1 0 13.17 22.34 3.94 o
1489 3 5 1 0 13.17 22.34 3.94 o
1490 3 5 1 1 7.76 4.42 1.90 <
1491 3 -5 1 -2 3.12 3.15 1.14 <
1492 3 5 1 2 3.12 1.87 1.56 <
1493 3 5 2 -1 24.11 21.93 3.67 o
1494 4 5 -2 0 1.15 1.66 1.24 <
1494 3 5 2 0 1.15 1.66 1.24 <
1495 3 5 2 1 5.13 2.54 1.35 <
1496 3 5 2 2 4.84 2.69 1.77 <
1497 3 5 3 -2 32.09 36.64 4.64 o
1498 3 5 3 -1 0.05 0.14 0.31 <
1499 4 5 -3 0 17.61 17.41 3.29 o
1499 3 5 3 0 17.61 17.41 3.29 o
1500 3 5 3 1 5.21 3.21 1.36 <
1501 3 5 3 2 2.02 0.24 0.67 <
1502 3 5 4 -3 2.01 2.65 1.14 <
1503 3 5 4 -2 2.34 2.40 0.98 <
1504 3 5 4 -1 21.79 18.09 3.17 o
1505 4 5 -4 0 0.79 0.22 0.22 <
1505 3 5 4 0 0.79 0.22 0.22 <
1506 3 5 4 1 8.68 3.11 1.29 <
1507 3 5 5 -4 0.46 0.60 0.64 <
1508 3 5 5 -3 15.65 13.68 2.41 o
1509 3 5 5 -2 13.50 10.34 2.28 o
1510 3 5 5 -1 1.00 -0.01 0.28 <
1511 4 5 -5 0 13.68 8.74 2.47 o
1511 3 5 5 0 13.68 8.74 2.47 o
1512 3 5 5 1 6.36 4.29 1.98 <
1513 4 1 -6 5 3.89 0.97 0.55 <
1513 3 5 6 -5 3.89 0.97 0.55 <
1514 3 5 6 -4 11.15 8.00 1.63 o
1515 3 5 6 -3 3.93 1.87 0.93 <
1516 3 5 6 -2 3.12 1.60 0.89 <
1517 3 5 6 -1 10.79 4.46 1.49 <
1518 4 5 -6 0 3.68 3.37 1.50 <
1518 3 5 6 0 3.68 3.37 1.50 <
1519 3 -6 -5 2 4.09 7.27 1.53 o
1520 3 -6 -4 1 0.71 2.08 1.03 <
1521 3 -6 -3 1 5.57 9.61 1.99 o
1522 4 -6 3 0 8.03 10.97 2.25 o
1522 3 -6 -3 0 8.03 10.97 2.25 o
1523 4 -6 2 0 16.80 33.22 3.89 o
1523 3 -6 -2 0 16.80 33.22 3.89 o
1524 3 -6 -1 -1 1.21 2.26 1.10 <
1525 3 6 0 1 0.82 1.44 1.86 <
1526 3 6 1 1 1.08 0.08 1.51 <
1527 4 6 -2 0 16.78 18.63 3.90 o
1527 3 6 2 0 16.78 18.63 3.90 o
1528 3 6 3 -1 5.45 3.31 1.72 <
1529 4 6 -3 0 8.03 3.30 1.61 <
1529 3 6 3 0 8.03 3.30 1.61 <
1530 3 6 4 -2 4.16 1.97 0.89 <
1531 3 6 4 -1 0.72 2.55 1.55 <
1532 3 6 5 -4 4.34 2.59 1.44 <
1533 3 6 5 -3 0.18 -0.16 0.26 <
1534 3 6 5 -2 3.99 4.27 1.77 <
1535 4 0 -6 4 7.53 6.65 1.17 o
1536 4 0 -6 5 29.84 18.31 2.02 o
1536 3 4 6 -5 29.84 18.31 2.02 o
1537 4 0 -5 3 0.29 0.00 0.10 <
1538 4 0 -5 4 3.56 2.32 0.66 o
1539 4 0 -5 5 12.01 12.70 2.07 o
1539 3 4 5 -5 12.01 12.70 2.07 o
1540 4 0 -4 2 3.74 3.52 0.78 o
1541 4 0 -4 3 74.59 65.58 3.26 o
1542 4 0 -4 4 0.15 -0.22 0.32 <
1543 4 0 -3 2 279.48 284.78 6.16 o
1544 4 0 3 -1 7.94 7.46 1.12 o
1545 4 0 3 -2 279.45 282.04 4.49 o
1546 4 0 4 -2 3.69 4.18 0.90 o
1547 4 0 5 -2 65.66 63.87 3.85 o
1548 4 0 6 -2 16.56 15.40 1.99 o
1549 4 0 6 -3 27.47 25.23 2.09 o
1550 4 0 7 -2 2.34 2.41 0.97 <
1551 4 0 7 -3 12.28 13.84 1.73 o
1552 4 0 8 -3 36.55 32.50 2.82 o
1553 4 1 -7 4 1.95 1.02 0.62 <
1554 4 -1 -6 6 2.47 0.38 0.15 <
1555 4 1 -6 3 9.83 8.57 1.68 o
1556 4 1 -6 4 40.17 30.06 2.84 o
1557 4 1 -6 5 3.90 2.29 0.81 <
1557 3 5 6 -5 3.90 2.29 0.81 <
1558 4 -1 -5 5 23.08 8.39 1.04 o
1558 3 3 5 -5 23.08 8.39 1.04 o
1559 4 1 -5 2 56.66 60.08 4.17 o
1560 4 1 -5 3 34.57 28.14 2.78 o
1561 4 1 -5 4 6.14 3.03 0.91 o
1562 5 -1 4 -1 571.01 626.39 12.67 o
1562 4 1 -4 1 571.01 626.39 12.67 o
1563 4 1 -4 2 28.22 30.48 2.81 o
1564 4 1 -4 3 25.82 22.82 2.73 o
1565 5 -1 3 -1 40.41 47.09 3.33 o
1565 4 1 -3 1 40.41 47.09 3.33 o
1566 4 1 -3 2 147.65 143.24 6.08 o
1567 5 -1 2 -1 1193.45 1276.22 16.56 o
1567 4 1 -2 1 1193.45 1276.22 16.56 o
1568 5 -1 1 -1 532.34 529.91 9.52 o
1568 4 1 -1 1 532.34 529.91 9.52 o
1569 4 1 0 -1 93.33 73.53 2.88 o
1570 4 -1 0 1 93.33 68.32 2.98 o
1571 5 1 -2 1 1193.73 1275.60 16.31 o
1571 4 -1 2 -1 1193.73 1275.60 16.31 o
1572 5 1 -3 1 40.53 46.22 3.51 o
1572 4 -1 3 -1 40.53 46.22 3.51 o
1573 4 -1 3 -2 147.71 147.77 4.91 o
1574 5 1 -4 1 570.31 622.50 13.68 o
1574 4 -1 4 -1 570.31 622.50 13.68 o
1575 4 -1 4 -2 27.70 31.80 2.98 o
1576 5 1 -5 1 91.99 89.77 5.62 o
1576 4 -1 5 -1 91.99 89.77 5.62 o
1577 4 -1 5 -2 56.87 59.63 4.51 o
1578 5 1 -6 1 157.41 195.21 9.08 o
1578 4 -1 6 -1 157.41 195.21 9.08 o
1579 4 -1 6 -2 20.15 16.39 2.22 o
1580 4 -1 6 -3 9.73 10.99 1.67 o
1581 4 1 7 -3 5.23 3.39 0.82 o
1582 4 -1 7 -2 5.69 4.99 1.21 o
1583 4 -1 7 -3 25.14 22.06 2.53 o
1584 4 1 8 -3 7.94 8.59 1.49 o
1585 4 -1 8 -2 11.08 10.25 2.00 o
1586 4 -1 8 -3 9.08 7.87 1.54 o
1587 5 -2 7 -2 3.96 3.88 1.26 o
1587 4 2 -7 2 3.96 3.88 1.26 o
1588 4 2 -7 3 5.80 3.13 1.11 <
1589 4 2 -6 1 13.68 15.18 2.63 o
1590 5 -2 6 -2 80.14 59.95 5.06 o
1590 4 2 -6 2 80.14 59.95 5.06 o
1591 4 2 -6 3 13.14 6.07 1.53 o
1592 4 2 -6 4 3.14 2.40 1.21 <
1593 4 2 -5 1 50.38 49.43 4.42 o
1594 5 -2 5 -2 26.62 19.33 2.90 o
1594 4 2 -5 2 26.62 19.33 2.90 o
1595 4 2 -5 3 31.33 27.26 3.51 o
1596 4 2 -5 4 15.85 16.18 3.07 o
1597 4 2 -4 1 47.43 48.18 4.48 o
1598 5 -2 4 -2 281.71 263.88 10.81 o
1598 4 2 -4 2 281.71 263.88 10.81 o
1599 4 2 -4 3 0.39 0.23 0.61 <
1600 4 -2 -3 4 2.46 0.96 0.43 <
1601 4 2 -3 1 104.14 120.98 7.18 o
1602 5 -2 3 -2 8.24 8.41 2.08 o
1602 4 2 -3 2 8.24 8.41 2.08 o
1603 4 -2 -2 3 73.75 75.44 3.70 o
1604 4 -2 -2 2 26.62 24.89 1.75 o
1605 4 2 -2 -1 233.49 267.24 9.20 o
1606 4 2 -2 1 74.51 82.55 5.87 o
1607 4 -2 -1 2 28.39 24.23 2.28 o
1608 4 -2 -1 1 389.06 376.56 7.83 o
1609 4 2 -1 -1 389.06 376.29 10.96 o
1610 4 2 0 -2 1.62 0.36 0.42 <
1611 4 -2 0 2 1.62 0.13 0.31 <
1612 4 -2 0 1 83.62 95.44 4.90 o
1613 4 2 0 -1 83.62 50.77 4.67 o
1614 4 2 1 -2 26.52 25.11 2.35 o
1615 4 2 1 -1 389.08 381.14 9.15 o
1616 4 -2 1 1 389.08 383.62 11.09 o
1617 4 2 2 -2 27.53 31.95 2.59 o
1618 4 -2 2 1 233.47 270.43 9.87 o
1619 4 -2 2 -1 72.28 77.49 4.87 o
1620 4 2 3 -2 218.75 224.80 5.64 o
1621 4 -2 3 1 2.60 2.07 0.99 <
1622 4 -2 3 -1 103.56 125.73 7.03 o
1623 5 2 -3 2 8.23 7.57 1.39 o
1623 4 -2 3 -2 8.23 7.57 1.39 o
1624 4 -2 4 -1 48.13 49.77 4.71 o
1625 5 2 -4 2 282.00 253.02 9.48 o
1625 4 -2 4 -2 282.00 253.02 9.48 o
1626 4 -2 5 -1 50.11 50.18 4.85 o
1627 5 2 -5 2 26.52 21.42 3.04 o
1627 4 -2 5 -2 26.52 21.42 3.04 o
1628 4 -2 6 -1 14.61 12.36 2.59 o
1629 5 2 -6 2 79.75 62.54 5.18 o
1629 4 -2 6 -2 79.75 62.54 5.18 o
1630 4 -2 6 -3 13.48 15.86 2.31 o
1631 4 -2 7 -1 16.96 14.74 2.78 o
1632 5 2 -7 2 4.02 3.88 1.41 <
1632 4 -2 7 -2 4.02 3.88 1.41 <
1633 4 -2 7 -3 6.08 6.14 1.64 o
1634 4 -2 8 -1 9.06 9.15 2.32 o
1635 5 2 -8 2 35.25 28.64 3.72 o
1635 4 -2 8 -2 35.25 28.64 3.72 o
1636 4 3 -7 1 34.47 31.04 4.25 o
1637 4 3 -7 2 4.96 3.67 1.44 <
1638 4 3 -6 1 0.85 1.01 1.02 <
1639 4 3 -6 2 11.74 9.21 2.15 o
1640 4 3 -6 3 5.67 12.69 2.71 o
1641 4 3 -5 1 14.60 12.25 2.60 o
1642 4 3 -5 2 19.36 12.82 2.52 o
1643 4 3 -5 3 5.20 12.80 2.93 o
1644 4 -3 -4 6 17.22 14.75 2.02 o
1645 4 -3 -4 5 12.91 7.41 1.03 o
1645 3 1 4 -5 12.91 7.41 1.03 o
1646 4 3 -4 -1 22.98 26.73 3.90 o
1647 4 3 -4 1 5.80 3.33 1.33 <
1648 4 3 -4 2 0.78 0.73 0.74 <
1649 4 3 -4 3 18.52 68.56 8.20 o
1650 4 -3 -3 5 51.26 52.68 3.60 o
1650 3 1 3 -5 51.26 52.68 3.60 o
1651 4 -3 -3 4 4.41 4.64 0.86 o
1652 4 -3 -3 3 19.76 22.99 1.80 o
1653 4 3 -3 -1 37.39 43.24 4.90 o
1654 4 3 -3 1 5.04 4.23 1.63 <
1655 4 3 -3 2 40.88 55.96 6.76 o
1656 4 -3 -2 4 0.49 0.13 0.19 <
1657 4 -3 -2 3 66.62 66.40 3.94 o
1658 4 3 -2 -2 63.30 61.31 5.40 o
1659 4 -3 -2 2 63.30 60.32 3.45 o
1660 4 3 -2 -1 58.20 61.06 5.61 o
1661 4 3 -2 1 0.57 0.20 0.41 <
1662 4 -3 -1 4 80.78 62.87 4.30 o
1663 4 -3 -1 3 2.03 1.23 0.65 <
1664 4 3 -1 -2 90.58 96.44 6.74 o
1665 4 -3 -1 2 90.58 85.10 5.13 o
1666 4 3 -1 -1 87.44 89.99 6.92 o
1667 4 -3 -1 1 87.44 96.79 4.73 o
1668 4 -3 0 3 262.36 256.35 10.12 o
1669 4 3 0 -3 262.36 249.10 9.53 o
1670 4 3 0 -2 0.89 0.21 0.42 <
1671 4 -3 0 2 0.89 0.24 0.47 <
1672 4 3 0 -1 1.22 0.29 0.57 <
1673 4 -3 0 1 1.22 0.63 0.54 <
1674 4 3 1 -3 2.09 1.09 0.65 <
1675 4 3 1 -2 91.99 102.80 6.76 o
1676 4 -3 1 2 91.99 89.00 6.73 o
1677 4 3 1 -1 85.88 94.12 5.89 o
1678 4 -3 1 1 85.88 80.11 6.09 o
1679 4 3 2 -3 66.45 65.90 4.39 o
1680 4 3 2 -2 61.27 63.19 4.77 o
1681 4 -3 2 2 61.27 54.91 5.56 o
1682 4 -3 2 1 60.16 55.04 5.65 o
1683 4 -3 2 -1 0.46 0.41 0.41 <
1684 4 3 3 -3 19.69 20.00 2.41 o
1685 4 3 3 -2 37.02 39.04 3.09 o
1686 4 -3 3 2 37.02 38.85 5.03 o
1687 4 -3 3 1 37.29 41.27 5.03 o
1688 4 -3 3 -1 4.53 4.73 1.39 o
1689 4 3 4 -3 27.06 26.63 2.65 o
1690 4 -3 4 1 22.43 28.95 4.38 o
1691 4 -3 4 -1 5.79 4.56 1.66 <
1692 4 -3 4 -2 0.91 2.51 1.01 <
1693 4 3 5 -4 14.32 4.74 0.92 o
1694 4 3 5 -3 0.33 0.90 0.43 <
1695 4 -3 5 1 46.94 60.85 6.95 o
1696 4 -3 5 -1 15.51 17.17 3.15 o
1697 4 -3 5 -2 19.97 17.41 2.83 o
1698 4 -3 6 -1 0.91 0.78 0.81 <
1699 4 -3 6 -2 11.54 11.56 2.36 o
1700 4 -3 6 -3 5.83 16.25 2.51 o
1701 4 -3 7 -1 34.04 30.13 4.27 o
1702 4 -3 7 -2 5.05 4.11 1.38 <
1703 4 4 -6 -1 2.46 1.82 1.19 <
1704 4 4 -6 1 17.39 14.09 2.99 o
1705 4 4 -6 2 0.25 -0.20 0.72 <
1706 4 -4 -5 6 7.10 13.77 1.26 o
1707 4 4 -5 -1 16.03 12.08 2.84 o
1708 4 4 -5 1 3.02 2.52 1.69 <
1709 4 4 -5 2 7.40 8.54 2.47 o
1710 4 -4 -4 7 2.69 2.13 0.98 <
1711 4 -4 -4 6 3.76 3.52 0.91 o
1712 4 -4 -4 5 10.23 10.71 1.36 o
1712 3 0 4 -5 10.23 10.71 1.36 o
1713 4 4 -4 -2 47.14 50.56 6.24 o
1714 4 4 -4 -1 2.21 0.38 0.59 <
1715 4 4 -4 1 10.26 8.54 2.64 o
1716 4 4 -4 2 3.06 2.48 1.52 <
1717 4 -4 -3 6 8.30 6.62 1.65 o
1718 4 -4 -3 5 16.07 11.29 1.83 o
1718 3 0 3 -5 16.07 11.29 1.83 o
1719 4 -4 -3 4 4.25 3.00 0.82 o
1720 4 -4 -3 3 15.70 21.65 2.05 o
1721 4 4 -3 -2 0.36 -0.11 0.59 <
1722 4 4 -3 -1 17.49 12.87 3.30 o
1723 4 4 -3 1 1.60 0.91 0.79 <
1724 4 4 -3 2 8.55 13.23 3.86 o
1725 4 -4 -2 5 49.94 40.88 4.21 o
1725 3 0 2 -5 49.94 40.88 4.21 o
1726 4 -4 -2 4 1.61 1.52 0.77 <
1727 4 -4 -2 3 17.46 14.30 2.08 o
1728 4 4 -2 -3 17.46 14.66 3.11 o
1729 4 4 -2 -2 88.95 88.58 7.87 o
1730 4 -4 -2 2 88.95 96.72 4.88 o
1731 4 4 -2 -1 18.29 12.89 3.15 o
1732 4 4 -2 1 22.86 28.81 5.19 o
1733 4 -4 -1 5 43.10 30.35 3.83 o
1733 3 0 1 -5 43.10 30.35 3.83 o
1734 4 -4 -1 4 61.58 66.02 5.86 o
1735 4 4 -1 -3 36.45 38.79 4.67 o
1736 4 -4 -1 3 36.45 30.08 3.81 o
1737 4 4 -1 -2 2.71 0.55 0.40 <
1738 4 -4 -1 2 2.71 0.27 0.25 <
1739 4 -4 -1 1 40.49 44.04 3.67 o
1740 4 4 -1 -1 40.49 37.99 5.56 o
1741 4 -4 0 4 42.91 52.67 5.48 o
1742 4 4 0 -4 42.91 55.24 5.15 o
1743 4 4 0 -3 0.88 0.78 0.68 <
1744 4 -4 0 3 0.88 0.98 0.96 <
1745 4 -4 0 2 19.50 14.06 2.84 o
1746 4 4 0 -2 19.50 15.62 3.23 o
1747 4 4 0 -1 0.84 1.43 1.18 <
1748 4 -4 0 1 0.84 2.42 0.82 <
1749 4 4 1 -4 61.14 65.81 5.26 o
1750 4 -4 1 3 36.43 31.03 4.73 o
1751 4 4 1 -3 36.43 35.11 4.49 o
1752 4 -4 1 2 2.71 0.06 0.61 <
1753 4 4 1 -2 2.71 0.86 0.82 <
1754 4 4 1 -1 40.45 36.15 4.36 o
1755 4 -4 1 1 40.45 36.84 4.48 o
1756 4 4 2 -4 1.79 0.85 0.59 <
1757 4 -4 2 3 16.83 10.91 3.03 o
1758 4 4 2 -3 16.83 15.69 2.80 o
1759 4 4 2 -2 88.86 92.60 6.92 o
1760 4 -4 2 2 88.86 80.90 7.93 o
1761 4 -4 2 1 18.96 13.81 3.30 o
1762 4 -4 2 -1 22.39 30.32 3.50 o
1763 4 4 3 -4 4.06 0.99 0.55 <
1764 4 4 3 -3 15.14 21.12 3.27 o
1765 4 -4 3 2 0.36 0.04 0.42 <
1766 4 4 3 -2 0.36 0.61 0.57 <
1767 4 -4 3 1 18.13 19.40 3.67 o
1768 4 -4 3 -1 1.53 1.72 0.96 <
1769 4 4 4 -4 0.18 0.25 0.44 <
1770 4 4 4 -3 2.72 1.65 0.83 <
1771 4 -4 4 2 47.31 49.74 6.52 o
1772 4 -4 4 1 1.97 1.48 1.34 <
1773 4 -4 4 -1 10.71 12.71 2.73 o
1774 4 -4 4 -2 3.12 6.89 1.79 o
1775 4 4 5 -4 6.84 5.01 1.28 o
1776 4 4 5 -3 17.35 12.47 2.10 o
1777 4 -4 5 2 1.00 0.28 0.48 <
1778 4 -4 5 1 15.13 11.89 3.22 o
1779 4 -4 5 -1 3.07 0.66 0.30 <
1780 4 -4 5 -2 7.25 13.83 2.62 o
1781 4 4 6 -4 5.57 8.07 1.53 o
1782 4 -4 6 1 2.30 0.48 0.49 <
1783 4 -4 6 -1 17.21 19.00 3.55 o
1784 4 -4 6 -2 0.23 0.43 0.64 <
1785 4 4 7 -4 24.68 16.39 2.64 o
1786 4 -4 7 1 15.17 17.72 4.21 o
1787 4 5 -6 -2 2.59 3.07 1.64 <
1788 4 5 -6 -1 9.49 6.51 2.28 <
1789 4 -5 -5 6 4.91 9.17 1.23 o
1790 4 5 -5 -2 12.32 15.62 3.60 o
1791 4 5 -5 -1 0.87 0.41 0.22 <
1792 4 5 -5 1 5.59 3.02 2.02 <
1793 4 -5 -4 6 5.97 8.13 1.46 o
1794 4 -5 -4 5 3.09 2.23 0.73 o
1794 3 -1 4 -5 3.09 2.23 0.73 o
1795 4 5 -4 -3 1.68 1.29 1.16 <
1796 4 5 -4 -2 2.14 1.20 1.23 <
1797 4 5 -4 -1 19.70 14.86 3.82 o
1798 4 5 -4 1 7.60 4.03 2.06 <
1799 4 -5 -3 7 0.90 1.71 0.94 <
1800 4 -5 -3 6 4.82 5.22 1.50 o
1801 4 -5 -3 5 24.32 20.07 2.77 o
1801 3 -1 3 -5 24.32 20.07 2.77 o
1802 4 -5 -3 4 0.01 -0.15 0.20 <
1803 4 5 -3 -3 31.11 30.03 5.13 o
1804 4 5 -3 -2 27.95 23.79 4.74 o
1805 4 5 -3 -1 0.05 0.35 0.89 <
1806 4 5 -3 1 4.56 5.08 2.66 <
1807 4 -5 -2 6 4.58 3.49 1.38 <
1808 4 -5 -2 5 1.44 1.61 1.04 <
1808 3 -1 2 -5 1.44 1.61 1.04 <
1809 4 -5 -2 4 19.82 19.92 2.81 o
1810 4 5 -2 -4 19.82 20.98 4.26 o
1811 4 -5 -2 3 2.13 3.65 1.22 <
1812 4 5 -2 -3 2.13 1.14 0.91 <
1813 4 5 -2 -2 2.60 1.93 1.59 <
1814 4 5 -2 -1 20.71 18.03 4.41 o
1815 4 5 -2 1 4.69 6.06 3.03 <
1816 4 -5 -1 6 6.27 3.44 1.50 <
1817 4 -5 -1 5 22.18 20.88 3.78 o
1817 3 -1 1 -5 22.18 20.88 3.78 o
1818 4 5 -1 -4 1.28 0.34 0.58 <
1819 4 -5 -1 4 1.28 0.02 0.29 <
1820 4 5 -1 -3 5.04 3.53 1.87 <
1821 4 -5 -1 3 5.04 5.35 1.59 o
1822 4 5 -1 -2 5.01 3.57 2.02 <
1823 4 -5 -1 2 5.01 5.57 1.54 o
1824 4 5 -1 -1 1.40 0.01 0.59 <
1825 4 -5 0 5 8.27 3.81 1.82 <
1825 3 -1 0 -5 8.27 3.81 1.82 <
1826 4 -5 0 4 20.88 21.66 4.24 o
1827 4 5 0 -4 20.88 21.06 3.63 o
1828 4 -5 0 3 0.23 -0.41 0.69 <
1829 4 5 0 -3 0.23 -0.08 0.74 <
1830 4 5 0 -2 0.02 0.71 0.98 <
1831 4 -5 0 2 0.02 0.22 0.64 <
1832 4 -5 0 1 24.44 32.38 3.79 o
1833 4 5 0 -1 24.44 22.85 4.46 o
1834 4 5 1 -5 21.35 17.06 3.13 o
1834 3 1 -1 5 21.35 17.06 3.13 o
1835 4 -5 1 4 1.28 -0.13 0.58 <
1836 4 5 1 -4 1.28 0.10 0.47 <
1837 4 5 1 -3 4.74 4.82 1.92 <
1838 4 -5 1 3 4.74 2.23 1.92 <
1839 4 5 1 -2 5.28 6.40 2.29 <
1840 4 -5 1 2 5.28 5.30 1.85 <
1841 4 -5 1 1 1.39 0.56 0.44 <
1842 4 5 1 -1 1.39 -0.04 0.37 <
1843 4 5 2 -5 1.38 0.39 0.51 <
1843 3 1 -2 5 1.38 0.39 0.51 <
1844 4 -5 2 4 19.29 13.38 3.93 o
1845 4 5 2 -4 19.29 19.56 3.37 o
1846 4 5 2 -3 2.21 2.12 1.36 <
1847 4 -5 2 3 2.21 2.31 1.66 <
1848 4 5 2 -2 2.49 3.25 1.56 <
1849 4 -5 2 2 2.49 2.22 1.33 <
1850 4 -5 2 1 21.28 24.11 4.18 o
1851 4 5 3 -5 24.78 14.08 2.39 o
1851 3 1 -3 5 24.78 14.08 2.39 o
1852 4 5 3 -4 0.01 0.13 0.53 <
1853 4 5 3 -3 30.74 31.86 4.80 o
1854 4 -5 3 3 30.74 27.49 5.47 o
1855 4 -5 3 2 28.33 28.37 5.36 o
1856 4 -5 3 1 0.05 0.01 0.32 <
1857 4 -5 3 -1 4.59 11.68 2.50 o
1858 4 5 4 -5 3.01 1.14 0.90 <
1858 3 1 -4 5 3.01 1.14 0.90 <
1859 4 5 4 -4 19.18 18.18 3.28 o
1860 4 5 4 -3 1.77 7.55 2.13 o
1861 4 -5 4 3 1.77 1.48 1.54 <
1862 4 -5 4 2 2.07 0.90 0.53 <
1863 4 -5 4 1 19.24 20.24 4.21 o
1864 4 -5 4 -1 7.67 12.25 2.60 o
1865 4 5 5 -5 21.67 10.48 1.98 o
1865 3 1 -5 5 21.67 10.48 1.98 o
1866 4 5 5 -4 0.41 -0.03 0.28 <
1867 4 -5 5 2 11.91 11.06 3.74 <
1868 4 -5 5 1 0.88 0.44 0.83 <
1869 4 -5 5 -1 5.62 7.07 2.27 o
1870 4 5 6 -5 3.83 0.41 0.43 <
1870 3 1 -6 5 3.83 0.41 0.43 <
1871 4 5 6 -4 9.84 6.61 1.92 o
1872 4 -5 6 2 2.75 2.24 1.65 <
1873 4 -5 6 1 9.52 8.65 2.90 <
1874 4 6 -5 -3 0.16 -0.27 0.76 <
1875 4 6 -5 -2 3.61 2.61 1.87 <
1876 4 -6 -4 5 13.97 10.51 1.82 o
1876 3 -2 4 -5 13.97 10.51 1.82 o
1877 4 6 -4 -3 9.81 6.37 2.80 <
1878 4 6 -4 -2 3.68 1.23 1.08 <
1879 4 6 -4 -1 0.63 1.09 1.37 <
1880 4 -6 -3 6 3.72 2.99 1.12 <
1881 4 -6 -3 5 12.79 11.79 2.14 o
1881 3 -2 3 -5 12.79 11.79 2.14 o
1882 4 6 -3 -4 1.93 2.09 1.77 <
1883 4 -6 -3 4 1.93 5.55 1.37 o
1884 4 6 -3 -3 0.03 0.15 0.84 <
1885 4 6 -3 -2 2.16 2.17 1.93 <
1886 4 6 -3 -1 4.92 3.39 2.20 <
1887 4 -6 -2 6 6.50 9.73 2.52 o
1888 4 -6 -2 5 8.91 6.51 2.10 o
1888 3 -2 2 -5 8.91 6.51 2.10 o
1889 4 6 -2 -4 0.18 0.08 0.39 <
1890 4 -6 -2 4 0.18 0.48 0.41 <
1891 4 6 -2 -3 8.42 5.36 2.51 <
1892 4 -6 -2 3 8.42 13.07 2.13 o
1893 4 6 -2 -2 0.42 0.26 0.45 <
1894 4 6 -2 -1 1.21 1.31 1.45 <
1895 4 -6 -1 6 0.47 0.56 0.93 <
1896 4 -6 -1 5 8.41 5.68 2.06 <
1896 3 -2 1 -5 8.41 5.68 2.06 <
1897 4 6 -1 -5 8.41 4.53 1.93 <
1897 3 2 1 5 8.41 4.53 1.93 <
1898 4 6 -1 -4 4.37 3.49 2.27 <
1899 4 -6 -1 4 4.37 3.97 1.52 <
1900 4 6 -1 -3 0.02 0.28 0.67 <
1901 4 -6 -1 3 0.02 0.29 0.71 <
1902 4 -6 -1 2 5.08 9.67 2.07 o
1903 4 6 -1 -2 5.08 2.31 1.47 <
1904 4 6 -1 -1 3.70 4.83 2.60 <
1905 4 -6 0 6 1.69 0.93 0.62 <
1906 4 -6 0 5 13.26 6.72 2.51 <
1906 3 -2 0 -5 13.26 6.72 2.51 <
1907 4 6 0 -5 13.26 6.56 2.21 <
1907 3 2 0 5 13.26 6.56 2.21 <
1908 4 6 0 -4 0.01 0.06 0.18 <
1909 4 -6 0 4 0.01 0.28 0.73 <
1910 4 6 0 -3 8.15 4.79 2.30 <
1911 4 -6 0 3 8.15 10.30 2.66 o
1912 4 6 0 -2 0.00 0.34 0.64 <
1913 4 -6 0 2 0.00 0.06 0.46 <
1914 4 6 0 -1 0.68 0.96 1.10 <
1915 4 -6 0 1 0.68 0.44 0.52 <
1916 4 6 1 -5 8.70 2.39 1.49 <
1916 3 2 -1 5 8.70 2.39 1.49 <
1917 4 -6 1 5 8.70 4.15 2.41 <
1917 3 -2 -1 -5 8.70 4.15 2.41 <
1918 4 -6 1 4 4.43 4.19 1.73 <
1919 4 6 1 -4 4.43 5.07 2.35 <
1920 4 -6 1 3 0.02 -0.43 0.90 <
1921 4 6 1 -3 0.02 0.29 0.38 <
1922 4 6 1 -2 5.02 3.66 2.08 <
1923 4 -6 1 2 5.02 4.54 1.88 <
1924 4 -6 1 1 3.60 6.58 1.99 o
1925 4 -6 2 5 9.10 3.71 2.21 <
1925 3 -2 -2 -5 9.10 3.71 2.21 <
1926 4 6 2 -5 9.10 4.92 1.93 <
1926 3 2 -2 5 9.10 4.92 1.93 <
1927 4 6 2 -4 0.22 -0.07 0.44 <
1928 4 -6 2 4 0.22 0.93 1.32 <
1929 4 -6 2 3 8.42 7.00 2.60 <
1930 4 6 2 -3 8.42 7.10 2.74 <
1931 4 6 2 -2 0.37 -0.06 0.58 <
1932 4 -6 2 2 0.37 0.18 1.03 <
1933 4 -6 2 1 1.30 2.67 1.35 <
1934 4 6 3 -6 3.72 1.67 0.93 <
1935 4 6 3 -5 12.93 6.11 1.92 o
1935 3 2 -3 5 12.93 6.11 1.92 o
1936 4 6 3 -4 1.86 1.83 0.94 <
1937 4 -6 3 4 1.86 0.65 1.20 <
1938 4 6 3 -3 0.03 0.22 0.59 <
1939 4 -6 3 3 0.03 -1.01 1.35 <
1940 4 -6 3 2 2.21 0.85 1.24 <
1941 4 -6 3 1 4.81 4.74 2.24 <
1942 4 6 4 -5 13.80 4.53 2.11 <
1942 3 2 -4 5 13.80 4.53 2.11 <
1943 4 -6 4 4 3.70 2.02 1.91 <
1944 4 6 4 -4 3.70 1.92 1.20 <
1945 4 6 4 -3 9.81 8.67 2.45 o
1946 4 -6 4 3 9.81 6.77 3.34 <
1947 4 -6 4 2 3.67 2.55 1.63 <
1948 4 -6 4 1 0.63 0.60 0.68 <
1949 4 6 5 -4 3.83 2.22 0.90 <
1950 4 -6 5 3 0.16 1.06 0.70 <
1951 4 -6 5 2 3.53 2.17 1.33 <
1952 4 7 -2 -5 6.39 4.90 2.62 <
1952 3 3 2 5 6.39 4.90 2.62 <
1953 4 -7 -2 5 6.39 5.43 1.81 o
1953 3 -3 2 -5 6.39 5.43 1.81 o
1954 4 -7 -2 4 0.26 1.23 0.96 <
1955 4 7 -2 -4 0.26 0.20 1.08 <
1956 4 -7 -2 3 0.29 0.66 0.37 <
1957 4 7 -2 -3 0.29 0.51 1.24 <
1958 4 7 -2 -2 2.52 0.68 1.84 <
1959 4 7 -1 -5 4.60 2.11 1.75 <
1959 3 3 1 5 4.60 2.11 1.75 <
1960 4 -7 -1 5 4.60 2.21 1.70 <
1960 3 -3 1 -5 4.60 2.21 1.70 <
1961 4 7 -1 -4 2.19 3.91 2.33 <
1962 4 -7 -1 4 2.19 4.34 1.87 <
1963 4 7 -1 -3 1.85 0.75 0.11 o
1964 4 -7 -1 3 1.85 4.90 1.67 <
1965 4 -7 -1 2 0.63 0.55 0.28 <
1966 4 7 -1 -2 0.63 1.21 1.59 <
1967 4 -7 0 5 14.10 10.54 3.33 o
1967 3 -3 0 -5 14.10 10.54 3.33 o
1968 4 7 0 -5 14.10 9.04 3.16 <
1968 3 3 0 5 14.10 9.04 3.16 <
1969 4 7 0 -4 0.51 1.48 1.36 <
1970 4 -7 0 4 0.51 1.32 0.93 <
1971 4 7 0 -3 0.50 0.86 1.08 <
1972 4 -7 0 3 0.50 1.04 1.01 <
1973 4 7 0 -2 4.70 1.65 1.38 <
1974 4 -7 0 2 4.70 9.82 2.30 o
1975 4 7 1 -5 4.68 0.99 1.10 <
1975 3 3 -1 5 4.68 0.99 1.10 <
1976 4 -7 1 5 4.68 1.79 1.53 <
1976 3 -3 -1 -5 4.68 1.79 1.53 <
1977 4 -7 1 4 2.22 3.34 2.00 <
1978 4 7 1 -4 2.22 2.53 2.27 <
1979 4 7 1 -3 1.82 1.39 1.35 <
1980 4 -7 1 3 1.82 2.70 1.59 <
1981 4 7 1 -2 0.63 0.37 0.76 <
1982 4 -7 1 2 0.63 0.93 1.19 <
1983 4 -7 2 5 6.66 3.70 2.48 <
1983 3 -3 -2 -5 6.66 3.70 2.48 <
1984 4 7 2 -5 6.66 3.91 1.94 <
1984 3 3 -2 5 6.66 3.91 1.94 <
1985 4 7 2 -4 0.28 -0.11 0.97 <
1986 4 -7 2 4 0.28 0.67 0.65 <
1987 4 7 2 -3 0.28 0.45 0.78 <
1988 4 -7 2 3 0.28 -0.60 1.26 <
1989 4 -7 2 2 2.46 2.35 1.26 <
1990 5 0 -7 3 21.31 18.04 2.23 o
1991 5 0 -7 4 113.17 119.10 6.27 o
1992 5 0 -6 3 47.87 37.15 3.02 o
1993 5 0 -6 4 13.09 13.79 2.08 o
1994 6 4 6 -5 47.38 75.82 5.18 o
1994 5 0 -6 5 47.38 75.82 5.18 o
1995 5 0 -5 2 114.24 115.87 4.75 o
1996 5 0 -5 3 0.50 0.37 0.42 <
1997 5 0 -5 4 6.19 4.67 1.02 o
1998 6 4 5 -5 19.95 27.44 3.08 o
1998 5 0 -5 5 19.95 27.44 3.08 o
1999 5 0 -5 6 4.58 3.72 1.22 o
2000 5 0 -4 2 6.50 7.53 1.08 o
2001 5 0 -4 3 129.74 135.17 5.49 o
2002 5 0 -4 4 0.26 0.17 0.37 <
2003 6 4 4 -5 15.83 22.89 2.77 o
2003 5 0 -4 5 15.83 22.89 2.77 o
2004 5 0 -4 6 40.61 47.48 4.24 o
2005 5 0 -3 2 486.11 513.63 8.59 o
2006 5 0 -3 3 1.53 1.11 0.45 <
2007 5 0 -3 4 0.63 0.23 0.26 <
2008 6 4 3 -5 24.97 26.95 2.90 o
2008 5 0 -3 5 24.97 26.95 2.90 o
2009 5 0 -3 6 0.08 -0.44 0.61 <
2010 5 0 -3 7 18.29 22.78 2.95 o
2011 5 0 -2 1 1.39 0.09 0.17 <
2012 5 0 -2 2 212.80 205.46 5.06 o
2013 5 0 -2 3 223.29 237.93 6.49 o
2014 5 0 -2 4 7.58 7.50 1.26 o
2015 6 4 2 -5 79.45 77.56 4.59 o
2015 5 0 -2 5 79.45 77.56 4.59 o
2016 5 0 -2 6 35.59 43.41 3.89 o
2017 5 0 -2 7 5.22 9.17 2.03 o
2018 5 0 -1 1 727.30 685.73 6.62 o
2019 5 0 -1 2 105.17 110.87 3.49 o
2020 5 0 -1 3 55.02 55.05 2.93 o
2021 5 0 -1 4 237.19 224.57 6.84 o
2022 6 4 1 -5 66.70 69.17 4.41 o
2022 5 0 -1 5 66.70 69.17 4.41 o
2023 5 0 -1 6 17.19 19.34 2.54 o
2024 5 0 -1 7 7.21 8.11 2.12 o
2025 5 0 0 1 189.99 123.05 2.42 o
2026 5 0 0 -1 189.99 127.18 2.42 o
2027 5 0 0 2 9.67 11.69 1.11 o
2028 5 0 0 -2 9.67 11.86 1.12 o
2029 5 0 0 -3 317.13 263.63 6.31 o
2030 5 0 0 3 317.13 262.48 6.27 o
2031 5 0 0 4 17.76 19.91 2.03 o
2032 5 0 0 -4 17.76 21.63 2.13 o
2033 6 -4 0 5 151.99 144.63 6.33 o
2033 5 0 0 -5 151.99 144.63 6.33 o
2034 6 4 0 -5 151.99 144.25 6.45 o
2034 5 0 0 5 151.99 144.25 6.45 o
2035 5 0 1 -1 727.38 689.74 6.43 o
2036 5 0 1 -2 105.50 114.39 3.54 o
2037 5 0 1 -3 55.00 57.75 3.03 o
2038 5 0 1 -4 237.16 229.54 6.91 o
2039 6 -4 -1 5 66.82 66.30 4.39 o
2039 5 0 1 -5 66.82 66.30 4.39 o
2040 5 0 1 -6 17.20 15.41 2.22 o
2041 5 0 1 -7 7.19 9.18 1.92 o
2042 5 0 2 -1 1.41 0.23 0.11 <
2043 5 0 2 -2 212.77 215.32 5.17 o
2044 5 0 2 -3 223.44 244.33 6.57 o
2045 5 0 2 -4 7.61 7.87 1.46 o
2046 6 -4 -2 5 78.68 75.59 4.83 o
2046 5 0 2 -5 78.68 75.59 4.83 o
2047 5 0 2 -6 35.65 35.84 3.66 o
2048 5 0 2 -7 5.22 4.88 1.57 o
2049 5 0 3 -2 486.05 511.59 8.55 o
2050 5 0 3 -3 1.53 1.15 0.57 <
2051 5 0 3 -4 0.81 0.13 0.32 <
2052 6 -4 -3 5 24.84 20.86 2.56 o
2052 5 0 3 -5 24.84 20.86 2.56 o
2053 5 0 3 -6 0.09 0.50 0.67 <
2054 5 0 3 -7 18.35 15.79 2.60 o
2055 5 0 4 -2 6.42 7.63 1.25 o
2056 5 0 4 -3 129.91 138.38 5.26 o
2057 5 0 4 -4 0.31 -0.15 0.43 <
2058 6 -4 -4 5 16.55 17.77 2.49 o
2058 5 0 4 -5 16.55 17.77 2.49 o
2059 5 0 4 -6 40.53 39.22 3.90 o
2060 5 0 5 -3 0.51 -0.50 0.37 <
2061 5 0 5 -4 6.27 6.27 1.31 o
2062 6 -4 -5 5 20.03 23.44 2.80 o
2062 5 0 5 -5 20.03 23.44 2.80 o
2063 5 0 5 -6 4.56 3.74 1.20 o
2064 5 0 6 -4 13.07 13.87 2.01 o
2065 6 -4 -6 5 47.12 66.76 4.82 o
2065 5 0 6 -5 47.12 66.76 4.82 o
2066 5 1 -8 2 18.46 15.88 1.83 o
2067 5 1 -8 3 15.30 8.30 1.72 o
2068 6 3 7 -5 10.31 9.48 1.83 o
2068 5 -1 -7 5 10.31 9.48 1.83 o
2069 5 1 -7 2 9.92 9.23 1.47 o
2070 5 1 -7 3 43.63 36.40 3.24 o
2071 5 1 -7 4 3.40 2.68 1.03 <
2072 5 -1 -6 6 4.29 3.26 1.36 <
2073 6 3 6 -5 82.29 103.38 6.28 o
2073 5 -1 -6 5 82.29 103.38 6.28 o
2074 5 1 -6 1 157.41 197.41 5.59 o
2074 4 -1 6 -1 157.41 197.41 5.59 o
2075 5 1 -6 2 36.57 30.74 2.54 o
2076 5 1 -6 3 17.09 17.52 2.05 o
2077 5 1 -6 4 69.88 83.34 4.96 o
2078 6 5 6 -5 6.05 5.26 1.39 o
2078 5 1 -6 5 6.05 5.26 1.39 o
2079 5 -1 -5 6 23.50 28.98 3.41 o
2080 6 3 5 -5 34.60 37.33 3.59 o
2080 5 -1 -5 5 34.60 37.33 3.59 o
2081 5 -1 -5 4 64.44 63.11 4.37 o
2082 5 1 -5 1 91.99 99.56 3.69 o
2082 4 -1 5 -1 91.99 99.56 3.69 o
2083 5 1 -5 2 98.56 107.75 4.38 o
2084 5 1 -5 3 60.14 64.50 3.87 o
2085 5 1 -5 4 10.68 9.32 1.56 o
2086 6 5 5 -5 33.70 47.87 4.14 o
2086 5 1 -5 5 33.70 47.87 4.14 o
2087 5 -1 -4 7 15.36 23.98 3.35 o
2088 5 -1 -4 6 5.52 2.66 1.01 <
2089 6 3 4 -5 19.23 22.29 2.79 o
2089 5 -1 -4 5 19.23 22.29 2.79 o
2090 5 -1 -4 4 47.59 49.76 3.70 o
2091 5 -1 -4 3 48.68 57.26 3.65 o
2092 6 1 4 0 49.66 50.67 2.03 o
2092 5 1 -4 0 49.66 50.67 2.03 o
2093 5 1 -4 1 570.31 695.17 9.33 o
2093 4 -1 4 -1 570.31 695.17 9.33 o
2094 5 1 -4 2 49.08 53.30 2.97 o
2095 5 1 -4 3 44.90 52.07 3.38 o
2096 5 1 -4 4 16.10 21.75 2.42 o
2097 6 5 4 -5 4.64 4.88 1.26 o
2097 5 1 -4 5 4.64 4.88 1.26 o
2098 5 1 -4 6 16.82 24.50 3.14 o
2099 5 -1 -3 7 18.97 22.71 3.14 o
2100 5 -1 -3 6 24.59 28.24 3.26 o
2101 6 3 3 -5 82.21 88.19 5.08 o
2101 5 -1 -3 5 82.21 88.19 5.08 o
2102 5 -1 -3 4 67.53 73.82 4.35 o
2103 5 -1 -3 3 247.54 257.41 7.26 o
2104 6 1 3 0 167.16 181.77 3.46 o
2104 5 1 -3 0 167.16 181.77 3.46 o
2105 5 1 -3 1 40.53 45.99 2.11 o
2105 4 -1 3 -1 40.53 45.99 2.11 o
2106 5 1 -3 2 256.81 241.65 6.00 o
2107 5 1 -3 3 71.71 70.20 3.72 o
2108 5 1 -3 4 19.14 20.56 2.36 o
2109 6 5 3 -5 38.81 43.00 3.80 o
2109 5 1 -3 5 38.81 43.00 3.80 o
2110 5 1 -3 6 19.33 26.20 3.06 o
2111 5 -1 -2 7 10.36 14.94 2.47 o
2112 5 -1 -2 6 1.16 0.30 0.72 <
2113 6 -3 2 5 77.30 80.36 4.36 o
2113 5 1 -2 -5 77.30 80.36 4.36 o
2114 6 3 2 -5 77.30 81.13 4.88 o
2114 5 -1 -2 5 77.30 81.13 4.88 o
2115 5 1 -2 -4 13.89 11.86 1.40 o
2116 5 -1 -2 4 13.89 9.57 1.58 o
2117 5 -1 -2 3 211.88 215.40 6.21 o
2118 5 1 -2 -3 211.88 208.98 4.99 o
2119 5 -1 -2 2 762.71 818.14 10.30 o
2120 5 1 -2 -2 762.71 817.20 7.33 o
2121 5 1 -2 1 1193.73 1290.40 10.25 o
2121 4 -1 2 -1 1193.73 1290.40 10.25 o
2122 5 1 -2 2 215.14 207.70 5.45 o
2123 5 1 -2 3 13.41 9.77 1.44 o
2124 5 1 -2 4 58.93 48.94 3.59 o
2125 6 5 2 -5 2.16 0.05 0.53 <
2125 5 1 -2 5 2.16 0.05 0.53 <
2126 5 1 -2 6 9.62 17.33 2.47 o
2127 5 -1 -1 7 6.31 7.70 1.78 o
2128 5 1 -1 -7 6.31 5.14 1.21 o
2129 5 1 -1 -6 24.91 30.46 3.07 o
2130 5 -1 -1 6 24.91 27.67 2.86 o
2131 6 3 1 -5 84.49 98.75 4.96 o
2131 5 -1 -1 5 84.49 98.75 4.96 o
2132 6 -3 1 5 84.49 94.85 4.67 o
2132 5 1 -1 -5 84.49 94.85 4.67 o
2133 5 1 -1 -4 147.21 152.78 5.18 o
2134 5 -1 -1 4 147.21 143.48 5.32 o
2135 5 -1 -1 3 62.66 54.54 3.00 o
2136 5 1 -1 -3 62.66 55.35 2.63 o
2137 5 1 -1 -2 349.29 361.62 5.08 o
2138 5 -1 -1 2 349.29 360.27 6.34 o
2139 5 -1 0 7 8.90 8.98 1.74 o
2140 5 1 0 -7 8.90 5.24 1.37 o
2141 5 -1 0 6 7.60 12.22 1.91 o
2142 5 1 0 -6 7.60 10.53 1.80 o
2143 6 -3 0 5 218.22 230.41 7.38 o
2143 5 1 0 -5 218.22 230.41 7.38 o
2144 6 3 0 -5 218.22 232.20 7.25 o
2144 5 -1 0 5 218.22 232.20 7.25 o
2145 5 -1 0 4 146.24 144.32 5.09 o
2146 5 1 0 -4 146.24 142.27 5.14 o
2147 5 -1 0 3 6.39 6.26 0.96 o
2148 5 1 0 -3 6.39 6.32 0.94 o
2149 5 1 0 -2 25.34 31.78 1.71 o
2150 5 -1 0 2 25.34 33.27 1.73 o
2151 5 1 1 -7 5.98 4.19 1.32 o
2152 5 1 1 -6 24.23 27.57 3.06 o
2153 5 -1 1 6 24.23 30.54 2.95 o
2154 6 -3 -1 5 81.78 91.05 5.07 o
2154 5 1 1 -5 81.78 91.05 5.07 o
2155 6 3 -1 -5 81.78 91.41 4.51 o
2155 5 -1 1 5 81.78 91.41 4.51 o
2156 5 1 1 -4 146.41 146.80 5.54 o
2157 5 -1 1 4 146.41 148.57 4.86 o
2158 5 -1 1 3 66.22 61.81 2.70 o
2159 5 1 1 -3 66.22 59.59 3.11 o
2160 5 1 1 -2 350.62 363.20 6.20 o
2161 5 -1 1 2 350.62 355.17 4.89 o
2162 5 -1 1 -1 532.34 599.99 6.96 o
2162 4 1 -1 1 532.34 599.99 6.96 o
2163 5 -1 1 -2 62.49 50.18 2.66 o
2164 5 -1 1 -3 153.05 124.99 4.82 o
2165 5 1 2 -7 10.58 9.07 2.12 o
2166 5 1 2 -6 1.05 0.01 0.39 <
2167 6 -3 -2 5 76.06 73.99 4.64 o
2167 5 1 2 -5 76.06 73.99 4.64 o
2168 5 1 2 -4 12.73 8.97 1.58 o
2169 5 1 2 -3 207.75 221.80 6.08 o
2170 5 -1 2 -1 1193.45 1284.81 10.40 o
2170 4 1 -2 1 1193.45 1284.81 10.40 o
2171 5 -1 2 -2 219.31 212.23 5.42 o
2172 5 -1 2 -3 14.43 11.36 1.52 o
2173 5 -1 2 -4 60.57 48.67 3.59 o
2174 6 -5 -2 5 2.26 2.18 0.89 <
2174 5 -1 2 -5 2.26 2.18 0.89 <
2175 5 -1 2 -6 9.41 15.09 2.36 o
2176 5 1 3 -7 18.69 16.32 2.65 o
2177 5 1 3 -6 24.80 28.52 3.32 o
2178 6 -3 -3 5 82.09 80.87 5.11 o
2178 5 1 3 -5 82.09 80.87 5.11 o
2179 5 1 3 -4 65.55 67.18 4.19 o
2180 5 1 3 -3 247.35 269.67 7.22 o
2181 5 -1 3 -1 40.41 49.91 2.20 o
2181 4 1 -3 1 40.41 49.91 2.20 o
2182 5 -1 3 -2 256.91 253.58 6.22 o
2183 5 -1 3 -3 74.01 77.54 3.99 o
2184 5 -1 3 -4 19.06 20.10 2.25 o
2185 6 -5 -3 5 38.09 38.97 3.54 o
2185 5 -1 3 -5 38.09 38.97 3.54 o
2186 5 -1 3 -6 19.59 19.83 2.73 o
2187 5 1 4 -7 15.35 13.80 2.55 o
2188 5 1 4 -6 5.40 1.80 0.88 <
2189 6 -3 -4 5 19.93 19.69 2.55 o
2189 5 1 4 -5 19.93 19.69 2.55 o
2190 5 1 4 -4 48.52 48.59 3.66 o
2191 5 -1 4 -1 571.01 701.49 9.26 o
2191 4 1 -4 1 571.01 701.49 9.26 o
2192 5 -1 4 -2 48.18 56.28 3.15 o
2193 5 -1 4 -3 44.16 48.12 3.17 o
2194 5 -1 4 -4 15.54 21.09 2.37 o
2195 6 -5 -4 5 4.77 3.34 1.09 o
2195 5 -1 4 -5 4.77 3.34 1.09 o
2196 5 -1 4 -6 16.83 18.52 2.79 o
2197 5 1 5 -6 23.45 25.72 3.24 o
2198 6 -3 -5 5 35.77 35.49 3.56 o
2198 5 1 5 -5 35.77 35.49 3.56 o
2199 5 1 5 -4 66.34 65.75 4.64 o
2200 5 -1 5 -2 98.92 103.52 4.26 o
2201 5 -1 5 -3 58.25 65.27 3.88 o
2202 5 -1 5 -4 10.40 7.47 1.47 o
2203 6 -5 -5 5 33.83 44.85 3.84 o
2203 5 -1 5 -5 33.83 44.85 3.84 o
2204 5 1 6 -6 4.47 3.17 1.34 <
2205 6 -3 -6 5 82.76 92.83 6.25 o
2205 5 1 6 -5 82.76 92.83 6.25 o
2206 5 -1 6 -3 16.92 16.59 1.98 o
2207 5 -1 6 -4 69.10 74.54 4.65 o
2208 6 -5 -6 5 5.95 3.86 1.23 o
2208 5 -1 6 -5 5.95 3.86 1.23 o
2209 5 -1 7 -3 43.72 37.25 3.54 o
2210 5 -1 7 -4 3.58 2.22 0.81 <
2211 6 2 8 0 4.52 2.01 0.54 o
2211 5 2 -8 0 4.52 2.01 0.54 o
2212 5 2 -8 1 16.99 14.64 1.74 o
2213 5 2 -8 2 35.25 38.40 2.88 o
2213 4 -2 8 -2 35.25 38.40 2.88 o
2214 6 2 7 0 28.47 34.12 2.06 o
2214 5 2 -7 0 28.47 34.12 2.06 o
2215 5 2 -7 1 29.40 28.71 2.16 o
2216 5 2 -7 2 4.02 5.19 1.04 o
2216 4 -2 7 -2 4.02 5.19 1.04 o
2217 5 2 -7 3 10.09 11.12 1.67 o
2218 6 2 6 0 63.78 73.60 2.84 o
2218 5 2 -6 0 63.78 73.60 2.84 o
2219 5 2 -6 1 23.79 26.26 1.90 o
2220 5 2 -6 2 79.75 79.87 3.98 o
2220 4 -2 6 -2 79.75 79.87 3.98 o
2221 5 2 -6 3 22.86 21.82 2.29 o
2222 5 2 -6 4 5.47 6.64 1.52 o
2223 5 -2 -5 6 23.22 26.38 3.53 o
2224 5 2 -5 -1 68.22 52.87 1.96 o
2225 6 2 5 0 194.58 217.35 4.29 o
2225 5 2 -5 0 194.58 217.35 4.29 o
2226 5 2 -5 1 87.63 89.87 3.47 o
2227 5 2 -5 2 26.52 28.79 2.17 o
2227 4 -2 5 -2 26.52 28.79 2.17 o
2228 5 2 -5 3 54.50 58.17 3.75 o
2229 5 2 -5 4 27.57 28.11 2.92 o
2230 5 -2 -4 7 16.80 22.86 3.27 o
2231 5 -2 -4 6 34.16 36.57 3.98 o
2232 6 -2 4 5 1.20 0.28 0.31 <
2232 5 2 -4 -5 1.20 0.28 0.31 <
2233 6 2 4 -5 1.20 0.27 0.48 <
2233 5 -2 -4 5 1.20 0.27 0.48 <
2234 5 2 -4 -4 174.93 184.38 4.88 o
2235 5 2 -4 -3 84.24 88.24 2.64 o
2236 6 2 4 0 8.56 9.96 0.79 o
2236 5 2 -4 0 8.56 9.96 0.79 o
2237 5 2 -4 1 82.50 81.17 3.16 o
2238 5 2 -4 2 282.00 317.84 7.42 o
2238 4 -2 4 -2 282.00 317.84 7.42 o
2239 5 2 -4 3 0.67 0.21 0.25 <
2240 5 2 -4 4 38.20 35.01 3.39 o
2241 6 6 4 -5 21.31 22.78 3.08 o
2241 5 2 -4 5 21.31 22.78 3.08 o
2242 5 2 -3 -7 12.93 11.36 2.00 o
2243 5 -2 -3 7 12.93 8.84 2.09 o
2244 5 2 -3 -6 14.13 16.43 2.00 o
2245 5 -2 -3 6 14.13 12.86 2.28 o
2246 6 -2 3 5 108.93 117.74 4.78 o
2246 5 2 -3 -5 108.93 117.74 4.78 o
2247 6 2 3 -5 108.93 116.70 6.05 o
2247 5 -2 -3 5 108.93 116.70 6.05 o
2248 5 -2 -3 4 4.27 3.18 0.83 o
2249 5 2 -3 -4 4.27 6.46 0.89 o
2250 5 2 -3 -3 180.70 191.52 4.11 o
2251 5 2 -3 2 8.23 8.24 1.41 o
2251 4 -2 3 -2 8.23 8.24 1.41 o
2252 5 -2 -2 7 11.16 11.79 2.21 o
2253 5 2 -2 -7 11.16 9.28 1.67 o
2254 5 -2 -2 6 32.49 32.20 3.28 o
2255 5 2 -2 -6 32.49 34.31 3.11 o
2256 6 -2 2 5 58.71 62.83 3.50 o
2256 5 2 -2 -5 58.71 62.83 3.50 o
2257 6 2 2 -5 58.71 60.30 4.23 o
2257 5 -2 -2 5 58.71 60.30 4.23 o
2258 5 2 -2 -4 100.69 101.97 3.92 o
2259 5 -2 -2 4 100.69 98.73 4.88 o
2260 5 2 -2 -3 128.27 129.05 3.67 o
2261 5 2 -2 -2 46.31 39.50 1.43 o
2262 5 -2 -1 8 8.80 14.63 2.64 o
2263 5 2 -1 -8 8.80 8.90 2.13 o
2264 5 -2 -1 7 6.03 2.83 1.14 <
2265 5 2 -1 -7 6.03 2.40 0.92 <
2266 5 -2 -1 6 35.43 35.86 3.36 o
2267 5 2 -1 -6 35.43 34.51 3.21 o
2268 6 2 1 -5 60.54 63.00 3.95 o
2268 5 -2 -1 5 60.54 63.00 3.95 o
2269 6 -2 1 5 60.54 64.10 3.81 o
2269 5 2 -1 -5 60.54 64.10 3.81 o
2270 5 -2 -1 4 16.23 15.94 1.80 o
2271 5 2 -1 -4 16.23 17.35 1.76 o
2272 5 2 -1 -3 167.33 159.36 4.49 o
2273 5 -2 -1 3 167.33 160.62 5.12 o
2274 5 2 0 -8 0.90 1.39 0.92 <
2275 5 -2 0 8 0.90 0.79 0.71 <
2276 5 -2 0 7 20.22 20.37 2.63 o
2277 5 2 0 -7 20.22 18.77 2.76 o
2278 5 -2 0 6 0.18 0.33 0.22 <
2279 5 2 0 -6 0.18 1.02 0.79 <
2280 6 2 0 -5 8.51 12.27 1.63 o
2280 5 -2 0 5 8.51 12.27 1.63 o
2281 6 -2 0 5 8.51 8.96 1.48 o
2281 5 2 0 -5 8.51 8.96 1.48 o
2282 5 -2 0 4 117.75 104.06 4.32 o
2283 5 2 0 -4 117.75 111.20 4.67 o
2284 5 2 0 -3 4.82 4.12 0.81 o
2285 5 -2 0 3 4.82 4.76 0.83 o
2286 5 2 1 -8 9.26 7.22 1.87 o
2287 5 -2 1 8 9.26 15.27 2.46 o
2288 5 -2 1 7 6.34 5.62 1.45 o
2289 5 2 1 -7 6.34 4.48 1.45 o
2290 5 -2 1 6 35.45 37.97 3.13 o
2291 5 2 1 -6 35.45 35.67 3.73 o
2292 6 2 -1 -5 60.45 74.83 3.85 o
2292 5 -2 1 5 60.45 74.83 3.85 o
2293 6 -2 -1 5 60.45 66.46 4.27 o
2293 5 2 1 -5 60.45 66.46 4.27 o
2294 5 -2 1 4 16.42 20.16 1.73 o
2295 5 2 1 -4 16.42 18.38 2.01 o
2296 5 -2 1 3 162.48 167.11 4.22 o
2297 5 2 1 -3 162.48 156.77 5.32 o
2298 5 -2 1 2 46.13 38.31 1.67 o
2299 5 -2 2 7 11.54 12.17 2.04 o
2300 5 2 2 -7 11.54 9.72 2.14 o
2301 5 2 2 -6 32.08 38.19 3.71 o
2302 5 -2 2 6 32.08 40.14 3.08 o
2303 6 -2 -2 5 58.77 57.74 4.08 o
2303 5 2 2 -5 58.77 57.74 4.08 o
2304 6 2 -2 -5 58.77 66.53 3.50 o
2304 5 -2 2 5 58.77 66.53 3.50 o
2305 5 -2 2 4 100.91 106.76 3.83 o
2306 5 2 2 -4 100.91 95.55 4.98 o
2307 5 -2 2 3 132.09 134.22 3.44 o
2308 5 -2 2 2 47.89 42.66 1.39 o
2309 5 2 3 -7 13.03 10.01 2.27 o
2310 5 2 3 -6 14.71 15.26 2.38 o
2311 6 -2 -3 5 108.88 112.32 6.04 o
2311 5 2 3 -5 108.88 112.32 6.04 o
2312 5 2 3 -4 4.30 3.94 1.11 o
2313 6 -2 -3 0 754.66 790.69 7.05 o
2313 5 -2 3 0 754.66 790.69 7.05 o
2314 5 -2 3 -1 180.13 196.72 4.81 o
2315 5 -2 3 -2 8.24 6.61 1.19 o
2315 4 2 -3 2 8.24 6.61 1.19 o
2316 5 -2 3 -3 55.54 55.38 3.62 o
2317 5 -2 3 -4 15.02 15.69 2.20 o
2318 6 -6 -3 5 20.01 17.11 2.41 o
2318 5 -2 3 -5 20.01 17.11 2.41 o
2319 5 2 4 -7 16.50 15.23 2.70 o
2320 5 2 4 -6 34.21 38.01 4.00 o
2321 6 -2 -4 5 1.20 0.58 0.67 <
2321 5 2 4 -5 1.20 0.58 0.67 <
2322 6 -2 -4 0 8.62 7.63 0.77 o
2322 5 -2 4 0 8.62 7.63 0.77 o
2323 5 -2 4 -1 83.72 91.07 3.31 o
2324 5 -2 4 -2 281.71 315.44 7.50 o
2324 4 2 -4 2 281.71 315.44 7.50 o
2325 5 -2 4 -3 0.78 0.00 0.24 <
2326 5 -2 4 -4 38.06 37.81 3.26 o
2327 6 -6 -4 5 21.57 22.15 2.73 o
2327 5 -2 4 -5 21.57 22.15 2.73 o
2328 5 2 5 -6 22.75 22.24 3.25 o
2329 5 -2 5 -1 87.15 89.30 3.42 o
2330 5 -2 5 -2 26.62 27.22 2.34 o
2330 4 2 -5 2 26.62 27.22 2.34 o
2331 5 -2 5 -3 53.31 58.57 3.81 o
2332 5 -2 5 -4 28.09 26.27 2.70 o
2333 5 -2 6 -1 25.42 26.81 2.05 o
2334 5 -2 6 -2 80.14 78.68 3.95 o
2334 4 2 -6 2 80.14 78.68 3.95 o
2335 5 -2 6 -3 23.44 23.35 2.43 o
2336 5 -2 6 -4 5.34 3.37 1.07 o
2337 5 -2 7 -2 3.96 4.75 1.00 o
2337 4 2 -7 2 3.96 4.75 1.00 o
2338 5 -2 7 -3 10.57 7.01 1.40 o
2339 5 3 -8 -2 10.43 5.99 0.76 o
2340 5 3 -8 -1 12.04 12.50 0.96 o
2341 6 3 8 0 93.65 89.82 3.18 o
2341 5 3 -8 0 93.65 89.82 3.18 o
2342 5 3 -8 1 2.10 0.59 0.24 <
2343 5 3 -7 -1 16.07 12.79 0.83 o
2344 6 3 7 0 2.87 2.30 0.48 o
2344 5 3 -7 0 2.87 2.30 0.48 o
2345 5 3 -7 1 59.96 62.80 3.09 o
2346 5 3 -7 2 8.62 9.73 1.54 o
2347 6 -1 6 5 79.66 78.95 3.39 o
2347 5 3 -6 -5 79.66 78.95 3.39 o
2348 5 3 -6 -4 1.14 1.09 0.27 o
2349 6 3 6 0 147.18 145.61 3.61 o
2349 5 3 -6 0 147.18 145.61 3.61 o
2350 5 3 -6 1 1.48 1.29 0.50 <
2351 5 3 -6 2 20.42 17.99 2.04 o
2352 5 3 -6 3 9.85 25.25 2.55 o
2353 5 3 -5 -6 5.91 6.83 1.17 o
2354 6 -1 5 5 37.04 34.06 2.22 o
2354 5 3 -5 -5 37.04 34.06 2.22 o
2355 5 3 -5 -4 26.40 26.49 1.53 o
2356 5 -3 -4 7 0.17 -0.14 0.57 <
2357 5 3 -4 -7 0.17 0.44 0.63 <
2358 5 3 -4 -6 29.95 28.61 2.45 o
2359 6 -1 4 5 18.77 19.63 1.80 o
2359 5 3 -4 -5 18.77 19.63 1.80 o
2360 5 3 -4 -4 8.92 8.55 0.96 o
2361 5 3 -4 -3 46.71 28.71 1.21 o
2362 5 -3 -3 7 16.85 16.87 2.86 o
2363 5 3 -3 -7 16.85 15.76 2.24 o
2364 5 3 -3 -6 8.17 4.32 1.00 o
2365 5 -3 -3 6 8.17 2.68 0.94 <
2366 6 -1 3 5 85.96 79.42 3.76 o
2366 5 3 -3 -5 85.96 79.42 3.76 o
2367 5 3 -3 -4 7.68 7.06 0.92 o
2368 5 3 -2 -8 6.05 3.61 1.28 <
2369 5 -3 -2 8 6.05 4.63 1.54 o
2370 5 3 -2 -7 1.13 0.78 0.35 <
2371 5 -3 -2 7 1.13 1.78 0.87 <
2372 5 -3 -2 6 60.34 66.59 4.84 o
2373 5 3 -2 -6 60.34 68.29 4.14 o
2374 6 -1 2 5 73.66 73.28 3.89 o
2374 5 3 -2 -5 73.66 73.28 3.89 o
2375 6 1 2 -5 73.66 84.77 5.12 o
2375 5 -3 -2 5 73.66 84.77 5.12 o
2376 5 3 -2 -4 0.84 0.12 0.12 <
2377 5 -3 -1 8 6.64 5.20 1.64 o
2378 5 3 -1 -8 6.64 5.40 1.54 o
2379 5 -3 -1 7 11.90 14.16 2.17 o
2380 5 3 -1 -7 11.90 13.00 2.19 o
2381 5 3 -1 -6 11.29 13.52 2.06 o
2382 5 -3 -1 6 11.29 11.26 1.92 o
2383 6 1 1 -5 84.34 80.41 4.76 o
2383 5 -3 -1 5 84.34 80.41 4.76 o
2384 6 -1 1 5 84.34 90.75 4.47 o
2384 5 3 -1 -5 84.34 90.75 4.47 o
2385 5 3 -1 -4 140.51 133.34 4.75 o
2386 5 -3 0 8 13.29 21.14 2.96 o
2387 5 3 0 -8 13.29 15.71 2.69 o
2388 5 3 0 -7 1.63 0.35 0.72 <
2389 5 -3 0 7 1.63 -0.18 0.48 <
2390 5 3 0 -6 4.03 3.60 1.21 <
2391 5 -3 0 6 4.03 2.31 0.83 <
2392 6 1 0 -5 207.67 217.98 6.94 o
2392 5 -3 0 5 207.67 217.98 6.94 o
2393 6 -1 0 5 207.67 205.46 6.93 o
2393 5 3 0 -5 207.67 205.46 6.93 o
2394 5 -3 0 4 27.89 38.94 2.79 o
2395 5 -3 1 8 6.74 6.65 1.53 o
2396 5 3 1 -8 6.74 4.55 1.54 <
2397 5 -3 1 7 11.85 15.60 2.20 o
2398 5 3 1 -7 11.85 15.46 2.45 o
2399 5 -3 1 6 11.05 14.37 1.88 o
2400 5 3 1 -6 11.05 10.81 1.94 o
2401 6 1 -1 -5 87.16 94.94 4.19 o
2401 5 -3 1 5 87.16 94.94 4.19 o
2402 6 -1 -1 5 87.16 98.65 5.33 o
2402 5 3 1 -5 87.16 98.65 5.33 o
2403 5 -3 1 4 142.15 130.01 4.48 o
2404 5 -3 1 3 3.64 2.22 0.59 o
2405 5 3 2 -8 6.37 3.94 1.40 <
2406 5 -3 2 8 6.37 7.75 1.64 o
2407 5 -3 2 7 1.14 1.54 0.80 <
2408 5 3 2 -7 1.14 1.29 0.80 <
2409 5 -3 2 6 60.81 72.29 3.95 o
2410 5 3 2 -6 60.81 67.63 5.20 o
2411 6 1 -2 -5 74.75 86.84 3.85 o
2411 5 -3 2 5 74.75 86.84 3.85 o
2412 6 -1 -2 5 74.75 82.92 5.23 o
2412 5 3 2 -5 74.75 82.92 5.23 o
2413 5 -3 2 4 1.06 0.19 0.24 <
2414 5 -3 2 3 115.57 118.87 3.19 o
2415 5 3 3 -7 17.13 15.08 2.96 o
2416 5 -3 3 7 17.13 21.18 2.37 o
2417 5 3 3 -6 7.96 2.59 1.07 <
2418 5 -3 3 6 7.96 5.75 1.04 o
2419 6 1 -3 -5 86.11 95.48 3.91 o
2419 5 -3 3 5 86.11 95.48 3.91 o
2420 5 -3 3 4 8.46 10.01 1.04 o
2421 5 -3 3 3 34.24 39.47 1.56 o
2422 5 3 4 -7 0.20 0.01 0.48 <
2423 6 -3 -4 0 96.26 94.50 2.97 o
2423 5 -3 4 0 96.26 94.50 2.97 o
2424 5 -3 4 -1 10.07 8.98 1.22 o
2425 5 -3 4 -2 1.59 2.66 0.84 o
2426 5 -3 4 -3 32.22 40.42 3.28 o
2427 6 -3 -5 0 3.17 3.38 0.54 o
2427 5 -3 5 0 3.17 3.38 0.54 o
2428 5 -3 5 -1 26.98 31.90 2.07 o
2429 5 -3 5 -2 34.74 29.48 2.46 o
2430 5 -3 5 -3 8.75 14.25 1.87 o
2431 5 -3 5 -4 4.11 1.20 0.37 o
2432 6 -3 -6 0 147.18 139.90 4.12 o
2432 5 -3 6 0 147.18 139.90 4.12 o
2433 5 -3 6 -1 1.59 1.37 0.53 <
2434 5 -3 6 -2 20.07 18.72 2.07 o
2435 5 -3 6 -3 10.15 18.85 2.19 o
2436 5 -3 7 -1 59.21 66.27 3.28 o
2437 5 -3 7 -2 8.78 9.93 1.34 o
2438 5 4 -6 -6 0.68 1.04 0.61 <
2439 6 0 6 5 46.71 41.87 2.08 o
2439 5 4 -6 -5 46.71 41.87 2.08 o
2440 5 4 -5 -6 12.36 14.27 1.67 o
2441 6 0 5 5 19.23 15.61 1.36 o
2441 5 4 -5 -5 19.23 15.61 1.36 o
2442 5 4 -4 -7 4.68 4.22 1.11 o
2443 5 4 -4 -6 6.54 4.26 0.89 o
2444 6 0 4 5 17.78 16.77 1.55 o
2444 5 4 -4 -5 17.78 16.77 1.55 o
2445 5 4 -3 -7 11.78 9.60 1.62 o
2446 5 4 -3 -6 14.44 12.15 1.58 o
2447 6 0 3 5 23.41 16.38 1.69 o
2447 5 4 -3 -5 23.41 16.38 1.69 o
2448 5 4 -2 -8 4.86 3.51 1.12 o
2449 5 -4 -2 8 4.86 3.80 1.56 <
2450 5 -4 -2 7 5.97 5.94 1.74 o
2451 5 4 -2 -7 5.97 4.07 1.14 o
2452 5 4 -2 -6 3.57 2.94 0.92 o
2453 6 0 2 5 78.41 70.78 3.92 o
2453 5 4 -2 -5 78.41 70.78 3.92 o
2454 5 4 -1 -8 2.75 2.53 1.15 <
2455 5 -4 -1 8 2.75 0.39 0.74 <
2456 5 -4 -1 7 11.07 9.89 1.96 o
2457 5 4 -1 -7 11.07 7.80 1.61 o
2458 5 -4 -1 6 13.22 13.99 2.32 o
2459 5 4 -1 -6 13.22 15.12 2.08 o
2460 5 -4 0 8 15.47 21.33 2.93 o
2461 5 4 0 -8 15.47 18.49 2.85 o
2462 5 4 0 -7 12.32 14.27 2.33 o
2463 5 -4 0 7 12.32 13.54 2.08 o
2464 5 -4 0 6 1.13 -0.45 0.59 <
2465 5 4 0 -6 1.13 0.11 0.23 <
2466 6 0 0 -5 153.79 171.79 6.61 o
2466 5 -4 0 5 153.79 171.79 6.61 o
2467 5 -4 1 8 2.69 1.15 0.82 <
2468 5 4 1 -8 2.69 1.60 1.02 <
2469 5 4 1 -7 10.65 7.78 1.91 o
2470 5 -4 1 7 10.65 11.44 1.86 o
2471 5 -4 1 6 13.47 14.72 1.94 o
2472 6 0 -1 -5 63.22 74.43 3.82 o
2472 5 -4 1 5 63.22 74.43 3.82 o
2473 5 -4 2 8 4.62 2.82 0.83 o
2474 5 4 2 -8 4.62 2.19 1.10 <
2475 5 -4 2 7 5.73 6.13 1.40 o
2476 5 4 2 -7 5.73 3.47 1.32 <
2477 5 -4 2 6 3.54 2.83 0.75 o
2478 6 0 -2 -5 79.25 83.26 3.83 o
2478 5 -4 2 5 79.25 83.26 3.83 o
2479 5 -4 2 4 3.11 2.87 0.73 o
2480 5 -4 3 7 11.70 15.97 1.95 o
2481 5 -4 3 6 14.23 18.58 1.90 o
2482 6 0 -3 -5 23.55 25.79 1.91 o
2482 5 -4 3 5 23.55 25.79 1.91 o
2483 5 -4 3 4 7.06 6.60 0.83 o
2484 5 -4 3 3 26.34 28.63 1.63 o
2485 5 -4 4 7 4.86 8.37 1.77 o
2486 5 -4 4 6 6.44 9.83 1.26 o
2487 6 0 -4 -5 17.01 21.45 1.63 o
2487 5 -4 4 5 17.01 21.45 1.63 o
2488 5 -4 4 4 0.31 0.70 0.25 <
2489 5 -4 5 1 26.31 21.41 1.17 o
2490 6 -4 -5 0 21.72 25.54 1.77 o
2490 5 -4 5 0 21.72 25.54 1.77 o
2491 5 -4 5 -1 5.34 2.34 0.79 <
2492 5 -4 5 -2 12.62 12.94 1.81 o
2493 6 -4 -6 0 22.45 30.51 1.83 o
2493 5 -4 6 0 22.45 30.51 1.83 o
2494 5 -4 6 -1 29.93 28.39 2.48 o
2495 5 -4 6 -2 0.39 -0.27 0.48 <
2496 6 -4 -7 0 78.08 82.04 3.11 o
2496 5 -4 7 0 78.08 82.04 3.11 o
2497 5 5 -3 -7 1.57 0.89 0.67 <
2498 5 5 -2 -7 6.95 8.51 1.75 o
2499 5 -5 0 7 5.13 2.07 0.76 <
2500 5 -5 1 7 4.42 2.14 0.89 <
2501 5 -5 1 6 10.87 8.74 1.77 o
2502 5 -5 2 7 6.69 8.19 1.55 o
2503 5 -5 2 6 8.19 10.09 1.56 o
2504 6 -1 -2 -5 2.12 1.29 0.45 <
2504 5 -5 2 5 2.12 1.29 0.45 <
2505 5 -5 3 7 1.56 2.17 0.75 <
2506 5 -5 3 6 8.37 11.61 1.46 o
2507 6 -1 -3 -5 37.94 53.69 2.90 o
2507 5 -5 3 5 37.94 53.69 2.90 o
2508 5 -5 4 6 10.29 18.63 1.75 o
2509 6 -1 -4 -5 4.34 6.55 0.84 o
2509 5 -5 4 5 4.34 6.55 0.84 o
2510 5 -5 4 4 33.36 41.41 1.93 o
2511 5 -5 5 6 8.48 13.32 1.29 o
2512 6 -1 -5 -5 32.33 37.21 1.73 o
2512 5 -5 5 5 32.33 37.21 1.73 o
2513 5 -5 5 2 20.72 17.33 0.93 o
2514 5 -5 6 1 16.56 16.41 1.22 o
2515 6 -5 -6 0 5.79 6.85 0.95 o
2515 5 -5 6 0 5.79 6.85 0.95 o
2516 5 -6 2 7 0.01 0.07 0.32 <
2516 4 -6 -2 7 0.01 0.07 0.32 <
2517 5 -6 3 6 6.46 4.94 1.16 o
2518 6 -2 -4 -5 19.94 33.70 2.14 o
2518 5 -6 4 5 19.94 33.70 2.14 o
2519 5 -6 5 4 6.66 5.25 0.72 o
2520 6 0 -4 -5 17.03 20.30 1.95 o
2520 5 -4 4 5 17.03 20.30 1.95 o
2521 6 0 -4 -6 37.72 45.73 3.13 o
2522 6 0 -3 -3 1.42 1.51 0.41 o
2523 6 0 -3 -4 0.59 0.63 0.33 <
2524 6 0 -3 -5 23.59 23.82 2.09 o
2524 5 -4 3 5 23.59 23.82 2.09 o
2525 6 0 -3 -6 0.07 0.38 0.38 <
2526 6 0 -3 -7 16.99 19.10 2.36 o
2527 6 0 -2 -2 197.65 192.41 3.55 o
2528 6 0 -2 -3 207.40 213.04 4.94 o
2529 6 0 -2 -4 7.04 7.41 1.11 o
2530 6 0 -2 -5 79.42 66.81 4.06 o
2530 5 -4 2 5 79.42 66.81 4.06 o
2531 6 0 -2 -6 33.05 37.11 3.39 o
2532 6 0 -2 -7 4.85 6.58 1.56 o
2533 6 0 -1 -2 97.68 111.67 3.26 o
2534 6 0 -1 -3 51.11 53.09 3.00 o
2535 6 0 -1 -4 220.31 210.21 7.02 o
2536 6 0 -1 -5 63.38 65.00 4.46 o
2536 5 -4 1 5 63.38 65.00 4.46 o
2537 6 0 -1 -6 15.97 15.71 2.45 o
2538 6 0 -1 -7 6.70 7.78 2.04 o
2539 6 0 0 1 176.47 115.24 2.91 o
2540 6 0 0 -1 176.47 113.42 2.79 o
2541 6 0 0 -2 8.98 11.08 1.37 o
2542 6 0 0 2 8.98 10.72 1.34 o
2543 6 0 0 -3 294.56 259.97 7.75 o
2544 6 0 0 -4 16.50 18.95 2.46 o
2545 6 0 0 -5 154.19 148.58 7.94 o
2545 5 -4 0 5 154.19 148.58 7.94 o
2546 6 0 1 2 97.99 108.46 3.53 o
2547 6 0 1 3 51.08 45.74 3.06 o
2548 6 0 1 4 220.28 203.01 7.54 o
2549 6 0 2 2 197.63 190.21 3.77 o
2550 6 0 2 3 207.54 211.71 5.97 o
2551 6 0 2 4 7.07 4.76 1.07 o
2552 6 0 2 5 78.57 62.83 4.47 o
2552 5 4 -2 -5 78.57 62.83 4.47 o
2553 6 0 3 2 451.45 454.30 5.58 o
2554 6 0 3 3 1.42 0.88 0.36 <
2555 6 0 3 4 0.75 0.25 0.29 <
2556 6 0 3 5 23.45 15.81 2.15 o
2556 5 4 -3 -5 23.45 15.81 2.15 o
2557 6 0 4 3 120.67 105.48 3.15 o
2558 6 0 4 4 0.29 0.04 0.25 <
2559 6 0 4 5 17.80 12.39 1.78 o
2559 5 4 -4 -5 17.80 12.39 1.78 o
2560 6 0 4 6 37.64 19.20 2.35 o
2561 6 0 5 3 0.47 0.16 0.15 <
2562 6 0 5 4 5.83 5.23 0.85 o
2563 6 0 5 5 19.26 14.10 1.61 o
2563 5 4 -5 -5 19.26 14.10 1.61 o
2564 6 0 5 6 4.24 1.82 0.68 <
2565 6 0 6 4 12.14 10.33 0.98 o
2566 6 0 6 5 46.78 35.19 2.29 o
2566 5 4 -6 -5 46.78 35.19 2.29 o
2567 6 0 7 4 104.89 76.92 2.68 o
2568 6 -1 -5 -5 32.40 89.30 5.21 o
2568 5 -5 5 5 32.40 89.30 5.21 o
2569 6 1 -4 -7 14.27 19.54 2.41 o
2570 6 1 -4 -6 5.12 4.38 1.14 o
2571 6 -1 -4 -4 14.95 22.01 1.47 o
2572 6 -1 -4 -5 4.35 5.74 0.88 o
2572 5 -5 4 5 4.35 5.74 0.88 o
2573 6 -1 -4 -6 15.62 23.94 2.13 o
2574 6 1 -3 -7 17.62 24.29 2.76 o
2575 6 1 -3 -6 22.84 30.71 2.83 o
2576 6 1 -3 -5 86.22 80.97 4.31 o
2576 5 -3 3 5 86.22 80.97 4.31 o
2577 6 -1 -3 -3 66.61 68.33 2.54 o
2578 6 -1 -3 -4 17.78 20.71 1.81 o
2579 6 -1 -3 -5 38.04 44.21 3.18 o
2579 5 -5 3 5 38.04 44.21 3.18 o
2580 6 -1 -3 -6 17.96 23.12 2.53 o
2581 6 1 -2 -7 9.62 15.01 2.30 o
2582 6 1 -2 -6 1.07 0.92 0.45 <
2583 6 -1 -2 5 74.83 71.31 6.00 o
2583 5 3 2 -5 74.83 71.31 6.00 o
2584 6 1 -2 -5 74.83 78.87 4.25 o
2584 5 -3 2 5 74.83 78.87 4.25 o
2585 6 -1 -2 4 12.90 9.48 2.01 o
2586 6 1 -2 -4 12.90 11.45 1.40 o
2587 6 1 -2 -3 196.80 202.31 5.67 o
2588 6 -1 -2 3 196.80 209.25 7.62 o
2589 6 -1 -2 2 708.43 850.48 12.66 o
2590 6 -1 -2 1 11.23 11.71 1.19 o
2591 6 -1 -2 -2 199.83 173.25 4.23 o
2592 6 -1 -2 -3 12.46 8.87 1.32 o
2593 6 -1 -2 -4 54.73 51.27 3.49 o
2594 6 -1 -2 -5 2.13 1.15 0.55 <
2594 5 -5 2 5 2.13 1.15 0.55 <
2595 6 -1 -2 -6 8.93 15.25 2.44 o
2596 6 1 -1 -7 5.86 5.92 1.49 o
2597 6 1 -1 -6 23.13 28.78 3.01 o
2598 6 -1 -1 6 23.13 24.08 3.58 o
2599 6 -1 -1 5 87.28 87.27 6.20 o
2599 5 3 1 -5 87.28 87.27 6.20 o
2600 6 1 -1 -5 87.28 83.95 4.77 o
2600 5 -3 1 5 87.28 83.95 4.77 o
2601 6 1 -1 -4 136.74 142.53 5.33 o
2602 6 -1 -1 4 136.74 143.05 6.85 o
2603 6 -1 -1 3 58.20 49.23 3.59 o
2604 6 1 -1 -3 58.20 48.81 2.75 o
2605 6 -1 -1 2 324.43 344.49 7.42 o
2606 6 1 -1 -2 324.43 340.83 6.30 o
2607 6 -1 -1 1 491.78 507.25 6.59 o
2608 6 1 0 -7 8.27 6.37 1.85 o
2609 6 -1 0 7 8.27 5.17 1.76 <
2610 6 -1 0 6 7.06 6.93 1.87 o
2611 6 1 0 -6 7.06 9.06 1.89 o
2612 6 -1 0 5 207.96 206.88 8.67 o
2612 5 3 0 -5 207.96 206.88 8.67 o
2613 6 1 0 -5 207.96 202.51 8.10 o
2613 5 -3 0 5 207.96 202.51 8.10 o
2614 6 1 0 -4 135.83 129.33 5.73 o
2615 6 -1 0 4 135.83 124.44 6.07 o
2616 6 1 0 -3 5.94 5.78 1.07 o
2617 6 -1 0 3 5.94 5.20 1.14 o
2618 6 -1 0 2 23.54 33.40 2.04 o
2619 6 1 0 -2 23.54 30.17 1.87 o
2620 6 -1 0 1 150.77 104.12 2.88 o
2621 6 1 0 -1 150.77 103.06 2.92 o
2622 6 1 1 -7 5.56 4.51 1.76 <
2623 6 -1 1 7 5.56 4.32 1.77 <
2624 6 -1 1 6 22.50 23.18 3.11 o
2625 6 1 1 -6 22.50 27.90 3.67 o
2626 6 1 1 -5 84.46 76.97 5.63 o
2626 5 -3 -1 5 84.46 76.97 5.63 o
2627 6 -1 1 5 84.46 89.01 5.48 o
2627 5 3 -1 -5 84.46 89.01 5.48 o
2628 6 -1 1 4 135.99 138.69 5.88 o
2629 6 1 1 -4 135.99 135.30 6.38 o
2630 6 -1 1 3 61.50 53.07 3.00 o
2631 6 1 1 -3 61.50 50.06 3.54 o
2632 6 1 1 -2 325.67 340.82 7.29 o
2633 6 -1 1 2 325.67 342.62 6.05 o
2634 6 1 1 -1 492.41 506.33 6.42 o
2635 6 -1 2 7 9.83 8.73 2.03 o
2636 6 -1 2 6 0.97 0.43 0.28 <
2637 6 1 2 -5 73.74 67.06 5.83 o
2637 5 -3 -2 5 73.74 67.06 5.83 o
2638 6 -1 2 5 73.74 68.43 4.55 o
2638 5 3 -2 -5 73.74 68.43 4.55 o
2639 6 1 2 -4 11.82 10.15 1.95 o
2640 6 -1 2 4 11.82 9.73 1.51 o
2641 6 -1 2 3 192.96 201.55 5.55 o
2642 6 1 2 -3 192.96 211.23 7.59 o
2643 6 1 2 -2 709.18 848.06 12.93 o
2644 6 1 2 -1 12.72 13.43 1.28 o
2645 6 -1 3 7 17.36 13.03 2.31 o
2646 6 -1 3 6 23.03 24.16 2.84 o
2647 6 -1 3 5 86.07 73.48 4.53 o
2647 5 3 -3 -5 86.07 73.48 4.53 o
2648 6 -1 3 4 60.88 61.41 3.47 o
2649 6 1 3 -2 26.00 28.83 2.61 o
2650 6 1 3 -1 80.46 103.90 4.02 o
2651 6 -1 4 7 14.26 11.82 2.01 o
2652 6 -1 4 6 5.02 4.20 1.20 o
2653 6 -1 4 5 18.78 20.60 2.07 o
2653 5 3 -4 -5 18.78 20.60 2.07 o
2654 6 -1 4 4 45.07 41.27 2.81 o
2655 6 -1 5 6 21.78 19.16 2.28 o
2656 6 -1 5 5 37.07 29.53 2.45 o
2656 5 3 -5 -5 37.07 29.53 2.45 o
2657 6 -1 6 6 4.15 1.27 0.56 <
2658 6 -1 6 5 79.72 66.06 3.50 o
2658 5 3 -6 -5 79.72 66.06 3.50 o
2659 6 -2 -4 5 1.20 0.33 0.64 <
2659 5 2 4 -5 1.20 0.33 0.64 <
2660 6 -2 -4 4 162.48 188.18 8.90 o
2661 6 -2 -4 3 78.25 85.58 5.48 o
2662 6 -2 -4 2 3.43 4.13 0.98 o
2663 6 -2 -4 1 388.96 417.49 8.75 o
2664 6 -2 -4 -3 0.62 0.22 0.15 <
2665 6 -2 -4 -4 35.48 39.51 2.49 o
2666 6 -2 -4 -5 19.99 28.53 2.38 o
2666 5 -6 4 5 19.99 28.53 2.38 o
2667 6 -2 -3 7 12.01 8.96 2.57 o
2668 6 2 -3 -7 12.01 14.69 2.31 o
2669 6 -2 -3 6 13.13 12.25 2.70 o
2670 6 2 -3 -6 13.13 16.42 2.41 o
2671 6 -2 -3 5 108.88 110.80 7.38 o
2671 5 2 3 -5 108.88 110.80 7.38 o
2672 6 -2 -3 4 3.97 4.21 1.24 o
2673 6 -2 -3 3 167.84 199.96 7.87 o
2674 6 -2 -3 2 352.88 373.06 9.10 o
2675 6 -2 -3 1 4.19 4.31 0.79 o
2676 6 -2 -2 7 10.36 4.26 1.61 <
2677 6 2 -2 -7 10.36 15.04 2.38 o
2678 6 2 -2 -6 30.17 35.59 3.37 o
2679 6 -2 -2 6 30.17 29.93 4.19 o
2680 6 -2 -2 5 58.77 58.82 5.17 o
2680 5 2 2 -5 58.77 58.82 5.17 o
2681 6 2 -2 -5 58.77 58.67 4.03 o
2681 5 -2 2 5 58.77 58.67 4.03 o
2682 6 -2 -2 4 93.53 98.98 5.97 o
2683 6 -2 -2 3 119.14 123.85 5.77 o
2684 6 -2 -2 2 43.01 40.90 2.85 o
2685 6 -2 -2 1 377.21 372.29 6.56 o
2686 6 2 -1 -8 8.18 12.90 2.55 o
2687 6 -2 -1 8 8.18 7.06 2.72 <
2688 6 2 -1 -7 5.60 4.81 1.35 o
2689 6 -2 -1 7 5.60 2.86 1.24 <
2690 6 2 -1 -6 32.91 38.74 3.47 o
2691 6 -2 -1 6 32.91 32.78 4.04 o
2692 6 2 -1 -5 60.45 62.20 4.13 o
2692 5 -2 1 5 60.45 62.20 4.13 o
2693 6 -2 -1 5 60.45 60.85 4.89 o
2693 5 2 1 -5 60.45 60.85 4.89 o
2694 6 2 -1 -4 15.08 16.07 1.89 o
2695 6 -2 -1 4 15.08 15.84 2.33 o
2696 6 -2 -1 3 155.42 159.35 6.06 o
2697 6 -2 -1 2 45.86 40.49 2.52 o
2698 6 -2 0 8 0.83 0.80 0.95 <
2699 6 2 0 -8 0.83 2.27 1.14 <
2700 6 2 0 -7 18.78 17.79 2.83 o
2701 6 -2 0 7 18.78 15.27 2.93 o
2702 6 2 0 -6 0.17 0.98 0.67 <
2703 6 -2 0 6 0.17 0.64 0.67 <
2704 6 2 0 -5 8.51 11.18 1.79 o
2704 5 -2 0 5 8.51 11.18 1.79 o
2705 6 -2 0 5 8.51 9.67 1.86 o
2705 5 2 0 -5 8.51 9.67 1.86 o
2706 6 -2 0 4 109.37 102.11 5.26 o
2707 6 2 0 -4 109.37 98.88 4.87 o
2708 6 2 0 -3 4.48 4.96 0.95 o
2709 6 -2 0 3 4.48 5.03 1.05 o
2710 6 2 1 -8 8.60 9.74 2.52 o
2711 6 -2 1 8 8.60 6.41 1.86 o
2712 6 -2 1 7 5.89 1.54 0.53 <
2713 6 2 1 -7 5.89 2.18 0.84 <
2714 6 2 1 -6 32.92 34.35 3.74 o
2715 6 -2 1 6 32.92 31.28 3.58 o
2716 6 2 1 -5 60.54 54.53 4.32 o
2716 5 -2 -1 5 60.54 54.53 4.32 o
2717 6 -2 1 5 60.54 62.78 4.54 o
2717 5 2 -1 -5 60.54 62.78 4.54 o
2718 6 2 1 -4 15.25 15.41 2.06 o
2719 6 -2 1 4 15.25 17.60 2.04 o
2720 6 2 1 -3 150.92 151.78 5.67 o
2721 6 -2 1 3 150.92 153.99 5.46 o
2722 6 2 1 -2 42.85 37.48 2.42 o
2723 6 2 2 -7 10.72 9.78 2.56 o
2724 6 -2 2 7 10.72 6.60 1.74 o
2725 6 2 2 -6 29.79 30.96 3.86 o
2726 6 -2 2 6 29.79 35.42 3.65 o
2727 6 -2 2 5 58.71 60.56 4.24 o
2727 5 2 -2 -5 58.71 60.56 4.24 o
2728 6 2 2 -5 58.71 55.03 4.67 o
2728 5 -2 -2 5 58.71 55.03 4.67 o
2729 6 -2 2 4 93.73 100.56 4.92 o
2730 6 2 2 -4 93.73 98.25 5.46 o
2731 6 2 2 -3 122.69 122.33 5.45 o
2732 6 2 2 -2 44.48 44.26 2.75 o
2733 6 2 2 -1 377.17 367.86 6.82 o
2734 6 2 3 -7 12.10 8.57 2.37 o
2735 6 -2 3 7 12.10 9.64 2.08 o
2736 6 2 3 -6 13.67 12.59 2.88 o
2737 6 -2 3 6 13.67 15.94 2.30 o
2738 6 -2 3 5 108.93 107.01 5.41 o
2738 5 2 -3 -5 108.93 107.01 5.41 o
2739 6 2 3 -5 108.93 111.71 7.12 o
2739 5 -2 -3 5 108.93 111.71 7.12 o
2740 6 2 3 -4 4.00 5.44 1.48 o
2741 6 2 3 -3 168.66 198.74 7.83 o
2742 6 2 3 -2 353.40 373.33 8.95 o
2743 6 2 3 -1 4.19 3.65 0.67 o
2744 6 -2 4 7 15.33 15.79 2.51 o
2745 6 -2 4 6 31.78 37.73 3.39 o
2746 6 2 4 -6 31.78 34.61 4.95 o
2747 6 2 4 -5 1.20 0.20 0.63 <
2747 5 -2 -4 5 1.20 0.20 0.63 <
2748 6 2 4 -4 163.04 184.02 8.70 o
2749 6 2 4 -3 76.98 83.28 5.31 o
2750 6 2 4 -2 2.87 4.54 1.04 o
2751 6 2 4 -1 388.83 416.40 8.26 o
2752 6 -2 5 6 21.13 23.65 2.54 o
2753 6 2 5 -4 15.22 13.93 2.41 o
2754 6 2 5 -3 83.94 83.27 5.47 o
2755 6 2 5 -2 86.03 105.36 5.45 o
2756 6 2 5 -1 63.36 80.45 4.06 o
2757 6 2 6 -2 29.97 33.31 3.19 o
2758 6 2 6 -1 81.81 81.32 4.34 o
2759 6 2 6 1 23.61 19.50 1.07 o
2760 6 2 7 -1 0.22 0.40 0.47 <
2761 6 2 7 1 27.41 22.22 1.44 o
2762 6 2 8 1 14.63 12.03 1.24 o
2763 6 -3 -6 5 82.70 92.60 7.67 o
2763 5 1 6 -5 82.70 92.60 7.67 o
2764 6 -3 -6 4 1.06 0.58 0.17 o
2765 6 -3 -6 3 76.45 71.82 5.33 o
2766 6 -3 -6 2 14.71 7.77 1.70 o
2767 6 -3 -6 1 14.66 11.99 1.63 o
2768 6 -3 -5 6 5.49 4.41 1.80 <
2769 6 -3 -5 5 35.73 36.36 4.41 o
2769 5 1 5 -5 35.73 36.36 4.41 o
2770 6 -3 -5 4 24.52 26.23 3.39 o
2771 6 -3 -5 3 0.51 0.94 0.40 <
2772 6 -3 -5 2 78.58 77.25 4.81 o
2773 6 -3 -5 1 75.09 73.42 4.02 o
2774 6 -3 -5 -1 23.58 14.58 1.24 o
2775 6 -3 -4 7 0.16 0.01 0.71 <
2776 6 -3 -4 6 27.82 23.17 3.86 o
2777 6 -3 -4 5 19.91 21.26 3.28 o
2777 5 1 4 -5 19.91 21.26 3.28 o
2778 6 -3 -4 4 8.28 6.13 1.51 o
2779 6 -3 -4 3 43.39 43.66 3.78 o
2780 6 -3 -4 2 34.93 40.34 3.32 o
2781 6 -3 -4 1 37.12 34.25 2.64 o
2782 6 -3 -3 7 15.65 12.13 2.88 o
2783 6 -3 -3 6 7.59 2.84 1.34 <
2784 6 -3 -3 5 81.99 83.21 6.22 o
2784 5 1 3 -5 81.99 83.21 6.22 o
2785 6 -3 -3 4 7.13 6.54 1.60 o
2786 6 -3 -3 3 31.92 35.70 3.27 o
2787 6 -3 -3 2 59.54 65.63 3.74 o
2788 6 -3 -3 1 60.41 67.83 3.45 o
2789 6 3 -2 -8 5.62 5.79 1.50 o
2790 6 -3 -2 8 5.62 4.86 2.11 <
2791 6 -3 -2 7 1.05 1.11 0.98 <
2792 6 3 -2 -7 1.05 1.15 0.69 <
2793 6 -3 -2 6 56.05 60.75 5.77 o
2794 6 3 -2 -6 56.05 69.41 5.19 o
2795 6 -3 -2 5 75.97 71.20 5.58 o
2795 5 1 2 -5 75.97 71.20 5.58 o
2796 6 -3 -2 4 0.78 0.26 0.40 <
2797 6 -3 -2 3 107.62 105.18 5.15 o
2798 6 -3 -2 2 102.26 98.23 4.61 o
2799 6 3 -1 -8 6.17 7.17 1.68 o
2800 6 -3 -1 8 6.17 4.97 2.20 <
2801 6 3 -1 -7 11.05 16.74 2.48 o
2802 6 -3 -1 7 11.05 8.09 2.02 o
2803 6 -3 -1 6 10.49 12.23 2.55 o
2804 6 3 -1 -6 10.49 12.22 1.98 o
2805 6 3 -1 -5 81.67 91.04 5.44 o
2805 5 -1 1 5 81.67 91.04 5.44 o
2806 6 -3 -1 5 81.67 86.17 5.79 o
2806 5 1 1 -5 81.67 86.17 5.79 o
2807 6 -3 -1 4 130.51 126.71 6.13 o
2808 6 -3 -1 3 3.28 2.51 0.81 o
2809 6 -3 0 8 12.34 11.74 2.87 o
2810 6 3 0 -8 12.34 22.36 3.35 o
2811 6 3 0 -7 1.51 0.69 0.58 <
2812 6 -3 0 7 1.51 0.01 0.15 <
2813 6 -3 0 6 3.75 3.56 1.30 <
2814 6 3 0 -6 3.75 2.54 0.90 <
2815 6 3 0 -5 217.91 193.42 7.84 o
2815 5 -1 0 5 217.91 193.42 7.84 o
2816 6 -3 0 5 217.91 191.19 8.22 o
2816 5 1 0 -5 217.91 191.19 8.22 o
2817 6 3 0 -4 25.91 39.34 3.38 o
2818 6 -3 0 4 25.91 37.43 3.32 o
2819 6 3 1 -8 6.26 7.35 1.94 o
2820 6 -3 1 8 6.26 2.58 1.38 <
2821 6 3 1 -7 11.01 15.67 2.64 o
2822 6 -3 1 7 11.01 11.31 2.36 o
2823 6 3 1 -6 10.27 12.59 2.14 o
2824 6 -3 1 6 10.27 12.29 2.28 o
2825 6 3 1 -5 84.37 93.04 5.52 o
2825 5 -1 -1 5 84.37 93.04 5.52 o
2826 6 -3 1 5 84.37 93.38 5.47 o
2826 5 1 -1 -5 84.37 93.38 5.47 o
2827 6 3 1 -4 132.03 126.79 5.80 o
2828 6 3 1 -3 3.38 2.77 0.90 o
2829 6 -3 2 8 5.91 3.22 1.35 <
2830 6 3 2 -8 5.91 5.73 1.70 o
2831 6 3 2 -7 1.06 1.17 0.96 <
2832 6 -3 2 7 1.06 1.01 0.67 <
2833 6 3 2 -6 56.48 59.28 5.10 o
2834 6 -3 2 6 56.48 69.08 5.19 o
2835 6 3 2 -5 77.21 73.50 5.16 o
2835 5 -1 -2 5 77.21 73.50 5.16 o
2836 6 -3 2 5 77.21 64.53 4.78 o
2836 5 1 -2 -5 77.21 64.53 4.78 o
2837 6 3 2 -4 0.99 0.54 0.36 <
2838 6 3 2 -3 107.35 109.96 5.14 o
2839 6 3 2 -2 98.99 97.91 4.63 o
2840 6 -3 3 7 15.91 18.28 2.90 o
2841 6 3 3 -7 15.91 15.38 3.01 o
2842 6 -3 3 6 7.40 3.83 1.11 o
2843 6 3 3 -6 7.40 2.98 1.32 <
2844 6 3 3 -5 82.11 83.87 5.81 o
2844 5 -1 -3 5 82.11 83.87 5.81 o
2845 6 3 3 -4 7.86 7.42 1.48 o
2846 6 3 3 -3 31.80 37.22 3.08 o
2847 6 3 3 -2 59.80 63.89 3.59 o
2848 6 -3 4 7 0.18 -0.41 0.78 <
2849 6 3 4 -7 0.18 -0.46 0.90 <
2850 6 3 4 -6 27.81 24.65 3.62 o
2851 6 3 4 -5 19.21 21.00 3.13 o
2851 5 -1 -4 5 19.21 21.00 3.13 o
2852 6 3 4 -4 8.22 7.83 1.67 o
2853 6 3 4 -3 43.72 47.01 3.68 o
2854 6 3 4 -2 35.69 41.76 3.01 o
2855 6 3 4 -1 36.24 37.53 2.60 o
2856 6 3 5 -6 5.71 7.14 1.96 o
2857 6 3 5 -5 34.56 34.69 4.26 o
2857 5 -1 -5 5 34.56 34.69 4.26 o
2858 6 3 5 -4 23.13 26.57 3.33 o
2859 6 3 5 -3 0.53 1.27 0.67 <
2860 6 3 5 -2 77.99 77.81 4.30 o
2861 6 3 5 -1 75.83 72.58 3.50 o
2862 6 3 6 -6 8.48 7.31 2.01 o
2863 6 3 6 -5 82.22 89.29 6.97 o
2863 5 -1 -6 5 82.22 89.29 6.97 o
2864 6 3 6 -4 1.02 1.07 0.68 <
2865 6 3 6 -3 76.67 83.63 5.63 o
2866 6 3 6 -2 15.83 11.81 1.80 o
2867 6 3 6 -1 13.53 11.29 1.38 o
2868 6 3 7 -5 10.30 8.64 2.07 o
2868 5 -1 -7 5 10.30 8.64 2.07 o
2869 6 3 7 -4 50.45 58.21 5.19 o
2870 6 3 7 -3 1.24 1.66 1.03 <
2871 6 3 7 -2 15.13 11.73 1.79 o
2872 6 3 7 -1 15.37 11.03 1.45 o
2873 6 3 8 -3 40.38 35.49 3.64 o
2874 6 3 8 -2 9.12 12.62 2.01 o
2875 6 3 8 -1 11.82 11.11 1.48 o
2876 6 -4 -7 4 39.84 37.00 4.39 o
2877 6 -4 -7 3 24.85 24.97 3.12 o
2878 6 -4 -7 2 0.21 0.27 0.09 o
2879 6 -4 -7 1 24.09 22.39 2.28 o
2880 6 -4 -6 6 0.64 -0.43 0.47 <
2881 6 -4 -6 5 47.05 62.29 6.03 o
2881 5 0 6 -5 47.05 62.29 6.03 o
2882 6 -4 -6 4 9.03 9.75 2.11 o
2883 6 -4 -6 3 4.98 2.23 0.93 <
2884 6 -4 -6 2 26.28 15.99 2.42 o
2885 6 -4 -6 1 3.97 2.89 0.87 o
2886 6 -4 -6 -1 28.10 21.91 1.59 o
2887 6 -4 -5 6 11.48 11.23 2.52 o
2888 6 -4 -5 5 20.00 19.04 3.24 o
2888 5 0 5 -5 20.00 19.04 3.24 o
2889 6 -4 -5 4 10.66 11.95 2.23 o
2890 6 -4 -5 3 26.59 21.96 2.73 o
2891 6 -4 -5 2 1.61 0.33 0.33 <
2892 6 -4 -5 1 25.90 24.79 2.38 o
2893 6 -4 -5 -1 4.88 6.27 1.10 o
2894 6 -4 -4 7 4.35 4.34 2.04 <
2895 6 -4 -4 6 6.07 4.23 1.63 <
2896 6 -4 -4 5 16.52 19.61 3.04 o
2896 5 0 4 -5 16.52 19.61 3.04 o
2897 6 -4 -4 4 0.40 0.44 0.41 <
2898 6 -4 -4 3 3.97 1.56 0.69 <
2899 6 -4 -4 2 76.16 78.08 4.72 o
2900 6 -4 -4 1 3.57 3.05 0.91 o
2901 6 -4 -3 7 10.94 9.69 2.53 o
2902 6 -4 -3 6 13.42 11.92 2.63 o
2903 6 -4 -3 5 24.80 17.70 2.86 o
2903 5 0 3 -5 24.80 17.70 2.86 o
2904 6 -4 -3 4 6.87 4.73 1.26 o
2905 6 -4 -3 3 25.36 33.23 3.11 o
2906 6 -4 -3 2 0.58 0.30 0.04 o
2907 6 -4 -2 8 4.52 2.76 1.42 <
2908 6 4 -2 -8 4.52 4.01 1.45 <
2909 6 -4 -2 7 5.55 2.75 1.60 <
2910 6 -4 -2 6 3.32 2.51 1.20 <
2911 6 -4 -2 5 78.51 69.59 5.41 o
2911 5 0 2 -5 78.51 69.59 5.41 o
2912 6 -4 -2 4 2.60 2.74 0.90 o
2913 6 -4 -2 3 28.21 32.13 3.14 o
2914 6 4 -1 -8 2.55 1.43 0.56 <
2915 6 -4 -1 8 2.55 1.62 1.23 <
2916 6 -4 -1 7 10.28 8.78 2.41 o
2917 6 4 -1 -7 10.28 13.57 2.38 o
2918 6 -4 -1 6 12.28 15.93 2.71 o
2919 6 4 -1 -6 12.28 16.33 2.65 o
2920 6 -4 -1 5 66.65 55.22 4.82 o
2920 5 0 1 -5 66.65 55.22 4.82 o
2921 6 -4 -1 4 99.49 117.54 6.21 o
2922 6 4 0 -8 14.36 25.91 3.60 o
2923 6 -4 0 8 14.36 14.42 3.19 o
2924 6 4 0 -7 11.44 17.86 2.80 o
2925 6 -4 0 7 11.44 13.07 2.67 o
2926 6 -4 0 6 1.05 0.55 0.73 <
2927 6 4 0 -6 1.05 0.57 0.50 <
2928 6 -4 0 5 151.60 161.37 7.97 o
2928 5 0 0 -5 151.60 161.37 7.97 o
2929 6 4 0 -5 151.60 166.14 8.07 o
2929 5 0 0 5 151.60 166.14 8.07 o
2930 6 -4 1 8 2.50 0.79 0.58 <
2931 6 4 1 -8 2.50 1.77 0.88 <
2932 6 4 1 -7 9.89 12.30 2.40 o
2933 6 -4 1 7 9.89 10.62 2.40 o
2934 6 4 1 -6 12.51 18.34 2.75 o
2935 6 -4 1 6 12.51 17.83 2.69 o
2936 6 4 1 -5 66.53 57.88 4.92 o
2936 5 0 -1 5 66.53 57.88 4.92 o
2937 6 4 1 -4 98.78 119.42 6.38 o
2938 6 4 2 -8 4.29 3.63 1.60 <
2939 6 -4 2 8 4.29 2.04 0.99 <
2940 6 4 2 -7 5.33 7.25 1.79 o
2941 6 -4 2 7 5.33 6.01 1.63 o
2942 6 4 2 -6 3.29 2.41 0.91 <
2943 6 4 2 -5 79.28 68.38 5.11 o
2943 5 0 -2 5 79.28 68.38 5.11 o
2944 6 4 2 -4 2.88 3.36 0.99 o
2945 6 4 3 -7 10.86 15.74 2.89 o
2946 6 4 3 -6 13.22 17.15 2.84 o
2947 6 4 3 -5 24.93 18.70 2.89 o
2947 5 0 -3 5 24.93 18.70 2.89 o
2948 6 4 3 -4 6.56 5.40 1.24 o
2949 6 4 3 -3 24.47 32.90 3.13 o
2950 6 4 4 -7 4.51 3.24 1.10 <
2951 6 4 4 -6 5.98 6.75 1.87 o
2952 6 4 4 -5 15.80 21.46 3.07 o
2952 5 0 -4 5 15.80 21.46 3.07 o
2953 6 4 4 -4 0.29 0.29 0.32 <
2954 6 4 4 -3 4.39 2.62 0.79 o
2955 6 4 4 -2 76.43 84.23 4.86 o
2956 6 4 5 -6 11.58 16.21 2.90 o
2957 6 4 5 -5 19.91 18.93 2.97 o
2957 5 0 -5 5 19.91 18.93 2.97 o
2958 6 4 5 -4 11.05 13.95 2.28 o
2959 6 4 5 -3 28.03 23.53 2.65 o
2960 6 4 5 -2 1.61 0.37 0.31 <
2961 6 4 6 -6 0.71 1.16 0.86 <
2962 6 4 6 -5 47.32 64.42 5.63 o
2962 5 0 -6 5 47.32 64.42 5.63 o
2963 6 4 6 -4 9.00 15.21 2.35 o
2964 6 4 6 -3 5.16 3.29 0.87 o
2965 6 4 6 -2 26.16 21.38 2.26 o
2966 6 4 7 -4 39.87 49.54 4.60 o
2967 6 4 7 -3 24.34 29.22 3.08 o
2968 6 4 7 -2 0.21 0.10 0.13 <
2969 6 4 7 -1 24.51 23.24 2.18 o
2970 6 -5 -6 5 5.94 3.09 1.35 <
2970 5 -1 6 -5 5.94 3.09 1.35 <
2971 6 -5 -6 4 15.84 14.25 2.57 o
2972 6 -5 -6 3 5.90 4.78 1.46 o
2973 6 -5 -6 2 4.18 5.56 1.31 o
2974 6 -5 -6 1 15.32 17.11 2.14 o
2975 6 -5 -5 6 7.94 4.57 1.77 <
2976 6 -5 -5 5 33.76 35.34 4.45 o
2976 5 -1 5 -5 33.76 35.34 4.45 o
2977 6 -5 -5 4 0.66 -0.17 0.65 <
2978 6 -5 -5 3 21.72 26.02 3.12 o
2979 6 -5 -5 2 19.90 26.25 3.17 o
2980 6 -5 -5 1 1.40 1.38 0.70 <
2981 6 -5 -4 6 9.64 8.09 2.23 o
2982 6 -5 -4 5 4.76 2.03 0.91 <
2982 5 -1 4 -5 4.76 2.03 0.91 <
2983 6 -5 -4 4 30.34 34.46 3.79 o
2984 6 -5 -4 3 2.72 1.72 0.58 <
2985 6 -5 -4 2 3.46 6.17 1.72 o
2986 6 -5 -3 7 1.46 1.94 1.58 <
2987 6 -5 -3 6 7.78 8.59 2.09 o
2988 6 -5 -3 5 37.99 33.50 4.00 o
2988 5 -1 3 -5 37.99 33.50 4.00 o
2989 6 -5 -3 4 0.01 -0.23 0.56 <
2990 6 -5 -2 7 6.46 2.45 1.67 <
2991 6 -5 -2 6 7.41 6.73 1.78 o
2992 6 -5 -2 5 2.25 2.31 1.11 <
2992 5 -1 2 -5 2.25 2.31 1.11 <
2993 6 -5 -1 7 3.99 2.53 1.13 <
2994 6 -5 -1 6 10.13 10.95 2.31 o
2995 6 -5 0 7 4.76 2.83 1.18 <
2996 6 5 0 -7 4.76 4.62 1.66 <
2997 6 5 1 -7 4.11 4.33 1.73 <
2998 6 5 1 -6 10.09 9.00 1.83 o
2999 6 5 2 -7 6.21 13.20 2.55 o
3000 6 5 2 -6 7.61 13.25 2.47 o
3001 6 5 2 -5 2.15 0.84 0.44 <
3001 5 1 -2 5 2.15 0.84 0.44 <
3002 6 5 3 -7 1.45 1.63 1.09 <
3003 6 5 3 -6 7.78 13.85 2.55 o
3004 6 5 3 -5 38.71 36.45 4.31 o
3004 5 1 -3 5 38.71 36.45 4.31 o
3005 6 5 3 -4 0.01 0.32 0.68 <
3006 6 5 4 -6 9.56 16.43 2.76 o
3007 6 5 4 -5 4.63 2.43 1.02 <
3007 5 1 -4 5 4.63 2.43 1.02 <
3008 6 5 4 -4 30.99 43.55 4.04 o
3009 6 5 5 -6 7.88 10.57 2.16 o
3010 6 5 5 -5 33.63 33.71 4.28 o
3010 5 1 -5 5 33.63 33.71 4.28 o
3011 6 5 5 -4 0.66 0.47 0.04 o
3012 6 5 5 -3 22.32 31.09 3.18 o
3013 6 5 6 -5 6.04 3.79 1.20 o
3013 5 1 -6 5 6.04 3.79 1.20 o
3014 6 5 6 -4 15.90 21.47 2.81 o
3015 6 5 6 -3 5.60 7.43 1.51 o
3016 6 -6 -5 4 6.06 7.26 2.03 o
3017 6 -6 -5 3 0.26 -1.15 0.89 <
3018 6 -6 -4 5 21.52 12.63 2.83 o
3018 5 -2 4 -5 21.52 12.63 2.83 o
3019 6 -6 -4 4 5.99 5.66 1.80 o
3020 6 -6 -3 6 6.01 4.60 1.74 <
3021 6 -6 -3 5 19.95 20.79 3.51 o
3021 5 -2 3 -5 19.95 20.79 3.51 o
3022 6 6 3 -6 6.00 7.24 1.92 o
3023 6 6 4 -5 21.26 16.92 3.31 o
3023 5 2 -4 5 21.26 16.92 3.31 o
