#------------------------------------------------------------------------------
#$Date: 2019-11-17 15:32:33 +0200 (Sun, 17 Nov 2019) $
#$Revision: 230902 $
#$URL: file:///home/coder/svn-repositories/cod/cif/7/23/14/7231412.cif $
#------------------------------------------------------------------------------
#
# This file is available in the Crystallography Open Database (COD),
# http://www.crystallography.net/
#
# All data on this site have been placed in the public domain by the
# contributors.
#
data_7231412
loop_
_publ_author_name
'Collings, Ines E.'
'Manna, Rudra Sekhar'
'Tsirlin, Alexander A.'
'Bykov, Maxim'
'Bykova, Elena'
'Hanfland, Michael'
'Gegenwart, Philipp'
'van Smaalen, Sander'
'Dubrovinsky, Leonid'
'Dubrovinskaia, Natalia'
_publ_section_title
;
 Pressure dependence of spin canting in ammonium metal formate
 antiferromagnets.
;
_journal_issue                   37
_journal_name_full               'Physical chemistry chemical physics : PCCP'
_journal_page_first              24465
_journal_page_last               24476
_journal_paper_doi               10.1039/c8cp03761b
_journal_volume                  20
_journal_year                    2018
_chemical_formula_moiety         'C3 H3 Mn O6, N H4'
_chemical_formula_sum            'C3 H7 Mn N O6'
_chemical_formula_weight         208
_space_group_IT_number           4
_space_group_name_Hall           'P 2yb'
_space_group_name_H-M_alt        'P 1 21 1'
_symmetry_cell_setting           monoclinic
_symmetry_Int_Tables_number      4
_symmetry_space_group_name_Hall  'P 2yb'
_symmetry_space_group_name_H-M   'P 1 21 1'
_audit_creation_method           'Jana2006 Version : 25/10/2015'
_audit_update_record
;
2018-08-09 deposited with the CCDC.
2018-08-22 downloaded from the CCDC.
;
_cell_angle_alpha                90
_cell_angle_beta                 116.09(4)
_cell_angle_gamma                90
_cell_formula_units_Z            2
_cell_length_a                   6.537(2)
_cell_length_b                   8.4865(16)
_cell_length_c                   7.405(3)
_cell_measurement_reflns_used    239
_cell_measurement_temperature    293
_cell_measurement_theta_max      14.68
_cell_measurement_theta_min      2.01
_cell_volume                     368.9(2)
_computing_cell_refinement       'CrysAlisPro 1.171.38.46 (Rigaku OD, 2015)'
_computing_data_collection       'CrysAlisPro 1.171.38.46 (Rigaku OD, 2015)'
_computing_data_reduction        'CrysAlisPro 1.171.38.46 (Rigaku OD, 2015)'
_diffrn_ambient_pressure         '0.85 GPa'
_diffrn_ambient_temperature      293
_diffrn_detector                 'CCD plate'
_diffrn_measured_fraction_theta_full 0.96
_diffrn_measured_fraction_theta_max 0.93
_diffrn_measurement_device       'ID15B beamline, ESRF'
_diffrn_measurement_device_type
'esperanto-CrysAlisPro-abstract goniometer imported esperanto images'
_diffrn_measurement_method       '\w scans'
_diffrn_measurement_specimen_support 'diamond-anvil cell'
_diffrn_radiation_monochromator  synchrotron
_diffrn_radiation_probe          x-ray
_diffrn_radiation_source         synchrotron
_diffrn_radiation_type           synchrotron
_diffrn_radiation_wavelength     0.41111
_diffrn_reflns_av_R_equivalents  0.0249
_diffrn_reflns_av_unetI/netI     0.0411
_diffrn_reflns_limit_h_max       8
_diffrn_reflns_limit_h_min       -8
_diffrn_reflns_limit_k_max       9
_diffrn_reflns_limit_k_min       -9
_diffrn_reflns_limit_l_max       9
_diffrn_reflns_limit_l_min       -9
_diffrn_reflns_number            3805
_diffrn_reflns_theta_full        7.18
_diffrn_reflns_theta_max         14.87
_diffrn_reflns_theta_min         1.77
_diffrn_source                   synchrotron
_exptl_absorpt_coefficient_mu    0.379
_exptl_absorpt_correction_T_max  1
_exptl_absorpt_correction_T_min  0.318
_exptl_absorpt_correction_type   multi-scan
_exptl_absorpt_process_details
;
CrysAlisPro 1.171.38.46 (Rigaku Oxford Diffraction, 2015)
Empirical absorption correction using spherical harmonics,
 implemented in SCALE3 ABSPACK scaling algorithm.
;
_exptl_crystal_colour            colourless
_exptl_crystal_density_diffrn    1.8726
_exptl_crystal_description       block
_exptl_crystal_F_000             202
_exptl_crystal_size_max          0.130
_exptl_crystal_size_mid          0.110
_exptl_crystal_size_min          0.050
_refine_ls_abs_structure_details
'  995 of Friedel pairs used in the refinement'
_refine_ls_extinction_method     none
_refine_ls_goodness_of_fit_gt    3.14
_refine_ls_goodness_of_fit_ref   2.87
_refine_ls_hydrogen_treatment    constr
_refine_ls_number_constraints    13
_refine_ls_number_parameters     104
_refine_ls_number_reflns         3805
_refine_ls_number_restraints     0
_refine_ls_R_factor_all          0.0876
_refine_ls_R_factor_gt           0.0754
_refine_ls_shift/su_max          0.0356
_refine_ls_shift/su_mean         0.0071
_refine_ls_structure_factor_coef F
_refine_ls_weighting_details     w=1/(\s^2^(F)+0.0001F^2^)
_refine_ls_weighting_scheme      sigma
_refine_ls_wR_factor_gt          0.0923
_refine_ls_wR_factor_ref         0.0950
_reflns_number_gt                3016
_reflns_number_total             3805
_reflns_threshold_expression     I>3\s(I)
_cod_data_source_file            c8cp03761b2.cif
_cod_data_source_block           AMnF_c1_p07
_cod_depositor_comments
;
The following automatic conversions were performed:

'_diffrn_radiation_probe' value 'X-ray' changed to 'x-ray' according
to
/home/data/users/saulius/crontab/automatic-downloads/rss-feeds/RSC/lib/dictionaries/cif_core.dic
dictionary named 'cif_core.dic' version 2.4.2 from 2011-04-26.

Automatic conversion script
Id: cif_fix_values 4973 2017-02-22 13:04:09Z antanas 

 Adding full bibliography for 7231402--7231432.cif.
;
_cod_original_formula_sum        'C3 H7 Mn1 N1 O6'
_cod_database_code               7231412
loop_
_space_group_symop_id
_space_group_symop_operation_xyz
1 x,y,z
2 -x,y+1/2,-z
loop_
_atom_site_label
_atom_site_type_symbol
_atom_site_fract_x
_atom_site_fract_y
_atom_site_fract_z
_atom_site_adp_type
_atom_site_U_iso_or_equiv
_atom_site_site_symmetry_multiplicity
_atom_site_occupancy
_atom_site_calc_flag
Mn1 Mn 0.66261(17) 0.25 0.32416(12) Uani 0.0424(4) 2 1 d
O1 O 0.8754(9) 0.0990(7) 0.5688(7) Uani 0.059(3) 2 1 d
O2 O 0.3658(9) 0.1170(7) 0.2940(7) Uani 0.054(2) 2 1 d
O3 O 0.7008(10) 0.1003(8) 0.1035(7) Uani 0.060(3) 2 1 d
O4 O 0.9290(9) 0.3819(7) 0.2930(7) Uani 0.057(3) 2 1 d
O5 O 0.6891(9) 0.3982(7) 0.5706(7) Uani 0.058(3) 2 1 d
O6 O 0.4061(8) 0.3994(7) 0.1049(7) Uani 0.054(2) 2 1 d
C1 C 0.9291(13) -0.0402(10) 0.5648(11) Uani 0.058(4) 2 1 d
C2 C 0.3658(14) 0.0378(11) 0.4360(12) Uani 0.065(5) 2 1 d
C3 C 0.4405(14) 0.5003(11) 0.0021(13) Uani 0.056(4) 2 1 d
N1 N -0.0250(9) 0.2519(12) -0.0553(7) Uani 0.054(3) 2 1 d
H1c1 H 0.853233 -0.093935 0.438356 Uiso 0.0698 2 1 d
H1c2 H 0.413245 0.090701 0.562685 Uiso 0.0776 2 1 d
H1c3 H 0.587967 0.502041 0.003476 Uiso 0.067 2 1 d
loop_
_atom_site_aniso_label
_atom_site_aniso_type_symbol
_atom_site_aniso_U_11
_atom_site_aniso_U_22
_atom_site_aniso_U_33
_atom_site_aniso_U_12
_atom_site_aniso_U_13
_atom_site_aniso_U_23
Mn1 Mn 0.0640(6) 0.0171(5) 0.0408(5) 0.0011(6) 0.0184(5) 0.0000(6)
O1 O 0.084(4) 0.026(4) 0.053(3) 0.014(3) 0.017(3) 0.003(2)
O2 O 0.068(4) 0.038(3) 0.054(3) -0.004(2) 0.026(3) 0.017(2)
O3 O 0.087(4) 0.039(4) 0.055(3) -0.022(3) 0.032(3) -0.021(3)
O4 O 0.071(4) 0.039(4) 0.053(3) -0.018(3) 0.021(3) -0.019(2)
O5 O 0.088(4) 0.034(4) 0.055(3) 0.016(3) 0.032(3) -0.006(2)
O6 O 0.061(4) 0.040(4) 0.047(3) -0.003(2) 0.009(3) 0.020(2)
C1 C 0.068(6) 0.034(5) 0.052(5) 0.011(4) 0.007(4) 0.002(3)
C2 C 0.105(7) 0.041(6) 0.059(5) -0.010(4) 0.045(5) 0.002(4)
C3 C 0.059(6) 0.048(6) 0.058(4) 0.016(4) 0.024(5) 0.028(4)
N1 N 0.058(3) 0.046(4) 0.062(3) -0.007(5) 0.030(3) 0.001(6)
loop_
_atom_type_symbol
_atom_type_scat_dispersion_real
_atom_type_scat_dispersion_imag
_atom_type_scat_source
C -0.0001 0.0005 'International Tables Vol C tables 4.2.6.8 and 6.1.1.1'
H 0.0000 0.0000 'International Tables Vol C tables 4.2.6.8 and 6.1.1.1'
Mn 0.1790 0.2615 'International Tables Vol C tables 4.2.6.8 and 6.1.1.1'
N 0.0006 0.0010 'International Tables Vol C tables 4.2.6.8 and 6.1.1.1'
O 0.0018 0.0018 'International Tables Vol C tables 4.2.6.8 and 6.1.1.1'
loop_
_geom_angle_atom_site_label_1
_geom_angle_atom_site_label_2
_geom_angle_atom_site_label_3
_geom_angle_site_symmetry_1
_geom_angle_site_symmetry_3
_geom_angle
O1 Mn1 O2 . . 89.7(2)
O1 Mn1 O3 . . 92.2(2)
O1 Mn1 O4 . . 98.3(2)
O1 Mn1 O5 . . 81.6(2)
O1 Mn1 O6 . . 169.2(3)
O2 Mn1 O3 . . 90.7(2)
O2 Mn1 O4 . . 169.20(18)
O2 Mn1 O5 . . 97.2(2)
O2 Mn1 O6 . . 82.2(2)
O3 Mn1 O4 . . 81.9(2)
O3 Mn1 O5 . . 169.9(2)
O3 Mn1 O6 . . 94.9(2)
O4 Mn1 O5 . . 91.1(2)
O4 Mn1 O6 . . 90.6(2)
O5 Mn1 O6 . . 92.3(2)
Mn1 O1 C1 . . 129.3(5)
Mn1 O2 C2 . . 121.6(4)
Mn1 O3 C3 . 2_645 125.0(7)
Mn1 O4 C1 . 2_756 121.3(6)
Mn1 O5 C2 . 2_656 127.8(5)
Mn1 O6 C3 . . 125.6(5)
O1 C1 O4 . 2_746 127.0(7)
O1 C1 H1c1 . . 116.52
O4 C1 H1c1 2_746 . 116.52
O2 C2 O5 . 2_646 126.3(8)
O2 C2 H1c2 . . 116.86
O5 C2 H1c2 2_646 . 116.86
O3 C3 O6 2_655 . 125.2(9)
O3 C3 H1c3 2_655 . 117.39
O6 C3 H1c3 . . 117.39
loop_
_geom_bond_atom_site_label_1
_geom_bond_atom_site_label_2
_geom_bond_site_symmetry_2
_geom_bond_distance
Mn1 O1 . 2.154(5)
Mn1 O2 . 2.170(6)
Mn1 O3 . 2.169(7)
Mn1 O4 . 2.166(7)
Mn1 O5 . 2.160(6)
Mn1 O6 . 2.159(5)
O1 C1 . 1.237(11)
O2 C2 . 1.248(11)
O3 C3 2_645 1.245(10)
O4 C1 2_756 1.244(9)
O5 C2 2_656 1.233(11)
O6 C3 . 1.230(12)
C1 H1c1 . 0.96
C2 H1c2 . 0.96
C3 H1c3 . 0.96
loop_
_twin_individual_id
_twin_individual_mass_fraction_refined
_twin_individual_twin_matrix_11
_twin_individual_twin_matrix_12
_twin_individual_twin_matrix_13
_twin_individual_twin_matrix_21
_twin_individual_twin_matrix_22
_twin_individual_twin_matrix_23
_twin_individual_twin_matrix_31
_twin_individual_twin_matrix_32
_twin_individual_twin_matrix_33
1 0.242(3) 1 0 0 0 1 0 0 0 1
2 0.1450(13) 1 0 0 0 -1 0 0.7765 0 -1
3 0.1133(11) -0.0759 0 -1.0923 0 1 0 0.8512 0 -0.9241
4 0.1000(11) -0.9241 0 1.0923 0 -1 0 0.1336 0 0.9241
5 0.1595(11) -0.9241 0 1.0923 0 1 0 -0.8512 0 -0.0759
6 0.2405(16) -0.0759 0 -1.0923 0 -1 0 -0.9101 0 0.0759
loop_
_twin_refln_datum_id
_twin_refln_individual_id
_twin_refln_index_h
_twin_refln_index_k
_twin_refln_index_l
_twin_refln_f_squared_calc
_twin_refln_f_squared_meas
_twin_refln_f_squared_sigma
_twin_refln_include_status
1 1 0 -9 3 0.25 -0.26 0.32 <
2 1 0 -9 4 9.12 3.97 0.52 o
3 1 0 -8 3 87.24 82.84 2.57 o
4 1 0 -8 4 0.78 0.26 0.11 <
5 1 0 -7 2 5.07 5.29 0.66 o
6 1 0 -7 3 27.82 27.22 1.41 o
7 1 0 -6 2 25.32 29.60 1.42 o
8 1 0 -6 3 39.64 40.66 1.61 o
9 1 0 -5 2 133.99 126.76 2.91 o
10 1 0 -5 3 0.27 0.24 0.19 <
11 1 0 -4 2 8.20 9.57 0.71 o
12 1 0 -3 1 15.88 13.76 0.73 o
13 1 0 -3 2 539.20 589.52 4.67 o
14 1 0 2 -2 266.90 266.85 3.10 o
15 1 0 3 -2 539.14 588.12 4.93 o
16 1 0 3 -3 3.44 2.29 0.36 o
17 1 0 4 -2 8.11 8.56 0.64 o
18 1 0 4 -3 145.91 160.97 2.97 o
19 1 0 4 -4 0.03 -0.36 0.29 <
20 1 0 5 -3 0.29 0.10 0.49 <
21 1 0 5 -4 5.52 8.03 0.70 o
22 1 0 5 -5 22.44 23.62 1.43 o
23 1 0 6 -4 16.15 20.38 1.14 o
24 1 0 6 -5 35.39 33.55 1.68 o
25 1 0 6 -6 2.42 1.04 0.32 o
26 1 0 7 -5 26.07 30.14 1.50 o
27 1 0 7 -6 3.87 1.36 0.48 <
28 1 -1 -9 4 16.17 13.22 1.23 o
29 1 -1 -9 3 37.97 38.88 2.23 o
30 1 1 -9 2 34.87 38.07 1.68 o
31 1 1 -9 3 14.65 10.59 0.70 o
32 1 -1 -8 5 18.01 12.92 1.31 o
33 1 -1 -8 4 16.86 20.22 1.47 o
34 1 -1 -8 3 18.96 22.59 1.56 o
35 1 1 -8 2 21.10 22.14 1.16 o
36 1 -1 -7 5 5.05 3.13 0.73 o
37 1 -1 -7 4 47.71 50.09 2.29 o
38 1 -1 -7 3 10.16 11.73 1.15 o
39 1 1 -7 2 11.19 12.07 0.77 o
40 1 -1 -6 4 23.38 33.63 1.91 o
41 1 -1 -6 3 37.52 37.63 1.88 o
42 1 -1 -6 2 120.47 131.77 3.62 o
43 1 1 -6 2 41.88 37.39 1.16 o
44 1 -1 -5 4 65.43 75.18 2.67 o
45 1 -1 -5 3 112.12 133.17 3.45 o
46 1 -1 -5 2 62.28 72.55 2.55 o
47 1 -1 -4 3 54.49 62.31 2.31 o
48 1 -1 -4 2 401.17 461.98 6.10 o
49 1 -1 -3 3 278.35 282.04 4.58 o
50 1 -1 -3 2 32.92 36.78 1.58 o
51 1 -1 -3 1 114.32 123.31 2.74 o
52 1 -1 -2 2 849.90 956.07 7.67 o
53 1 -1 -2 1 14.16 13.55 0.82 o
54 1 -1 -1 2 379.71 388.66 4.54 o
55 1 -1 -1 1 551.46 576.38 4.83 o
56 1 1 0 -1 182.53 128.79 2.12 o
57 1 -1 0 1 182.53 126.68 2.05 o
58 2 -1 0 0 309.18 246.41 2.64 o
58 1 -1 0 0 309.18 246.41 2.64 o
59 1 1 1 -2 381.27 391.57 4.47 o
60 1 1 1 -1 552.32 575.40 4.83 o
61 1 1 2 -3 237.58 251.66 4.33 o
62 1 1 2 -2 850.84 959.26 7.50 o
63 1 1 2 -1 16.06 16.14 0.85 o
64 1 1 3 -4 83.73 84.06 2.85 o
65 1 1 3 -3 277.92 289.20 4.66 o
66 1 1 3 -2 33.29 39.37 1.57 o
67 1 1 4 -5 21.65 25.51 1.71 o
68 1 1 4 -4 61.26 121.46 3.48 o
69 1 1 4 -3 55.32 64.13 2.25 o
70 1 1 4 -2 398.79 463.86 5.76 o
71 1 -1 4 -3 55.96 57.46 1.50 o
72 1 1 5 -6 34.74 35.93 2.17 o
73 1 1 5 -5 13.63 12.98 1.27 o
74 1 1 5 -4 67.38 82.29 2.70 o
75 1 1 5 -3 111.05 125.32 3.26 o
76 1 -1 5 -3 63.26 46.03 1.35 o
77 1 -1 5 -4 11.82 9.31 0.68 o
78 1 1 6 -6 5.70 3.43 0.69 o
79 1 1 6 -5 83.74 87.76 3.11 o
80 1 1 6 -4 23.58 38.02 1.95 o
81 1 -1 6 -4 83.24 66.15 1.74 o
82 1 -1 6 -5 4.00 3.54 0.49 o
83 1 1 7 -6 6.76 3.95 0.78 o
84 1 1 7 -5 4.82 3.50 0.67 o
85 1 1 7 -4 47.73 47.09 2.26 o
86 1 -1 7 -5 5.89 4.18 0.47 o
87 1 1 8 -5 17.57 14.48 1.39 o
88 1 -2 -9 4 0.76 2.69 0.71 o
89 1 -2 -8 6 4.22 2.65 0.62 o
90 1 -2 -8 5 8.04 9.20 1.27 o
91 1 -2 -8 4 27.55 31.19 2.17 o
92 1 -2 -8 3 19.66 19.72 1.71 o
93 1 -2 -7 6 12.62 11.31 1.32 o
94 1 -2 -7 5 13.52 16.52 1.56 o
95 1 -2 -7 4 5.80 15.95 1.65 o
96 1 -2 -7 3 32.99 34.85 2.26 o
97 1 -2 -6 5 27.36 31.45 2.16 o
98 1 -2 -6 4 54.32 61.60 3.04 o
99 1 -2 -6 3 28.83 30.36 1.94 o
100 1 -2 -5 5 62.56 71.08 3.15 o
101 1 -2 -5 4 22.36 35.64 2.38 o
102 1 -2 -5 3 107.81 116.19 3.77 o
103 1 -2 -5 2 114.76 127.47 3.91 o
104 1 -2 -4 4 194.78 220.46 5.21 o
105 1 -2 -4 3 91.18 89.53 3.23 o
106 1 -2 -4 2 5.44 7.21 0.90 o
107 1 -2 -3 4 7.71 12.69 1.71 o
108 1 -2 -3 3 212.91 229.24 4.95 o
109 1 -2 -3 2 406.27 442.54 6.64 o
110 2 2 3 0 654.37 804.79 4.83 o
110 1 2 -3 0 654.37 804.79 4.83 o
111 1 -2 -2 3 145.46 134.16 3.65 o
112 1 -2 -2 2 51.06 49.88 2.16 o
113 1 2 -2 -1 406.33 441.39 4.53 o
114 1 -2 -2 1 406.33 436.01 5.98 o
115 2 2 2 0 102.44 104.25 1.90 o
115 1 2 -2 0 102.44 104.25 1.90 o
116 1 -2 -1 3 194.21 169.93 3.98 o
117 1 -2 -1 2 59.68 49.38 2.00 o
118 1 -2 -1 1 771.00 738.13 7.38 o
119 1 2 -1 -1 771.00 740.71 6.20 o
120 2 2 1 0 106.11 105.10 2.17 o
120 1 2 -1 0 106.11 105.10 2.17 o
121 1 -2 0 2 4.12 1.06 0.27 o
122 1 2 0 -2 4.12 1.39 0.29 o
123 1 2 0 -1 212.26 223.44 3.69 o
124 1 -2 0 1 212.26 223.85 3.66 o
125 2 -2 0 0 6.44 3.43 0.42 o
125 1 -2 0 0 6.44 3.43 0.42 o
126 1 2 1 -3 188.78 167.21 3.97 o
127 1 2 1 -2 55.64 46.12 1.94 o
128 1 2 1 -1 770.84 741.88 7.05 o
129 1 -2 1 1 770.84 743.01 6.01 o
130 2 -2 -1 0 107.83 109.20 2.25 o
130 1 -2 1 0 107.83 109.20 2.25 o
131 1 2 2 -4 114.44 114.92 3.66 o
132 1 2 2 -3 149.65 139.49 3.67 o
133 1 2 2 -2 53.00 51.66 2.11 o
134 1 2 2 -1 406.33 439.67 5.80 o
135 2 -2 -2 0 101.54 108.01 1.89 o
135 1 -2 2 0 101.54 108.01 1.89 o
136 1 2 3 -5 65.51 84.20 3.48 o
137 1 2 3 -4 7.65 13.52 1.60 o
138 1 2 3 -3 214.22 231.44 4.75 o
139 1 2 3 -2 406.92 446.60 6.40 o
140 1 2 4 -5 0.34 0.61 0.37 <
141 1 2 4 -4 195.65 225.71 4.99 o
142 1 2 4 -3 89.69 97.23 3.20 o
143 1 2 4 -2 4.68 6.70 0.80 o
144 1 2 5 -6 29.41 28.13 2.03 o
145 1 2 5 -5 63.83 75.06 3.14 o
146 1 2 5 -4 22.12 41.40 2.41 o
147 1 2 5 -3 108.50 115.48 3.49 o
148 1 2 6 -7 9.39 5.67 1.01 o
149 1 2 6 -6 9.20 7.97 0.94 o
150 1 2 6 -5 26.64 34.25 2.18 o
151 1 2 6 -4 53.04 66.64 2.88 o
152 1 2 7 -6 12.68 10.13 1.35 o
153 1 2 7 -5 13.05 16.53 1.49 o
154 1 2 7 -4 6.02 24.50 1.84 o
155 1 2 8 -6 3.84 2.77 0.72 o
156 1 2 8 -5 8.39 9.29 1.29 o
157 1 -3 -9 4 10.55 6.14 1.15 o
158 1 -3 -8 6 9.75 7.02 1.01 o
159 1 -3 -8 5 10.38 10.06 1.47 o
160 1 -3 -8 4 2.95 2.12 0.66 o
161 1 -3 -7 6 4.13 3.26 0.85 o
162 1 -3 -7 5 11.33 11.05 1.41 o
163 1 -3 -7 4 64.70 72.35 3.77 o
164 1 -3 -7 3 3.20 2.38 0.74 o
165 1 -3 -6 6 10.50 11.20 1.43 o
166 1 -3 -6 5 23.85 26.73 2.26 o
167 1 -3 -6 4 2.11 1.75 0.51 o
168 1 -3 -6 3 88.24 101.54 4.16 o
169 2 3 6 0 136.11 123.70 2.23 o
169 1 3 -6 0 136.11 123.70 2.23 o
170 1 -3 -5 6 10.86 8.38 1.16 o
171 1 -3 -5 5 32.80 31.94 2.30 o
172 1 -3 -5 4 28.11 29.93 2.19 o
173 1 -3 -5 3 1.51 1.54 0.41 o
174 2 3 5 0 3.49 3.32 0.37 o
174 1 3 -5 0 3.49 3.32 0.37 o
175 1 -3 -4 5 3.73 2.83 0.75 o
176 1 -3 -4 4 11.21 9.59 1.19 o
177 1 -3 -4 3 46.48 50.33 2.76 o
178 1 -3 -4 2 39.75 44.32 2.53 o
179 1 3 -4 -1 38.69 35.37 1.59 o
180 2 3 4 0 76.47 83.41 1.91 o
180 1 3 -4 0 76.47 83.41 1.91 o
181 1 -3 -3 5 80.50 71.44 3.41 o
182 1 -3 -3 4 7.86 7.94 1.04 o
183 1 -3 -3 3 38.29 37.46 2.31 o
184 1 -3 -3 2 72.94 80.36 3.29 o
185 1 3 -3 -1 74.09 75.49 2.27 o
186 2 3 3 0 66.14 76.41 1.95 o
186 1 3 -3 0 66.14 76.41 1.95 o
187 1 -3 -2 4 0.74 0.41 0.40 <
188 1 -3 -2 3 145.44 144.31 4.24 o
189 1 3 -2 -2 104.72 92.11 2.88 o
190 1 -3 -2 2 104.72 101.92 3.40 o
191 1 -3 -2 1 97.99 99.57 3.35 o
192 1 3 -2 -1 97.99 99.24 2.70 o
193 2 3 2 0 244.52 287.42 4.17 o
193 1 3 -2 0 244.52 287.42 4.17 o
194 1 -3 -1 4 172.77 155.09 4.57 o
195 1 -3 -1 3 7.89 5.21 0.77 o
196 1 -3 -1 2 188.11 178.54 4.37 o
197 1 3 -1 -2 188.11 175.38 4.07 o
198 1 3 -1 -1 188.46 173.86 3.79 o
199 1 -3 -1 1 188.46 175.37 4.24 o
200 1 -3 0 3 516.04 442.76 6.65 o
201 1 3 0 -3 516.04 437.57 7.15 o
202 1 3 0 -2 4.23 2.21 0.48 o
203 1 -3 0 2 4.23 1.89 0.45 o
204 1 3 0 -1 3.10 2.54 0.47 o
205 1 -3 0 1 3.10 1.74 0.44 o
206 1 3 1 -4 174.82 152.57 4.64 o
207 1 3 1 -3 8.08 5.07 0.79 o
208 1 3 1 -2 190.91 181.29 4.39 o
209 1 -3 1 2 190.91 179.74 3.95 o
210 1 3 1 -1 185.32 176.21 4.07 o
211 1 -3 1 1 185.32 172.24 3.61 o
212 2 -3 -1 0 9.79 11.09 0.94 o
212 1 -3 1 0 9.79 11.09 0.94 o
213 1 3 2 -5 29.51 32.99 2.41 o
214 1 3 2 -4 0.97 0.04 0.24 <
215 1 3 2 -3 145.58 140.47 4.08 o
216 1 3 2 -2 101.07 98.26 3.29 o
217 1 -3 2 1 101.46 104.00 2.62 o
218 2 -3 -2 0 244.62 290.07 4.17 o
218 1 -3 2 0 244.62 290.07 4.17 o
219 1 3 3 -5 80.80 65.87 3.26 o
220 1 3 3 -4 8.67 7.55 0.97 o
221 1 3 3 -3 38.10 39.62 2.37 o
222 1 3 3 -2 73.33 80.19 3.04 o
223 2 -3 -3 0 66.20 74.83 1.93 o
223 1 -3 3 0 66.20 74.83 1.93 o
224 1 -3 3 -1 8.33 8.51 0.62 o
225 1 3 4 -6 33.17 30.63 2.28 o
226 1 3 4 -5 3.54 3.18 0.76 o
227 1 3 4 -4 11.23 10.96 1.23 o
228 1 3 4 -3 46.77 51.37 2.64 o
229 1 3 4 -2 40.58 44.85 2.47 o
230 1 -3 4 -1 10.57 9.99 0.51 o
231 1 -3 4 -2 2.54 1.17 0.27 o
232 1 3 5 -7 4.44 4.26 1.08 o
233 1 3 5 -6 11.21 8.48 1.18 o
234 1 3 5 -5 31.77 31.26 2.27 o
235 1 3 5 -4 26.23 32.20 2.15 o
236 1 3 5 -3 1.55 1.86 0.53 o
237 1 3 6 -7 1.27 1.08 0.48 <
238 1 3 6 -6 10.27 8.41 1.20 o
239 1 3 6 -5 24.28 25.59 2.08 o
240 1 3 6 -4 2.01 2.08 0.59 o
241 1 3 7 -6 4.07 2.15 0.73 <
242 1 3 7 -5 11.29 9.95 1.23 o
243 1 3 7 -4 65.48 78.20 3.75 o
244 1 3 8 -6 9.82 8.93 1.27 o
245 1 3 8 -5 10.30 7.57 1.25 o
246 1 -4 -8 5 16.09 12.31 1.61 o
247 1 -4 -8 4 8.45 4.06 0.89 o
248 2 4 8 0 12.55 7.51 0.51 o
248 1 4 -8 0 12.55 7.51 0.51 o
249 1 -4 -7 6 2.57 2.06 1.15 <
250 1 -4 -7 5 1.31 0.29 0.42 <
251 1 -4 -7 4 49.10 51.08 3.35 o
252 2 4 7 0 76.95 58.81 1.49 o
252 1 4 -7 0 76.95 58.81 1.49 o
253 1 -4 -6 7 4.45 4.78 1.15 o
254 1 -4 -6 6 0.75 0.56 0.43 <
255 1 -4 -6 5 33.68 36.94 2.80 o
256 1 -4 -6 4 16.42 18.39 1.93 o
257 1 -4 -6 3 4.98 4.23 0.85 o
258 1 4 -6 -1 5.55 5.03 0.62 o
259 2 4 6 0 24.46 22.95 0.99 o
259 1 4 -6 0 24.46 22.95 0.99 o
260 1 -4 -5 7 9.81 15.48 2.01 o
261 1 -4 -5 6 18.81 21.57 2.10 o
262 1 -4 -5 5 7.15 5.30 0.97 o
263 1 -4 -5 4 13.66 15.21 1.77 o
264 1 -4 -5 3 28.42 28.43 2.42 o
265 1 4 -5 -1 29.52 27.02 1.41 o
266 2 4 5 0 22.74 27.65 1.15 o
266 1 4 -5 0 22.74 27.65 1.15 o
267 1 -4 -4 6 7.14 6.17 1.10 o
268 1 -4 -4 5 21.64 22.03 2.07 o
269 1 -4 -4 4 0.21 0.56 0.53 <
270 1 -4 -4 3 2.82 1.82 0.52 o
271 1 4 -4 -2 101.50 87.16 3.09 o
272 1 4 -4 -1 4.05 1.60 0.37 o
273 2 4 4 0 0.08 0.29 0.13 <
273 1 4 -4 0 0.08 0.29 0.13 <
274 1 -4 -3 6 18.71 16.02 1.80 o
275 1 -4 -3 5 3.91 2.66 0.82 o
276 1 -4 -3 4 9.98 7.75 1.17 o
277 1 -4 -3 3 34.49 37.68 2.58 o
278 1 -4 -3 2 3.35 1.14 0.47 <
279 1 4 -3 -2 3.35 1.37 0.42 o
280 1 4 -3 -1 36.94 36.34 1.81 o
281 2 4 3 0 16.32 19.42 1.23 o
281 1 4 -3 0 16.32 19.42 1.23 o
282 1 -4 -2 5 39.72 30.33 2.31 o
283 1 -4 -2 4 4.98 3.97 0.87 o
284 1 -4 -2 3 40.75 37.70 2.43 o
285 1 4 -2 -3 40.75 34.17 2.19 o
286 1 -4 -2 2 176.84 167.65 5.06 o
287 1 4 -2 -2 176.84 163.11 4.39 o
288 1 4 -2 -1 36.11 37.03 1.88 o
289 1 -4 -1 5 14.60 12.48 1.56 o
290 1 -4 -1 4 127.41 115.89 4.18 o
291 1 4 -1 -3 71.55 63.59 3.00 o
292 1 -4 -1 3 71.55 59.58 3.08 o
293 1 -4 -1 2 3.55 1.21 0.50 <
294 1 4 -1 -2 3.55 0.79 0.10 o
295 1 -4 -1 1 70.74 68.77 3.13 o
296 1 4 -1 -1 70.74 61.95 2.63 o
297 1 -4 0 4 93.54 91.29 3.66 o
298 1 4 0 -4 93.54 87.88 3.75 o
299 1 4 0 -3 1.70 1.39 0.51 <
300 1 -4 0 3 1.70 2.50 0.59 o
301 1 -4 0 2 32.06 22.11 1.77 o
302 1 4 0 -2 32.06 21.35 1.85 o
303 1 -4 0 1 1.94 2.64 0.58 o
304 1 4 0 -1 1.94 2.97 0.59 o
305 1 4 1 -5 14.50 10.77 1.37 o
306 1 4 1 -4 126.28 108.70 4.30 o
307 1 4 1 -3 71.35 60.28 2.97 o
308 1 -4 1 3 71.35 59.25 2.69 o
309 1 -4 1 2 3.57 1.83 0.54 o
310 1 4 1 -2 3.57 1.13 0.45 <
311 1 4 1 -1 70.79 69.15 3.01 o
312 1 -4 1 1 70.79 62.04 2.62 o
313 2 -4 -1 0 200.82 271.70 5.44 o
313 1 -4 1 0 200.82 271.70 5.44 o
314 1 4 2 -6 4.81 3.26 0.96 o
315 1 4 2 -5 40.55 32.38 2.45 o
316 1 4 2 -4 5.45 3.41 0.70 o
317 1 4 2 -3 39.41 38.43 2.52 o
318 1 4 2 -2 176.47 170.97 4.84 o
319 1 -4 2 2 176.47 159.90 4.29 o
320 1 -4 2 1 37.40 38.48 1.87 o
321 2 -4 -2 0 6.23 9.61 0.87 o
321 1 -4 2 0 6.23 9.61 0.87 o
322 1 4 3 -6 18.31 13.80 1.58 o
323 1 4 3 -5 4.09 1.68 0.56 o
324 1 4 3 -4 9.64 8.06 1.24 o
325 1 4 3 -3 33.59 39.16 2.51 o
326 1 4 3 -2 3.36 0.89 0.42 <
327 1 -4 3 1 37.85 38.61 1.83 o
328 2 -4 -3 0 16.52 18.82 1.13 o
328 1 -4 3 0 16.52 18.82 1.13 o
329 1 -4 3 -1 5.02 2.34 0.40 o
330 1 4 4 -7 8.12 4.27 1.01 o
331 1 4 4 -6 7.03 4.96 0.94 o
332 1 4 4 -5 20.79 22.63 2.09 o
333 1 4 4 -4 0.18 0.32 0.41 <
334 1 4 4 -3 3.20 2.73 0.64 o
335 2 -4 -4 0 0.06 0.56 0.20 <
335 1 -4 4 0 0.06 0.56 0.20 <
336 1 -4 4 -1 21.99 27.87 1.20 o
337 1 -4 4 -2 7.00 6.82 0.70 o
338 6 7 -5 -5 1.16 0.18 0.43 <
338 1 4 5 -8 1.16 0.18 0.43 <
339 1 4 5 -7 10.12 12.93 1.68 o
340 1 4 5 -6 19.08 21.05 2.10 o
341 1 4 5 -5 7.04 5.40 0.94 o
342 1 4 5 -4 14.11 17.06 1.70 o
343 1 4 5 -3 30.06 31.25 2.43 o
344 1 -4 5 -2 17.94 18.46 0.89 o
345 1 -4 5 -3 9.00 6.02 0.74 o
346 1 4 6 -7 4.39 1.52 0.25 o
347 1 4 6 -6 0.85 0.23 0.50 <
348 1 4 6 -5 34.00 37.66 2.68 o
349 1 4 6 -4 16.21 18.56 1.77 o
350 1 4 7 -6 2.58 1.49 0.49 o
351 1 4 7 -5 1.29 0.77 0.28 <
352 1 4 8 -5 16.32 12.64 1.73 o
353 1 5 -8 -1 8.35 5.40 0.70 o
354 1 -5 -7 6 4.43 4.20 1.12 o
355 1 -5 -7 5 5.17 4.13 0.99 o
356 1 -5 -7 4 0.68 -0.86 0.56 <
357 1 5 -7 -1 0.52 -0.23 0.24 <
358 6 -6 6 6 7.84 10.16 1.72 o
358 1 -5 -6 7 7.84 10.16 1.72 o
359 1 -5 -6 6 1.26 1.06 0.26 o
360 1 -5 -6 5 4.81 2.55 0.78 o
361 1 -5 -6 4 19.90 21.93 2.33 o
362 1 5 -6 -2 5.35 4.51 0.67 o
363 1 5 -6 -1 20.82 19.57 1.29 o
364 6 -6 5 6 2.04 1.64 0.74 <
364 1 -5 -5 7 2.04 1.64 0.74 <
365 1 -5 -5 6 12.98 17.20 2.10 o
366 1 -5 -5 5 13.45 12.62 1.68 o
367 1 -5 -5 4 1.56 0.43 0.26 <
368 1 -5 -5 3 30.70 36.79 2.99 o
369 1 5 -5 -2 30.87 29.63 1.87 o
370 1 5 -5 -1 1.01 0.69 0.37 <
371 6 -6 4 6 23.09 30.50 2.87 o
371 1 -5 -4 7 23.09 30.50 2.87 o
372 1 -5 -4 6 15.82 25.70 2.44 o
373 1 -5 -4 5 0.16 -0.61 0.53 <
374 1 -5 -4 4 39.68 42.74 3.16 o
375 1 5 -4 -3 6.10 6.57 1.00 o
376 1 -5 -4 3 6.10 7.35 1.28 o
377 1 5 -4 -2 6.31 5.77 0.83 o
378 1 5 -4 -1 42.63 44.68 2.17 o
379 6 -6 3 6 10.70 11.33 1.65 o
379 1 -5 -3 7 10.70 11.33 1.65 o
380 1 -5 -3 6 11.23 23.42 2.22 o
381 1 -5 -3 5 17.41 19.57 2.20 o
382 1 -5 -3 4 0.48 -0.94 0.69 <
383 1 5 -3 -3 56.62 49.91 2.83 o
384 1 -5 -3 3 56.62 58.82 3.48 o
385 1 5 -3 -2 53.39 54.79 2.63 o
386 1 -5 -3 2 53.39 56.63 3.57 o
387 1 5 -3 -1 0.08 -0.03 0.25 <
388 1 -5 -2 6 11.96 20.55 2.17 o
389 1 -5 -2 5 0.85 1.09 0.55 <
390 1 5 -2 -4 38.15 32.23 2.44 o
391 1 -5 -2 4 38.15 36.24 2.71 o
392 1 5 -2 -3 4.86 5.72 0.94 o
393 1 -5 -2 3 4.86 5.01 1.00 o
394 1 -5 -2 2 4.07 5.06 1.01 o
395 1 5 -2 -2 4.07 4.64 0.83 o
396 1 5 -2 -1 39.84 39.16 2.13 o
397 1 -5 -1 6 12.65 18.73 1.93 o
398 1 -5 -1 5 11.43 15.36 1.70 o
399 1 -5 -1 4 1.99 0.35 0.17 <
400 1 5 -1 -4 1.99 0.56 0.34 <
401 1 5 -1 -3 11.96 10.68 1.28 o
402 1 -5 -1 3 11.96 10.61 1.32 o
403 1 5 -1 -2 10.32 13.11 1.41 o
404 1 -5 -1 2 10.32 11.28 1.37 o
405 1 -5 -1 1 1.73 0.20 0.46 <
406 1 5 -1 -1 1.73 0.97 0.32 o
407 1 -5 0 5 7.07 5.88 1.08 o
408 1 5 0 -5 7.07 3.87 0.87 o
409 1 -5 0 4 44.07 40.29 2.64 o
410 1 5 0 -4 44.07 42.48 2.86 o
411 1 5 0 -3 0.33 0.49 0.18 <
412 1 -5 0 3 0.33 0.96 0.40 <
413 1 5 0 -2 0.09 0.38 0.37 <
414 1 -5 0 2 0.09 0.44 0.35 <
415 1 -5 0 1 44.41 46.88 2.73 o
416 1 5 0 -1 44.41 49.24 2.62 o
417 1 5 1 -6 12.65 14.03 1.87 o
418 1 5 1 -5 10.96 11.46 1.54 o
419 1 -5 1 4 2.01 0.86 0.33 <
420 1 5 1 -4 2.01 0.75 0.47 <
421 1 5 1 -3 11.36 11.79 1.41 o
422 1 -5 1 3 11.36 9.86 1.26 o
423 1 5 1 -2 10.87 11.27 1.43 o
424 1 -5 1 2 10.87 11.39 1.25 o
425 1 -5 1 1 1.72 0.38 0.41 <
426 2 -5 -1 0 21.82 37.54 2.39 o
426 1 -5 1 0 21.82 37.54 2.39 o
427 1 5 2 -6 12.22 18.55 2.19 o
428 1 5 2 -5 0.90 0.00 0.23 <
429 1 5 2 -4 37.13 34.53 2.62 o
430 1 -5 2 3 5.02 4.98 0.87 o
431 1 5 2 -3 5.02 4.68 1.04 o
432 1 5 2 -2 3.88 4.98 0.90 o
433 1 -5 2 2 3.88 4.47 0.85 o
434 1 -5 2 1 41.11 39.12 2.11 o
435 2 -5 -2 0 1.68 2.02 0.49 o
435 1 -5 2 0 1.68 2.02 0.49 o
436 6 6 -3 -6 10.69 8.30 1.55 o
436 1 5 3 -7 10.69 8.30 1.55 o
437 1 5 3 -6 11.19 21.61 2.23 o
438 1 5 3 -5 17.90 18.78 2.03 o
439 1 5 3 -4 0.47 0.40 0.42 <
440 1 5 3 -3 55.93 59.19 3.42 o
441 1 -5 3 2 54.06 54.38 2.62 o
442 1 -5 3 1 0.09 0.07 0.15 <
443 2 -5 -3 0 26.01 43.65 2.08 o
443 1 -5 3 0 26.01 43.65 2.08 o
444 1 -5 3 -1 11.43 15.37 1.29 o
445 1 5 4 -8 0.43 1.24 0.78 <
446 6 6 -4 -6 23.43 25.72 2.57 o
446 1 5 4 -7 23.43 25.72 2.57 o
447 1 5 4 -6 15.68 24.46 2.44 o
448 1 5 4 -5 0.14 0.11 0.36 <
449 1 5 4 -4 40.56 44.05 3.03 o
450 1 5 4 -3 6.25 8.67 1.44 o
451 1 -5 4 1 41.72 44.15 2.11 o
452 2 -5 -4 0 0.04 -0.02 0.17 <
452 1 -5 4 0 0.04 -0.02 0.17 <
453 1 -5 4 -1 14.55 20.27 1.25 o
454 1 -5 4 -2 16.61 22.47 1.49 o
455 6 6 -5 -6 1.98 1.55 0.71 <
455 1 5 5 -7 1.98 1.55 0.71 <
456 1 5 5 -6 12.96 20.08 2.22 o
457 1 5 5 -5 13.14 12.64 1.57 o
458 1 5 5 -4 1.56 0.90 0.57 <
459 1 -5 5 -1 12.63 13.50 0.88 o
460 1 -5 5 -2 1.36 1.19 0.28 o
461 6 6 -6 -6 7.95 9.32 1.74 o
461 1 5 6 -7 7.95 9.32 1.74 o
462 1 5 6 -6 1.17 1.60 0.67 <
463 1 5 6 -5 4.73 4.70 1.05 o
464 1 5 6 -4 19.81 28.28 2.49 o
465 1 5 7 -6 4.50 5.06 1.30 o
466 1 5 7 -5 5.27 5.37 1.13 o
467 1 6 -7 -2 3.52 2.06 0.52 o
468 1 -6 -6 4 1.42 -0.89 0.89 <
469 1 6 -6 -2 1.10 0.44 0.21 <
470 1 6 -6 -1 2.47 1.26 0.39 o
471 6 -5 5 7 1.97 1.36 0.33 o
471 1 -6 -5 6 1.97 1.36 0.33 o
472 1 -6 -5 5 8.35 6.23 1.35 o
473 1 -6 -5 4 6.32 6.43 1.42 o
474 1 6 -5 -3 0.22 0.36 0.43 <
475 1 6 -5 -2 7.74 7.13 0.98 o
476 1 6 -5 -1 7.40 5.78 0.82 o
477 6 -5 4 7 23.34 48.73 3.59 o
477 1 -6 -4 6 23.34 48.73 3.59 o
478 1 -6 -4 5 2.51 1.74 0.65 <
479 1 -6 -4 4 6.04 4.12 0.82 o
480 1 6 -4 -3 17.18 17.24 1.76 o
481 1 -6 -4 3 17.18 16.60 2.16 o
482 1 6 -4 -2 5.96 6.15 0.94 o
483 1 6 -4 -1 1.44 2.22 0.61 o
484 1 -6 -3 7 5.75 8.34 1.64 o
485 6 -5 3 7 10.69 11.78 1.73 o
485 1 -6 -3 6 10.69 11.78 1.73 o
486 1 -6 -3 5 9.98 13.40 1.93 o
487 1 -6 -3 4 4.94 4.69 1.14 o
488 1 6 -3 -4 4.94 3.92 0.87 o
489 1 6 -3 -3 0.03 -0.09 0.21 <
490 1 -6 -3 3 0.03 0.26 0.20 <
491 1 6 -3 -2 5.39 6.25 1.04 o
492 1 6 -3 -1 10.96 11.70 1.24 o
493 1 -6 -2 7 0.03 0.04 0.31 <
494 6 -5 2 7 23.85 42.91 3.19 o
494 1 -6 -2 6 23.85 42.91 3.19 o
495 1 -6 -2 5 3.75 6.36 1.53 o
496 1 6 -2 -5 3.75 2.68 0.84 o
497 1 6 -2 -4 0.78 0.64 0.39 <
498 1 -6 -2 4 0.78 0.51 0.39 <
499 1 -6 -2 3 19.08 19.82 2.13 o
500 1 6 -2 -3 19.08 19.30 1.87 o
501 1 -6 -2 2 0.99 0.80 0.53 <
502 1 6 -2 -2 0.99 1.09 0.48 <
503 1 6 -2 -1 3.38 3.64 0.77 o
504 6 -5 1 7 6.81 10.37 1.56 o
504 1 -6 -1 6 6.81 10.37 1.56 o
505 1 6 -1 -5 9.77 9.27 1.50 o
506 1 -6 -1 5 9.77 10.66 1.55 o
507 1 6 -1 -4 10.66 10.42 1.47 o
508 1 -6 -1 4 10.66 10.35 1.51 o
509 1 -6 -1 3 0.16 -0.30 0.44 <
510 1 6 -1 -3 0.16 -0.37 0.55 <
511 1 6 -1 -2 10.47 13.98 1.61 o
512 1 -6 -1 2 10.47 9.95 1.37 o
513 6 -5 0 7 8.06 10.13 1.56 o
513 1 -6 0 6 8.06 10.13 1.56 o
514 6 5 0 -7 8.06 8.76 1.43 o
514 1 6 0 -6 8.06 8.76 1.43 o
515 1 6 0 -5 1.81 3.06 0.95 o
516 1 -6 0 5 1.81 3.24 0.89 o
517 1 -6 0 4 0.00 0.13 0.30 <
518 1 6 0 -4 0.00 -0.08 0.42 <
519 1 6 0 -3 16.84 18.67 1.88 o
520 1 -6 0 3 16.84 16.58 1.81 o
521 1 6 0 -2 0.05 0.14 0.39 <
522 1 -6 0 2 0.05 1.62 1.27 <
523 1 -6 0 1 2.02 1.45 0.44 o
524 6 5 -1 -7 6.58 7.51 1.48 o
524 1 6 1 -6 6.58 7.51 1.48 o
525 1 -6 1 5 10.02 10.29 1.60 o
526 1 6 1 -5 10.02 8.86 1.31 o
527 1 6 1 -4 10.81 10.75 1.60 o
528 1 -6 1 4 10.81 10.11 1.33 o
529 1 6 1 -3 0.16 -0.41 0.36 <
530 1 -6 1 3 0.16 0.59 0.41 <
531 1 6 1 -2 10.38 15.07 1.77 o
532 1 -6 1 2 10.38 12.21 1.42 o
533 1 -6 1 1 8.32 8.05 1.20 o
534 1 6 2 -7 0.04 2.03 0.98 <
535 6 5 -2 -7 24.47 35.40 3.07 o
535 1 6 2 -6 24.47 35.40 3.07 o
536 1 6 2 -5 3.52 4.61 1.22 o
537 1 -6 2 4 0.88 0.76 0.25 o
538 1 6 2 -4 0.88 0.46 0.42 <
539 1 -6 2 3 19.10 18.28 1.72 o
540 1 6 2 -3 19.10 21.39 2.16 o
541 1 -6 2 2 0.88 1.17 0.56 <
542 1 -6 2 1 3.61 3.35 0.80 o
543 2 -6 -2 0 25.05 42.89 2.63 o
543 1 -6 2 0 25.05 42.89 2.63 o
544 1 6 3 -7 5.74 7.89 1.55 o
545 6 5 -3 -7 10.69 8.45 1.48 o
545 1 6 3 -6 10.69 8.45 1.48 o
546 1 6 3 -5 10.22 14.40 2.07 o
547 1 6 3 -4 4.72 5.63 1.28 o
548 1 -6 3 3 0.03 0.18 0.23 <
549 1 6 3 -3 0.03 0.24 0.39 <
550 1 -6 3 2 5.61 5.11 0.89 o
551 1 -6 3 1 10.71 13.10 1.34 o
552 2 -6 -3 0 9.29 15.66 1.39 o
552 1 -6 3 0 9.29 15.66 1.39 o
553 1 -6 3 -1 6.08 7.81 1.05 o
554 1 6 4 -7 0.47 0.01 0.31 <
555 6 5 -4 -7 23.00 35.96 3.22 o
555 1 6 4 -6 23.00 35.96 3.22 o
556 1 6 4 -5 2.46 1.89 0.69 <
557 1 6 4 -4 6.07 4.58 0.97 o
558 1 6 4 -3 17.18 21.17 2.31 o
559 1 -6 4 2 5.92 7.73 1.02 o
560 1 -6 4 1 1.44 1.91 0.50 o
561 2 -6 -4 0 11.54 24.14 1.61 o
561 1 -6 4 0 11.54 24.14 1.61 o
562 1 -6 4 -1 0.13 0.95 0.43 <
563 6 5 -5 -7 2.03 1.17 0.47 <
563 1 6 5 -6 2.03 1.17 0.47 <
564 1 6 5 -5 8.07 8.70 1.62 o
565 1 6 5 -4 6.47 8.71 1.55 o
566 2 -6 -5 0 0.26 0.70 0.32 <
566 1 -6 5 0 0.26 0.70 0.32 <
567 1 -6 5 -1 1.67 1.52 0.34 o
568 1 6 6 -5 2.45 3.69 1.01 o
569 4 -7 5 4 1.02 0.71 0.26 <
569 1 7 -5 -4 1.02 0.71 0.26 <
570 1 7 -5 -3 0.73 0.69 0.52 <
571 1 7 -5 -2 0.50 1.18 0.50 <
572 4 -7 4 4 0.62 -0.55 0.37 <
572 1 7 -4 -4 0.62 -0.55 0.37 <
573 1 7 -4 -3 0.34 -0.44 0.44 <
574 1 7 -4 -2 3.60 3.52 0.84 o
575 6 4 3 -8 2.19 1.95 0.93 <
575 1 7 -3 -5 2.19 1.95 0.93 <
576 6 -4 3 8 2.19 3.53 1.05 o
576 1 -7 -3 5 2.19 3.53 1.05 o
577 4 7 3 -4 4.37 6.36 1.59 o
577 1 -7 -3 4 4.37 6.36 1.59 o
578 4 -7 3 4 4.37 4.24 0.99 o
578 1 7 -3 -4 4.37 4.24 0.99 o
579 1 7 -3 -3 2.56 2.56 0.73 o
580 1 -7 -3 3 2.56 1.90 0.57 o
581 1 7 -3 -2 0.82 1.16 0.36 o
582 6 4 2 -8 10.30 7.81 1.59 o
582 1 7 -2 -5 10.30 7.81 1.59 o
583 6 -4 2 8 10.30 13.91 2.03 o
583 1 -7 -2 5 10.30 13.91 2.03 o
584 4 -7 2 4 0.95 0.81 0.34 <
584 1 7 -2 -4 0.95 0.81 0.34 <
585 4 7 2 -4 0.95 1.04 0.41 <
585 1 -7 -2 4 0.95 1.04 0.41 <
586 1 -7 -2 3 0.62 0.13 0.30 <
587 1 7 -2 -3 0.62 -0.28 0.47 <
588 1 7 -2 -2 5.02 5.09 1.06 o
589 1 7 -1 -6 2.32 2.18 0.46 o
590 1 -7 -1 6 2.32 1.83 0.66 <
591 6 4 1 -8 4.65 3.79 1.06 o
591 1 7 -1 -5 4.65 3.79 1.06 o
592 6 -4 1 8 4.65 3.78 1.24 o
592 1 -7 -1 5 4.65 3.78 1.24 o
593 4 -7 1 4 7.06 10.48 1.56 o
593 1 7 -1 -4 7.06 10.48 1.56 o
594 4 7 1 -4 7.06 10.64 1.52 o
594 1 -7 -1 4 7.06 10.64 1.52 o
595 1 -7 -1 3 5.01 5.06 1.14 o
596 1 7 -1 -3 5.01 4.96 0.96 o
597 1 -7 -1 2 1.07 3.61 1.15 o
598 1 7 -1 -2 1.07 4.51 1.06 o
599 1 7 0 -6 0.00 0.49 0.46 <
600 1 -7 0 6 0.00 0.36 0.50 <
601 6 4 0 -8 30.24 33.26 3.30 o
601 1 7 0 -5 30.24 33.26 3.30 o
602 6 -4 0 8 30.24 32.31 3.24 o
602 1 -7 0 5 30.24 32.31 3.24 o
603 4 -7 0 4 3.23 3.55 1.06 o
603 1 7 0 -4 3.23 3.55 1.06 o
604 4 7 0 -4 3.23 5.77 0.99 o
604 1 -7 0 4 3.23 5.77 0.99 o
605 1 7 0 -3 1.40 1.44 0.32 o
606 1 -7 0 3 1.40 1.63 0.36 o
607 1 -7 0 2 9.33 8.93 1.38 o
608 1 7 0 -2 9.33 13.30 1.72 o
609 1 -7 1 6 2.26 1.19 0.60 <
610 1 7 1 -6 2.26 1.57 0.86 <
611 6 4 -1 -8 4.68 1.85 0.70 <
611 1 7 1 -5 4.68 1.85 0.70 <
612 6 -4 -1 8 4.68 2.32 0.82 <
612 1 -7 1 5 4.68 2.32 0.82 <
613 4 7 -1 -4 7.10 12.67 1.69 o
613 1 -7 1 4 7.10 12.67 1.69 o
614 4 -7 -1 4 7.10 10.70 1.70 o
614 1 7 1 -4 7.10 10.70 1.70 o
615 1 7 1 -3 4.92 5.17 1.10 o
616 1 -7 1 3 4.92 5.11 1.01 o
617 1 -7 1 2 1.07 1.43 0.60 <
618 1 -7 1 1 2.49 2.21 0.72 o
619 1 7 2 -6 0.80 0.29 0.56 <
620 6 -4 -2 8 10.75 11.88 1.92 o
620 1 -7 2 5 10.75 11.88 1.92 o
621 6 4 -2 -8 10.75 11.32 1.83 o
621 1 7 2 -5 10.75 11.32 1.83 o
622 4 -7 -2 4 0.96 1.99 0.58 o
622 1 7 2 -4 0.96 1.99 0.58 o
623 4 7 -2 -4 0.96 0.90 0.20 o
623 1 -7 2 4 0.96 0.90 0.20 o
624 1 7 2 -3 0.60 1.40 0.70 <
625 1 -7 2 3 0.60 0.02 0.28 <
626 1 -7 2 2 4.92 4.35 0.92 o
627 1 -7 2 1 0.84 -0.62 0.69 <
628 2 -7 -2 0 1.56 2.61 0.76 o
628 1 -7 2 0 1.56 2.61 0.76 o
629 6 4 -3 -8 2.12 2.19 0.83 <
629 1 7 3 -5 2.12 2.19 0.83 <
630 4 7 -3 -4 4.35 6.82 1.18 o
630 1 -7 3 4 4.35 6.82 1.18 o
631 4 -7 -3 4 4.35 5.77 1.27 o
631 1 7 3 -4 4.35 5.77 1.27 o
632 1 -7 3 3 2.61 1.48 0.47 o
633 1 7 3 -3 2.61 3.13 1.50 <
634 1 -7 3 2 0.82 1.97 0.52 o
635 1 -7 3 1 1.28 2.06 0.62 o
636 2 -7 -3 0 1.47 1.52 0.39 o
636 1 -7 3 0 1.47 1.52 0.39 o
637 1 -7 4 2 3.66 2.45 0.67 o
638 1 -7 4 1 0.07 -0.57 0.48 <
639 5 -4 -2 9 2.61 3.89 1.03 o
639 3 -4 -2 -5 2.61 3.89 1.03 o
639 1 8 -2 -4 2.61 3.89 1.03 o
640 1 8 -1 -5 0.97 0.49 0.37 <
641 5 -4 -1 9 7.31 4.78 1.34 o
641 3 -4 -1 -5 7.31 4.78 1.34 o
641 1 8 -1 -4 7.31 4.78 1.34 o
642 1 -8 -1 3 1.06 -0.53 0.79 <
643 1 8 -1 -3 1.06 0.82 0.58 <
644 5 -4 0 9 2.94 3.86 1.09 o
644 3 -4 0 -5 2.94 3.86 1.09 o
644 1 8 0 -4 2.94 3.86 1.09 o
645 5 4 0 -9 2.94 4.77 1.32 o
645 3 4 0 5 2.94 4.77 1.32 o
645 1 -8 0 4 2.94 4.77 1.32 o
646 1 8 0 -3 0.11 -0.29 0.64 <
647 1 -8 0 3 0.11 0.27 0.40 <
648 1 -8 1 5 1.00 1.06 0.58 <
649 5 4 1 -9 7.32 3.87 1.26 o
649 3 4 1 5 7.32 3.87 1.26 o
649 1 -8 1 4 7.32 3.87 1.26 o
650 1 8 1 -3 1.03 1.25 0.74 <
651 1 -8 1 3 1.03 -0.47 0.85 <
652 5 4 2 -9 2.62 2.43 0.90 <
652 3 4 2 5 2.62 2.43 0.90 <
652 1 -8 2 4 2.62 2.43 0.90 <
653 2 0 -8 -5 10.25 9.33 1.30 o
654 2 0 -7 -4 80.60 81.17 3.54 o
655 2 0 -7 -5 15.64 19.83 1.97 o
656 2 0 -7 -6 2.31 1.13 0.47 <
657 2 0 -6 -4 9.70 11.99 1.38 o
658 2 0 -6 -5 21.25 22.17 2.23 o
659 2 0 -6 -6 1.44 1.43 0.74 <
660 2 0 -5 -3 0.16 -0.07 0.17 <
661 2 0 -5 -4 3.23 3.97 0.87 o
662 2 0 -5 -5 13.43 13.17 1.67 o
663 2 0 -5 -6 3.80 2.75 0.88 o
664 2 0 -5 -7 3.63 2.52 0.91 <
665 2 0 -4 -2 4.92 6.95 0.79 o
666 2 0 -4 -3 87.42 109.46 4.04 o
667 2 0 -4 -4 0.02 0.17 0.30 <
668 2 0 -4 -5 0.25 0.32 0.32 <
669 2 0 -4 -6 28.98 25.00 2.73 o
670 2 0 -4 -7 1.13 0.59 0.47 <
671 2 0 -3 -2 323.37 412.93 7.07 o
672 2 0 -3 -3 2.04 1.23 0.41 <
673 2 0 -3 -4 0.98 0.50 0.26 <
674 2 0 -3 -5 14.90 12.92 1.67 o
675 2 0 -3 -6 0.08 0.17 0.33 <
676 2 0 -3 -7 13.64 11.01 2.04 o
677 2 0 -2 -1 0.86 0.09 0.10 <
678 2 0 -2 -2 160.05 163.77 3.99 o
679 2 0 -2 -3 160.67 153.21 4.42 o
680 2 0 -2 -4 6.32 4.89 0.88 o
681 2 0 -2 -5 32.25 29.83 2.65 o
682 2 0 -2 -6 24.54 22.84 2.70 o
683 2 0 -2 -7 4.83 4.12 1.15 o
684 2 0 -1 -1 487.60 519.89 5.91 o
685 2 0 -1 -2 79.91 87.52 2.70 o
686 2 0 -1 -3 40.26 34.30 2.07 o
687 2 0 -1 -4 164.67 128.66 4.84 o
688 2 0 -1 -5 39.95 33.23 2.77 o
689 2 0 0 1 136.36 96.00 2.09 o
690 2 0 0 -1 136.36 98.62 2.06 o
691 2 0 0 -2 6.82 8.23 0.85 o
692 2 0 0 2 6.82 9.38 0.90 o
693 2 0 1 1 487.66 509.66 5.86 o
694 2 0 1 2 79.84 81.67 2.73 o
695 2 0 1 3 40.24 32.95 2.07 o
696 2 0 1 4 164.63 134.26 4.82 o
697 2 0 1 5 39.91 32.15 2.84 o
698 2 0 2 1 0.86 0.00 0.06 <
699 2 0 2 2 160.07 162.23 4.13 o
700 2 0 2 3 160.66 148.89 4.61 o
701 2 0 2 4 6.34 5.53 1.01 o
702 2 0 2 5 32.25 28.32 2.62 o
703 2 0 2 6 24.50 23.11 2.65 o
704 2 0 3 1 9.46 8.04 0.64 o
705 2 0 3 2 323.33 421.23 7.57 o
706 2 0 3 3 2.06 1.58 0.51 o
707 2 0 3 4 0.99 0.53 0.34 <
708 2 0 3 5 14.94 12.26 1.82 o
709 2 0 3 6 0.10 0.15 0.38 <
710 2 0 3 7 13.63 10.69 1.93 o
711 2 0 4 2 4.86 8.00 1.04 o
712 2 0 4 3 87.50 99.04 4.10 o
713 2 0 4 4 0.02 0.01 0.03 <
714 2 0 4 5 0.26 0.12 0.19 <
715 2 0 4 6 28.99 25.40 2.81 o
716 2 0 4 7 1.13 0.75 0.43 <
717 2 0 5 2 80.35 93.70 3.56 o
718 2 0 5 3 0.17 0.08 0.36 <
719 2 0 5 4 3.31 4.88 1.10 o
720 2 0 5 5 13.46 11.66 1.68 o
721 2 0 5 6 3.78 3.05 0.96 o
722 2 0 5 7 3.65 2.48 1.02 <
723 2 0 6 3 23.78 31.77 2.53 o
724 2 0 6 4 9.69 11.73 1.61 o
725 2 0 6 5 21.22 19.76 2.38 o
726 2 0 6 6 1.45 0.62 0.55 <
727 2 0 7 3 16.67 21.88 2.28 o
728 2 0 7 4 80.47 93.01 4.90 o
729 2 0 7 5 15.63 17.24 2.31 o
730 2 0 7 6 2.32 0.79 0.35 <
731 2 0 8 4 0.46 0.21 0.16 <
732 2 0 8 5 10.26 8.64 1.60 o
733 2 0 9 4 5.47 3.34 1.00 o
734 2 1 -8 -5 10.80 8.92 1.17 o
735 2 1 -7 -6 4.01 2.21 0.66 o
736 2 1 -7 -5 3.03 2.56 0.68 o
737 2 1 -7 -4 28.61 29.25 1.92 o
738 2 -1 -7 -5 3.53 3.00 0.83 o
739 2 1 -6 -7 3.46 2.45 0.79 o
740 2 1 -6 -6 3.29 1.24 0.63 <
741 2 1 -6 -5 49.74 47.93 3.00 o
742 2 1 -6 -4 14.02 21.51 1.74 o
743 2 1 -6 -3 22.50 19.61 1.36 o
744 2 -1 -6 -4 50.37 57.27 3.42 o
745 2 -1 -6 -5 2.51 2.39 0.72 o
746 2 -1 -6 -6 3.21 3.01 0.95 o
747 2 1 -5 -7 5.74 5.45 1.45 o
748 2 1 -5 -6 20.82 18.88 2.32 o
749 2 1 -5 -5 7.94 6.33 1.10 o
750 2 1 -5 -4 39.24 45.20 2.50 o
751 2 1 -5 -3 67.24 79.41 2.92 o
752 2 -1 -5 -3 39.13 51.12 2.93 o
753 2 -1 -5 -4 7.30 6.41 1.14 o
754 2 -1 -5 -5 21.67 21.96 2.38 o
755 2 -1 -5 -6 5.49 4.03 1.09 o
756 2 1 -4 -8 2.44 1.33 1.15 <
757 2 1 -4 -7 13.37 13.74 2.49 o
758 2 1 -4 -6 3.98 3.50 1.00 o
759 2 1 -4 -5 12.58 11.37 1.48 o
760 2 1 -4 -4 36.24 67.83 3.39 o
761 2 1 -4 -3 32.68 38.84 2.06 o
762 2 1 -4 -2 240.59 301.87 4.92 o
763 2 -1 -4 -2 35.22 36.03 2.03 o
764 2 -1 -4 -3 34.02 40.16 2.60 o
765 2 -1 -4 -4 11.34 13.23 1.66 o
766 2 -1 -4 -5 4.17 3.12 0.80 o
767 2 -1 -4 -6 14.16 11.02 1.87 o
768 2 1 -3 -7 13.58 16.60 2.68 o
769 2 1 -3 -6 19.11 19.04 2.56 o
770 2 1 -3 -5 13.72 13.38 1.80 o
771 2 1 -3 -4 51.64 47.48 2.76 o
772 2 1 -3 -3 166.93 166.77 4.28 o
773 2 1 -3 -2 19.74 25.53 1.32 o
774 2 -1 -3 -2 170.92 178.68 4.83 o
775 2 -1 -3 -3 51.51 51.96 2.93 o
776 2 -1 -3 -4 11.61 12.60 1.64 o
777 2 -1 -3 -5 18.94 17.64 2.12 o
778 2 -1 -3 -6 13.77 12.26 1.93 o
779 2 1 -2 -5 36.75 33.21 2.78 o
780 2 1 -2 -4 10.64 19.56 2.30 o
781 2 1 -2 -3 145.22 146.80 4.06 o
782 2 1 -2 -2 509.70 568.49 6.71 o
783 3 1 2 1 917.63 982.56 10.64 o
783 2 -1 -2 -1 917.63 982.56 10.64 o
784 2 -1 -2 -2 138.70 159.47 4.52 o
785 2 -1 -2 -3 8.33 7.30 1.11 o
786 2 -1 -2 -4 37.79 29.92 2.54 o
787 2 -1 -2 -5 0.80 0.36 0.26 <
788 2 -1 -2 -6 8.74 8.18 1.61 o
789 2 -1 -2 -7 6.72 4.77 1.37 o
790 3 -1 1 -1 375.91 416.95 5.42 o
790 2 1 -1 1 375.91 416.95 5.42 o
791 3 1 1 1 375.91 412.32 6.37 o
791 2 -1 -1 -1 375.91 412.32 6.37 o
792 2 1 -1 2 44.68 30.63 1.72 o
793 2 -1 -1 -2 44.68 35.95 2.12 o
794 2 1 -1 3 106.28 88.89 3.62 o
795 2 -1 -1 -3 106.28 87.89 3.58 o
796 2 -1 -1 -4 18.54 13.32 1.57 o
797 2 -1 -1 -5 18.62 16.33 2.02 o
798 2 -1 -1 -6 5.63 3.90 1.21 o
799 2 -1 -1 -7 1.12 0.71 0.90 <
800 3 1 0 1 24.03 18.31 1.37 o
800 2 -1 0 -1 24.03 18.31 1.37 o
801 3 -1 0 -1 24.03 34.69 1.56 o
801 2 1 0 1 24.03 34.69 1.56 o
802 2 1 0 2 3.57 3.30 0.64 o
803 2 -1 0 -2 3.57 2.95 0.63 o
804 2 1 0 3 104.25 85.41 3.53 o
805 2 -1 0 -3 104.25 86.59 3.72 o
806 2 -1 0 -4 128.94 108.16 4.81 o
807 2 1 0 4 128.94 94.16 4.27 o
808 2 1 0 5 6.92 7.54 1.30 o
809 2 -1 0 -5 6.92 7.13 1.38 o
810 3 -1 -1 -1 375.72 412.95 6.57 o
810 2 1 1 1 375.72 412.95 6.57 o
811 3 1 -1 1 375.72 419.08 5.45 o
811 2 -1 1 -1 375.72 419.08 5.45 o
812 2 1 1 2 41.99 35.25 2.16 o
813 2 -1 1 -2 41.99 32.89 1.99 o
814 2 -1 1 -3 106.88 86.33 3.75 o
815 2 1 1 3 106.88 86.45 3.63 o
816 2 -1 1 -4 19.00 13.06 1.69 o
817 2 1 1 4 19.00 14.46 1.72 o
818 2 1 1 5 19.31 18.40 2.20 o
819 2 1 1 6 5.95 3.80 1.13 o
820 2 1 1 7 1.10 0.58 0.53 <
821 2 -1 2 4 9.87 16.42 2.14 o
822 2 -1 2 3 142.48 150.56 4.14 o
823 2 -1 2 2 510.26 567.71 6.97 o
824 3 -1 -2 -1 917.50 1016.08 11.43 o
824 2 1 2 1 917.50 1016.08 11.43 o
825 2 1 2 2 141.43 152.26 4.79 o
826 2 1 2 3 8.99 7.90 1.24 o
827 2 1 2 4 39.07 31.75 2.68 o
828 2 1 2 5 0.88 -0.19 0.57 <
829 2 1 2 6 8.59 7.52 1.61 o
830 2 -1 3 6 19.31 18.67 2.31 o
831 2 -1 3 5 13.80 11.42 1.64 o
832 2 -1 3 4 50.21 47.60 2.91 o
833 2 -1 3 3 166.68 170.87 4.62 o
834 2 -1 3 2 19.97 24.49 1.37 o
835 2 -1 3 1 67.75 75.22 2.01 o
836 2 1 3 2 171.17 178.18 5.48 o
837 2 1 3 3 53.01 56.84 3.35 o
838 2 1 3 4 11.52 10.44 1.64 o
839 2 1 3 5 18.72 17.39 2.29 o
840 2 1 3 6 13.94 12.55 2.03 o
841 2 -1 4 7 13.33 13.36 2.26 o
842 2 -1 4 6 3.91 3.40 1.01 o
843 2 -1 4 5 12.98 12.46 1.65 o
844 2 -1 4 4 36.74 67.36 3.69 o
845 2 -1 4 3 33.17 38.76 2.18 o
846 2 -1 4 2 239.16 299.80 5.43 o
847 2 1 4 2 34.66 37.77 2.33 o
848 2 1 4 3 33.56 40.83 3.03 o
849 2 1 4 4 10.94 12.26 1.84 o
850 2 1 4 5 4.25 2.86 0.92 o
851 2 1 4 6 14.19 12.35 2.16 o
852 2 -1 5 7 5.95 4.46 1.27 o
853 2 -1 5 6 20.83 15.55 2.10 o
854 2 -1 5 5 8.18 6.04 1.19 o
855 2 -1 5 4 40.41 40.95 2.63 o
856 2 -1 5 3 66.60 76.44 3.14 o
857 2 -1 5 2 37.04 48.47 2.29 o
858 2 1 5 3 37.94 48.27 3.36 o
859 2 1 5 4 7.09 6.09 1.33 o
860 2 1 5 5 21.58 20.68 2.68 o
861 2 1 5 6 5.30 3.39 1.14 <
862 2 -1 6 7 3.34 2.22 0.97 <
863 2 -1 6 6 3.42 1.56 0.65 <
864 2 -1 6 5 50.22 45.78 3.20 o
865 2 -1 6 4 14.14 23.20 2.19 o
866 2 -1 6 3 23.50 23.19 1.77 o
867 2 -1 6 2 73.63 93.89 3.42 o
868 2 1 6 3 13.96 16.58 1.93 o
869 2 1 6 4 49.92 57.11 4.15 o
870 2 1 6 5 2.40 2.25 0.98 <
871 2 1 6 6 3.32 1.80 0.77 <
872 2 -1 7 6 4.06 2.15 0.74 <
873 2 -1 7 5 2.89 1.27 0.34 o
874 2 -1 7 4 28.62 26.16 2.21 o
875 2 -1 7 3 6.39 9.31 1.27 o
876 2 -1 7 2 0.69 0.38 0.22 <
877 2 1 7 4 3.45 2.47 0.90 <
878 2 1 7 5 3.53 2.73 1.12 <
879 2 -1 8 5 10.53 8.28 1.41 o
880 2 -1 8 4 9.81 11.04 1.46 o
881 2 -1 8 3 10.91 16.85 1.78 o
882 2 1 8 4 11.38 10.14 1.92 o
883 2 -1 9 4 9.47 7.11 1.23 o
884 2 -1 9 3 22.68 27.38 2.46 o
885 2 2 -8 -6 2.53 1.69 0.57 <
886 2 2 -8 -5 4.82 4.28 0.79 o
887 2 2 -7 -6 7.57 5.24 0.95 o
888 2 2 -7 -5 8.11 9.24 1.13 o
889 2 2 -7 -4 3.48 8.27 0.95 o
890 2 2 -6 -7 5.57 2.90 0.97 <
891 2 2 -6 -6 5.34 3.85 0.92 o
892 2 2 -6 -5 16.41 14.50 1.45 o
893 2 2 -6 -4 32.58 38.28 2.10 o
894 2 -2 -6 -4 4.90 5.85 1.08 o
895 2 -2 -6 -5 4.83 3.80 0.95 o
896 2 2 -5 -8 5.06 5.82 2.08 <
897 2 2 -5 -7 4.69 5.74 1.69 o
898 2 2 -5 -6 18.01 18.13 2.20 o
899 2 2 -5 -5 37.52 37.76 2.58 o
900 2 2 -5 -4 13.41 24.47 1.83 o
901 2 2 -5 -3 64.65 66.90 2.37 o
902 2 -2 -5 -3 36.78 35.95 2.63 o
903 2 -2 -5 -4 18.32 19.27 2.12 o
904 2 -2 -5 -5 4.57 3.11 0.97 o
905 2 2 -4 -7 12.97 21.50 3.61 o
906 2 2 -4 -6 27.18 32.68 3.50 o
907 2 2 -4 -5 0.24 0.21 0.28 <
908 2 2 -4 -4 116.81 116.03 3.93 o
909 2 2 -4 -3 54.68 56.61 2.14 o
910 2 2 -4 -2 3.26 3.05 0.39 o
911 2 -2 -4 -3 0.24 0.12 0.06 <
912 2 -2 -4 -4 25.39 27.36 2.61 o
913 2 -2 -4 -5 14.53 15.46 2.14 o
914 2 2 -3 -5 39.74 65.16 4.18 o
915 2 2 -3 -4 4.62 15.33 2.19 o
916 2 2 -3 -3 127.68 140.73 3.75 o
917 2 2 -3 -2 243.65 248.73 3.54 o
918 3 2 3 2 7.29 6.89 1.05 o
918 2 -2 -3 -2 7.29 6.89 1.05 o
919 2 -2 -3 -3 36.62 40.47 2.93 o
920 2 -2 -3 -4 11.99 13.01 1.75 o
921 2 -2 -3 -5 10.12 7.93 1.45 o
922 2 -2 -3 -6 6.04 5.44 1.43 o
923 2 2 -2 1 85.11 78.07 2.51 o
924 2 -2 -2 -1 85.11 81.33 2.75 o
925 3 2 2 2 115.14 126.61 4.53 o
925 2 -2 -2 -2 115.14 126.61 4.53 o
926 3 -2 2 -2 115.14 136.92 4.19 o
926 2 2 -2 2 115.14 136.92 4.19 o
927 2 2 -2 3 22.95 22.55 1.99 o
928 2 -2 -2 -3 22.95 23.28 2.13 o
929 2 -2 -2 -4 26.01 26.36 2.61 o
930 2 -2 -2 -5 10.15 8.20 1.62 o
931 2 -2 -2 -6 1.07 0.41 0.18 <
932 2 -2 -1 -1 114.81 114.31 3.53 o
933 2 2 -1 1 114.81 109.73 3.33 o
934 3 2 1 2 20.42 20.78 1.78 o
934 2 -2 -1 -2 20.42 20.78 1.78 o
935 3 -2 1 -2 20.42 20.21 1.64 o
935 2 2 -1 2 20.42 20.21 1.64 o
936 2 -2 -1 -3 23.69 20.49 2.13 o
937 2 2 -1 3 23.69 17.54 1.74 o
938 2 -2 -1 -4 25.24 23.38 2.38 o
939 2 2 -1 4 25.24 19.99 2.13 o
940 2 -2 -1 -5 4.50 2.80 0.93 o
941 2 2 -1 5 4.50 2.64 0.91 <
942 2 -2 -1 -6 8.11 7.83 1.74 o
943 2 2 0 1 5.95 5.15 0.80 o
944 2 -2 0 -1 5.95 5.37 0.81 o
945 3 2 0 2 159.02 123.97 4.37 o
945 2 -2 0 -2 159.02 123.97 4.37 o
946 3 -2 0 -2 159.02 131.84 4.55 o
946 2 2 0 2 159.02 131.84 4.55 o
947 2 -2 0 -3 4.61 3.65 0.85 o
948 2 2 0 3 4.61 3.39 0.79 o
949 2 -2 0 -4 0.14 0.39 0.28 <
950 2 2 0 4 0.14 0.29 0.32 <
951 2 -2 0 -5 11.44 9.16 1.66 o
952 2 2 0 5 11.44 9.22 1.67 o
953 2 -2 0 -6 1.05 1.29 0.62 <
954 2 2 0 6 1.05 1.15 0.60 <
955 2 -2 1 -1 118.15 115.56 3.47 o
956 2 2 1 1 118.15 113.83 3.77 o
957 3 -2 -1 -2 20.39 19.98 1.84 o
957 2 2 1 2 20.39 19.98 1.84 o
958 3 2 -1 2 20.39 20.42 1.68 o
958 2 -2 1 -2 20.39 20.42 1.68 o
959 2 2 1 3 24.49 23.38 2.25 o
960 2 -2 1 -3 24.49 19.57 1.93 o
961 2 2 1 4 25.12 22.75 2.41 o
962 2 -2 1 -4 25.12 21.89 2.33 o
963 2 -2 1 -5 4.26 2.04 0.69 <
964 2 2 1 5 4.26 1.90 0.71 <
965 2 -2 1 -6 7.69 6.13 1.48 o
966 2 2 1 6 7.69 6.13 1.48 o
967 2 2 2 1 82.70 76.26 3.07 o
968 2 -2 2 -1 82.70 77.39 2.69 o
969 3 -2 -2 -2 115.12 134.05 5.06 o
969 2 2 2 2 115.12 134.05 5.06 o
970 3 2 -2 2 115.12 124.93 4.22 o
970 2 -2 2 -2 115.12 124.93 4.22 o
971 2 2 2 3 22.33 19.50 2.18 o
972 2 -2 2 -3 22.33 18.87 1.84 o
973 2 2 2 4 26.32 23.94 2.62 o
974 2 -2 2 -4 26.32 19.29 2.13 o
975 2 2 2 5 9.81 8.41 1.58 o
976 2 2 2 6 1.10 0.00 0.61 <
977 2 -2 3 -1 123.79 118.89 3.16 o
978 3 -2 -3 -2 7.30 6.57 1.15 o
978 2 2 3 2 7.30 6.57 1.15 o
979 3 2 -3 2 7.30 5.36 0.84 o
979 2 -2 3 -2 7.30 5.36 0.84 o
980 2 2 3 3 36.99 41.65 3.24 o
981 2 2 3 4 11.55 12.31 1.92 o
982 2 2 3 5 10.07 8.34 1.76 o
983 2 2 3 6 6.15 5.50 1.59 o
984 2 -2 4 4 117.33 118.41 4.16 o
985 2 -2 4 3 53.79 52.04 2.10 o
986 2 -2 4 2 2.81 3.42 0.39 o
987 3 -2 -4 -2 216.22 190.51 5.79 o
987 2 2 4 2 216.22 190.51 5.79 o
988 2 2 4 3 0.26 0.54 0.46 <
989 2 2 4 4 25.26 26.82 2.92 o
990 2 2 4 5 14.77 15.16 2.41 o
991 2 -2 5 5 38.28 38.05 2.79 o
992 2 -2 5 4 13.27 22.44 1.92 o
993 2 -2 5 3 65.07 67.43 2.66 o
994 2 -2 5 2 69.24 76.66 2.27 o
995 2 2 5 3 35.98 33.03 2.99 o
996 2 2 5 4 18.73 18.97 2.49 o
997 2 2 5 5 4.73 2.60 1.03 <
998 2 -2 6 7 5.63 2.83 0.92 o
999 2 -2 6 6 5.52 6.06 1.29 o
1000 2 -2 6 5 15.98 16.41 1.89 o
1001 2 -2 6 4 31.81 36.54 2.48 o
1002 2 -2 6 3 16.21 16.23 1.32 o
1003 2 -2 6 2 23.38 25.66 1.39 o
1004 2 2 6 4 4.73 4.41 1.23 o
1005 2 2 6 5 4.77 3.78 1.16 o
1006 2 -2 7 6 7.61 5.49 1.21 o
1007 2 -2 7 5 7.83 9.08 1.34 o
1008 2 -2 7 4 3.61 10.88 1.36 o
1009 2 -2 7 3 19.65 17.49 1.38 o
1010 2 -2 7 2 10.94 15.28 1.20 o
1011 2 2 7 4 6.72 7.19 1.60 o
1012 2 -2 8 6 2.30 1.49 0.63 <
1013 2 -2 8 5 5.03 3.88 0.88 o
1014 2 -2 8 4 16.96 16.39 1.58 o
1015 2 -2 8 3 12.66 12.10 1.12 o
1016 2 -2 8 2 0.80 1.10 0.35 o
1017 2 -2 9 4 0.44 2.17 0.62 o
1018 2 -2 9 3 10.35 9.93 1.06 o
1019 2 3 -8 -6 5.85 3.52 0.65 o
1020 2 3 -8 -5 6.22 6.23 0.76 o
1021 2 3 -7 -6 2.48 1.04 0.35 o
1022 2 3 -7 -5 6.79 6.26 0.79 o
1023 2 3 -7 -4 38.80 32.99 1.47 o
1024 2 3 -6 -7 0.74 0.63 0.33 <
1025 2 3 -6 -6 6.29 4.49 0.92 o
1026 2 3 -6 -5 14.30 11.43 1.22 o
1027 2 3 -6 -4 1.27 1.27 0.29 o
1028 2 3 -5 -7 2.85 2.71 1.21 <
1029 2 3 -5 -6 6.51 6.24 1.33 o
1030 2 3 -5 -5 19.67 16.29 1.54 o
1031 2 3 -5 -4 16.86 15.69 1.12 o
1032 2 3 -5 -3 0.90 0.77 0.18 o
1033 2 -3 -5 -4 3.03 2.37 0.85 <
1034 2 3 -4 -5 2.24 2.34 0.96 <
1035 2 3 -4 -4 6.72 8.25 1.12 o
1036 2 3 -4 -3 27.87 25.62 1.26 o
1037 2 -3 -4 -3 19.45 32.01 2.74 o
1038 2 -3 -4 -4 0.31 0.19 0.26 <
1039 2 3 -3 1 5.45 4.20 0.68 o
1040 2 -3 -3 -2 46.67 46.49 2.83 o
1041 2 3 -3 2 46.67 40.15 2.67 o
1042 2 -3 -3 -3 4.21 5.33 1.10 o
1043 2 -3 -3 -4 13.11 15.66 2.21 o
1044 2 -3 -3 -5 2.48 1.58 0.87 <
1045 2 3 -2 1 0.17 0.18 0.13 <
1046 2 3 -2 2 14.68 15.11 1.50 o
1047 2 -3 -2 -2 14.68 19.47 1.91 o
1048 2 -3 -2 -3 46.63 88.52 4.65 o
1049 2 3 -2 3 46.63 73.69 3.89 o
1050 2 -3 -2 -4 1.31 0.95 0.48 <
1051 2 3 -2 4 1.31 0.78 0.38 <
1052 2 -3 -2 -5 4.62 2.84 1.01 <
1053 2 3 -2 5 4.62 2.93 0.83 o
1054 2 -3 -1 -1 103.08 101.14 3.53 o
1055 2 3 -1 1 103.08 93.64 3.56 o
1056 2 -3 -1 -2 48.09 54.65 3.20 o
1057 2 3 -1 2 48.09 44.16 2.76 o
1058 2 -3 -1 -3 10.43 17.48 2.04 o
1059 2 3 -1 3 10.43 16.85 1.92 o
1060 2 3 -1 4 9.98 9.25 1.63 o
1061 2 -3 -1 -4 9.98 12.32 1.85 o
1062 2 -3 -1 -5 4.92 4.46 1.32 o
1063 2 3 -1 5 4.92 3.65 1.08 o
1064 2 3 0 1 23.35 26.55 2.14 o
1065 2 -3 0 -1 23.35 28.29 1.88 o
1066 2 -3 0 -2 36.98 33.31 2.48 o
1067 2 3 0 2 36.98 30.70 2.40 o
1068 2 3 0 3 3.26 4.94 1.02 o
1069 2 -3 0 -3 3.26 5.52 0.94 o
1070 2 -3 0 -4 0.66 0.22 0.34 <
1071 2 3 0 4 0.66 0.73 0.52 <
1072 2 -3 0 -5 13.23 12.70 2.17 o
1073 2 3 0 5 13.23 10.76 1.95 o
1074 2 3 1 1 101.97 97.85 4.05 o
1075 2 -3 1 -1 101.97 100.62 3.68 o
1076 2 3 1 2 46.44 47.23 3.34 o
1077 2 -3 1 -2 46.44 50.97 3.11 o
1078 2 -3 1 -3 10.63 17.89 2.10 o
1079 2 3 1 3 10.63 18.75 2.24 o
1080 2 3 1 4 9.99 11.44 1.85 o
1081 2 -3 1 -4 9.99 10.45 1.74 o
1082 2 -3 1 -5 4.86 4.76 1.23 o
1083 2 3 1 5 4.86 2.62 1.09 <
1084 2 -3 1 -6 2.08 0.69 0.45 <
1085 2 -3 2 -1 0.10 0.02 0.07 <
1086 2 -3 2 -2 14.99 19.40 1.87 o
1087 2 3 2 2 14.99 17.93 2.20 o
1088 2 -3 2 -3 46.12 78.35 4.12 o
1089 2 3 2 3 46.12 81.97 4.75 o
1090 2 3 2 4 1.29 0.82 0.70 <
1091 2 -3 2 -4 1.29 0.37 0.13 <
1092 2 -3 2 -5 4.39 3.19 1.05 o
1093 2 3 2 5 4.39 2.91 1.00 <
1094 2 -3 2 -6 2.10 1.37 0.80 <
1095 2 -3 3 -1 5.00 4.59 0.79 o
1096 2 3 3 2 46.49 41.36 3.10 o
1097 2 -3 3 -2 46.49 42.73 2.74 o
1098 2 -3 3 -3 4.36 4.39 0.97 o
1099 2 3 3 3 4.36 5.29 1.20 o
1100 2 3 3 4 12.88 14.34 2.29 o
1101 2 -3 3 -4 12.88 10.82 1.64 o
1102 2 3 3 5 2.51 1.13 0.67 <
1103 2 -3 3 -5 2.51 0.81 0.38 <
1104 2 -3 4 -1 6.34 5.31 0.79 o
1105 2 -3 4 -2 1.53 0.83 0.33 <
1106 2 3 4 3 19.56 35.59 3.31 o
1107 2 -3 4 -3 19.56 60.05 3.53 o
1108 2 3 4 4 0.32 0.02 0.15 <
1109 2 -3 5 -1 16.81 13.12 1.08 o
1110 2 -3 5 -2 20.14 9.46 0.96 o
1111 2 3 5 3 6.38 8.24 1.58 o
1112 2 3 5 4 3.22 1.91 0.94 <
1113 2 -3 7 4 39.27 31.38 1.82 o
1114 2 -3 7 3 1.92 0.75 0.22 o
1115 2 -3 8 5 6.18 6.22 1.23 o
1116 2 -3 8 4 1.69 1.33 0.48 <
1117 2 -3 8 3 30.54 43.88 2.31 o
1118 2 -3 8 2 8.74 12.67 0.97 o
1119 2 -3 9 4 6.44 15.46 2.55 o
1120 2 -3 9 3 0.71 0.54 0.34 <
1121 2 -3 9 2 18.33 17.80 1.20 o
1122 2 4 -7 -6 1.54 0.35 0.21 <
1123 2 4 -7 -5 0.78 -0.15 0.21 <
1124 2 4 -6 -7 2.67 1.51 0.59 <
1125 2 4 -6 -6 0.45 -0.20 0.21 <
1126 2 4 -6 -5 20.20 14.11 1.09 o
1127 2 4 -6 -4 9.85 6.95 0.63 o
1128 2 4 -5 -5 4.29 2.08 0.60 o
1129 2 4 -5 -4 8.19 6.75 0.69 o
1130 2 4 -4 -1 2.43 1.46 0.27 o
1131 2 4 -4 1 12.65 14.70 1.53 o
1132 2 4 -3 -1 22.15 25.08 1.35 o
1133 2 4 -3 1 3.11 1.42 0.41 o
1134 2 4 -3 2 10.81 6.71 1.03 o
1135 2 -4 -3 -3 8.59 11.68 1.73 o
1136 2 4 -3 3 8.59 6.46 1.18 o
1137 2 -4 -3 -4 0.90 1.37 0.68 <
1138 2 4 -3 4 0.90 1.26 0.59 <
1139 2 4 -2 -1 21.65 18.89 1.30 o
1140 2 4 -2 1 24.34 19.84 1.74 o
1141 2 -4 -2 -2 3.18 3.55 0.96 o
1142 2 4 -2 2 3.18 1.89 0.64 <
1143 2 -4 -2 -3 4.65 5.82 1.21 o
1144 2 4 -2 3 4.65 3.05 0.77 o
1145 2 4 -2 4 3.83 4.41 1.10 o
1146 2 -4 -2 -4 3.83 5.53 1.34 o
1147 5 -3 2 9 2.51 3.31 1.08 o
1147 2 4 -2 5 2.51 3.31 1.08 o
1148 2 4 -1 1 8.29 7.24 1.12 o
1149 2 4 -1 2 9.63 10.21 1.49 o
1150 2 -4 -1 -2 9.63 13.59 1.68 o
1151 2 -4 -1 -3 9.40 10.36 1.67 o
1152 2 4 -1 3 9.40 6.54 1.26 o
1153 2 -4 -1 -4 1.75 1.74 0.66 <
1154 2 4 -1 4 1.75 1.38 0.60 <
1155 5 -3 1 9 6.29 11.39 2.09 o
1155 2 4 -1 5 6.29 11.39 2.09 o
1156 2 4 0 1 70.22 77.30 4.00 o
1157 2 -4 0 -1 70.22 79.65 3.26 o
1158 2 4 0 2 0.74 -0.05 0.36 <
1159 2 -4 0 -2 0.74 0.12 0.13 <
1160 2 4 0 3 7.93 8.74 1.53 o
1161 2 -4 0 -3 7.93 12.23 1.92 o
1162 2 -4 0 -4 13.26 28.74 3.19 o
1163 2 4 0 4 13.26 22.11 2.85 o
1164 5 3 0 -9 3.06 0.73 0.57 <
1164 2 -4 0 -5 3.06 0.73 0.57 <
1165 2 -4 1 -1 8.34 8.07 1.06 o
1166 2 4 1 1 8.34 7.90 1.31 o
1167 2 -4 1 -2 9.45 11.61 1.59 o
1168 2 4 1 2 9.45 11.84 1.80 o
1169 2 4 1 3 9.78 8.70 1.61 o
1170 2 -4 1 -3 9.78 10.55 1.66 o
1171 2 4 1 4 1.76 1.70 0.89 <
1172 2 -4 1 -4 1.76 1.68 0.71 <
1173 5 3 -1 -9 6.29 7.40 1.77 o
1173 2 -4 1 -5 6.29 7.40 1.77 o
1174 2 -4 2 -1 23.86 22.60 1.72 o
1175 2 4 2 2 3.20 2.42 0.83 <
1176 2 -4 2 -2 3.20 3.28 0.80 o
1177 2 -4 2 -3 4.79 4.38 1.11 o
1178 2 4 2 3 4.79 4.20 1.15 o
1179 2 4 2 4 4.10 5.63 1.51 o
1180 2 -4 2 -4 4.10 6.55 1.53 o
1181 5 3 -2 -9 2.40 0.93 0.64 <
1181 2 -4 2 -5 2.40 0.93 0.64 <
1182 2 -4 3 -1 3.01 2.23 0.55 o
1183 2 -4 3 -2 10.97 11.09 1.54 o
1184 2 -4 3 -3 8.65 8.74 1.62 o
1185 2 4 3 3 8.65 8.93 1.83 o
1186 2 4 3 4 0.86 0.26 0.25 <
1187 2 -4 3 -4 0.86 0.54 0.38 <
1188 2 -4 4 -1 13.19 13.96 1.32 o
1189 2 -4 4 -2 4.20 5.21 1.07 o
1190 2 4 4 3 4.49 2.46 0.91 <
1191 2 -4 4 -3 4.49 3.68 1.04 o
1192 2 -4 4 -4 1.77 1.57 0.52 <
1193 2 -4 5 -1 3.57 3.96 0.77 o
1194 2 -4 5 -2 10.76 13.55 1.70 o
1195 2 -4 5 -3 5.40 3.99 0.97 o
1196 2 -4 5 -4 0.41 0.11 0.17 <
1197 2 -4 6 -1 20.44 27.88 2.17 o
1198 2 -4 6 -2 0.27 0.34 0.06 o
1199 2 -4 6 -3 2.30 1.04 0.54 <
1200 2 -4 7 -1 0.86 0.89 0.59 <
1201 2 -4 7 -2 1.71 0.66 0.30 <
1202 2 5 -7 -6 2.65 1.31 0.29 o
1203 2 5 -7 -5 3.10 2.21 0.37 o
1204 2 5 -6 -6 0.75 0.46 0.27 <
1205 2 5 -6 -5 2.89 0.61 0.16 o
1206 2 5 -4 -2 3.78 2.66 0.46 o
1207 2 5 -4 -1 25.57 23.90 1.31 o
1208 2 5 -4 1 8.64 6.29 0.93 o
1209 2 5 -4 2 10.06 6.72 1.18 o
1210 2 5 -4 3 0.24 0.21 0.25 <
1211 2 5 -3 -1 0.05 0.00 0.12 <
1212 2 5 -3 1 6.83 6.36 0.93 o
1213 2 5 -3 2 2.55 0.88 0.49 <
1214 2 5 -3 3 2.14 0.93 0.50 <
1215 2 5 -2 1 6.66 6.72 1.14 o
1216 2 5 -2 2 5.97 4.78 0.98 o
1217 2 -5 -2 -3 0.74 0.53 0.31 <
1218 2 5 -2 3 0.74 -0.09 0.23 <
1219 2 5 -1 1 7.26 7.57 1.31 o
1220 2 5 -1 2 2.98 2.39 0.83 <
1221 2 -5 -1 -2 2.98 3.53 0.76 o
1222 2 5 -1 3 2.84 1.70 0.72 <
1223 2 -5 -1 -3 2.84 3.84 1.08 o
1224 2 5 -1 4 1.88 1.50 0.85 <
1225 2 5 0 1 0.26 -0.15 0.41 <
1226 2 -5 0 -2 2.56 1.66 0.57 <
1227 2 5 0 2 2.56 1.47 0.65 <
1228 2 5 0 3 0.56 0.37 0.31 <
1229 2 -5 0 -3 0.56 0.72 0.50 <
1230 2 -5 0 -4 1.10 1.37 0.76 <
1231 2 5 0 4 1.10 1.03 0.70 <
1232 2 -5 1 -1 7.22 10.01 1.15 o
1233 2 -5 1 -2 2.88 2.37 0.61 o
1234 2 5 1 2 2.88 2.10 0.78 <
1235 2 5 1 3 2.96 1.78 0.74 <
1236 2 -5 1 -3 2.96 3.64 1.06 o
1237 2 -5 1 -4 1.84 1.80 0.90 <
1238 2 -5 2 -1 6.49 9.54 1.16 o
1239 2 5 2 2 6.13 7.24 1.68 o
1240 2 -5 2 -2 6.13 7.40 1.24 o
1241 2 -5 2 -3 0.77 0.55 0.31 <
1242 2 5 2 3 0.77 0.99 0.78 <
1243 2 -5 3 -1 6.85 8.87 1.06 o
1244 2 -5 3 -2 2.57 1.31 0.45 <
1245 2 -5 3 -3 2.17 1.43 0.64 <
1246 2 -5 4 -1 8.73 8.78 1.01 o
1247 2 -5 4 -2 9.96 12.01 1.68 o
1248 2 -5 4 -3 0.22 0.43 0.47 <
1249 2 -5 5 -1 7.57 6.68 0.88 o
1250 2 -5 5 -2 0.82 1.20 0.53 <
1251 2 -5 6 -1 0.53 0.30 0.08 o
1252 2 -5 6 -2 2.03 2.57 0.99 <
1253 2 -5 7 -1 2.17 1.69 0.48 o
1254 2 6 -5 -3 0.13 0.17 0.12 <
1255 2 6 -5 -2 4.64 3.30 0.40 o
1256 2 6 -5 -1 4.44 1.63 0.32 o
1257 2 6 -5 1 0.98 0.33 0.09 o
1258 2 6 -4 -2 3.57 4.06 0.61 o
1259 2 6 -4 -1 0.86 0.87 0.32 <
1260 2 6 -4 1 0.07 -0.10 0.22 <
1261 2 6 -3 -1 6.57 7.79 1.00 o
1262 2 6 -3 1 3.63 2.12 0.67 o
1263 2 6 -3 2 1.91 1.57 0.62 <
1264 2 6 -2 1 0.02 0.10 0.22 <
1265 2 6 -2 2 0.58 0.68 0.48 <
1266 2 6 -1 1 1.83 1.35 0.63 <
1267 2 6 -1 2 1.28 0.93 0.62 <
1268 2 6 0 1 1.24 1.01 0.69 <
1269 2 6 0 2 2.34 1.36 0.75 <
1270 2 -6 1 -2 1.27 1.99 0.56 o
1271 2 6 1 2 1.27 1.28 0.60 <
1272 2 -6 2 -2 0.58 0.78 0.45 <
1273 2 -6 3 -2 1.89 1.91 0.62 o
1274 2 -6 4 -1 0.08 0.31 0.26 <
1275 2 -6 5 -1 1.00 0.68 0.26 <
1276 2 7 -5 -3 0.44 0.36 0.21 <
1277 2 7 -5 -2 0.30 1.12 0.34 o
1278 2 7 -4 -2 2.16 1.36 0.43 o
1279 2 7 -4 -1 0.03 0.25 0.20 <
1280 2 7 -3 -1 0.77 0.37 0.13 <
1281 3 0 -8 4 0.37 0.16 0.08 <
1282 3 0 -7 4 62.97 28.47 0.87 o
1283 3 0 -6 4 7.58 4.19 0.34 o
1284 3 0 -5 3 0.13 -0.03 0.10 <
1285 3 0 -5 4 2.52 1.99 0.26 o
1286 3 0 -4 3 68.29 52.40 1.23 o
1287 3 0 -4 4 0.02 0.09 0.13 <
1288 3 0 -3 3 1.59 0.95 0.18 o
1289 3 0 -2 3 125.52 132.04 2.38 o
1290 3 0 -1 2 62.43 64.67 1.42 o
1291 3 0 1 -2 62.37 64.37 1.43 o
1292 3 0 1 -3 31.44 29.77 1.31 o
1293 3 0 1 -4 128.61 118.71 3.29 o
1294 3 0 2 -3 125.51 133.65 2.40 o
1295 3 0 2 -4 4.95 5.03 0.57 o
1296 3 0 2 -5 25.20 27.06 1.60 o
1297 3 0 2 -6 19.14 21.72 1.83 o
1298 3 0 2 -7 3.77 5.84 1.03 o
1299 3 0 3 -3 1.61 1.23 0.20 o
1300 3 0 3 -4 0.78 0.40 0.15 <
1301 3 0 3 -5 11.67 13.72 1.00 o
1302 3 0 3 -6 0.08 -0.30 0.29 <
1303 3 0 3 -7 10.64 14.34 1.43 o
1304 3 0 4 -5 0.20 0.52 0.16 o
1305 3 0 4 -6 22.65 24.75 1.31 o
1306 3 0 4 -7 0.89 1.17 0.36 o
1307 3 0 5 -6 2.95 4.13 0.48 o
1308 3 0 5 -7 2.85 4.54 0.56 o
1309 3 -1 -7 3 4.76 3.79 0.45 o
1310 3 1 -7 4 2.58 1.02 0.21 o
1311 3 1 -7 5 2.76 0.93 0.25 o
1312 3 1 -6 4 39.35 29.52 1.40 o
1313 3 1 -6 5 1.96 1.17 0.26 o
1314 3 1 -6 6 2.50 1.68 0.39 o
1315 3 -1 -5 2 29.18 25.69 1.22 o
1316 3 1 -5 3 30.57 30.10 1.35 o
1317 3 1 -5 4 5.70 4.14 0.56 o
1318 3 1 -5 5 16.93 13.87 1.08 o
1319 3 1 -5 6 4.29 3.87 0.60 o
1320 3 -1 -4 1 15.87 20.04 1.07 o
1321 3 1 -4 3 26.58 26.69 1.38 o
1322 3 1 -4 4 8.86 8.72 0.80 o
1323 3 1 -4 5 3.26 2.30 0.47 o
1324 3 1 -4 6 11.06 10.51 1.12 o
1325 3 -1 -3 1 53.56 57.16 1.44 o
1326 4 -1 3 0 98.89 143.27 2.91 o
1326 3 -1 -3 0 98.89 143.27 2.91 o
1327 3 1 -3 2 133.53 134.07 2.63 o
1328 3 1 -3 3 40.24 41.01 1.77 o
1329 3 1 -3 4 9.07 8.82 0.90 o
1330 3 1 -3 5 14.80 14.91 1.27 o
1331 3 -1 -2 1 6.63 8.03 0.42 o
1332 4 -1 2 0 14.91 14.34 0.77 o
1332 3 -1 -2 0 14.91 14.34 0.77 o
1333 3 -1 -2 -1 917.50 962.55 8.16 o
1333 2 1 2 1 917.50 962.55 8.16 o
1334 3 -1 -2 -2 108.35 119.18 3.43 o
1335 3 1 -2 2 108.35 117.78 2.69 o
1336 3 1 -2 3 6.51 5.24 0.65 o
1337 3 1 -2 4 29.52 24.13 1.50 o
1338 3 1 -2 5 0.62 0.21 0.19 <
1339 4 -1 1 0 489.24 568.45 4.41 o
1339 3 -1 -1 0 489.24 568.45 4.41 o
1340 3 -1 -1 -1 375.72 345.86 4.26 o
1340 2 1 1 1 375.72 345.86 4.26 o
1341 3 1 -1 1 375.72 346.73 3.84 o
1341 2 -1 1 -1 375.72 346.73 3.84 o
1342 3 1 -1 2 34.91 29.78 1.38 o
1343 3 -1 -1 -2 34.91 29.60 1.47 o
1344 3 -1 -1 -3 83.03 77.95 2.81 o
1345 3 1 -1 3 83.03 72.33 2.43 o
1346 3 -1 -1 -4 14.48 11.92 1.26 o
1347 3 1 -1 4 14.48 12.57 1.08 o
1348 4 1 0 0 170.50 117.80 1.78 o
1348 3 1 0 0 170.50 117.80 1.78 o
1349 4 -1 0 0 170.50 116.30 1.69 o
1349 3 -1 0 0 170.50 116.30 1.69 o
1350 3 1 0 1 24.03 14.51 0.99 o
1350 2 -1 0 -1 24.03 14.51 0.99 o
1351 3 -1 0 -1 24.03 30.02 1.17 o
1351 2 1 0 1 24.03 30.02 1.17 o
1352 3 -1 0 -2 2.79 3.45 0.50 o
1353 3 1 0 2 2.79 3.51 0.49 o
1354 3 1 0 3 81.44 73.98 2.50 o
1355 3 -1 0 -3 81.44 74.31 2.57 o
1356 3 -1 0 -4 100.73 94.02 3.37 o
1357 3 1 0 4 100.73 99.18 3.22 o
1358 3 -1 0 -5 5.41 7.94 1.11 o
1359 3 -1 0 -6 5.18 4.36 1.02 o
1360 4 1 -1 0 489.18 597.66 4.60 o
1360 3 1 1 0 489.18 597.66 4.60 o
1361 3 -1 1 -1 375.91 342.66 3.62 o
1361 2 1 -1 1 375.91 342.66 3.62 o
1362 3 1 1 1 375.91 347.30 4.19 o
1362 2 -1 -1 -1 375.91 347.30 4.19 o
1363 3 -1 1 -2 32.80 28.96 1.30 o
1364 3 1 1 2 32.80 25.62 1.37 o
1365 3 1 1 3 83.50 76.69 2.61 o
1366 3 -1 1 -3 83.50 76.85 2.51 o
1367 3 -1 1 -4 14.85 13.14 1.18 o
1368 3 -1 1 -5 15.09 17.67 1.58 o
1369 3 -1 1 -6 4.65 5.15 0.99 o
1370 3 -1 1 -7 0.86 1.11 0.70 <
1371 3 1 2 -1 7.53 7.54 0.40 o
1372 4 1 -2 0 14.80 14.53 0.76 o
1372 3 1 2 0 14.80 14.53 0.76 o
1373 3 1 2 1 917.63 1016.08 7.79 o
1373 2 -1 -2 -1 917.63 1016.08 7.79 o
1374 3 -1 2 -2 110.49 121.37 2.36 o
1375 3 1 2 2 110.49 119.25 3.22 o
1376 3 -1 2 -3 7.02 6.35 0.65 o
1377 3 -1 2 -4 30.52 27.94 1.59 o
1378 3 -1 2 -5 0.68 0.42 0.27 <
1379 3 -1 2 -6 6.71 9.44 1.21 o
1380 3 -1 2 -7 5.46 7.68 1.24 o
1381 3 1 3 -6 15.08 20.09 1.35 o
1382 3 1 3 -5 10.78 13.39 1.00 o
1383 3 1 3 -4 39.23 36.22 1.17 o
1384 3 -1 3 -3 41.41 42.08 1.51 o
1385 3 -1 3 -4 9.00 9.66 0.83 o
1386 3 -1 3 -5 14.63 18.09 1.29 o
1387 3 -1 3 -6 10.89 13.89 1.27 o
1388 3 -1 3 -7 1.67 0.51 0.22 <
1389 3 1 4 -8 2.00 2.16 0.58 o
1390 3 1 4 -7 10.42 14.69 1.17 o
1391 3 1 4 -6 3.05 3.95 0.50 o
1392 3 1 4 -5 10.14 9.90 0.56 o
1393 3 -1 4 -5 3.32 4.13 0.54 o
1394 3 -1 4 -6 11.09 13.68 1.16 o
1395 3 -1 4 -7 1.69 1.92 0.56 o
1396 3 1 5 -7 4.65 5.72 0.54 o
1397 3 1 5 -6 16.28 20.23 0.84 o
1398 3 -2 -9 3 8.22 8.17 0.81 o
1399 3 -2 -8 3 9.21 7.93 0.69 o
1400 3 -2 -8 2 0.66 0.83 0.36 <
1401 3 -2 -7 3 15.45 13.59 0.78 o
1402 3 -2 -7 2 8.75 12.38 0.99 o
1403 3 -2 -7 1 0.08 0.52 0.40 <
1404 3 -2 -6 3 13.51 12.99 0.64 o
1405 3 -2 -6 2 18.36 22.25 1.25 o
1406 3 -2 -6 1 48.31 56.68 2.51 o
1407 4 -2 6 0 33.03 58.70 3.00 o
1407 3 -2 -6 0 33.03 58.70 3.00 o
1408 3 2 -6 4 3.83 3.17 0.53 o
1409 3 2 -6 5 3.77 2.00 0.50 o
1410 3 -2 -5 2 53.77 51.73 1.70 o
1411 3 -2 -5 1 39.56 47.58 1.96 o
1412 4 -2 5 0 98.92 137.05 3.98 o
1412 3 -2 -5 0 98.92 137.05 3.98 o
1413 3 -2 -5 -1 50.97 67.83 3.26 o
1414 3 2 -5 4 14.31 12.09 1.21 o
1415 3 2 -5 5 3.57 2.08 0.49 o
1416 3 2 -5 6 3.39 2.84 0.60 o
1417 3 -2 -4 2 2.55 3.71 0.41 o
1418 3 -2 -4 1 221.05 255.92 4.37 o
1419 4 -2 4 0 4.11 6.68 0.77 o
1419 3 -2 -4 0 4.11 6.68 0.77 o
1420 3 -2 -4 -1 42.57 49.66 2.49 o
1421 3 -2 -4 -2 216.22 235.87 6.23 o
1421 2 2 4 2 216.22 235.87 6.23 o
1422 3 2 -4 3 0.19 0.23 0.24 <
1423 3 2 -4 4 19.83 19.27 1.55 o
1424 3 2 -4 5 11.35 10.01 1.12 o
1425 3 2 -4 6 0.32 0.62 0.47 <
1426 3 -2 -3 2 190.35 201.13 2.44 o
1427 3 -2 -3 1 3.24 3.28 0.46 o
1428 4 -2 3 0 360.80 419.35 5.97 o
1428 3 -2 -3 0 360.80 419.35 5.97 o
1429 3 -2 -3 -1 97.27 105.02 3.27 o
1430 3 -2 -3 -2 7.30 6.26 0.99 o
1430 2 2 3 2 7.30 6.26 0.99 o
1431 3 2 -3 2 7.30 4.80 0.66 o
1431 2 -2 3 -2 7.30 4.80 0.66 o
1432 3 2 -3 3 28.61 28.00 1.79 o
1433 3 -2 -3 -3 28.61 31.73 2.38 o
1434 3 2 -3 4 9.37 10.02 1.08 o
1435 3 2 -3 5 7.91 6.66 0.95 o
1436 3 2 -3 6 4.72 4.78 0.87 o
1437 3 -2 -2 1 190.37 208.13 3.17 o
1438 4 -2 2 0 56.30 48.46 1.86 o
1438 3 -2 -2 0 56.30 48.46 1.86 o
1439 3 -2 -2 -1 66.49 61.53 2.41 o
1440 3 -2 -2 -2 115.12 94.89 3.28 o
1440 2 2 2 2 115.12 94.89 3.28 o
1441 3 2 -2 2 115.12 97.83 3.13 o
1441 2 -2 2 -2 115.12 97.83 3.13 o
1442 3 2 -2 3 17.93 20.58 1.68 o
1443 3 -2 -2 -3 17.93 15.81 1.50 o
1444 3 -2 -2 -4 20.32 19.28 1.81 o
1445 3 2 -2 4 20.32 19.35 1.61 o
1446 3 2 -2 5 7.93 6.56 0.99 o
1447 3 -2 -2 -5 7.93 8.20 1.32 o
1448 3 2 -2 6 0.83 0.72 0.38 <
1449 4 -2 1 0 58.87 51.54 1.80 o
1449 3 -2 -1 0 58.87 51.54 1.80 o
1450 3 2 -1 1 89.69 88.93 2.63 o
1451 3 -2 -1 -1 89.69 83.35 2.75 o
1452 3 -2 -1 -2 20.39 16.79 1.43 o
1452 2 2 1 2 20.39 16.79 1.43 o
1453 3 2 -1 2 20.39 18.82 1.42 o
1453 2 -2 1 -2 20.39 18.82 1.42 o
1454 3 -2 -1 -3 18.51 18.59 1.61 o
1455 3 2 -1 3 18.51 18.04 1.47 o
1456 3 2 -1 4 19.72 19.32 1.61 o
1457 3 -2 -1 -4 19.72 20.90 1.89 o
1458 3 -2 -1 -5 3.51 2.19 0.64 o
1459 3 2 -1 5 3.51 2.20 0.57 o
1460 3 2 -1 6 6.33 8.72 1.27 o
1461 3 -2 -1 -6 6.33 7.52 1.38 o
1462 4 -2 0 0 3.55 1.72 0.28 o
1462 3 -2 0 0 3.55 1.72 0.28 o
1463 4 2 0 0 3.55 1.84 0.32 o
1463 3 2 0 0 3.55 1.84 0.32 o
1464 3 2 0 1 4.65 4.35 0.61 o
1465 3 -2 0 -1 4.65 4.31 0.56 o
1466 3 2 0 2 159.02 110.22 3.43 o
1466 2 -2 0 -2 159.02 110.22 3.43 o
1467 3 -2 0 -2 159.02 104.79 3.25 o
1467 2 2 0 2 159.02 104.79 3.25 o
1468 3 -2 0 -3 3.60 2.81 0.59 o
1469 3 2 0 3 3.60 3.04 0.65 o
1470 3 -2 0 -4 0.11 0.20 0.22 <
1471 3 2 0 4 0.11 0.43 0.26 <
1472 3 2 0 5 8.94 9.02 1.25 o
1473 3 -2 0 -5 8.94 11.39 1.49 o
1474 3 -2 0 -6 0.82 1.85 0.78 <
1475 3 -2 0 -7 1.89 1.97 0.75 <
1476 3 2 1 -1 361.15 348.15 3.81 o
1477 4 2 -1 0 59.11 54.43 1.93 o
1477 3 2 1 0 59.11 54.43 1.93 o
1478 3 2 1 1 92.30 87.03 2.89 o
1479 3 -2 1 -1 92.30 90.24 2.32 o
1480 3 2 1 2 20.42 17.23 1.42 o
1480 2 -2 -1 -2 20.42 17.23 1.42 o
1481 3 -2 1 -2 20.42 16.42 1.19 o
1481 2 2 -1 2 20.42 16.42 1.19 o
1482 3 -2 1 -3 19.13 16.69 1.34 o
1483 3 2 1 3 19.13 18.70 1.52 o
1484 3 2 1 4 19.62 20.17 1.73 o
1485 3 -2 1 -4 19.62 21.01 1.68 o
1486 3 -2 1 -5 3.33 2.60 0.69 o
1487 3 2 1 5 3.33 2.58 0.69 o
1488 3 -2 1 -6 6.01 7.87 1.24 o
1489 3 -2 1 -7 1.64 1.56 0.68 <
1490 3 2 2 -1 190.37 209.00 3.25 o
1491 4 2 -2 0 56.18 48.89 1.87 o
1491 3 2 2 0 56.18 48.89 1.87 o
1492 3 2 2 1 64.60 61.07 2.33 o
1493 3 2 2 2 115.14 100.30 3.28 o
1493 2 -2 -2 -2 115.14 100.30 3.28 o
1494 3 -2 2 -2 115.14 93.87 2.54 o
1494 2 2 -2 2 115.14 93.87 2.54 o
1495 3 2 2 3 17.45 16.81 1.49 o
1496 3 -2 2 -3 17.45 18.70 1.34 o
1497 3 -2 2 -4 20.56 20.35 1.56 o
1498 3 2 2 4 20.56 19.60 1.76 o
1499 3 -2 2 -5 7.66 7.90 1.04 o
1500 3 -2 2 -6 0.86 1.53 0.60 <
1501 3 2 3 -2 190.65 202.38 2.75 o
1502 3 2 3 -1 3.24 2.83 0.39 o
1503 4 2 -3 0 360.76 415.82 5.59 o
1503 3 2 3 0 360.76 415.82 5.59 o
1504 3 2 3 1 96.71 102.16 3.18 o
1505 3 2 3 2 7.29 6.02 0.89 o
1505 2 -2 -3 -2 7.29 6.02 0.89 o
1506 3 -2 3 -3 28.90 31.49 1.59 o
1507 3 2 3 3 28.90 31.37 2.18 o
1508 3 -2 3 -4 9.02 12.19 1.13 o
1509 3 -2 3 -5 7.87 8.31 1.01 o
1510 3 -2 3 -6 4.80 6.60 0.94 o
1511 3 2 4 -3 42.02 32.31 1.00 o
1512 3 2 4 -2 2.19 2.76 0.35 o
1513 3 2 4 -1 221.10 256.80 4.06 o
1514 4 2 -4 0 4.15 6.90 0.75 o
1514 3 2 4 0 4.15 6.90 0.75 o
1515 3 2 4 1 43.17 47.54 2.25 o
1516 3 -2 4 -5 11.54 14.11 1.16 o
1517 3 -2 4 -6 0.31 0.51 0.29 <
1518 3 2 5 -8 3.87 3.67 0.54 o
1519 3 2 5 -7 3.53 2.20 0.37 o
1520 3 -3 -9 3 0.55 0.12 0.24 <
1521 3 -3 -9 2 14.10 15.87 1.51 o
1522 3 -3 -9 1 14.75 23.01 2.29 o
1523 3 -3 -8 3 24.01 18.65 1.12 o
1524 3 -3 -8 2 7.20 7.92 0.98 o
1525 3 -3 -8 1 6.79 10.19 1.36 o
1526 4 -3 8 0 46.07 72.29 4.20 o
1526 3 -3 -8 0 46.07 72.29 4.20 o
1527 3 -3 -7 3 1.50 0.68 0.24 <
1528 3 -3 -7 2 9.36 8.52 0.90 o
1529 3 -3 -7 1 9.35 9.09 1.17 o
1530 4 -3 7 0 1.82 1.23 0.46 <
1530 3 -3 -7 0 1.82 1.23 0.46 <
1531 3 -3 -7 -1 30.99 43.67 3.34 o
1532 3 -3 -6 3 41.34 44.02 1.58 o
1533 3 -3 -6 2 8.17 6.73 0.79 o
1534 3 -3 -6 1 9.59 8.38 1.00 o
1535 4 -3 6 0 75.05 103.68 4.08 o
1535 3 -3 -6 0 75.05 103.68 4.08 o
1536 3 -3 -6 -1 1.07 1.28 0.60 <
1537 3 -3 -6 -2 10.74 11.53 1.72 o
1538 3 -3 -5 2 40.55 42.10 1.84 o
1539 3 -3 -5 1 39.38 43.56 2.15 o
1540 4 -3 5 0 1.92 2.42 0.60 o
1540 3 -3 -5 0 1.92 2.42 0.60 o
1541 3 -3 -5 -1 12.32 14.95 1.58 o
1542 3 -3 -5 -2 15.22 14.10 1.78 o
1543 3 -3 -5 -3 5.14 11.08 1.78 o
1544 3 3 -5 4 2.36 1.60 0.56 <
1545 3 3 -5 5 1.27 0.70 0.41 <
1546 3 -3 -4 2 18.62 21.14 1.22 o
1547 3 -3 -4 1 18.12 19.16 1.37 o
1548 4 -3 4 0 42.14 44.15 2.31 o
1548 3 -3 -4 0 42.14 44.15 2.31 o
1549 3 -3 -4 -1 4.98 4.85 0.88 o
1550 3 -3 -4 -2 1.10 1.15 0.56 <
1551 3 -3 -4 -3 15.20 33.53 2.82 o
1552 3 3 -4 3 15.20 36.82 2.81 o
1553 3 3 -4 4 0.24 0.33 0.30 <
1554 3 -3 -4 -4 0.24 -0.44 0.43 <
1555 3 3 -4 5 1.99 1.08 0.50 <
1556 3 -3 -3 2 34.17 35.29 1.39 o
1557 3 -3 -3 1 34.71 36.11 1.76 o
1558 4 -3 3 0 36.49 35.59 2.02 o
1558 3 -3 -3 0 36.49 35.59 2.02 o
1559 3 -3 -3 -1 4.26 2.79 0.62 o
1560 3 -3 -3 -2 36.46 32.00 2.30 o
1561 3 -3 -3 -3 3.29 4.09 0.92 o
1562 3 3 -3 3 3.29 3.55 0.75 o
1563 3 -3 -3 -4 10.25 12.75 1.81 o
1564 3 3 -3 4 10.25 14.06 1.66 o
1565 3 3 -3 5 1.93 2.14 0.73 <
1566 3 -3 -3 -5 1.93 2.43 0.82 <
1567 3 -3 -2 1 45.91 48.18 1.89 o
1568 4 -3 2 0 134.86 127.90 3.49 o
1568 3 -3 -2 0 134.86 127.90 3.49 o
1569 3 -3 -2 -1 0.14 0.13 0.23 <
1570 3 3 -2 2 11.47 12.62 1.35 o
1571 3 -3 -2 -2 11.47 12.61 1.39 o
1572 3 3 -2 3 36.43 74.18 3.59 o
1573 3 -3 -2 -3 36.43 69.69 3.63 o
1574 3 3 -2 4 1.02 0.59 0.36 <
1575 3 -3 -2 -4 1.02 2.59 0.88 <
1576 3 3 -2 5 3.61 3.09 0.83 o
1577 3 -3 -2 -5 3.61 4.50 1.08 o
1578 3 3 -2 6 1.71 0.60 0.34 <
1579 4 -3 1 0 5.42 5.03 0.66 o
1579 3 -3 -1 0 5.42 5.03 0.66 o
1580 3 3 -1 1 80.53 74.24 2.92 o
1581 3 -3 -1 -1 80.53 71.63 2.95 o
1582 3 -3 -1 -2 37.57 36.92 2.30 o
1583 3 3 -1 2 37.57 35.41 2.24 o
1584 3 3 -1 3 8.14 15.03 1.69 o
1585 3 -3 -1 -3 8.14 15.94 1.62 o
1586 3 -3 -1 -4 7.80 11.55 1.50 o
1587 3 3 -1 4 7.80 10.49 1.48 o
1588 3 3 -1 5 3.84 3.52 0.89 o
1589 3 -3 -1 -5 3.84 4.16 0.92 o
1590 3 -3 -1 -6 1.63 0.95 0.61 <
1591 3 3 -1 6 1.63 0.90 0.47 <
1592 4 -3 0 0 443.22 448.72 5.64 o
1592 3 -3 0 0 443.22 448.72 5.64 o
1593 4 3 0 0 443.22 448.72 6.53 o
1593 3 3 0 0 443.22 448.72 6.53 o
1594 3 -3 0 -1 18.24 22.89 1.54 o
1595 3 3 0 1 18.24 20.76 1.69 o
1596 3 3 0 2 28.89 25.99 2.05 o
1597 3 -3 0 -2 28.89 25.86 1.84 o
1598 3 3 0 3 2.55 4.41 0.94 o
1599 3 -3 0 -3 2.55 3.68 0.73 o
1600 3 -3 0 -4 0.51 0.40 0.24 <
1601 3 3 0 4 0.51 0.15 0.33 <
1602 3 -3 0 -5 10.33 13.89 1.79 o
1603 3 3 0 5 10.33 12.03 1.58 o
1604 3 -3 0 -6 2.36 2.36 0.92 <
1605 3 3 0 6 2.36 1.38 0.57 <
1606 4 3 -1 0 5.41 4.60 0.69 o
1606 3 3 1 0 5.41 4.60 0.69 o
1607 3 3 1 1 79.66 69.28 3.06 o
1608 3 -3 1 -1 79.66 77.22 2.50 o
1609 3 3 1 2 36.28 35.01 2.37 o
1610 3 -3 1 -2 36.28 39.85 2.16 o
1611 3 3 1 3 8.31 15.03 1.65 o
1612 3 -3 1 -3 8.31 14.44 1.43 o
1613 3 3 1 4 7.80 9.85 1.42 o
1614 3 -3 1 -4 7.80 12.25 1.44 o
1615 3 3 1 5 3.80 4.21 0.96 o
1616 3 -3 1 -5 3.80 3.99 0.88 o
1617 3 3 1 6 1.63 1.68 0.73 <
1618 3 -3 1 -6 1.63 1.24 0.61 <
1619 3 3 2 -1 47.54 46.84 2.00 o
1620 4 3 -2 0 134.88 129.32 3.77 o
1620 3 3 2 0 134.88 129.32 3.77 o
1621 3 3 2 1 0.08 -0.01 0.17 <
1622 3 3 2 2 11.71 12.83 1.42 o
1623 3 -3 2 -2 11.71 15.61 1.17 o
1624 3 3 2 3 36.03 80.35 3.79 o
1625 3 -3 2 -3 36.03 65.82 2.73 o
1626 3 -3 2 -4 1.01 1.33 0.53 <
1627 3 3 2 4 1.01 0.93 0.47 <
1628 3 -3 2 -5 3.43 3.74 0.73 o
1629 3 3 2 5 3.43 3.43 0.89 o
1630 3 -3 2 -6 1.64 1.26 0.56 <
1631 3 3 3 -2 34.35 37.78 1.65 o
1632 3 3 3 -1 34.43 37.33 1.86 o
1633 4 3 -3 0 36.49 33.23 1.91 o
1633 3 3 3 0 36.49 33.23 1.91 o
1634 3 3 3 1 3.90 2.61 0.59 o
1635 3 3 3 2 36.32 32.07 2.21 o
1636 3 3 3 3 3.41 4.52 0.89 o
1637 3 3 3 4 10.06 13.81 1.67 o
1638 3 -3 3 -4 10.06 15.17 1.35 o
1639 3 -3 3 -5 1.96 2.80 0.60 o
1640 3 3 3 5 1.96 1.23 0.65 <
1641 3 3 4 -4 5.26 6.31 0.61 o
1642 3 3 4 -3 21.91 23.21 1.22 o
1643 3 3 4 -2 19.01 20.67 1.27 o
1644 3 3 4 -1 17.73 18.31 1.31 o
1645 4 3 -4 0 42.13 43.60 2.22 o
1645 3 3 4 0 42.13 43.60 2.22 o
1646 3 3 4 1 4.95 4.58 0.80 o
1647 3 3 4 2 1.19 0.68 0.30 <
1648 3 3 4 3 15.28 36.23 2.66 o
1649 3 3 4 4 0.25 0.72 0.46 <
1650 3 3 5 -5 14.89 12.35 0.67 o
1651 3 3 5 -4 12.29 13.18 0.77 o
1652 3 3 5 -3 0.73 0.93 0.26 o
1653 3 3 5 -2 40.26 39.74 1.81 o
1654 3 3 5 -1 39.75 42.46 2.04 o
1655 4 3 -5 0 1.92 2.23 0.51 o
1655 3 3 5 0 1.92 2.23 0.51 o
1656 3 3 5 1 13.14 14.97 1.46 o
1657 3 3 5 2 15.73 16.25 1.70 o
1658 3 3 6 -4 0.94 0.85 0.22 o
1659 3 3 6 -3 41.42 44.95 1.74 o
1660 3 3 6 -2 8.83 8.02 0.85 o
1661 3 3 6 -1 8.92 7.27 0.89 o
1662 4 3 -6 0 75.05 102.03 3.66 o
1662 3 3 6 0 75.05 102.03 3.66 o
1663 3 -4 -9 3 4.70 3.78 0.61 o
1664 3 -4 -9 2 0.00 0.12 0.26 <
1665 3 -4 -9 1 4.72 3.38 0.88 o
1666 3 -4 -8 3 2.22 1.53 0.43 o
1667 3 -4 -8 2 11.08 11.55 1.21 o
1668 3 -4 -8 1 2.04 1.51 0.55 <
1669 4 -4 8 0 6.92 7.91 1.39 o
1669 3 -4 -8 0 6.92 7.91 1.39 o
1670 3 -4 -8 -1 8.00 8.16 1.69 o
1671 3 -4 -7 3 15.19 15.95 1.14 o
1672 3 -4 -7 2 0.10 -0.07 0.19 <
1673 3 -4 -7 1 14.36 16.52 1.65 o
1674 4 -4 7 0 42.42 60.45 3.56 o
1674 3 -4 -7 0 42.42 60.45 3.56 o
1675 3 -4 -7 -1 0.65 0.26 0.54 <
1676 3 -4 -7 -2 1.32 1.34 0.78 <
1677 3 -4 -6 3 2.33 2.53 0.42 o
1678 3 -4 -6 2 12.94 11.87 1.19 o
1679 3 -4 -6 1 2.60 2.53 0.64 o
1680 4 -4 6 0 13.50 15.71 1.64 o
1680 3 -4 -6 0 13.50 15.71 1.64 o
1681 3 -4 -6 -1 16.12 19.20 2.07 o
1682 3 -4 -6 -2 0.25 -0.02 0.31 <
1683 3 -4 -5 2 0.87 0.83 0.34 <
1684 3 -4 -5 1 13.83 13.10 1.32 o
1685 4 -4 5 0 12.50 15.43 1.61 o
1685 3 -4 -5 0 12.50 15.43 1.61 o
1686 3 -4 -5 -1 2.75 1.59 0.57 <
1687 3 -4 -5 -2 8.50 9.56 1.52 o
1688 3 -4 -5 -3 4.34 3.49 1.00 o
1689 3 4 -5 4 0.29 0.41 0.35 <
1690 3 -4 -4 2 47.55 48.02 2.06 o
1691 3 -4 -4 1 1.90 1.44 0.42 o
1692 4 -4 4 0 0.04 0.53 0.41 <
1692 3 -4 -4 0 0.04 0.53 0.41 <
1693 3 -4 -4 -1 9.88 9.05 1.32 o
1694 3 -4 -4 -2 3.22 1.85 0.61 o
1695 3 -4 -4 -3 3.60 2.12 0.75 <
1696 3 4 -4 4 1.48 1.86 0.57 o
1697 3 -4 -3 1 17.31 19.60 1.46 o
1698 4 -4 3 0 9.04 8.56 1.08 o
1698 3 -4 -3 0 9.04 8.56 1.08 o
1699 3 -4 -3 -1 2.43 1.18 0.45 <
1700 3 -4 -3 -2 8.44 7.86 1.30 o
1701 3 4 -3 3 6.71 5.78 1.11 o
1702 3 -4 -3 -3 6.71 6.47 1.33 o
1703 3 -4 -3 -4 0.70 0.77 0.50 <
1704 3 4 -3 4 0.70 0.83 0.63 <
1705 3 -4 -2 1 16.92 17.40 1.25 o
1706 4 -4 2 0 3.48 4.65 0.77 o
1706 3 -4 -2 0 3.48 4.65 0.77 o
1707 3 -4 -2 -1 19.02 15.67 1.54 o
1708 3 -4 -2 -2 2.48 1.85 0.62 <
1709 3 4 -2 2 2.48 1.47 0.58 <
1710 3 -4 -2 -3 3.64 3.79 1.00 o
1711 3 4 -2 3 3.64 3.44 0.86 o
1712 3 -4 -2 -4 2.99 5.64 1.19 o
1713 3 4 -2 4 2.99 4.75 0.97 o
1714 6 -3 2 9 3.78 0.53 0.55 <
1714 3 4 -2 5 3.78 0.53 0.55 <
1715 4 -4 1 0 110.56 120.04 3.59 o
1715 3 -4 -1 0 110.56 120.04 3.59 o
1716 3 -4 -1 -1 6.48 6.17 0.98 o
1717 3 4 -1 1 6.48 5.36 0.93 o
1718 3 -4 -1 -2 7.52 9.04 1.29 o
1719 3 4 -1 2 7.52 7.90 1.19 o
1720 3 4 -1 3 7.35 6.26 1.19 o
1721 3 -4 -1 -3 7.35 6.50 1.22 o
1722 3 4 -1 4 1.37 1.38 0.60 <
1723 3 -4 -1 -4 1.37 1.11 0.54 <
1724 6 -3 1 9 6.58 6.43 1.39 o
1724 3 4 -1 5 6.58 6.43 1.39 o
1725 3 -4 0 -1 54.86 62.09 2.73 o
1726 3 4 0 1 54.86 51.85 3.00 o
1727 3 4 0 2 0.58 0.38 0.43 <
1728 3 -4 0 -2 0.58 0.09 0.20 <
1729 3 -4 0 -3 6.19 7.63 1.21 o
1730 3 4 0 3 6.19 5.90 1.15 o
1731 3 4 0 4 10.36 24.24 2.53 o
1732 3 -4 0 -4 10.36 19.74 2.13 o
1733 6 -3 0 9 4.44 1.85 0.81 <
1733 3 4 0 5 4.44 1.85 0.81 <
1734 6 3 0 -9 4.44 2.03 0.89 <
1734 3 -4 0 -5 4.44 2.03 0.89 <
1735 4 4 -1 0 110.63 116.21 4.08 o
1735 3 4 1 0 110.63 116.21 4.08 o
1736 3 4 1 1 6.52 5.09 0.96 o
1737 3 -4 1 -2 7.38 10.25 1.14 o
1738 3 4 1 2 7.38 7.20 1.20 o
1739 3 4 1 3 7.64 6.34 1.27 o
1740 3 -4 1 -3 7.64 8.54 1.14 o
1741 3 -4 1 -4 1.38 2.34 0.66 o
1742 3 4 1 4 1.38 1.57 0.61 <
1743 6 3 -1 -9 6.57 7.56 1.39 o
1743 3 -4 1 -5 6.57 7.56 1.39 o
1744 6 -3 -1 9 6.57 6.05 1.44 o
1744 3 4 1 5 6.57 6.05 1.44 o
1745 3 4 2 -1 17.52 16.67 1.45 o
1746 4 4 -2 0 3.46 3.88 0.81 o
1746 3 4 2 0 3.46 3.88 0.81 o
1747 3 4 2 1 18.64 15.15 1.65 o
1748 3 4 2 2 2.50 2.15 0.70 o
1749 3 -4 2 -3 3.74 4.65 0.80 o
1750 3 4 2 3 3.74 2.55 0.83 o
1751 3 4 2 4 3.20 5.19 1.14 o
1752 3 -4 2 -4 3.20 5.88 0.97 o
1753 6 3 -2 -9 3.61 0.58 0.39 <
1753 3 -4 2 -5 3.61 0.58 0.39 <
1754 3 4 3 -2 1.57 0.92 0.29 o
1755 3 4 3 -1 17.73 17.67 1.51 o
1756 4 4 -3 0 9.07 7.88 1.10 o
1756 3 4 3 0 9.07 7.88 1.10 o
1757 3 4 3 1 2.35 0.75 0.37 <
1758 3 4 3 2 8.57 7.01 1.23 o
1759 3 4 3 3 6.76 5.92 1.19 o
1760 3 4 3 4 0.67 1.47 0.65 <
1761 3 -4 3 -4 0.67 1.18 0.32 o
1762 3 4 4 -3 1.50 1.36 0.41 o
1763 3 4 4 -2 47.65 43.49 2.26 o
1764 3 4 4 -1 1.69 1.28 0.44 <
1765 4 4 -4 0 0.04 0.24 0.23 <
1765 3 4 4 0 0.04 0.24 0.23 <
1766 3 4 4 1 10.30 9.35 1.28 o
1767 3 4 4 2 3.28 2.34 0.72 o
1768 3 4 4 3 3.50 2.03 0.76 <
1769 3 4 5 -5 3.30 3.33 0.49 o
1770 3 4 5 -4 6.61 6.64 0.76 o
1771 3 4 5 -3 14.08 13.66 1.17 o
1772 3 4 5 -2 0.86 0.36 0.25 <
1773 3 4 5 -1 13.11 12.40 1.26 o
1774 4 4 -5 0 12.47 14.55 1.47 o
1774 3 4 5 0 12.47 14.55 1.47 o
1775 3 4 5 1 2.79 2.92 0.78 o
1776 3 4 5 2 8.41 8.51 1.30 o
1777 3 4 5 3 4.22 4.01 1.02 o
1778 3 4 6 -6 0.40 0.14 0.09 <
1779 3 4 6 -5 15.93 14.01 0.95 o
1780 3 4 6 -4 7.60 6.79 0.71 o
1781 3 4 6 -3 2.49 1.88 0.42 o
1782 3 4 6 -2 12.99 10.14 1.06 o
1783 3 4 6 -1 2.45 2.30 0.59 o
1784 4 4 -6 0 13.51 17.19 1.65 o
1784 3 4 6 0 13.51 17.19 1.65 o
1785 3 4 6 1 15.97 17.39 1.77 o
1786 3 4 6 2 0.21 0.19 0.29 <
1787 3 4 7 -5 0.61 0.34 0.20 <
1788 3 4 7 -4 23.07 21.99 1.33 o
1789 3 4 7 -3 14.81 14.62 1.24 o
1790 3 4 7 -2 0.10 0.04 0.18 <
1791 3 4 7 -1 14.69 16.13 1.47 o
1792 4 4 -7 0 42.40 56.80 3.11 o
1792 3 4 7 0 42.40 56.80 3.11 o
1793 3 4 7 1 0.67 -0.10 0.36 <
1794 3 -5 -8 3 0.43 0.19 0.27 <
1795 3 -5 -8 2 0.42 0.67 0.40 <
1796 3 -5 -8 1 3.91 3.09 0.78 o
1797 3 -5 -7 3 1.47 1.30 0.42 o
1798 3 -5 -7 2 1.29 0.63 0.38 <
1799 3 -5 -7 1 0.24 -0.10 0.33 <
1800 4 -5 7 0 5.01 5.75 1.18 o
1800 3 -5 -7 0 5.01 5.75 1.18 o
1801 3 -5 -6 3 3.02 3.82 0.62 o
1802 3 -5 -6 2 2.51 3.72 0.71 o
1803 3 -5 -6 1 9.75 10.37 1.31 o
1804 4 -5 6 0 3.31 4.83 1.00 o
1804 3 -5 -6 0 3.31 4.83 1.00 o
1805 3 -5 -6 -1 0.39 0.19 0.35 <
1806 3 -5 -5 2 14.46 19.21 1.51 o
1807 3 -5 -5 1 0.47 0.29 0.37 <
1808 4 -5 5 0 11.22 14.25 1.65 o
1808 3 -5 -5 0 11.22 14.25 1.65 o
1809 3 -5 -5 -1 5.90 5.43 1.13 o
1810 3 -5 -4 2 2.95 3.79 0.63 o
1811 3 -5 -4 1 19.97 23.08 1.82 o
1812 4 -5 4 0 0.02 -0.25 0.27 <
1812 3 -5 -4 0 0.02 -0.25 0.27 <
1813 3 -5 -4 -1 6.75 6.41 1.13 o
1814 3 -5 -4 -2 7.86 6.08 1.15 o
1815 3 -5 -3 1 0.04 -0.13 0.24 <
1816 4 -5 3 0 14.41 19.44 1.81 o
1816 3 -5 -3 0 14.41 19.44 1.81 o
1817 3 -5 -3 -1 5.33 5.63 1.05 o
1818 3 -5 -3 -2 2.00 1.41 0.59 <
1819 3 5 -3 3 1.67 1.21 0.58 <
1820 3 -5 -2 1 18.66 20.79 1.56 o
1821 4 -5 2 0 0.94 1.01 0.43 <
1821 3 -5 -2 0 0.94 1.01 0.43 <
1822 3 -5 -2 -1 5.21 5.84 1.06 o
1823 3 -5 -2 -2 4.66 5.73 1.10 o
1824 3 5 -2 3 0.58 0.59 0.56 <
1825 3 -5 -2 -3 0.58 -0.22 0.53 <
1826 4 -5 1 0 11.96 16.90 1.48 o
1826 3 -5 -1 0 11.96 16.90 1.48 o
1827 3 -5 -1 -1 5.67 6.86 1.07 o
1828 3 5 -1 2 2.32 1.11 0.44 <
1829 3 -5 -1 -2 2.32 2.21 0.70 o
1830 3 5 -1 3 2.22 1.21 0.73 <
1831 3 -5 -1 -3 2.22 2.19 0.76 <
1832 3 5 -1 4 1.47 1.02 0.71 <
1833 3 5 0 1 0.20 0.20 0.42 <
1834 3 -5 0 -1 0.20 0.13 0.23 <
1835 3 5 0 2 2.00 0.58 0.34 <
1836 3 -5 0 -2 2.00 2.08 0.64 o
1837 3 -5 0 -3 0.44 -0.03 0.39 <
1838 3 5 0 3 0.44 0.46 0.40 <
1839 4 5 -1 0 11.99 14.99 1.68 o
1839 3 5 1 0 11.99 14.99 1.68 o
1840 3 5 1 1 5.64 5.43 1.15 o
1841 3 -5 1 -2 2.25 3.50 0.72 o
1842 3 5 1 2 2.25 1.44 0.65 <
1843 3 5 1 3 2.31 1.38 0.67 <
1844 3 -5 1 -3 2.31 3.01 0.76 o
1845 3 5 2 -1 19.26 19.29 1.78 o
1846 4 5 -2 0 0.93 0.75 0.41 <
1846 3 5 2 0 0.93 0.75 0.41 <
1847 3 5 2 1 5.07 4.82 1.02 o
1848 3 5 2 2 4.79 4.02 1.07 o
1849 3 5 2 3 0.60 0.40 0.48 <
1850 3 5 3 -2 25.33 29.86 2.18 o
1851 3 5 3 -1 0.04 -0.19 0.36 <
1852 4 5 -3 0 14.38 18.28 1.96 o
1852 3 5 3 0 14.38 18.28 1.96 o
1853 3 5 3 1 5.35 4.64 1.04 o
1854 3 5 3 2 2.01 0.59 0.52 <
1855 3 5 4 -3 2.93 4.27 0.84 o
1856 3 5 4 -2 2.89 2.77 0.64 o
1857 3 5 4 -1 19.55 20.76 1.92 o
1858 4 5 -4 0 0.02 0.12 0.26 <
1858 3 5 4 0 0.02 0.12 0.26 <
1859 3 5 4 1 6.82 4.71 0.98 o
1860 3 5 4 2 7.78 5.27 1.03 o
1861 3 5 5 -4 0.73 0.13 0.30 <
1862 3 5 5 -3 14.79 17.86 1.64 o
1863 3 5 5 -2 14.07 15.94 1.57 o
1864 3 5 5 -1 0.47 0.20 0.27 <
1865 4 5 -5 0 11.24 11.91 1.48 o
1865 3 5 5 0 11.24 11.91 1.48 o
1866 3 5 5 1 5.92 3.71 0.87 o
1867 3 5 5 2 0.64 0.13 0.30 <
1868 3 5 6 -6 0.55 0.11 0.23 <
1869 3 5 6 -5 2.22 1.29 0.41 o
1870 3 5 6 -4 9.28 9.29 1.12 o
1871 3 5 6 -3 2.85 2.04 0.49 o
1872 3 5 6 -2 2.65 2.29 0.62 o
1873 3 5 6 -1 9.78 8.35 1.20 o
1874 4 5 -6 0 3.31 3.53 0.86 o
1874 3 5 6 0 3.31 3.53 0.86 o
1875 3 5 6 1 0.42 0.32 0.37 <
1876 3 5 7 -6 2.11 0.76 0.18 o
1877 3 5 7 -5 2.47 1.40 0.35 o
1878 3 5 7 -4 0.31 0.10 0.19 <
1879 3 5 7 -3 1.35 0.65 0.26 <
1880 3 5 7 -2 1.43 0.86 0.40 <
1881 3 5 7 -1 0.25 0.37 0.31 <
1882 4 5 -7 0 5.01 5.82 1.07 o
1882 3 5 7 0 5.01 5.82 1.07 o
1883 3 5 7 1 1.69 1.73 0.71 <
1884 3 5 8 -4 4.32 2.98 0.58 o
1885 3 5 8 -3 0.49 0.16 0.31 <
1886 3 5 8 -2 0.35 0.50 0.39 <
1887 3 5 8 -1 3.99 3.35 0.87 o
1888 3 -6 -7 3 0.13 -0.08 0.21 <
1889 3 -6 -7 2 1.65 1.93 0.61 o
1890 3 -6 -6 2 0.51 0.37 0.35 <
1891 3 -6 -6 1 1.16 1.11 0.43 <
1892 3 -6 -5 2 3.63 5.31 0.87 o
1893 3 -6 -5 1 3.47 4.51 0.91 o
1894 4 -6 5 0 0.15 -0.14 0.44 <
1894 3 -6 -5 0 0.15 -0.14 0.44 <
1895 3 -6 -4 1 0.67 0.56 0.24 <
1896 4 -6 4 0 6.34 10.59 1.46 o
1896 3 -6 -4 0 6.34 10.59 1.46 o
1897 3 -6 -3 1 5.13 7.50 1.05 o
1898 4 -6 3 0 5.12 7.56 1.17 o
1898 3 -6 -3 0 5.12 7.56 1.17 o
1899 3 -6 -3 -1 2.84 3.51 0.79 o
1900 4 -6 2 0 13.86 21.30 1.88 o
1900 3 -6 -2 0 13.86 21.30 1.88 o
1901 3 -6 -2 -1 0.02 0.45 0.41 <
1902 3 -6 -1 -1 1.43 0.83 0.37 <
1903 3 6 -1 2 1.00 0.57 0.57 <
1904 3 6 1 1 1.32 0.08 0.47 <
1905 4 6 -2 0 13.84 17.63 2.11 o
1905 3 6 2 0 13.84 17.63 2.11 o
1906 3 6 2 1 0.01 0.32 0.48 <
1907 3 6 3 -1 5.02 4.54 0.99 o
1908 4 6 -3 0 5.12 5.30 1.19 o
1908 3 6 3 0 5.12 5.30 1.19 o
1909 3 6 3 1 2.85 1.40 0.69 <
1910 3 6 4 -2 2.77 2.86 0.87 o
1911 3 6 4 -1 0.68 0.85 0.45 <
1912 4 6 -4 0 6.35 7.57 1.32 o
1912 3 6 4 0 6.35 7.57 1.32 o
1913 3 6 5 -3 0.10 0.23 0.41 <
1914 3 6 5 -2 3.53 3.58 0.95 o
1915 3 6 5 -1 3.60 1.80 0.64 <
1916 4 6 -5 0 0.15 0.13 0.29 <
1916 3 6 5 0 0.15 0.13 0.29 <
1917 3 6 6 -5 1.15 1.35 0.67 <
1918 3 6 6 -4 0.61 0.13 0.28 <
1919 3 6 6 -3 3.58 3.08 0.77 o
1920 3 6 6 -2 0.57 0.34 0.42 <
1921 3 6 6 -1 1.07 0.83 0.53 <
1922 4 6 -6 0 3.88 2.95 0.92 o
1922 3 6 6 0 3.88 2.95 0.92 o
1923 3 6 7 -4 1.76 0.57 0.39 <
1924 3 6 7 -3 0.13 0.16 0.25 <
1925 3 6 7 -2 1.65 0.65 0.31 <
1926 3 7 3 -1 0.60 0.31 0.35 <
1927 3 7 4 -2 1.72 1.94 0.73 <
1928 3 7 5 -3 0.36 0.23 0.48 <
1929 3 7 5 -2 0.23 0.73 0.59 <
1930 4 0 -7 5 10.79 10.79 0.90 o
1931 4 0 -7 6 1.60 0.92 0.34 <
1932 4 0 -6 4 6.69 6.44 0.65 o
1933 4 0 -6 5 14.65 13.37 0.97 o
1934 4 0 -6 6 0.99 0.61 0.21 <
1935 4 0 -5 3 0.11 0.13 0.12 <
1936 4 0 -5 4 2.23 2.60 0.38 o
1937 4 0 -5 5 9.26 10.14 0.93 o
1938 4 0 -4 2 3.39 4.46 0.45 o
1939 4 0 -4 3 60.30 71.64 1.91 o
1940 4 0 -4 4 0.01 0.00 0.07 <
1941 4 0 -3 2 223.04 274.25 3.01 o
1942 4 0 3 -1 6.53 7.09 0.47 o
1943 4 0 4 -2 3.36 4.57 0.45 o
1944 4 0 5 -2 55.42 63.03 1.98 o
1945 4 0 6 -2 10.44 11.83 0.93 o
1946 4 0 6 -3 16.40 17.06 0.98 o
1947 4 0 7 -2 2.18 2.17 0.39 o
1948 4 0 7 -3 11.50 12.79 0.93 o
1949 4 0 8 -3 36.09 34.70 1.58 o
1950 4 0 9 -3 0.11 -0.20 0.21 <
1951 4 1 -7 4 2.28 1.63 0.35 o
1952 4 1 -7 5 2.43 1.78 0.47 o
1953 4 -1 -6 6 2.27 1.23 0.24 o
1954 4 1 -6 3 9.70 9.66 0.95 o
1955 4 1 -6 4 34.74 36.90 1.90 o
1956 4 1 -6 5 1.73 2.00 0.45 o
1957 4 -1 -5 5 5.48 3.12 0.35 o
1958 4 1 -5 2 47.31 54.22 2.11 o
1959 4 1 -5 3 26.99 30.59 1.64 o
1960 4 1 -5 4 5.03 3.66 0.61 o
1961 5 -1 4 -1 428.69 543.83 6.36 o
1961 4 1 -4 1 428.69 543.83 6.36 o
1962 4 1 -4 2 24.29 27.15 1.45 o
1963 4 1 -4 3 23.47 23.28 1.48 o
1964 5 -1 3 -1 33.93 40.72 1.60 o
1964 4 1 -3 1 33.93 40.72 1.60 o
1965 4 1 -3 2 117.89 119.72 2.95 o
1966 5 -1 2 -1 921.96 971.61 7.31 o
1966 4 1 -2 1 921.96 971.61 7.31 o
1967 4 -1 0 1 75.50 48.45 1.25 o
1968 4 1 0 -1 75.50 48.05 1.21 o
1969 5 1 -2 1 922.19 1016.08 7.35 o
1969 4 -1 2 -1 922.19 1016.08 7.35 o
1970 5 1 -3 1 34.01 39.87 1.61 o
1970 4 -1 3 -1 34.01 39.87 1.61 o
1971 4 -1 3 -2 118.06 117.94 2.60 o
1972 5 1 -4 1 428.10 545.34 6.59 o
1972 4 -1 4 -1 428.10 545.34 6.59 o
1973 4 -1 4 -2 23.91 27.50 1.42 o
1974 5 1 -5 1 62.21 71.68 2.55 o
1974 4 -1 5 -1 62.21 71.68 2.55 o
1975 4 -1 5 -2 47.65 55.69 2.23 o
1976 5 1 -6 1 122.29 137.39 3.75 o
1976 4 -1 6 -1 122.29 137.39 3.75 o
1977 4 -1 6 -2 16.60 15.75 1.22 o
1978 4 -1 6 -3 9.63 9.64 0.90 o
1979 4 1 7 -3 4.41 3.81 0.50 o
1980 4 -1 7 -2 4.46 5.43 0.79 o
1981 4 -1 7 -3 21.16 20.10 1.31 o
1982 4 1 8 -3 7.53 7.31 0.75 o
1983 4 -1 8 -2 9.07 10.17 1.06 o
1984 4 -1 8 -3 6.71 5.57 0.73 o
1985 4 -1 9 -2 14.46 14.98 1.32 o
1986 4 -1 9 -3 6.25 6.09 0.82 o
1987 4 2 -8 3 3.12 3.03 0.65 o
1988 4 2 -8 4 1.61 0.75 0.34 <
1989 5 -2 7 -2 5.45 5.59 0.83 o
1989 4 2 -7 2 5.45 5.59 0.83 o
1990 4 2 -7 3 5.90 5.48 0.82 o
1991 4 2 -7 4 4.65 4.54 0.78 o
1992 4 2 -6 1 11.00 11.83 1.25 o
1993 5 -2 6 -2 62.52 56.18 2.59 o
1993 4 2 -6 2 62.52 56.18 2.59 o
1994 4 2 -6 3 11.38 10.25 1.16 o
1995 4 2 -6 4 3.38 2.71 0.63 o
1996 4 2 -6 5 3.33 2.68 0.73 o
1997 4 2 -5 1 45.01 46.44 2.29 o
1998 5 -2 5 -2 23.25 20.33 1.65 o
1998 4 2 -5 2 23.25 20.33 1.65 o
1999 4 2 -5 3 25.37 26.35 1.90 o
2000 4 2 -5 4 12.64 11.13 1.23 o
2001 4 2 -4 1 37.59 41.30 2.13 o
2002 5 -2 4 -2 217.23 242.86 5.71 o
2002 4 2 -4 2 217.23 242.86 5.71 o
2003 4 2 -4 3 0.17 0.10 0.14 <
2004 4 -2 -3 4 3.19 2.96 0.49 o
2005 4 -2 -3 3 88.07 88.10 1.48 o
2006 4 2 -3 -1 2.86 2.74 0.53 o
2007 4 2 -3 1 85.88 98.06 3.24 o
2008 5 -2 3 -2 7.34 6.88 0.95 o
2008 4 2 -3 2 7.34 6.88 0.95 o
2009 4 -2 -2 3 60.17 56.26 1.59 o
2010 4 -2 -2 2 21.12 21.80 0.91 o
2011 4 2 -2 -1 168.08 181.51 3.82 o
2012 4 2 -2 1 58.70 61.60 2.52 o
2013 4 -2 -1 2 24.69 19.69 1.01 o
2014 4 2 -1 -1 318.93 298.58 4.88 o
2015 4 -2 -1 1 318.93 298.52 4.06 o
2016 4 -2 0 2 1.70 0.77 0.23 o
2017 4 2 0 -2 1.70 0.56 0.19 <
2018 4 -2 0 1 87.80 73.38 2.02 o
2019 4 2 0 -1 87.80 54.18 2.12 o
2020 4 2 1 -2 23.02 20.19 1.09 o
2021 4 2 1 -1 318.86 299.39 4.37 o
2022 4 -2 1 1 318.86 302.19 4.89 o
2023 4 2 2 -2 21.92 25.27 1.17 o
2024 4 -2 2 1 168.08 176.55 4.09 o
2025 4 -2 2 -1 57.04 60.06 2.46 o
2026 4 2 3 -2 168.33 183.12 2.76 o
2027 4 -2 3 1 2.86 2.51 0.51 o
2028 4 -2 3 -1 85.39 91.81 3.10 o
2029 4 -2 4 -1 38.11 38.35 2.13 o
2030 5 2 -4 2 217.45 232.01 5.31 o
2030 4 -2 4 -2 217.45 232.01 5.31 o
2031 4 -2 5 -1 44.68 50.38 2.61 o
2032 5 2 -5 2 23.19 20.44 1.57 o
2032 4 -2 5 -2 23.19 20.44 1.57 o
2033 4 -2 6 -1 11.70 12.46 1.32 o
2034 5 2 -6 2 62.23 60.16 2.87 o
2034 4 -2 6 -2 62.23 60.16 2.87 o
2035 4 -2 6 -3 11.68 9.98 1.06 o
2036 4 -2 7 -1 12.59 12.81 1.38 o
2037 5 2 -7 2 5.50 5.59 0.90 o
2037 4 -2 7 -2 5.50 5.59 0.90 o
2038 4 -2 7 -3 6.09 6.41 0.89 o
2039 4 -2 8 -1 7.40 7.74 1.08 o
2040 5 2 -8 2 26.24 24.78 1.75 o
2040 4 -2 8 -2 26.24 24.78 1.75 o
2041 4 -2 8 -3 2.97 3.12 0.61 o
2042 5 2 -9 2 0.68 0.34 0.25 <
2042 4 -2 9 -2 0.68 0.34 0.25 <
2043 4 3 -8 2 4.37 3.53 0.77 o
2044 4 3 -8 3 4.26 9.22 1.30 o
2045 4 3 -7 1 27.36 31.95 2.29 o
2046 4 3 -7 2 5.28 4.74 0.86 o
2047 4 3 -7 3 1.44 3.54 0.76 o
2048 4 3 -6 1 0.94 0.70 0.31 <
2049 4 3 -6 2 9.48 8.05 1.20 o
2050 4 3 -6 3 4.54 11.41 1.46 o
2051 4 3 -6 4 0.48 0.60 0.44 <
2052 4 -3 -5 7 1.97 1.58 0.40 o
2053 4 3 -5 1 10.88 12.89 1.45 o
2054 4 3 -5 2 13.44 11.63 1.40 o
2055 4 3 -5 3 4.53 12.21 1.54 o
2056 4 -3 -4 6 13.75 14.97 1.14 o
2057 4 -3 -4 5 1.54 1.03 0.21 o
2058 4 3 -4 -1 16.00 18.12 1.66 o
2059 4 3 -4 1 4.40 4.01 0.82 o
2060 4 3 -4 2 0.97 0.93 0.35 <
2061 4 3 -4 3 13.42 39.51 2.80 o
2062 4 -3 -3 5 33.30 35.18 1.72 o
2063 4 -3 -3 4 3.25 2.99 0.39 o
2064 4 -3 -3 3 15.84 17.26 0.94 o
2065 4 3 -3 -2 30.17 29.24 2.18 o
2066 4 3 -3 -1 30.65 29.02 1.91 o
2067 4 3 -3 1 3.76 3.06 0.70 o
2068 4 3 -3 2 32.19 32.88 2.43 o
2069 4 -3 -2 4 0.31 0.02 0.09 <
2070 4 -3 -2 3 60.16 51.72 1.85 o
2071 4 -3 -2 2 43.32 43.60 1.74 o
2072 4 3 -2 -2 43.32 41.30 2.25 o
2073 4 3 -2 -1 40.53 40.34 2.29 o
2074 4 3 -2 1 0.12 0.10 0.04 <
2075 4 -3 -1 4 71.47 66.18 2.66 o
2076 4 -3 -1 3 3.26 2.52 0.48 o
2077 4 3 -1 -2 77.81 70.66 2.83 o
2078 4 -3 -1 2 77.81 64.12 2.37 o
2079 4 -3 -1 1 77.96 71.33 2.34 o
2080 4 3 -1 -1 77.96 66.64 2.85 o
2081 4 -3 0 3 213.46 211.85 4.97 o
2082 4 3 0 -3 213.46 209.04 4.55 o
2083 4 3 0 -2 1.75 0.89 0.34 <
2084 4 -3 0 2 1.75 1.18 0.38 o
2085 4 3 0 -1 1.28 0.88 0.36 <
2086 4 -3 0 1 1.28 1.06 0.31 o
2087 4 3 1 -3 3.34 2.49 0.47 o
2088 4 3 1 -2 78.97 67.53 2.60 o
2089 4 -3 1 2 78.97 66.53 2.85 o
2090 4 3 1 -1 76.66 74.21 2.82 o
2091 4 -3 1 1 76.66 66.52 2.71 o
2092 4 3 2 -3 60.22 55.25 2.16 o
2093 4 3 2 -2 41.81 39.18 1.89 o
2094 4 -3 2 2 41.81 41.69 2.46 o
2095 4 -3 2 1 41.97 40.86 2.38 o
2096 4 -3 2 -1 0.07 0.01 0.02 <
2097 4 3 3 -3 15.76 15.19 1.09 o
2098 4 -3 3 2 30.33 32.12 2.18 o
2099 4 3 3 -2 30.33 32.64 1.60 o
2100 4 -3 3 1 30.40 32.63 2.19 o
2101 4 -3 3 -1 3.45 3.21 0.65 o
2102 4 3 4 -4 4.64 2.79 0.35 o
2103 4 3 4 -3 19.35 18.94 1.13 o
2104 4 -3 4 1 15.66 15.66 1.63 o
2105 4 -3 4 -1 4.37 4.12 0.76 o
2106 4 -3 4 -2 1.05 1.07 0.35 o
2107 4 3 5 -4 10.85 5.92 0.45 o
2108 4 3 5 -3 0.64 1.13 0.27 o
2109 4 -3 5 1 35.09 38.48 2.61 o
2110 4 -3 5 -1 11.60 13.24 1.50 o
2111 4 -3 5 -2 13.89 13.81 1.45 o
2112 4 3 6 -4 0.83 0.33 0.10 o
2113 4 -3 6 -1 0.96 0.92 0.39 <
2114 4 -3 6 -2 9.29 8.60 1.17 o
2115 4 -3 6 -3 4.67 12.00 1.31 o
2116 4 -3 7 -1 27.00 27.67 2.19 o
2117 4 -3 7 -2 5.31 5.02 0.89 o
2118 4 -3 7 -3 1.46 4.03 0.77 o
2119 4 3 8 -4 1.16 0.43 0.11 o
2120 4 -3 8 -1 1.35 0.77 0.37 <
2121 4 -3 8 -2 4.42 3.16 0.73 o
2122 4 -3 8 -3 4.22 12.03 1.36 o
2123 4 -3 9 -1 3.98 2.34 0.66 o
2124 4 4 -8 1 7.06 6.07 1.09 o
2125 4 4 -7 1 0.58 0.00 0.21 <
2126 4 4 -7 2 1.16 0.86 0.44 <
2127 4 4 -6 -1 2.29 2.12 0.59 o
2128 4 4 -6 1 14.23 14.84 1.73 o
2129 4 4 -6 2 0.22 0.56 0.47 <
2130 4 4 -6 3 1.55 0.92 0.55 <
2131 5 -7 5 5 0.67 -0.13 0.19 <
2131 4 -4 -5 8 0.67 -0.13 0.19 <
2132 4 -4 -5 7 4.06 7.53 0.69 o
2133 4 -4 -5 6 7.78 11.29 0.75 o
2134 4 4 -5 -1 12.21 11.57 1.48 o
2135 4 4 -5 1 2.42 1.38 0.51 <
2136 4 4 -5 2 7.50 8.39 1.36 o
2137 4 4 -5 3 3.83 3.86 1.03 o
2138 4 -4 -4 7 3.26 4.49 0.71 o
2139 4 -4 -4 6 2.95 3.36 0.47 o
2140 4 -4 -4 5 8.95 10.42 0.77 o
2141 4 4 -4 -2 41.99 43.67 2.83 o
2142 4 4 -4 -1 1.68 0.84 0.39 <
2143 4 4 -4 1 8.73 8.10 1.30 o
2144 4 4 -4 2 2.85 1.73 0.69 <
2145 4 -4 -3 6 7.74 9.77 1.10 o
2146 4 -4 -3 5 1.62 1.57 0.37 o
2147 4 -4 -3 4 4.13 3.26 0.51 o
2148 4 -4 -3 3 14.27 16.28 1.11 o
2149 4 4 -3 -2 1.38 0.50 0.32 <
2150 4 4 -3 -1 15.28 16.86 1.79 o
2151 4 4 -3 1 2.15 0.98 0.41 <
2152 4 4 -3 2 7.45 7.08 1.33 o
2153 4 -4 -2 5 16.43 14.47 1.36 o
2154 4 -4 -2 4 2.06 1.49 0.38 o
2155 4 4 -2 -3 16.85 16.14 1.64 o
2156 4 -4 -2 3 16.85 13.05 1.13 o
2157 4 4 -2 -2 73.15 73.12 3.53 o
2158 4 -4 -2 2 73.15 71.61 2.53 o
2159 4 4 -2 -1 14.94 15.17 1.66 o
2160 4 4 -2 1 16.79 13.74 1.78 o
2161 4 -4 -1 5 6.04 5.39 0.98 o
2162 4 -4 -1 4 52.70 52.62 2.61 o
2163 4 4 -1 -3 29.60 25.07 1.97 o
2164 4 -4 -1 3 29.60 24.52 1.68 o
2165 4 4 -1 -2 1.47 0.27 0.19 <
2166 4 -4 -1 2 1.47 0.60 0.18 o
2167 4 -4 -1 1 29.26 27.13 1.66 o
2168 4 4 -1 -1 29.26 26.54 2.47 o
2169 4 -4 0 4 38.69 41.82 2.61 o
2170 4 4 0 -4 38.69 41.74 2.40 o
2171 4 -4 0 3 0.70 1.01 0.45 <
2172 4 4 0 -3 0.70 1.07 0.41 <
2173 4 4 0 -2 13.26 9.72 1.30 o
2174 4 -4 0 2 13.26 9.45 1.14 o
2175 4 -4 0 1 0.80 1.26 0.42 <
2176 4 4 0 -1 0.80 1.03 0.41 <
2177 4 4 1 -4 52.23 52.80 2.56 o
2178 4 -4 1 3 29.51 27.40 2.16 o
2179 4 4 1 -3 29.51 27.04 1.97 o
2180 4 -4 1 2 1.48 0.38 0.24 <
2181 4 4 1 -2 1.48 0.62 0.35 <
2182 4 -4 1 1 29.28 21.36 1.77 o
2183 4 4 1 -1 29.28 27.50 2.14 o
2184 4 4 2 -4 2.25 1.66 0.39 o
2185 4 4 2 -3 16.30 15.02 1.44 o
2186 4 -4 2 3 16.30 13.13 1.68 o
2187 4 4 2 -2 73.00 77.66 3.34 o
2188 4 -4 2 2 73.00 72.88 3.57 o
2189 4 -4 2 1 15.47 14.31 1.57 o
2190 4 -4 2 -1 16.46 14.77 1.43 o
2191 4 4 3 -4 3.99 2.79 0.56 o
2192 4 -4 3 3 13.90 13.70 1.80 o
2193 4 4 3 -3 13.90 17.39 1.51 o
2194 4 4 3 -2 1.39 0.76 0.34 <
2195 4 -4 3 2 1.39 0.78 0.40 <
2196 4 -4 3 1 15.66 14.72 1.69 o
2197 4 -4 3 -1 2.08 1.71 0.53 o
2198 4 4 4 -4 0.07 -0.18 0.23 <
2199 4 4 4 -3 1.32 1.17 0.32 o
2200 4 -4 4 2 42.07 40.56 3.01 o
2201 4 -4 4 1 1.50 0.86 0.45 <
2202 4 -4 4 -1 9.10 10.05 1.36 o
2203 4 -4 4 -2 2.89 4.12 0.81 o
2204 4 4 5 -4 5.84 6.37 0.71 o
2205 4 4 5 -3 12.44 12.03 1.09 o
2206 4 -4 5 2 0.76 0.13 0.12 <
2207 4 -4 5 1 11.58 11.08 1.52 o
2208 4 -4 5 -1 2.46 2.41 0.68 o
2209 4 -4 5 -2 7.42 9.83 1.31 o
2210 4 4 6 -4 6.71 7.23 0.77 o
2211 4 -4 6 1 2.16 1.36 0.55 <
2212 4 -4 6 -1 14.10 16.09 1.84 o
2213 4 -4 6 -2 0.19 0.45 0.27 <
2214 4 4 7 -4 20.37 17.40 1.14 o
2215 4 -4 7 1 12.97 13.97 1.80 o
2216 4 -4 7 -1 0.59 0.34 0.15 <
2217 4 -4 7 -2 1.18 0.67 0.33 <
2218 4 -4 8 -1 6.98 4.62 1.01 o
2219 4 5 -7 -1 0.21 0.17 0.16 <
2220 4 5 -7 1 1.51 0.65 0.42 <
2221 4 5 -6 -2 2.21 1.95 0.63 o
2222 4 5 -6 -1 8.61 8.19 1.42 o
2223 4 5 -6 1 0.34 -0.09 0.30 <
2224 4 5 -6 2 1.43 0.76 0.51 <
2225 5 -6 5 6 0.93 0.40 0.11 o
2225 4 -5 -5 7 0.93 0.40 0.11 o
2226 4 -5 -5 6 5.37 12.13 0.95 o
2227 4 5 -5 -2 12.77 13.43 1.82 o
2228 4 5 -5 -1 0.42 0.06 0.12 <
2229 4 5 -5 1 5.21 3.72 1.00 o
2230 4 5 -5 2 0.55 0.33 0.38 <
2231 4 -5 -4 8 0.16 0.88 0.41 <
2232 5 -6 4 6 11.37 13.94 1.26 o
2232 4 -5 -4 7 11.37 13.94 1.26 o
2233 4 -5 -4 6 6.55 16.12 1.26 o
2234 4 -5 -4 5 0.07 -0.10 0.12 <
2235 4 5 -4 -3 2.52 2.49 0.75 o
2236 4 5 -4 -2 2.61 1.93 0.61 o
2237 4 5 -4 -1 17.64 16.68 2.03 o
2238 4 5 -4 1 5.96 6.16 1.30 o
2239 4 5 -4 2 6.94 7.67 1.61 o
2240 5 -6 3 6 6.15 4.20 0.85 o
2240 4 -5 -3 7 6.15 4.20 0.85 o
2241 4 -5 -3 6 4.64 14.50 1.40 o
2242 4 -5 -3 5 7.20 8.63 0.99 o
2243 4 -5 -3 4 0.20 0.16 0.12 <
2244 4 5 -3 -3 23.42 26.02 2.40 o
2245 4 5 -3 -2 22.09 22.31 2.27 o
2246 4 5 -3 -1 0.03 0.05 0.07 <
2247 4 5 -3 1 4.71 6.23 1.37 o
2248 4 -5 -2 6 4.95 12.89 1.51 o
2249 4 -5 -2 5 0.35 0.24 0.14 <
2250 4 5 -2 -4 15.78 17.29 1.89 o
2251 4 -5 -2 4 15.78 15.63 1.44 o
2252 4 5 -2 -3 2.01 2.21 0.72 o
2253 4 -5 -2 3 2.01 2.08 0.56 o
2254 4 5 -2 -2 1.68 2.10 0.71 <
2255 4 5 -2 -1 16.48 15.92 1.95 o
2256 4 -5 -1 6 5.23 13.04 1.71 o
2257 4 -5 -1 5 4.73 7.01 1.15 o
2258 4 -5 -1 4 0.82 0.08 0.11 <
2259 4 5 -1 -4 0.82 0.67 0.39 <
2260 4 -5 -1 3 4.95 4.95 0.86 o
2261 4 5 -1 -3 4.95 5.01 1.04 o
2262 4 -5 -1 2 4.27 5.43 0.91 o
2263 4 5 -1 -2 4.27 4.82 1.04 o
2264 4 5 -1 -1 0.72 0.55 0.36 <
2265 4 -5 0 5 2.93 2.48 0.76 o
2266 4 5 0 -4 18.23 19.33 1.85 o
2267 4 -5 0 4 18.23 18.44 1.85 o
2268 4 5 0 -3 0.14 3.40 1.06 o
2269 4 -5 0 3 0.14 4.51 1.24 o
2270 4 5 0 -2 0.04 0.10 0.21 <
2271 4 -5 0 2 0.04 0.06 0.12 <
2272 4 -5 0 1 18.37 19.96 1.72 o
2273 4 5 0 -1 18.37 16.40 1.81 o
2274 4 5 1 -5 4.53 6.42 1.02 o
2275 4 -5 1 4 0.83 0.50 0.41 <
2276 4 5 1 -4 0.83 0.32 0.35 <
2277 4 -5 1 3 4.70 4.40 1.02 o
2278 4 5 1 -3 4.70 4.43 0.92 o
2279 4 5 1 -2 4.50 4.57 1.07 o
2280 4 -5 1 2 4.50 4.63 0.97 o
2281 4 -5 1 1 0.71 0.43 0.30 <
2282 4 5 1 -1 0.71 0.20 0.24 <
2283 4 5 2 -5 0.37 0.08 0.10 <
2284 4 -5 2 4 15.36 15.27 2.02 o
2285 4 5 2 -4 15.36 16.05 1.68 o
2286 4 5 2 -3 2.08 2.25 0.67 o
2287 4 -5 2 3 2.08 1.55 0.59 <
2288 4 5 2 -2 1.61 2.32 0.63 o
2289 4 -5 2 2 1.61 1.40 0.52 <
2290 4 -5 2 1 17.01 14.61 1.67 o
2291 4 5 3 -5 7.40 7.19 0.95 o
2292 4 5 3 -4 0.19 -0.26 0.35 <
2293 4 -5 3 3 23.14 24.72 2.48 o
2294 4 5 3 -3 23.14 25.60 2.18 o
2295 4 -5 3 2 22.36 22.61 2.36 o
2296 4 -5 3 1 0.04 -0.04 0.22 <
2297 4 -5 3 -1 4.73 7.38 1.17 o
2298 4 5 4 -5 0.06 -0.28 0.24 <
2299 4 5 4 -4 16.78 19.60 1.73 o
2300 4 -5 4 3 2.59 2.37 0.87 <
2301 4 5 4 -3 2.59 12.34 1.77 o
2302 4 -5 4 2 2.55 3.01 0.88 o
2303 4 -5 4 1 17.26 15.40 1.96 o
2304 4 -5 4 -1 6.02 8.16 1.26 o
2305 4 5 5 -5 5.44 5.44 0.77 o
2306 4 5 5 -4 0.64 -0.17 0.26 <
2307 4 -5 5 2 12.42 12.63 1.87 o
2308 4 -5 5 1 0.42 0.22 0.32 <
2309 4 -5 5 -1 5.22 4.63 0.99 o
2310 4 -5 5 -2 0.56 0.49 0.20 <
2311 4 5 6 -5 1.96 1.23 0.37 o
2312 4 5 6 -4 8.20 8.71 0.99 o
2313 4 -5 6 2 2.34 1.74 0.59 <
2314 4 -5 6 1 8.63 8.42 1.51 o
2315 4 -5 6 -1 0.37 0.61 0.43 <
2316 4 -5 6 -2 1.40 1.38 0.57 <
2317 4 5 7 -5 2.18 1.74 0.37 o
2318 4 -5 7 1 0.22 -0.09 0.31 <
2319 4 -5 7 -1 1.50 1.37 0.68 <
2320 4 -5 8 1 3.52 1.82 0.70 <
2321 4 6 -6 -2 0.45 0.08 0.06 <
2322 4 6 -6 -1 1.02 0.38 0.36 <
2323 4 -6 -5 7 0.63 1.09 0.25 o
2324 4 6 -5 -3 0.09 0.06 0.09 <
2325 4 6 -5 -2 3.20 2.77 0.91 o
2326 4 6 -5 -1 3.06 2.49 0.93 <
2327 4 6 -5 1 0.67 0.24 0.31 <
2328 4 -6 -4 7 0.20 -0.13 0.15 <
2329 5 -5 4 7 13.62 12.59 1.28 o
2329 4 -6 -4 6 13.62 12.59 1.28 o
2330 4 -6 -4 5 1.04 1.81 0.39 o
2331 4 6 -4 -4 2.50 2.19 0.84 <
2332 4 6 -4 -3 7.11 7.61 1.37 o
2333 4 6 -4 -2 2.46 1.68 0.65 <
2334 4 6 -4 -1 0.60 0.75 0.51 <
2335 4 6 -4 1 0.05 0.02 0.20 <
2336 4 -6 -3 8 1.52 1.46 0.55 <
2337 4 -6 -3 7 2.38 4.23 0.84 o
2338 5 -5 3 7 5.35 5.03 0.84 o
2338 4 -6 -3 6 5.35 5.03 0.84 o
2339 4 -6 -3 5 4.13 6.99 1.01 o
2340 4 6 -3 -4 2.04 1.90 0.72 <
2341 4 -6 -3 4 2.04 3.05 0.57 o
2342 4 6 -3 -3 0.01 -0.30 0.34 <
2343 4 6 -3 -2 2.23 1.76 0.74 <
2344 4 6 -3 -1 4.53 3.94 1.06 o
2345 4 6 -3 1 2.51 2.61 1.01 <
2346 4 -6 -2 7 0.01 -0.05 0.13 <
2347 5 -5 2 7 12.22 14.60 1.67 o
2347 4 -6 -2 6 12.22 14.60 1.67 o
2348 4 -6 -2 5 1.55 2.41 0.66 o
2349 4 6 -2 -4 0.32 0.15 0.16 <
2350 4 -6 -2 4 0.32 0.39 0.28 <
2351 4 -6 -2 3 7.89 8.68 1.14 o
2352 4 6 -2 -3 7.89 7.08 1.46 o
2353 4 6 -2 -2 0.41 0.68 0.55 <
2354 4 6 -2 -1 1.40 1.37 0.66 <
2355 5 -5 1 7 4.20 2.71 0.82 o
2355 4 -6 -1 6 4.20 2.71 0.82 o
2356 4 -6 -1 5 4.04 5.98 1.07 o
2357 4 6 -1 -5 4.04 5.36 1.29 o
2358 4 6 -1 -4 4.41 4.92 1.05 o
2359 4 -6 -1 4 4.41 5.03 0.96 o
2360 4 6 -1 -3 0.07 -0.14 0.20 <
2361 4 -6 -1 3 0.07 0.07 0.20 <
2362 4 -6 -1 2 4.33 6.37 0.98 o
2363 4 6 -1 -2 4.33 5.43 1.30 o
2364 4 6 -1 -1 3.53 3.64 1.05 o
2365 5 -5 0 7 4.43 4.77 1.14 o
2365 4 -6 0 6 4.43 4.77 1.14 o
2366 4 -6 0 5 0.75 2.77 1.09 <
2367 4 6 0 -5 0.75 2.42 0.79 o
2368 4 6 0 -4 0.00 0.08 0.07 <
2369 4 -6 0 4 0.00 0.00 0.11 <
2370 4 6 0 -3 6.97 6.39 1.39 o
2371 4 -6 0 3 6.97 7.10 1.19 o
2372 4 6 0 -2 0.02 -0.19 0.23 <
2373 4 -6 0 2 0.02 0.25 0.24 <
2374 4 -6 0 1 0.84 0.97 0.39 <
2375 4 6 0 -1 0.84 0.78 0.49 <
2376 4 -6 1 5 4.14 6.38 1.33 o
2377 4 6 1 -5 4.14 5.08 1.03 o
2378 4 -6 1 4 4.47 5.07 1.12 o
2379 4 6 1 -4 4.47 4.73 1.18 o
2380 4 6 1 -3 0.07 0.00 0.05 <
2381 4 -6 1 3 0.07 -0.02 0.24 <
2382 4 6 1 -2 4.29 5.99 1.29 o
2383 4 -6 1 2 4.29 5.70 1.05 o
2384 4 -6 1 1 3.44 5.36 1.03 o
2385 5 5 -2 -7 12.56 15.15 1.65 o
2385 4 6 2 -6 12.56 15.15 1.65 o
2386 4 -6 2 5 1.46 2.10 0.89 <
2387 4 6 2 -5 1.46 1.82 0.67 <
2388 4 6 2 -4 0.36 -0.03 0.26 <
2389 4 -6 2 4 0.36 0.20 0.38 <
2390 4 6 2 -3 7.90 8.51 1.50 o
2391 4 -6 2 3 7.90 7.43 1.40 o
2392 4 -6 2 2 0.36 0.05 0.17 <
2393 4 6 2 -2 0.36 0.69 0.42 <
2394 4 -6 2 1 1.49 1.86 0.70 <
2395 5 5 -3 -7 5.36 4.03 0.79 o
2395 4 6 3 -6 5.36 4.03 0.79 o
2396 4 6 3 -5 4.23 6.88 1.15 o
2397 4 -6 3 4 1.95 2.08 0.79 <
2398 4 6 3 -4 1.95 2.02 0.64 o
2399 4 6 3 -3 0.01 0.15 0.19 <
2400 4 -6 3 3 0.01 -0.05 0.15 <
2401 4 -6 3 2 2.32 2.27 0.81 <
2402 4 -6 3 1 4.43 3.94 0.89 o
2403 5 5 -4 -7 13.43 12.01 1.33 o
2403 4 6 4 -6 13.43 12.01 1.33 o
2404 4 6 4 -5 1.02 1.28 0.50 <
2405 4 6 4 -4 2.51 2.54 0.67 o
2406 4 -6 4 4 2.51 1.67 0.66 <
2407 4 -6 4 3 7.11 8.96 1.70 o
2408 4 6 4 -3 7.11 8.08 1.31 o
2409 4 -6 4 2 2.45 1.78 0.66 <
2410 4 -6 4 1 0.60 0.81 0.38 <
2411 4 -6 4 -1 0.05 0.42 0.37 <
2412 5 5 -5 -7 1.25 0.60 0.27 <
2412 4 6 5 -6 1.25 0.60 0.27 <
2413 4 6 5 -5 3.34 3.54 0.77 o
2414 4 6 5 -4 2.67 3.01 0.76 o
2415 4 -6 5 3 0.09 0.52 0.54 <
2416 4 -6 5 2 3.12 3.66 1.04 o
2417 4 -6 5 1 3.18 3.14 1.00 o
2418 5 5 -6 -7 4.07 2.42 0.50 o
2418 4 6 6 -6 4.07 2.42 0.50 o
2419 4 6 6 -5 1.01 0.76 0.35 <
2420 4 6 6 -4 0.54 0.11 0.06 <
2421 4 -6 6 3 3.16 2.48 0.96 <
2422 4 -6 6 2 0.50 -0.12 0.27 <
2423 4 -6 6 1 0.95 0.82 0.50 <
2424 4 -7 -4 6 0.04 0.07 0.08 <
2425 4 -7 -3 7 0.59 0.57 0.23 <
2426 4 -7 -3 6 0.53 0.83 0.37 <
2427 5 -4 3 8 1.34 1.05 0.49 <
2427 4 -7 -3 5 1.34 1.05 0.49 <
2428 5 4 3 -8 1.34 2.35 0.94 <
2428 4 7 -3 -5 1.34 2.35 0.94 <
2429 4 7 -3 -4 4.35 2.27 0.90 <
2429 1 -7 3 4 4.35 2.27 0.90 <
2430 4 -7 -3 4 4.35 2.95 0.60 o
2430 1 7 3 -4 4.35 2.95 0.60 o
2431 4 7 -3 -3 1.06 0.68 0.51 <
2432 4 7 -3 -2 0.34 0.78 0.61 <
2433 4 -7 -2 7 0.52 0.52 0.36 <
2434 4 -7 -2 6 0.32 0.94 0.45 <
2435 5 -4 2 8 5.67 3.51 0.87 o
2435 4 -7 -2 5 5.67 3.51 0.87 o
2436 5 4 2 -8 5.67 3.21 1.04 o
2436 4 7 -2 -5 5.67 3.21 1.04 o
2437 4 7 -2 -4 0.96 1.02 0.57 <
2437 1 -7 2 4 0.96 1.02 0.57 <
2438 4 -7 -2 4 0.96 0.56 0.25 <
2438 1 7 2 -4 0.96 0.56 0.25 <
2439 4 -7 -2 3 0.26 0.32 0.18 <
2440 4 7 -2 -3 0.26 0.13 0.17 <
2441 4 7 -2 -2 2.08 1.60 0.79 <
2442 4 7 -2 -1 0.36 0.46 0.29 <
2443 4 -7 -1 7 1.26 1.07 0.77 <
2444 4 -7 -1 6 0.96 0.68 0.36 <
2445 5 4 1 -8 2.76 0.83 0.50 <
2445 4 7 -1 -5 2.76 0.83 0.50 <
2446 5 -4 1 8 2.76 0.94 0.53 <
2446 4 -7 -1 5 2.76 0.94 0.53 <
2447 4 -7 -1 4 7.10 4.95 1.08 o
2447 1 7 1 -4 7.10 4.95 1.08 o
2448 4 7 -1 -4 7.10 4.17 1.18 o
2448 1 -7 1 4 7.10 4.17 1.18 o
2449 4 7 -1 -3 2.07 1.49 0.69 <
2450 4 -7 -1 3 2.07 3.65 0.77 o
2451 4 7 -1 -2 0.44 1.35 0.86 <
2452 4 7 -1 -1 1.02 0.77 0.60 <
2453 4 -7 0 7 0.51 0.56 0.41 <
2454 4 -7 0 6 0.00 0.28 0.36 <
2455 4 7 0 -6 0.00 0.20 0.28 <
2456 5 4 0 -8 17.64 11.26 1.86 o
2456 4 7 0 -5 17.64 11.26 1.86 o
2457 5 -4 0 8 17.64 11.39 1.82 o
2457 4 -7 0 5 17.64 11.39 1.82 o
2458 4 7 0 -4 3.23 1.47 0.65 <
2458 1 -7 0 4 3.23 1.47 0.65 <
2459 4 -7 0 4 3.23 2.93 0.85 o
2459 1 7 0 -4 3.23 2.93 0.85 o
2460 4 -7 0 3 0.58 1.55 0.60 <
2461 4 7 0 -3 0.58 1.56 0.85 <
2462 4 7 0 -2 3.86 3.73 1.18 o
2463 4 -7 0 2 3.86 6.14 1.16 o
2464 4 -7 1 6 0.93 1.08 0.62 <
2465 4 7 1 -6 0.93 0.90 0.49 <
2466 5 4 -1 -8 2.78 1.11 0.56 <
2466 4 7 1 -5 2.78 1.11 0.56 <
2467 5 -4 -1 8 2.78 1.72 0.86 <
2467 4 -7 1 5 2.78 1.72 0.86 <
2468 4 7 1 -4 7.06 4.95 1.23 o
2468 1 -7 -1 4 7.06 4.95 1.23 o
2469 4 -7 1 4 7.06 3.83 1.03 o
2469 1 7 -1 -4 7.06 3.83 1.03 o
2470 4 7 1 -3 2.04 2.74 0.97 <
2471 4 -7 1 3 2.04 2.05 0.70 <
2472 4 7 1 -2 0.44 0.96 0.55 <
2473 4 -7 1 2 0.44 1.77 0.76 <
2474 4 -7 1 1 1.03 1.69 0.58 <
2475 4 7 2 -6 0.33 0.62 0.37 <
2476 5 -4 -2 8 5.95 4.00 1.19 o
2476 4 -7 2 5 5.95 4.00 1.19 o
2477 5 4 -2 -8 5.95 4.02 1.10 o
2477 4 7 2 -5 5.95 4.02 1.10 o
2478 4 -7 2 4 0.95 0.18 0.25 <
2478 1 7 -2 -4 0.95 0.18 0.25 <
2479 4 7 2 -4 0.95 0.13 0.27 <
2479 1 -7 -2 4 0.95 0.13 0.27 <
2480 4 7 2 -3 0.25 0.27 0.33 <
2481 4 -7 2 3 0.25 0.33 0.33 <
2482 4 -7 2 2 2.03 2.58 0.79 o
2483 4 7 3 -6 0.52 0.45 0.27 <
2484 5 4 -3 -8 1.30 0.07 0.23 <
2484 4 7 3 -5 1.30 0.07 0.23 <
2485 5 -4 -3 8 1.30 0.31 0.34 <
2485 4 -7 3 5 1.30 0.31 0.34 <
2486 4 -7 3 4 4.37 2.38 0.95 <
2486 1 7 -3 -4 4.37 2.38 0.95 <
2487 4 7 3 -4 4.37 2.86 0.91 o
2487 1 -7 -3 4 4.37 2.86 0.91 o
2488 4 7 3 -3 1.08 1.29 0.60 <
2489 4 -7 3 3 1.08 1.16 0.57 <
2490 4 -7 3 2 0.34 1.44 0.77 <
2491 4 7 4 -6 0.03 0.05 0.13 <
2492 5 4 -4 -8 3.01 2.28 0.76 <
2492 4 7 4 -5 3.01 2.28 0.76 <
2493 4 7 4 -4 0.62 -0.59 0.50 <
2493 1 -7 -4 4 0.62 -0.59 0.50 <
2494 5 4 -5 -8 0.63 0.76 0.45 <
2494 4 7 5 -5 0.63 0.76 0.45 <
2495 4 7 5 -4 1.02 0.35 0.25 <
2495 1 -7 -5 4 1.02 0.35 0.25 <
2496 6 4 -2 -9 1.10 1.14 0.45 <
2496 4 -8 -2 4 1.10 1.14 0.45 <
2496 2 4 -2 5 1.10 1.14 0.45 <
2497 4 -8 -1 5 0.40 0.93 0.48 <
2498 6 4 -1 -9 10.31 0.51 0.48 <
2498 4 -8 -1 4 10.31 0.51 0.48 <
2498 2 4 -1 5 10.31 0.51 0.48 <
2499 4 8 0 -5 0.10 0.06 0.18 <
2500 4 -8 0 5 0.10 0.15 0.15 <
2501 6 -4 0 9 1.90 1.38 0.64 <
2501 4 8 0 -4 1.90 1.38 0.64 <
2501 2 -4 0 -5 1.90 1.38 0.64 <
2502 4 8 1 -5 0.41 0.59 0.41 <
2503 6 -4 1 9 10.32 1.40 0.60 <
2503 4 8 1 -4 10.32 1.40 0.60 <
2503 2 -4 1 -5 10.32 1.40 0.60 <
2504 6 -4 2 9 1.11 2.05 1.04 <
2504 4 8 2 -4 1.11 2.05 1.04 <
2504 2 -4 2 -5 1.11 2.05 1.04 <
2505 5 0 -8 4 0.51 0.51 0.30 <
2506 5 0 -8 5 11.27 9.96 1.15 o
2507 5 0 -7 3 18.36 17.34 1.29 o
2508 5 0 -7 4 88.68 93.08 3.28 o
2509 5 0 -7 5 17.21 22.53 1.70 o
2510 5 0 -7 6 2.55 1.43 0.44 o
2511 5 0 -6 3 26.15 28.63 1.54 o
2512 5 0 -6 4 10.67 13.64 1.17 o
2513 5 0 -6 5 23.38 27.29 1.79 o
2514 5 0 -6 6 1.58 1.06 0.37 <
2515 5 0 -5 2 88.41 98.71 2.50 o
2516 5 0 -5 3 0.18 0.23 0.20 <
2517 5 0 -5 4 3.55 3.94 0.62 o
2518 5 0 -5 5 14.78 16.24 1.34 o
2519 5 0 -5 6 4.18 5.62 0.87 o
2520 5 0 -4 2 5.41 7.53 0.65 o
2521 5 0 -4 3 96.18 107.47 2.76 o
2522 5 0 -4 4 0.02 -0.16 0.22 <
2523 5 0 -4 5 0.28 0.40 0.17 <
2524 5 0 -4 6 31.89 34.57 2.02 o
2525 5 0 -4 7 1.25 1.26 0.38 o
2526 5 0 -3 2 355.78 394.74 4.33 o
2527 5 0 -3 3 2.24 1.34 0.32 o
2528 5 0 -3 4 1.08 0.52 0.21 <
2529 5 0 -3 5 16.39 16.90 1.27 o
2530 5 0 -3 6 0.09 0.03 0.10 <
2531 5 0 -3 7 15.01 18.08 1.56 o
2532 5 0 -2 1 0.95 0.06 0.06 <
2533 5 0 -2 2 176.09 163.53 2.59 o
2534 5 0 -2 3 176.77 177.33 3.13 o
2535 5 0 -2 4 6.95 7.05 0.74 o
2536 5 0 -2 5 35.48 39.51 1.90 o
2537 5 0 -2 6 27.00 34.93 1.91 o
2538 5 0 -2 7 5.32 8.26 1.01 o
2539 5 0 -1 1 536.48 650.94 3.63 o
2540 5 0 -1 2 87.92 97.19 1.79 o
2541 5 0 -1 3 44.30 43.00 1.48 o
2542 5 0 -1 4 181.18 173.67 3.43 o
2543 5 0 -1 5 43.96 46.97 2.02 o
2544 5 0 -1 6 14.38 12.61 1.14 o
2545 5 0 -1 7 7.66 10.17 1.09 o
2546 5 0 0 -1 150.03 100.40 1.25 o
2547 5 0 0 1 150.03 101.19 1.24 o
2548 5 0 0 2 7.50 9.05 0.53 o
2549 5 0 0 -2 7.50 10.57 0.58 o
2550 5 0 0 -3 219.68 205.10 3.24 o
2551 5 0 0 3 219.68 206.54 3.06 o
2552 5 0 0 -4 14.33 14.49 1.03 o
2553 5 0 0 4 14.33 15.32 0.98 o
2554 5 0 0 -5 56.45 53.17 2.14 o
2555 5 0 0 5 56.45 51.85 1.98 o
2556 5 0 0 -6 1.74 1.75 0.49 o
2557 5 0 1 -1 536.54 662.25 3.59 o
2558 5 0 1 -2 87.84 94.36 1.83 o
2559 5 0 1 -3 44.28 42.61 1.52 o
2560 5 0 1 -4 181.13 175.34 3.57 o
2561 5 0 1 -5 43.91 48.24 2.14 o
2562 5 0 1 -6 14.40 11.22 1.24 o
2563 5 0 1 -7 7.65 8.95 1.15 o
2564 5 0 2 -1 0.95 -0.01 0.03 <
2565 5 0 2 -2 176.11 166.49 2.56 o
2566 5 0 2 -3 176.76 180.54 3.26 o
2567 5 0 2 -4 6.98 6.68 0.74 o
2568 5 0 2 -5 35.48 37.70 1.87 o
2569 5 0 2 -6 26.96 29.25 1.93 o
2570 5 0 2 -7 5.31 7.07 0.98 o
2571 5 0 3 -2 355.74 397.70 4.15 o
2572 5 0 3 -3 2.27 1.44 0.28 o
2573 5 0 3 -4 1.09 0.61 0.25 <
2574 5 0 3 -5 16.43 16.41 1.27 o
2575 5 0 3 -6 0.11 0.06 0.09 <
2576 5 0 3 -7 14.99 15.18 1.54 o
2577 5 0 4 -2 5.35 7.07 0.63 o
2578 5 0 4 -3 96.27 104.53 2.59 o
2579 5 0 4 -4 0.02 -0.05 0.10 <
2580 5 0 4 -5 0.28 0.58 0.29 <
2581 5 0 4 -6 31.90 29.66 1.98 o
2582 5 0 4 -7 1.25 1.65 0.57 <
2583 5 0 5 -3 0.19 0.04 0.06 <
2584 5 0 5 -4 3.64 4.67 0.62 o
2585 5 0 5 -5 14.80 15.98 1.30 o
2586 5 0 5 -6 4.16 4.08 0.70 o
2587 5 0 5 -7 4.02 4.04 0.80 o
2588 5 0 6 -4 10.66 13.05 1.11 o
2589 5 0 6 -5 23.35 23.76 1.60 o
2590 5 0 6 -6 1.59 1.16 0.43 <
2591 5 0 7 -5 17.20 20.68 1.64 o
2592 5 0 7 -6 2.55 0.94 0.39 <
2593 5 1 -9 3 9.66 9.00 1.00 o
2594 5 1 -8 2 13.92 14.17 1.05 o
2595 5 1 -8 3 10.49 10.43 1.01 o
2596 5 1 -8 4 12.28 10.37 1.05 o
2597 5 -1 -7 6 4.41 2.15 0.59 o
2598 5 -1 -7 5 3.33 2.58 0.65 o
2599 5 1 -7 2 7.38 8.92 0.82 o
2600 5 1 -7 3 33.77 33.39 1.70 o
2601 5 1 -7 4 3.63 2.76 0.50 o
2602 5 1 -7 5 3.88 3.90 0.62 o
2603 5 -1 -6 6 3.62 2.57 0.65 o
2604 5 -1 -6 5 54.73 57.80 2.77 o
2605 5 1 -6 1 122.29 158.65 2.99 o
2605 4 -1 6 -1 122.29 158.65 2.99 o
2606 5 1 -6 2 27.63 26.93 1.34 o
2607 5 1 -6 3 15.47 16.37 1.16 o
2608 5 1 -6 4 55.42 61.50 2.39 o
2609 5 1 -6 5 2.76 3.26 0.54 o
2610 5 1 -6 6 3.53 4.74 0.75 o
2611 5 -1 -5 7 6.31 6.77 0.99 o
2612 5 -1 -5 6 22.91 24.04 1.85 o
2613 5 -1 -5 5 8.74 7.58 0.99 o
2614 5 -1 -5 4 43.17 49.06 2.27 o
2615 5 1 -5 1 62.21 74.83 1.84 o
2615 4 -1 5 -1 62.21 74.83 1.84 o
2616 5 1 -5 2 75.47 83.80 2.25 o
2617 5 1 -5 3 43.05 49.09 1.94 o
2618 5 1 -5 4 8.03 8.72 0.94 o
2619 5 1 -5 5 23.84 28.18 1.79 o
2620 5 1 -5 6 6.04 8.77 1.08 o
2621 5 -1 -4 7 14.71 16.69 1.51 o
2622 5 -1 -4 6 4.38 4.17 0.73 o
2623 5 -1 -4 5 13.84 14.22 1.25 o
2624 5 -1 -4 4 39.87 65.28 2.64 o
2625 5 -1 -4 3 35.96 40.86 1.77 o
2626 6 1 4 0 50.17 41.41 1.05 o
2626 5 1 -4 0 50.17 41.41 1.05 o
2627 5 1 -4 1 428.10 536.17 4.67 o
2627 4 -1 4 -1 428.10 536.17 4.67 o
2628 5 1 -4 2 38.75 42.21 1.52 o
2629 5 1 -4 3 37.43 40.95 1.68 o
2630 5 1 -4 4 12.48 16.42 1.21 o
2631 5 1 -4 5 4.59 4.85 0.67 o
2632 5 1 -4 6 15.58 18.18 1.52 o
2633 5 -1 -3 7 14.94 17.23 1.56 o
2634 5 -1 -3 6 21.03 20.14 1.54 o
2635 5 -1 -3 5 15.10 16.14 1.29 o
2636 5 -1 -3 4 56.82 58.23 2.23 o
2637 5 -1 -3 3 183.66 195.79 3.73 o
2638 6 1 3 0 185.79 179.02 1.93 o
2638 5 1 -3 0 185.79 179.02 1.93 o
2639 5 1 -3 1 34.01 38.31 1.11 o
2639 4 -1 3 -1 34.01 38.31 1.11 o
2640 5 1 -3 2 188.05 188.49 3.07 o
2641 5 1 -3 3 56.68 58.56 1.96 o
2642 5 1 -3 4 12.78 14.84 1.07 o
2643 5 1 -3 5 20.84 26.24 1.62 o
2644 5 1 -3 6 15.15 18.50 1.47 o
2645 5 -1 -2 7 10.54 13.69 1.32 o
2646 5 -1 -2 6 1.34 0.53 0.31 <
2647 5 -1 -2 5 40.44 38.88 1.86 o
2648 5 1 -2 -5 40.44 36.80 1.68 o
2649 5 1 -2 -4 11.70 17.04 1.13 o
2650 5 -1 -2 4 11.70 14.08 1.30 o
2651 5 -1 -2 3 159.78 163.70 3.02 o
2652 5 1 -2 -3 159.78 157.70 2.47 o
2653 5 1 -2 -2 560.79 620.22 3.58 o
2654 5 1 -2 1 922.19 1016.08 5.30 o
2654 4 -1 2 -1 922.19 1016.08 5.30 o
2655 5 1 -2 2 152.60 158.76 2.62 o
2656 5 1 -2 3 9.16 7.77 0.72 o
2657 5 1 -2 4 41.57 35.47 1.66 o
2658 5 1 -2 5 0.88 0.45 0.08 o
2659 5 1 -2 6 9.62 13.70 1.21 o
2660 5 -1 -1 8 1.23 1.00 0.39 <
2661 5 -1 -1 7 6.30 7.17 0.91 o
2662 5 1 -1 -7 6.30 5.12 0.82 o
2663 5 -1 -1 6 21.26 22.72 1.53 o
2664 5 1 -1 -6 21.26 23.47 1.52 o
2665 5 1 -1 -5 19.69 19.03 1.24 o
2666 5 -1 -1 5 19.69 18.05 1.22 o
2667 5 1 -1 -4 117.31 116.28 2.62 o
2668 5 -1 -1 4 117.31 109.74 2.66 o
2669 5 1 -1 -3 47.35 39.43 1.25 o
2670 5 -1 -1 3 47.35 40.83 1.44 o
2671 5 1 -1 -2 250.54 258.59 2.44 o
2672 5 -1 -1 2 250.54 258.67 3.06 o
2673 5 -1 0 8 4.08 5.15 0.82 o
2674 5 1 0 -8 4.08 2.88 0.70 o
2675 5 -1 0 7 7.65 8.27 0.93 o
2676 5 1 0 -7 7.65 7.71 0.96 o
2677 5 1 0 -6 8.76 11.13 1.07 o
2678 5 -1 0 6 8.76 10.90 0.99 o
2679 5 1 0 -5 137.79 140.70 3.39 o
2680 5 -1 0 5 137.79 141.88 3.24 o
2681 5 -1 0 4 112.91 111.82 2.57 o
2682 5 1 0 -4 112.91 112.43 2.65 o
2683 5 1 0 -3 4.44 4.65 0.48 o
2684 5 -1 0 3 4.44 4.17 0.44 o
2685 5 1 0 -2 13.69 20.29 0.76 o
2686 5 -1 0 2 13.69 20.37 0.76 o
2687 5 1 1 -8 1.24 0.30 0.12 <
2688 5 -1 1 7 5.97 5.64 0.78 o
2689 5 1 1 -7 5.97 5.39 0.89 o
2690 5 -1 1 6 20.50 19.53 1.28 o
2691 5 1 1 -6 20.50 21.80 1.56 o
2692 5 -1 1 5 19.17 18.60 1.15 o
2693 5 1 1 -5 19.17 19.02 1.32 o
2694 5 1 1 -4 116.87 112.40 2.79 o
2695 5 -1 1 4 116.87 110.70 2.42 o
2696 5 1 1 -3 50.22 41.15 1.44 o
2697 5 -1 1 3 50.22 41.76 1.27 o
2698 5 1 1 -2 251.58 257.91 2.99 o
2699 5 -1 1 2 251.58 256.07 2.39 o
2700 5 -1 1 -1 377.49 429.20 3.31 o
2700 4 1 -1 1 377.49 429.20 3.31 o
2701 5 -1 1 -2 46.20 42.53 1.35 o
2702 5 -1 1 -3 117.59 110.21 2.63 o
2703 5 1 2 -8 7.52 5.67 0.94 o
2704 5 1 2 -7 10.72 12.62 1.36 o
2705 5 1 2 -6 1.24 0.62 0.19 o
2706 5 1 2 -5 39.09 33.76 1.81 o
2707 5 1 2 -4 10.86 15.60 1.34 o
2708 5 1 2 -3 156.76 160.35 2.96 o
2709 5 -1 2 -1 921.96 1013.70 5.30 o
2709 4 1 -2 1 921.96 1013.70 5.30 o
2710 5 -1 2 -2 155.61 158.20 2.65 o
2711 5 -1 2 -3 9.89 8.05 0.74 o
2712 5 -1 2 -4 42.98 36.90 1.79 o
2713 5 -1 2 -5 0.96 0.58 0.23 <
2714 5 -1 2 -6 9.45 12.96 1.34 o
2715 5 1 3 -7 14.72 15.12 1.47 o
2716 5 1 3 -6 21.24 23.67 1.67 o
2717 5 1 3 -5 15.18 16.17 1.36 o
2718 5 1 3 -4 55.24 56.26 2.11 o
2719 5 1 3 -3 183.38 203.32 3.64 o
2720 5 -1 3 -1 33.93 40.65 1.12 o
2720 4 1 -3 1 33.93 40.65 1.12 o
2721 5 -1 3 -2 188.32 190.47 3.04 o
2722 5 -1 3 -3 58.32 60.44 2.02 o
2723 5 -1 3 -4 12.68 13.38 1.05 o
2724 5 -1 3 -5 20.60 24.42 1.61 o
2725 5 -1 3 -6 15.34 17.70 1.50 o
2726 5 1 4 -7 14.67 15.46 1.58 o
2727 5 1 4 -6 4.30 3.66 0.70 o
2728 5 1 4 -5 14.28 14.45 1.21 o
2729 5 1 4 -4 40.42 56.39 2.41 o
2730 5 -1 4 -1 428.69 539.05 4.52 o
2730 4 1 -4 1 428.69 539.05 4.52 o
2731 5 -1 4 -2 38.14 43.59 1.53 o
2732 5 -1 4 -3 36.92 40.45 1.68 o
2733 5 -1 4 -4 12.03 15.04 1.17 o
2734 5 -1 4 -5 4.67 4.45 0.69 o
2735 5 -1 4 -6 15.62 17.41 1.54 o
2736 5 1 5 -7 6.55 5.89 0.97 o
2737 5 1 5 -6 22.92 21.56 1.67 o
2738 5 1 5 -5 9.00 8.81 0.98 o
2739 5 1 5 -4 44.46 52.36 2.27 o
2740 5 -1 5 -2 76.01 82.22 2.14 o
2741 5 -1 5 -3 41.74 47.90 1.86 o
2742 5 -1 5 -4 7.80 7.31 0.78 o
2743 5 -1 5 -5 23.74 24.28 1.66 o
2744 5 -1 5 -6 5.83 6.27 0.91 o
2745 5 1 6 -6 3.76 2.10 0.57 o
2746 5 1 6 -5 55.25 62.68 2.86 o
2747 5 -1 6 -3 15.36 17.12 1.11 o
2748 5 -1 6 -4 54.93 60.68 2.36 o
2749 5 -1 6 -5 2.64 2.71 0.54 o
2750 5 -1 6 -6 3.65 2.97 0.66 o
2751 5 1 7 -6 4.46 2.19 0.54 o
2752 5 -1 7 -3 33.76 31.20 1.68 o
2753 5 -1 7 -4 3.80 2.17 0.41 o
2754 5 -1 7 -5 3.89 3.07 0.52 o
2755 5 -1 8 -4 12.53 9.88 1.04 o
2756 5 2 -9 1 12.77 13.22 0.94 o
2757 5 2 -9 2 0.68 0.42 0.22 <
2757 4 -2 9 -2 0.68 0.42 0.22 <
2758 6 2 8 0 3.15 2.28 0.32 o
2758 5 2 -8 0 3.15 2.28 0.32 o
2759 5 2 -8 1 12.76 13.92 0.94 o
2760 5 2 -8 2 26.24 32.07 1.54 o
2760 4 -2 8 -2 26.24 32.07 1.54 o
2761 5 2 -8 3 4.98 5.58 0.66 o
2762 5 2 -8 4 2.57 1.98 0.42 o
2763 6 2 7 0 28.82 31.38 1.15 o
2763 5 2 -7 0 28.82 31.38 1.15 o
2764 5 2 -7 1 19.88 22.57 1.13 o
2765 5 2 -7 2 5.50 5.85 0.60 o
2765 4 -2 7 -2 5.50 5.85 0.60 o
2766 5 2 -7 3 9.41 10.31 0.93 o
2767 5 2 -7 4 7.41 9.19 0.96 o
2768 5 2 -6 -1 68.04 54.61 1.18 o
2769 6 2 6 0 62.00 60.45 1.47 o
2769 5 2 -6 0 62.00 60.45 1.47 o
2770 5 2 -6 1 17.55 18.55 0.94 o
2771 5 2 -6 2 62.23 58.81 1.97 o
2771 4 -2 6 -2 62.23 58.81 1.97 o
2772 5 2 -6 3 18.15 18.87 1.23 o
2773 5 2 -6 4 5.39 6.96 0.83 o
2774 5 2 -6 5 5.31 6.66 0.92 o
2775 5 -2 -5 7 5.16 3.52 0.74 o
2776 5 -2 -5 6 19.81 21.22 1.78 o
2777 5 2 -5 -1 55.72 46.59 1.09 o
2778 6 2 5 0 185.33 164.05 2.18 o
2778 5 2 -5 0 185.33 164.05 2.18 o
2779 5 2 -5 1 71.79 73.53 1.77 o
2780 5 2 -5 2 23.19 21.87 1.16 o
2780 4 -2 5 -2 23.19 21.87 1.16 o
2781 5 2 -5 3 40.46 42.21 1.78 o
2782 5 2 -5 4 20.16 21.97 1.47 o
2783 5 2 -5 5 5.03 4.83 0.67 o
2784 5 2 -5 6 4.77 6.33 0.94 o
2785 5 -2 -4 7 14.27 16.84 1.67 o
2786 5 -2 -4 6 29.90 30.08 1.98 o
2787 5 2 -4 -5 0.26 0.19 0.04 o
2788 5 -2 -4 5 0.26 0.07 0.09 <
2789 5 2 -4 -4 128.52 132.06 2.39 o
2790 5 2 -4 -3 60.17 57.90 1.23 o
2791 6 2 4 0 7.86 9.17 0.46 o
2791 5 2 -4 0 7.86 9.17 0.46 o
2792 5 2 -4 1 59.96 61.77 1.55 o
2793 5 2 -4 2 217.45 226.78 3.60 o
2793 4 -2 4 -2 217.45 226.78 3.60 o
2794 5 2 -4 3 0.26 0.07 0.12 <
2795 5 2 -4 4 27.93 29.06 1.61 o
2796 5 2 -4 5 15.99 17.24 1.36 o
2797 5 -2 -3 8 6.23 6.74 1.03 o
2798 5 2 -3 -7 10.46 9.82 1.03 o
2799 5 -2 -3 7 10.46 10.60 1.20 o
2800 5 -2 -3 6 12.55 14.11 1.35 o
2801 5 2 -3 -6 12.55 13.33 1.09 o
2802 5 -2 -3 5 43.73 46.01 2.22 o
2803 5 2 -3 -5 43.73 44.83 1.69 o
2804 5 -2 -3 4 5.09 7.95 1.06 o
2805 5 2 -3 -4 5.09 9.49 0.74 o
2806 5 2 -3 -3 140.48 147.58 2.02 o
2807 5 2 -2 -8 0.94 0.96 0.43 <
2808 5 -2 -2 8 0.94 0.74 0.28 <
2809 5 2 -2 -7 10.39 10.01 1.06 o
2810 5 -2 -2 7 10.39 9.78 1.13 o
2811 5 -2 -2 6 28.72 26.10 1.74 o
2812 5 2 -2 -6 28.72 29.40 1.63 o
2813 5 2 -2 -5 25.34 27.82 1.37 o
2814 5 -2 -2 5 25.34 26.07 1.58 o
2815 5 2 -2 -4 75.19 74.67 1.91 o
2816 5 -2 -2 4 75.19 75.77 2.45 o
2817 5 2 -2 -3 95.98 93.04 1.75 o
2818 5 2 -2 -2 33.69 29.95 0.69 o
2819 5 2 -1 -8 9.39 10.36 1.26 o
2820 5 -2 -1 8 9.39 11.75 1.31 o
2821 5 -2 -1 7 5.09 3.17 0.65 o
2822 5 2 -1 -7 5.09 3.24 0.64 o
2823 5 2 -1 -6 27.79 27.71 1.63 o
2824 5 -2 -1 6 27.79 23.92 1.56 o
2825 5 -2 -1 5 24.32 25.94 1.47 o
2826 5 2 -1 -5 24.32 28.01 1.45 o
2827 5 2 -1 -4 13.43 21.34 1.20 o
2828 5 -2 -1 4 13.43 21.17 1.27 o
2829 5 2 -1 -3 128.15 118.38 2.11 o
2830 5 -2 -1 3 128.15 118.94 2.44 o
2831 5 2 0 -8 1.00 1.16 0.40 <
2832 5 -2 0 8 1.00 1.76 0.49 o
2833 5 2 0 -7 14.27 11.93 1.26 o
2834 5 -2 0 7 14.27 14.59 1.29 o
2835 5 -2 0 6 0.42 0.71 0.30 <
2836 5 2 0 -6 0.42 0.92 0.33 <
2837 5 -2 0 5 5.64 5.45 0.63 o
2838 5 2 0 -5 5.64 4.42 0.58 o
2839 5 -2 0 4 94.66 85.95 2.23 o
2840 5 2 0 -4 94.66 83.01 2.32 o
2841 5 -2 0 3 3.08 4.11 0.44 o
2842 5 2 0 -3 3.08 4.57 0.47 o
2843 5 2 1 -8 9.88 10.50 1.27 o
2844 5 -2 1 8 9.88 11.55 1.18 o
2845 5 -2 1 7 5.36 4.69 0.67 o
2846 5 2 1 -7 5.36 3.50 0.64 o
2847 5 2 1 -6 27.86 22.87 1.65 o
2848 5 -2 1 6 27.86 28.29 1.50 o
2849 5 2 1 -5 23.47 27.53 1.65 o
2850 5 -2 1 5 23.47 28.50 1.39 o
2851 5 2 1 -4 13.59 21.42 1.27 o
2852 5 -2 1 4 13.59 20.54 1.03 o
2853 5 -2 1 3 124.57 117.01 2.03 o
2854 5 2 1 -3 124.57 117.61 2.55 o
2855 5 -2 1 2 36.71 29.07 0.82 o
2856 5 2 2 -8 0.92 0.89 0.44 <
2857 5 -2 2 7 10.78 11.03 0.97 o
2858 5 2 2 -7 10.78 9.86 1.29 o
2859 5 2 2 -6 28.40 27.89 1.81 o
2860 5 -2 2 6 28.40 29.78 1.48 o
2861 5 2 2 -5 26.00 26.88 1.55 o
2862 5 -2 2 5 26.00 29.19 1.33 o
2863 5 -2 2 4 75.51 76.61 1.83 o
2864 5 2 2 -4 75.51 74.78 2.43 o
2865 5 -2 2 3 98.74 95.28 1.64 o
2866 5 -2 2 2 34.97 32.30 0.67 o
2867 5 2 3 -8 6.10 5.91 0.99 o
2868 5 2 3 -7 10.53 8.82 1.12 o
2869 5 2 3 -6 13.03 13.14 1.25 o
2870 5 2 3 -5 43.23 47.52 2.22 o
2871 6 -2 -3 0 676.79 592.06 3.46 o
2871 5 -2 3 0 676.79 592.06 3.46 o
2872 5 -2 3 -1 136.20 140.55 2.29 o
2873 5 -2 3 -2 7.34 5.90 0.62 o
2873 4 2 -3 2 7.34 5.90 0.62 o
2874 5 -2 3 -3 40.69 40.01 1.73 o
2875 5 -2 3 -4 12.71 14.60 1.17 o
2876 5 -2 3 -5 11.08 11.45 1.20 o
2877 5 2 4 -7 13.99 14.25 1.49 o
2878 5 2 4 -6 29.99 30.48 2.00 o
2879 5 2 4 -5 0.22 0.12 0.07 <
2880 6 -2 -4 0 7.62 7.28 0.44 o
2880 5 -2 4 0 7.62 7.28 0.44 o
2881 5 -2 4 -1 60.80 65.33 1.61 o
2882 5 -2 4 -2 217.23 230.10 3.63 o
2882 4 2 -4 2 217.23 230.10 3.63 o
2883 5 -2 4 -3 0.29 0.06 0.08 <
2884 5 -2 4 -4 27.80 29.56 1.72 o
2885 5 -2 4 -5 16.25 18.05 1.49 o
2886 5 -2 4 -6 0.43 0.33 0.29 <
2887 5 2 5 -7 4.97 2.40 0.64 o
2888 5 2 5 -6 19.41 18.18 1.69 o
2889 5 -2 5 -1 71.27 70.77 1.76 o
2890 5 -2 5 -2 23.25 22.46 1.15 o
2890 4 2 -5 2 23.25 22.46 1.15 o
2891 5 -2 5 -3 39.59 42.65 1.85 o
2892 5 -2 5 -4 20.61 22.23 1.50 o
2893 5 -2 5 -5 5.21 3.77 0.66 o
2894 5 -2 5 -6 4.86 6.47 1.05 o
2895 5 -2 6 -1 18.67 20.02 0.99 o
2896 5 -2 6 -2 62.52 60.99 1.91 o
2896 4 2 -6 2 62.52 60.99 1.91 o
2897 5 -2 6 -3 18.63 19.16 1.24 o
2898 5 -2 6 -4 5.21 5.35 0.72 o
2899 5 -2 6 -5 5.24 4.68 0.73 o
2900 5 -2 7 -2 5.45 6.56 0.63 o
2900 4 2 -7 2 5.45 6.56 0.63 o
2901 5 -2 7 -3 9.71 9.13 0.86 o
2902 5 -2 7 -4 7.39 8.04 0.88 o
2903 5 -2 8 -3 4.75 5.82 0.71 o
2904 5 -2 8 -4 2.82 2.61 0.50 o
2905 5 3 -9 -2 19.85 12.34 0.70 o
2906 5 3 -9 -1 20.77 21.82 0.89 o
2907 6 3 9 0 1.07 0.71 0.15 o
2907 5 3 -9 0 1.07 0.71 0.15 o
2908 5 3 -9 1 6.45 6.69 0.57 o
2909 5 3 -8 -2 10.14 6.86 0.42 o
2910 5 3 -8 -1 9.56 10.64 0.52 o
2911 6 3 8 0 86.48 69.05 1.63 o
2911 5 3 -8 0 86.48 69.05 1.63 o
2912 5 3 -8 1 2.06 1.44 0.28 o
2913 5 3 -8 2 6.98 7.58 0.73 o
2914 5 3 -8 3 6.80 13.48 1.08 o
2915 5 3 -7 -1 13.17 11.33 0.46 o
2916 6 3 7 0 3.42 3.10 0.29 o
2916 5 3 -7 0 3.42 3.10 0.29 o
2917 5 3 -7 1 43.64 42.95 1.46 o
2918 5 3 -7 2 8.41 8.54 0.73 o
2919 5 3 -7 3 2.29 4.45 0.58 o
2920 5 3 -6 -6 6.93 6.28 0.64 o
2921 5 3 -6 -5 15.74 12.94 0.80 o
2922 5 3 -6 -4 1.39 1.72 0.22 o
2923 6 3 6 0 140.76 104.83 1.68 o
2923 5 3 -6 0 140.76 104.83 1.68 o
2924 5 3 -6 1 1.50 1.80 0.28 o
2925 5 3 -6 2 15.12 13.48 0.91 o
2926 5 3 -6 3 7.23 14.50 1.07 o
2927 5 3 -5 -8 1.60 0.68 0.19 o
2928 5 3 -5 -7 3.14 1.92 0.37 o
2929 5 3 -5 -6 7.16 6.21 0.65 o
2930 5 3 -5 -5 21.64 18.51 0.96 o
2931 5 3 -5 -4 18.55 18.57 0.76 o
2932 5 3 -4 -8 2.81 2.63 0.52 o
2933 5 -3 -4 7 0.36 0.22 0.13 <
2934 5 3 -4 -7 0.36 0.22 0.04 o
2935 5 3 -4 -6 21.93 18.61 1.17 o
2936 5 3 -4 -5 2.46 1.95 0.33 o
2937 5 3 -4 -4 7.40 6.01 0.45 o
2938 5 3 -4 -3 30.67 17.76 0.55 o
2939 5 -3 -3 8 2.85 2.47 0.71 o
2940 5 3 -3 -8 2.85 2.30 0.53 o
2941 5 -3 -3 7 13.49 16.62 1.56 o
2942 5 3 -3 -7 13.49 14.89 1.25 o
2943 5 3 -3 -6 4.86 2.82 0.47 o
2944 5 -3 -3 6 4.86 2.07 0.51 o
2945 5 3 -3 -5 53.12 44.61 1.64 o
2946 5 3 -3 -4 5.19 4.62 0.43 o
2947 6 -4 2 9 2.41 1.77 0.60 <
2947 5 3 -2 -9 2.41 1.77 0.60 <
2948 5 3 -2 -8 5.58 6.95 0.94 o
2949 5 -3 -2 8 5.58 6.96 1.01 o
2950 5 3 -2 -7 1.57 1.41 0.40 o
2951 5 -3 -2 7 1.57 0.95 0.37 <
2952 5 -3 -2 6 48.04 49.24 2.41 o
2953 5 3 -2 -6 48.04 47.36 2.01 o
2954 5 3 -2 -5 19.89 21.35 1.22 o
2955 5 -3 -2 5 19.89 20.02 1.48 o
2956 5 3 -2 -4 0.49 0.06 0.07 <
2957 6 -4 1 9 8.67 7.36 1.16 o
2957 5 3 -1 -9 8.67 7.36 1.16 o
2958 5 -3 -1 8 5.27 5.90 0.87 o
2959 5 3 -1 -8 5.27 6.23 0.96 o
2960 5 -3 -1 7 12.07 12.29 1.26 o
2961 5 3 -1 -7 12.07 13.35 1.24 o
2962 5 -3 -1 6 11.90 11.07 1.07 o
2963 5 3 -1 -6 11.90 11.66 1.09 o
2964 5 -3 -1 5 51.80 49.29 2.05 o
2965 5 3 -1 -5 51.80 53.14 1.91 o
2966 5 3 -1 -4 114.00 97.19 2.33 o
2967 6 -4 0 9 3.54 2.98 0.77 o
2967 5 3 0 -9 3.54 2.98 0.77 o
2968 5 3 0 -8 15.66 22.00 1.87 o
2969 5 -3 0 8 15.66 19.92 1.60 o
2970 5 3 0 -7 0.44 0.21 0.14 <
2971 5 -3 0 7 0.44 0.20 0.14 <
2972 5 3 0 -6 3.34 2.92 0.56 o
2973 5 -3 0 6 3.34 2.85 0.48 o
2974 5 3 0 -5 37.79 34.62 1.64 o
2975 5 -3 0 5 37.79 34.79 1.63 o
2976 5 -3 0 4 21.48 27.66 1.33 o
2977 6 4 -1 -9 8.68 11.11 1.21 o
2977 5 -3 1 9 8.68 11.11 1.21 o
2978 5 -3 1 8 5.35 6.95 0.86 o
2979 5 3 1 -8 5.35 7.25 1.02 o
2980 5 3 1 -7 12.00 10.20 1.25 o
2981 5 -3 1 7 12.00 14.75 1.18 o
2982 5 3 1 -6 11.66 10.70 1.07 o
2983 5 -3 1 6 11.66 10.75 0.89 o
2984 5 -3 1 5 53.60 52.31 1.85 o
2985 5 3 1 -5 53.60 54.80 2.28 o
2986 5 -3 1 4 115.35 97.21 2.19 o
2987 6 4 -2 -9 2.51 2.92 0.62 o
2987 5 -3 2 9 2.51 2.92 0.62 o
2988 5 -3 2 8 5.85 7.61 0.86 o
2989 5 3 2 -8 5.85 6.69 1.01 o
2990 5 -3 2 7 1.58 2.18 0.43 o
2991 5 3 2 -7 1.58 0.91 0.34 <
2992 5 -3 2 6 48.44 51.39 1.91 o
2993 5 3 2 -6 48.44 50.27 2.40 o
2994 5 -3 2 5 19.47 18.94 1.02 o
2995 5 -3 2 4 0.64 0.07 0.07 <
2996 5 -3 2 3 96.06 87.88 1.60 o
2997 5 -3 3 8 2.85 3.23 0.52 o
2998 5 3 3 -8 2.85 2.21 0.61 o
2999 5 -3 3 7 13.76 18.26 1.25 o
3000 5 3 3 -7 13.76 13.53 1.48 o
3001 5 -3 3 6 4.70 3.95 0.48 o
3002 5 3 3 -6 4.70 2.28 0.54 o
3003 5 -3 3 5 53.32 49.87 1.57 o
3004 5 -3 3 4 5.72 5.44 0.43 o
3005 5 -3 3 3 25.14 26.48 0.71 o
3006 5 3 4 -7 0.36 0.00 0.15 <
3007 6 -3 -4 0 79.08 64.88 1.39 o
3007 5 -3 4 0 79.08 64.88 1.39 o
3008 5 -3 4 -1 6.98 6.97 0.57 o
3009 5 -3 4 -2 1.68 1.60 0.36 o
3010 5 -3 4 -3 21.52 34.91 1.81 o
3011 6 -3 -5 0 3.61 3.06 0.29 o
3011 5 -3 5 0 3.61 3.06 0.29 o
3012 5 -3 5 -1 18.50 21.59 1.02 o
3013 5 -3 5 -2 22.16 21.29 1.20 o
3014 5 -3 5 -3 7.02 11.54 0.99 o
3015 5 -3 5 -4 3.55 2.54 0.52 o
3016 5 -3 5 -5 1.74 0.91 0.35 <
3017 6 -3 -6 0 140.77 102.99 1.92 o
3017 5 -3 6 0 140.77 102.99 1.92 o
3018 5 -3 6 -1 1.53 1.58 0.27 o
3019 5 -3 6 -2 14.81 13.04 0.92 o
3020 5 -3 6 -3 7.45 12.85 1.07 o
3021 5 -3 6 -4 0.74 0.78 0.33 <
3022 5 -3 7 -1 43.07 41.91 1.46 o
3023 5 -3 7 -2 8.47 8.30 0.74 o
3024 5 -3 7 -3 2.33 4.10 0.60 o
3025 5 -3 8 -2 7.06 6.83 0.75 o
3026 5 -3 8 -3 6.74 11.38 0.98 o
3027 5 4 -8 -5 10.61 5.27 0.33 o
3028 5 4 -7 -6 1.69 1.02 0.25 o
3029 5 4 -7 -5 0.86 0.22 0.08 <
3030 5 4 -6 -7 2.94 2.22 0.44 o
3031 5 4 -6 -6 0.50 0.35 0.16 <
3032 5 4 -6 -5 22.22 16.38 0.74 o
3033 5 4 -5 -8 0.63 0.22 0.10 <
3033 4 7 5 -5 0.63 0.22 0.10 <
3034 5 4 -5 -7 6.47 6.22 0.70 o
3035 5 4 -5 -6 12.41 12.55 0.87 o
3036 5 4 -5 -5 4.71 3.04 0.32 o
3037 5 4 -4 -8 3.02 1.95 0.49 o
3037 4 7 4 -5 3.02 1.95 0.49 o
3038 5 4 -4 -7 5.20 4.49 0.65 o
3039 5 4 -4 -6 4.71 4.45 0.54 o
3040 5 4 -4 -5 14.28 12.20 0.77 o
3041 5 -4 -3 8 1.30 0.38 0.13 <
3041 4 -7 3 5 1.30 0.38 0.13 <
3042 5 4 -3 -8 1.30 0.49 0.16 o
3042 4 7 3 -5 1.30 0.49 0.16 o
3043 5 4 -3 -7 9.73 11.39 1.08 o
3044 5 4 -3 -6 12.34 10.39 0.86 o
3045 5 4 -3 -5 2.58 1.83 0.32 o
3046 6 -3 2 9 3.77 1.84 0.45 o
3046 5 4 -2 -9 3.77 1.84 0.45 o
3047 5 4 -2 -8 5.98 4.90 0.75 o
3047 4 7 2 -5 5.98 4.90 0.75 o
3048 5 -4 -2 8 5.98 4.87 0.91 o
3048 4 -7 2 5 5.98 4.87 0.91 o
3049 5 -4 -2 7 5.83 5.57 0.88 o
3050 5 4 -2 -7 5.83 5.43 0.70 o
3051 5 4 -2 -6 3.22 2.66 0.44 o
3052 6 -3 1 9 7.69 7.73 1.05 o
3052 5 4 -1 -9 7.69 7.73 1.05 o
3053 5 4 -1 -8 2.80 0.97 0.23 o
3053 4 7 1 -5 2.80 0.97 0.23 o
3054 5 -4 -1 8 2.80 1.04 0.32 o
3054 4 -7 1 5 2.80 1.04 0.32 o
3055 5 -4 -1 7 10.78 10.69 1.17 o
3056 5 4 -1 -7 10.78 9.50 0.99 o
3057 5 -4 -1 6 10.05 10.95 1.10 o
3058 5 4 -1 -6 10.05 12.55 1.06 o
3059 6 3 0 -9 4.73 4.15 0.73 o
3059 5 -4 0 9 4.73 4.15 0.73 o
3060 6 -3 0 9 4.73 2.86 0.67 o
3060 5 4 0 -9 4.73 2.86 0.67 o
3061 5 -4 0 8 17.75 17.64 1.47 o
3061 4 -7 0 5 17.75 17.64 1.47 o
3062 5 4 0 -8 17.75 16.70 1.50 o
3062 4 7 0 -5 17.75 16.70 1.50 o
3063 5 -4 0 7 11.49 10.89 1.08 o
3064 5 4 0 -7 11.49 11.14 1.17 o
3065 5 -4 0 6 0.57 0.20 0.16 <
3066 5 4 0 -6 0.57 0.44 0.35 <
3067 6 3 -1 -9 7.67 10.90 1.19 o
3067 5 -4 1 9 7.67 10.90 1.19 o
3068 6 -3 -1 9 7.67 7.74 1.14 o
3068 5 4 1 -9 7.67 7.74 1.14 o
3069 5 4 1 -8 2.78 1.38 0.45 o
3069 4 7 -1 -5 2.78 1.38 0.45 o
3070 5 -4 1 8 2.78 1.62 0.43 o
3070 4 -7 -1 5 2.78 1.62 0.43 o
3071 5 -4 1 7 10.36 10.71 1.01 o
3072 5 4 1 -7 10.36 10.65 1.20 o
3073 5 -4 1 6 10.14 11.49 0.97 o
3074 5 -4 1 5 9.57 8.00 0.74 o
3075 6 3 -2 -9 3.61 2.39 0.49 o
3075 5 -4 2 9 3.61 2.39 0.49 o
3076 5 4 2 -8 5.71 5.84 1.03 o
3076 4 7 -2 -5 5.71 5.84 1.03 o
3077 5 -4 2 8 5.71 5.33 0.75 o
3077 4 -7 -2 5 5.71 5.33 0.75 o
3078 5 -4 2 7 5.66 6.33 0.72 o
3079 5 -4 2 6 3.18 2.73 0.41 o
3080 5 -4 2 5 26.76 23.87 1.19 o
3081 5 -4 2 4 3.60 3.31 0.40 o
3082 5 -4 3 8 1.35 0.64 0.22 <
3082 4 -7 -3 5 1.35 0.64 0.22 <
3083 5 4 3 -8 1.35 1.05 0.48 <
3083 4 7 -3 -5 1.35 1.05 0.48 <
3084 5 -4 3 7 9.64 11.50 0.91 o
3085 5 -4 3 6 12.08 13.53 0.90 o
3086 5 -4 3 5 2.70 2.76 0.32 o
3087 5 -4 3 4 6.36 6.38 0.46 o
3088 5 -4 4 8 3.17 2.74 0.51 o
3088 4 -7 -4 5 3.17 2.74 0.51 o
3089 5 -4 4 7 5.36 5.37 0.61 o
3090 5 -4 4 6 4.64 6.04 0.55 o
3091 5 -4 4 5 13.72 16.58 0.77 o
3092 5 -4 4 4 0.12 0.10 0.04 <
3093 5 -4 5 1 18.47 15.01 0.55 o
3094 6 -4 -5 0 23.50 22.06 0.94 o
3094 5 -4 5 0 23.50 22.06 0.94 o
3095 5 -4 5 -1 3.93 3.45 0.44 o
3096 5 -4 5 -2 11.84 13.49 1.08 o
3097 6 -4 -6 0 25.31 19.56 0.84 o
3097 5 -4 6 0 25.31 19.56 0.84 o
3098 5 -4 6 -1 22.49 22.16 1.17 o
3099 5 -4 6 -2 0.30 0.51 0.25 <
3100 5 -4 6 -3 2.54 2.80 0.57 o
3101 6 -4 -7 0 79.58 54.89 1.42 o
3101 5 -4 7 0 79.58 54.89 1.42 o
3102 5 -4 7 -1 0.94 0.07 0.11 <
3103 5 -4 7 -2 1.88 0.88 0.27 o
3104 5 -4 8 -1 11.14 8.67 0.70 o
3105 5 5 -6 -7 4.07 2.85 0.40 o
3105 4 6 6 -6 4.07 2.85 0.40 o
3106 5 5 -5 -7 1.25 0.33 0.12 <
3106 4 6 5 -6 1.25 0.33 0.12 <
3107 5 5 -4 -8 0.26 -0.17 0.22 <
3108 5 5 -4 -7 13.43 23.95 1.62 o
3108 4 6 4 -6 13.43 23.95 1.62 o
3109 5 5 -3 -8 2.30 1.72 0.46 o
3110 5 5 -3 -7 5.36 4.28 0.65 o
3110 4 6 3 -6 5.36 4.28 0.65 o
3111 5 5 -2 -8 0.92 0.52 0.27 <
3112 6 -2 1 9 5.61 4.44 0.83 o
3112 5 5 -1 -9 5.61 4.44 0.83 o
3113 5 -5 -1 8 3.19 2.27 0.58 o
3114 5 5 -1 -8 3.19 2.80 0.65 o
3115 6 2 0 -9 5.05 5.72 0.91 o
3115 5 -5 0 9 5.05 5.72 0.91 o
3116 6 -2 0 9 5.05 3.20 0.75 o
3116 5 5 0 -9 5.05 3.20 0.75 o
3117 5 5 0 -8 0.46 0.16 0.28 <
3118 5 -5 0 8 0.46 0.30 0.04 o
3119 5 -5 0 7 4.43 3.18 0.66 o
3119 4 -6 0 6 4.43 3.18 0.66 o
3120 6 -2 -1 9 5.56 4.55 0.89 o
3120 5 5 1 -9 5.56 4.55 0.89 o
3121 6 2 -1 -9 5.56 4.93 0.70 o
3121 5 -5 1 9 5.56 4.93 0.70 o
3122 5 -5 1 8 3.08 3.36 0.64 o
3123 5 -5 1 7 4.20 3.53 0.59 o
3123 4 -6 -1 6 4.20 3.53 0.59 o
3124 5 -5 1 6 8.35 11.90 1.04 o
3125 5 -5 2 8 0.89 0.48 0.23 <
3126 5 -5 2 7 12.22 15.15 1.19 o
3126 4 -6 -2 6 12.22 15.15 1.19 o
3127 5 -5 2 6 8.06 13.14 1.01 o
3128 5 -5 2 5 0.60 0.41 0.15 <
3129 5 -5 3 8 2.26 1.98 0.39 o
3130 5 -5 3 7 5.35 3.56 0.54 o
3130 4 -6 -3 6 5.35 3.56 0.54 o
3131 5 -5 3 6 7.38 13.96 0.91 o
3132 5 -5 3 5 11.81 14.42 0.86 o
3133 5 -5 4 8 0.28 0.16 0.03 o
3134 5 -5 4 7 13.62 33.20 1.72 o
3134 4 -6 -4 6 13.62 33.20 1.72 o
3135 5 -5 4 6 10.35 19.51 0.95 o
3136 5 -5 4 5 0.09 0.09 0.04 <
3137 5 -5 4 4 26.76 29.04 0.97 o
3138 5 -5 5 6 8.55 15.13 0.78 o
3139 5 -5 5 5 8.67 10.91 0.54 o
3140 5 -5 6 1 13.77 11.88 0.58 o
3141 6 -5 -6 0 6.20 4.57 0.52 o
3141 5 -5 6 0 6.20 4.57 0.52 o
3142 5 -5 6 -1 0.59 0.17 0.10 <
3143 6 -5 -7 0 9.42 7.12 0.59 o
3143 5 -5 7 0 9.42 7.12 0.59 o
3144 5 -5 7 -1 2.39 1.11 0.26 o
3145 5 -6 1 8 1.32 1.25 0.41 o
3146 5 -6 2 8 0.90 0.76 0.36 <
3147 5 -6 2 7 0.03 -0.25 0.21 <
3148 5 -6 3 8 2.45 1.71 0.36 o
3149 5 -6 3 7 3.78 6.68 0.78 o
3150 5 -6 3 6 6.15 4.95 0.62 o
3150 4 -5 -3 7 6.15 4.95 0.62 o
3151 5 -6 4 7 0.31 0.11 0.10 <
3152 5 -6 4 6 11.37 14.63 0.88 o
3152 4 -5 -4 7 11.37 14.63 0.88 o
3153 5 -6 4 5 1.63 2.46 0.32 o
3154 5 -6 5 7 0.97 1.36 0.28 o
3155 5 -6 5 6 0.93 0.62 0.16 o
3155 4 -5 -5 7 0.93 0.62 0.16 o
3156 5 -6 5 5 5.32 7.71 0.47 o
3157 5 -6 5 4 4.27 4.24 0.37 o
3158 5 -6 6 2 0.80 0.14 0.08 <
3159 6 0 -5 -7 6.02 8.49 0.88 o
3160 6 0 -4 -5 0.42 0.72 0.24 o
3161 6 0 -4 -6 48.07 49.86 2.22 o
3162 6 0 -4 -7 1.88 3.06 0.60 o
3163 6 0 -3 -3 3.38 2.80 0.40 o
3164 6 0 -3 -4 1.63 1.43 0.34 o
3165 6 0 -3 -5 24.72 26.87 1.65 o
3166 6 0 -3 -6 0.14 0.20 0.19 <
3167 6 0 -3 -7 22.62 23.90 1.91 o
3168 6 0 -2 -2 265.48 249.26 2.85 o
3169 6 0 -2 -3 266.50 277.84 4.11 o
3170 6 0 -2 -4 10.48 9.68 0.99 o
3171 6 0 -2 -5 53.49 56.71 2.75 o
3172 6 0 -2 -6 40.71 47.71 2.81 o
3173 6 0 -2 -7 8.01 10.92 1.45 o
3174 6 0 -2 -8 6.12 4.13 1.00 o
3175 6 0 -1 -2 132.55 135.77 2.59 o
3176 6 0 -1 -3 66.79 60.08 2.29 o
3177 6 0 -1 -4 273.15 250.56 5.66 o
3178 6 0 -1 -5 66.27 80.79 3.67 o
3179 6 0 -1 -6 21.69 21.18 2.16 o
3180 6 0 -1 -7 11.55 13.36 2.03 o
3181 6 0 -1 -8 3.92 3.17 1.02 o
3182 6 0 0 1 226.19 131.77 2.18 o
3183 6 0 0 -1 226.19 134.13 2.11 o
3184 6 0 0 -2 11.31 12.64 1.00 o
3185 6 0 0 2 11.31 13.13 1.06 o
3186 6 0 0 -3 331.19 331.42 6.30 o
3187 6 0 0 -4 21.60 28.77 2.24 o
3188 6 0 0 -5 85.10 89.97 4.44 o
3189 6 0 1 2 132.43 134.88 2.75 o
3190 6 0 1 3 66.75 54.45 2.29 o
3191 6 0 1 4 273.07 252.71 6.17 o
3192 6 0 2 2 265.51 247.75 3.18 o
3193 6 0 2 3 266.49 276.41 4.72 o
3194 6 0 2 4 10.52 9.95 1.14 o
3195 6 0 2 5 53.50 49.97 3.16 o
3196 6 0 3 2 536.32 558.07 4.31 o
3197 6 0 3 3 3.42 2.78 0.43 o
3198 6 0 3 4 1.65 1.35 0.41 o
3199 6 0 3 5 24.77 22.26 1.94 o
3200 6 0 4 3 145.15 126.59 2.50 o
3201 6 0 4 4 0.03 -0.19 0.13 <
3202 6 0 4 5 0.42 0.66 0.26 <
3203 6 0 4 6 48.09 41.50 3.12 o
3204 6 0 5 3 0.29 0.08 0.06 <
3205 6 0 5 4 5.49 5.43 0.58 o
3206 6 0 5 5 22.32 19.07 1.49 o
3207 6 0 5 6 6.27 5.17 1.01 o
3208 6 0 6 4 16.07 11.91 0.80 o
3209 6 0 6 5 35.21 24.57 1.49 o
3210 6 0 6 6 2.40 1.47 0.41 o
3211 6 0 7 4 133.48 98.93 2.37 o
3212 6 0 7 5 25.93 16.76 1.07 o
3213 6 0 7 6 3.85 1.03 0.40 <
3214 6 0 8 5 17.02 6.89 0.64 o
3215 6 -1 -5 -5 35.94 42.44 1.64 o
3216 6 -1 -5 -6 9.11 11.26 0.83 o
3217 6 1 -4 -8 4.05 3.91 0.75 o
3218 6 1 -4 -7 22.18 26.41 1.98 o
3219 6 1 -4 -6 6.60 8.10 0.99 o
3220 6 -1 -4 -4 18.81 25.35 1.16 o
3221 6 -1 -4 -5 6.91 8.86 0.81 o
3222 6 -1 -4 -6 23.49 25.18 1.52 o
3223 6 -1 -4 -7 3.77 3.07 0.50 o
3224 6 1 -3 -8 3.52 1.86 0.55 o
3225 6 1 -3 -7 22.53 28.00 2.13 o
3226 6 1 -3 -6 31.70 35.23 2.14 o
3227 6 1 -3 -5 22.77 22.43 1.69 o
3228 6 -1 -3 2 32.74 43.43 2.46 o
3229 6 -1 -3 -3 85.45 86.46 2.10 o
3230 6 -1 -3 -4 19.26 23.46 1.38 o
3231 6 -1 -3 -5 31.41 37.50 2.07 o
3232 6 -1 -3 -6 22.84 25.53 1.89 o
3233 6 -1 -3 -7 3.50 1.57 0.47 o
3234 6 1 -2 -8 11.79 13.60 1.69 o
3235 6 1 -2 -7 15.89 20.43 1.93 o
3236 6 1 -2 -6 2.02 0.61 0.27 <
3237 6 1 -2 -5 60.96 58.70 2.72 o
3238 6 -1 -2 5 60.96 61.49 4.01 o
3239 6 1 -2 -4 17.64 18.06 1.44 o
3240 6 -1 -2 4 17.64 23.46 2.43 o
3241 6 1 -2 -3 240.89 251.43 4.34 o
3242 6 -1 -2 3 240.89 265.07 6.15 o
3243 6 -1 -2 2 845.45 1013.46 9.90 o
3244 6 -1 -2 1 14.09 16.45 1.03 o
3245 6 -1 -2 -2 230.06 212.42 3.70 o
3246 6 -1 -2 -3 13.81 11.92 1.11 o
3247 6 -1 -2 -4 62.68 58.24 2.80 o
3248 6 -1 -2 -5 1.32 1.08 0.42 <
3249 6 -1 -2 -6 14.50 17.90 1.97 o
3250 6 1 -1 -8 1.85 1.91 0.82 <
3251 6 1 -1 -7 9.49 10.34 1.50 o
3252 6 1 -1 -6 32.05 33.98 2.51 o
3253 6 -1 -1 6 32.05 32.69 3.23 o
3254 6 -1 -1 5 29.68 31.36 2.71 o
3255 6 1 -1 -5 29.68 27.03 2.00 o
3256 6 1 -1 -4 176.86 168.44 4.26 o
3257 6 -1 -1 4 176.86 172.22 5.45 o
3258 6 1 -1 -3 71.38 57.04 2.16 o
3259 6 -1 -1 3 71.38 59.48 2.72 o
3260 6 -1 -1 2 377.72 392.54 5.65 o
3261 6 1 -1 -2 377.72 393.91 4.55 o
3262 6 -1 -1 1 548.58 611.49 5.24 o
3263 6 1 0 -8 6.16 5.63 1.36 o
3264 6 -1 0 7 11.53 11.67 1.96 o
3265 6 1 0 -7 11.53 13.48 1.95 o
3266 6 -1 0 6 13.21 15.79 2.06 o
3267 6 1 0 -6 13.21 15.16 1.81 o
3268 6 1 0 -5 207.74 216.64 6.01 o
3269 6 -1 0 5 207.74 207.18 6.33 o
3270 6 1 0 -4 170.22 168.14 4.58 o
3271 6 -1 0 4 170.22 163.85 4.93 o
3272 6 -1 0 3 6.70 6.43 0.88 o
3273 6 1 0 -3 6.70 5.62 0.77 o
3274 6 -1 0 2 20.65 33.00 1.55 o
3275 6 1 0 -2 20.65 30.52 1.36 o
3276 6 -1 0 1 181.57 130.01 2.24 o
3277 6 -1 1 8 1.87 0.69 0.42 <
3278 6 1 1 -8 1.87 1.18 0.60 <
3279 6 -1 1 7 9.00 8.71 1.64 o
3280 6 1 1 -7 9.00 9.91 1.87 o
3281 6 -1 1 6 30.91 31.64 2.60 o
3282 6 1 1 -6 30.91 32.71 3.10 o
3283 6 1 1 -5 28.91 24.39 2.31 o
3284 6 -1 1 5 28.91 26.72 2.27 o
3285 6 -1 1 4 176.20 161.11 4.63 o
3286 6 1 1 -4 176.20 157.57 4.84 o
3287 6 1 1 -3 75.71 64.26 2.74 o
3288 6 -1 1 3 75.71 62.70 2.45 o
3289 6 -1 1 2 379.28 389.45 4.68 o
3290 6 1 1 -2 379.28 389.31 5.57 o
3291 6 1 1 -1 549.43 598.06 5.13 o
3292 6 -1 2 8 11.34 10.01 1.82 o
3293 6 -1 2 7 16.16 13.71 1.94 o
3294 6 -1 2 6 1.87 1.15 0.49 <
3295 6 1 2 -6 1.87 0.60 0.46 <
3296 6 -1 2 5 58.94 55.78 2.96 o
3297 6 1 2 -5 58.94 53.92 3.70 o
3298 6 -1 2 4 16.38 19.68 1.70 o
3299 6 1 2 -4 16.38 22.50 2.37 o
3300 6 1 2 -3 236.34 257.45 5.83 o
3301 6 -1 2 3 236.34 256.11 4.62 o
3302 6 1 2 -2 846.39 1016.08 9.86 o
3303 6 1 2 -1 15.98 19.09 1.11 o
3304 6 -1 3 8 3.47 1.28 0.64 <
3305 6 -1 3 7 22.20 21.48 2.18 o
3306 6 -1 3 6 32.02 31.82 2.30 o
3307 6 -1 3 5 22.89 21.62 1.82 o
3308 6 -1 3 4 83.29 81.31 2.94 o
3309 6 1 3 -3 276.47 305.54 7.08 o
3310 6 1 3 -2 33.12 42.09 2.29 o
3311 6 1 3 -1 112.38 166.14 3.78 o
3312 6 -1 4 8 4.25 2.90 0.90 o
3313 6 -1 4 7 22.11 19.97 2.01 o
3314 6 -1 4 6 6.48 6.18 0.97 o
3315 6 -1 4 5 21.53 20.00 1.49 o
3316 6 -1 4 4 60.94 68.81 2.70 o
3317 6 -1 5 7 9.87 7.19 1.05 o
3318 6 -1 5 6 34.56 26.22 1.85 o
3319 6 -1 5 5 13.56 10.37 1.18 o
3320 6 -1 6 7 5.54 2.95 0.62 o
3321 6 -1 6 6 5.67 3.51 0.62 o
3322 6 -1 6 5 83.30 75.16 2.83 o
3323 6 -1 7 6 6.73 3.58 0.64 o
3324 6 -2 -5 3 107.24 130.62 5.39 o
3325 6 -2 -5 2 114.16 148.33 5.21 o
3326 6 -2 -5 -5 7.58 6.47 0.56 o
3327 6 -2 -5 -6 7.20 7.43 0.64 o
3328 6 2 -4 -8 0.52 0.35 0.19 <
3329 6 -2 -4 6 45.08 42.75 3.99 o
3330 6 -2 -4 5 0.39 0.34 0.41 <
3331 6 -2 -4 4 193.76 228.04 7.25 o
3332 6 -2 -4 3 90.71 108.66 4.26 o
3333 6 -2 -4 2 5.41 8.17 1.04 o
3334 6 -2 -4 1 469.35 598.83 7.67 o
3335 6 -2 -4 -3 0.40 0.28 0.13 <
3336 6 -2 -4 -4 42.11 35.23 1.67 o
3337 6 -2 -4 -5 24.10 23.37 1.42 o
3338 6 -2 -4 -6 0.69 0.57 0.30 <
3339 6 2 -3 -8 9.40 13.50 1.59 o
3340 6 -2 -3 7 15.77 16.18 2.65 o
3341 6 2 -3 -7 15.77 16.07 1.73 o
3342 6 2 -3 -6 18.92 20.95 1.80 o
3343 6 -2 -3 6 18.92 21.55 2.56 o
3344 6 -2 -3 5 65.92 78.59 4.44 o
3345 6 -2 -3 4 7.67 15.75 1.95 o
3346 6 -2 -3 3 211.79 248.37 6.11 o
3347 6 -2 -3 2 404.15 484.45 7.52 o
3348 6 -2 -3 1 6.89 7.94 0.77 o
3349 6 -2 -2 8 1.42 0.81 0.29 <
3350 6 2 -2 -8 1.42 1.49 0.57 <
3351 6 -2 -2 7 15.67 15.21 2.62 o
3352 6 2 -2 -7 15.67 17.78 1.82 o
3353 6 2 -2 -6 43.30 43.12 2.58 o
3354 6 -2 -2 6 43.30 40.19 3.57 o
3355 6 2 -2 -5 38.20 44.97 2.58 o
3356 6 -2 -2 5 38.20 52.13 3.53 o
3357 6 -2 -2 4 113.36 121.49 4.66 o
3358 6 -2 -2 3 144.70 139.87 4.57 o
3359 6 -2 -2 2 50.79 53.75 2.32 o
3360 6 -2 -2 1 404.20 507.34 5.78 o
3361 6 2 -1 -9 5.57 7.26 1.47 o
3361 5 -5 1 9 5.57 7.26 1.47 o
3362 6 -2 -1 9 5.57 6.39 1.97 o
3362 5 5 1 -9 5.57 6.39 1.97 o
3363 6 -2 -1 8 14.15 14.17 2.46 o
3364 6 2 -1 -8 14.15 17.97 2.11 o
3365 6 2 -1 -7 7.67 5.69 1.03 o
3366 6 -2 -1 7 7.67 3.82 1.12 o
3367 6 2 -1 -6 41.89 42.67 2.79 o
3368 6 -2 -1 6 41.89 42.51 3.45 o
3369 6 -2 -1 5 36.67 49.06 3.19 o
3370 6 2 -1 -5 36.67 45.87 2.61 o
3371 6 -2 -1 4 20.25 29.53 2.36 o
3372 6 2 -1 -4 20.25 23.95 1.75 o
3373 6 -2 -1 3 193.20 184.38 4.76 o
3374 6 -2 -1 2 59.36 60.69 2.33 o
3375 6 2 0 -9 5.05 9.31 1.85 o
3375 5 -5 0 9 5.05 9.31 1.85 o
3376 6 -2 0 9 5.05 4.22 1.53 <
3376 5 5 0 -9 5.05 4.22 1.53 <
3377 6 -2 0 8 1.51 2.22 0.97 <
3378 6 2 0 -8 1.51 2.05 0.78 <
3379 6 -2 0 7 21.52 19.79 2.49 o
3380 6 2 0 -7 21.52 19.04 2.15 o
3381 6 2 0 -6 0.64 1.25 0.50 <
3382 6 -2 0 6 0.64 0.79 0.32 <
3383 6 -2 0 5 8.50 9.13 1.44 o
3384 6 2 0 -5 8.50 7.58 1.11 o
3385 6 2 0 -4 142.71 118.81 3.97 o
3386 6 -2 0 4 142.71 127.18 4.35 o
3387 6 2 0 -3 4.64 7.72 0.91 o
3388 6 -2 0 3 4.64 7.94 0.93 o
3389 6 -2 1 9 5.62 6.50 1.62 o
3389 5 5 -1 -9 5.62 6.50 1.62 o
3390 6 2 1 -8 14.90 17.80 2.45 o
3391 6 -2 1 8 14.90 14.48 2.17 o
3392 6 2 1 -7 8.08 6.23 1.25 o
3393 6 -2 1 7 8.08 4.24 1.15 o
3394 6 2 1 -6 42.00 38.42 2.86 o
3395 6 -2 1 6 42.00 45.27 3.22 o
3396 6 2 1 -5 35.39 42.19 2.83 o
3397 6 -2 1 5 35.39 49.77 3.06 o
3398 6 2 1 -4 20.49 21.71 1.93 o
3399 6 -2 1 4 20.49 25.46 1.97 o
3400 6 -2 1 3 187.79 184.30 4.14 o
3401 6 2 1 -3 187.79 177.03 4.54 o
3402 6 2 1 -2 55.35 55.96 2.14 o
3403 6 -2 2 8 1.39 0.68 0.59 <
3404 6 2 2 -8 1.39 2.18 1.09 <
3405 6 2 2 -7 16.25 14.69 2.20 o
3406 6 -2 2 7 16.25 16.18 1.98 o
3407 6 2 2 -6 42.81 44.36 3.34 o
3408 6 -2 2 6 42.81 39.53 2.98 o
3409 6 -2 2 5 39.20 48.17 2.90 o
3410 6 2 2 -5 39.20 47.21 3.08 o
3411 6 2 2 -4 113.84 113.54 4.30 o
3412 6 -2 2 4 113.84 117.44 3.86 o
3413 6 2 2 -3 148.86 135.82 4.21 o
3414 6 2 2 -2 52.72 59.11 2.37 o
3415 6 2 2 -1 404.20 504.68 5.78 o
3416 6 2 3 -8 9.20 9.85 2.13 o
3417 6 -2 3 8 9.20 7.37 1.31 o
3418 6 2 3 -7 15.88 15.54 2.35 o
3419 6 -2 3 7 15.88 11.40 1.66 o
3420 6 -2 3 6 19.65 18.79 1.93 o
3421 6 2 3 -6 19.65 22.46 2.48 o
3422 6 2 3 -5 65.17 78.40 4.28 o
3423 6 -2 3 5 65.17 78.20 3.55 o
3424 6 2 3 -4 7.61 9.95 1.56 o
3425 6 2 3 -3 213.10 242.51 6.10 o
3426 6 2 3 -2 404.79 484.24 7.37 o
3427 6 2 3 -1 6.87 7.22 0.72 o
3428 6 -2 4 8 0.54 0.07 0.10 <
3429 6 -2 4 7 21.09 19.47 2.05 o
3430 6 2 4 -6 45.21 42.11 3.79 o
3431 6 -2 4 6 45.21 44.49 2.73 o
3432 6 2 4 -5 0.34 0.62 0.51 <
3433 6 2 4 -4 194.63 232.01 7.05 o
3434 6 2 4 -3 89.22 107.57 4.32 o
3435 6 2 4 -2 4.66 6.67 0.95 o
3436 6 2 4 -1 469.46 598.71 7.36 o
3437 6 -2 5 8 8.22 5.29 1.03 o
3438 6 -2 5 7 7.49 4.66 0.90 o
3439 6 -2 5 6 29.26 27.31 2.11 o
3440 6 2 5 -4 22.00 33.20 2.87 o
3441 6 2 5 -3 107.93 125.78 4.92 o
3442 6 2 5 -2 114.86 155.45 4.99 o
3443 6 2 5 -1 84.04 122.65 3.86 o
3444 6 -2 6 7 9.34 5.59 0.95 o
3445 6 2 6 -3 26.89 28.70 2.38 o
3446 6 2 6 -2 38.78 49.74 3.09 o
3447 6 2 6 -1 102.62 139.62 4.58 o
3448 6 2 6 1 28.15 23.79 0.84 o
3449 6 2 7 -1 0.16 0.52 0.40 <
3450 6 2 7 1 30.28 25.88 1.10 o
3451 6 2 8 1 17.80 17.71 1.17 o
3452 6 2 9 1 19.63 19.62 1.60 o
3453 6 -3 -6 6 10.44 9.30 1.94 o
3454 6 -3 -6 5 23.73 26.31 3.07 o
3455 6 -3 -6 4 2.10 2.21 0.76 <
3456 6 -3 -6 3 87.78 101.85 4.78 o
3457 6 -3 -6 2 17.35 14.25 1.62 o
3458 6 -3 -6 1 20.37 17.27 1.51 o
3459 6 -3 -5 7 4.73 2.78 1.13 <
3460 6 -3 -5 6 10.80 8.92 1.82 o
3461 6 -3 -5 5 32.63 28.34 2.88 o
3462 6 -3 -5 4 27.96 32.69 2.76 o
3463 6 -3 -5 3 1.50 2.31 0.68 o
3464 6 -3 -5 2 86.11 95.74 3.81 o
3465 6 -3 -5 1 83.61 86.43 3.09 o
3466 6 -3 -5 -1 26.16 21.28 0.99 o
3467 6 -3 -5 -4 5.02 1.89 0.35 o
3468 6 -3 -5 -5 2.71 0.84 0.22 o
3469 6 -3 -4 7 0.54 0.24 0.53 <
3470 6 -3 -4 6 33.07 29.90 3.09 o
3471 6 -3 -4 5 3.71 3.37 1.01 o
3472 6 -3 -4 4 11.15 10.88 1.54 o
3473 6 -3 -4 3 46.23 52.25 3.01 o
3474 6 -3 -4 2 39.54 43.30 2.42 o
3475 6 -3 -4 1 38.48 43.33 2.09 o
3476 6 -3 -3 8 4.30 2.44 0.97 <
3477 6 3 -3 -8 4.30 5.25 1.04 o
3478 6 -3 -3 7 20.33 21.74 2.79 o
3479 6 -3 -3 6 7.32 3.20 1.12 <
3480 6 -3 -3 5 80.08 77.41 4.32 o
3481 6 -3 -3 4 7.82 7.25 1.18 o
3482 6 -3 -3 3 38.09 46.24 2.70 o
3483 6 -3 -3 2 72.56 82.55 3.11 o
3484 6 -3 -3 1 73.70 90.45 2.93 o
3485 6 3 -2 -9 3.61 3.82 0.99 o
3485 5 -4 2 9 3.61 3.82 0.99 o
3486 6 -3 -2 8 8.42 8.84 1.88 o
3487 6 3 -2 -8 8.42 11.21 1.60 o
3488 6 -3 -2 7 2.36 2.22 0.96 <
3489 6 3 -2 -7 2.36 3.10 0.74 o
3490 6 -3 -2 6 72.43 65.17 4.29 o
3491 6 3 -2 -6 72.43 81.87 3.88 o
3492 6 -3 -2 5 29.98 27.62 2.59 o
3493 6 -3 -2 4 0.74 0.03 0.19 <
3494 6 -3 -2 3 144.68 149.88 4.56 o
3495 6 -3 -2 2 104.17 114.21 3.59 o
3496 6 3 -1 -9 7.67 15.38 2.19 o
3496 5 -4 1 9 7.67 15.38 2.19 o
3497 6 -3 -1 9 7.67 12.19 2.28 o
3497 5 4 1 -9 7.67 12.19 2.28 o
3498 6 -3 -1 8 7.95 6.85 1.61 o
3499 6 3 -1 -8 7.95 11.17 1.60 o
3500 6 -3 -1 7 18.19 18.64 2.46 o
3501 6 3 -1 -7 18.19 20.32 2.05 o
3502 6 -3 -1 6 17.94 15.83 2.15 o
3503 6 3 -1 -6 17.94 17.09 1.78 o
3504 6 -3 -1 5 78.09 80.68 4.17 o
3505 6 3 -1 -5 78.09 82.35 3.61 o
3506 6 -3 -1 4 171.87 146.70 4.93 o
3507 6 -3 -1 3 7.85 6.67 0.96 o
3508 6 3 0 -9 4.73 6.79 1.44 o
3508 5 -4 0 9 4.73 6.79 1.44 o
3509 6 -3 0 9 4.73 4.73 1.34 o
3509 5 4 0 -9 4.73 4.73 1.34 o
3510 6 -3 0 8 23.60 25.62 3.05 o
3511 6 3 0 -8 23.60 29.34 2.95 o
3512 6 3 0 -7 0.66 0.62 0.02 o
3513 6 -3 0 7 0.66 0.61 0.34 <
3514 6 3 0 -6 5.03 4.97 0.95 o
3515 6 -3 0 6 5.03 4.34 1.30 o
3516 6 3 0 -5 56.97 56.02 3.04 o
3517 6 -3 0 5 56.97 58.90 3.43 o
3518 6 3 0 -4 32.39 44.55 2.49 o
3519 6 -3 0 4 32.39 45.59 2.69 o
3520 6 -3 1 9 7.69 12.02 2.15 o
3520 5 4 -1 -9 7.69 12.02 2.15 o
3521 6 3 1 -8 8.07 8.76 1.49 o
3522 6 -3 1 8 8.07 7.98 1.62 o
3523 6 -3 1 7 18.09 19.46 2.43 o
3524 6 3 1 -7 18.09 19.59 2.24 o
3525 6 -3 1 6 17.58 15.64 1.93 o
3526 6 3 1 -6 17.58 17.16 1.91 o
3527 6 3 1 -5 80.82 88.76 3.97 o
3528 6 -3 1 5 80.82 81.62 3.89 o
3529 6 3 1 -4 173.90 160.51 4.83 o
3530 6 3 1 -3 8.04 5.29 0.86 o
3531 6 -3 2 9 3.77 2.25 0.80 <
3531 5 4 -2 -9 3.77 2.25 0.80 <
3532 6 -3 2 8 8.82 7.44 1.48 o
3533 6 3 2 -8 8.82 9.06 1.74 o
3534 6 3 2 -7 2.38 2.24 0.83 <
3535 6 -3 2 7 2.38 1.58 0.59 <
3536 6 3 2 -6 73.02 73.14 4.06 o
3537 6 -3 2 6 73.02 71.15 4.09 o
3538 6 3 2 -5 29.35 28.11 2.41 o
3539 6 3 2 -4 0.96 0.17 0.18 <
3540 6 3 2 -3 144.82 145.25 4.31 o
3541 6 3 2 -2 100.54 113.24 3.59 o
3542 6 -3 3 8 4.30 2.49 0.80 o
3543 6 3 3 -8 4.30 2.68 0.84 o
3544 6 3 3 -7 20.74 23.66 2.71 o
3545 6 -3 3 7 20.74 24.14 2.43 o
3546 6 3 3 -6 7.09 4.34 1.06 o
3547 6 -3 3 6 7.09 4.38 0.95 o
3548 6 3 3 -5 80.38 72.89 4.01 o
3549 6 3 3 -4 8.62 8.26 1.25 o
3550 6 3 3 -3 37.91 46.44 2.62 o
3551 6 3 3 -2 72.94 82.64 2.97 o
3552 6 -3 4 8 4.04 2.99 0.79 o
3553 6 -3 4 7 0.54 0.40 0.10 o
3554 6 3 4 -7 0.54 1.02 0.59 <
3555 6 3 4 -6 33.00 29.71 2.93 o
3556 6 3 4 -5 3.52 2.75 0.85 o
3557 6 3 4 -4 11.17 12.59 1.60 o
3558 6 3 4 -3 46.52 51.29 2.87 o
3559 6 3 4 -2 40.37 48.37 2.45 o
3560 6 3 4 -1 37.65 41.12 1.96 o
3561 6 -3 5 8 2.46 1.44 0.64 <
3562 6 3 5 -7 4.42 2.81 1.19 <
3563 6 3 5 -6 11.15 8.40 1.65 o
3564 6 3 5 -5 31.61 31.10 2.90 o
3565 6 3 5 -4 26.09 30.01 2.66 o
3566 6 3 5 -3 1.54 2.42 0.64 o
3567 6 3 5 -2 85.47 94.90 3.58 o
3568 6 3 5 -1 84.39 87.45 2.73 o
3569 6 3 6 -6 10.21 9.68 1.79 o
3570 6 3 6 -5 24.15 25.74 3.02 o
3571 6 3 6 -4 2.00 3.00 0.88 o
3572 6 3 6 -3 87.94 108.57 4.76 o
3573 6 3 6 -2 18.74 17.70 1.69 o
3574 6 3 6 -1 18.94 14.75 1.19 o
3575 6 3 7 -5 11.23 12.57 1.95 o
3576 6 3 7 -4 65.13 83.31 4.91 o
3577 6 3 7 -3 3.18 1.75 0.66 <
3578 6 3 7 -2 19.26 19.92 1.87 o
3579 6 3 7 -1 20.65 15.81 1.32 o
3580 6 3 8 -4 2.80 2.00 0.80 <
3581 6 3 8 -3 50.66 63.35 4.10 o
3582 6 3 8 -2 14.50 19.01 1.99 o
3583 6 3 8 -1 15.15 16.56 1.50 o
3584 6 3 9 -2 30.41 41.42 3.25 o
3585 6 3 9 -1 30.69 32.89 2.33 o
3586 6 -4 -7 6 2.55 1.67 0.87 <
3587 6 -4 -7 5 1.30 0.03 0.34 <
3588 6 -4 -7 4 48.84 50.57 3.76 o
3589 6 -4 -7 3 32.24 31.68 2.62 o
3590 6 -4 -7 2 0.21 -0.05 0.11 <
3591 6 -4 -7 1 30.50 24.78 1.71 o
3592 6 -4 -6 6 0.75 0.22 0.49 <
3593 6 -4 -6 5 33.50 35.85 3.28 o
3594 6 -4 -6 4 16.33 17.39 2.04 o
3595 6 -4 -6 3 4.96 4.16 0.91 o
3596 6 -4 -6 2 27.47 23.44 1.97 o
3597 6 -4 -6 1 5.52 5.36 0.79 o
3598 6 -4 -6 -1 34.22 21.06 1.09 o
3599 6 -4 -6 -2 0.53 0.17 0.09 <
3600 6 -4 -5 7 9.76 9.55 2.03 o
3601 6 -4 -5 6 18.71 17.73 2.48 o
3602 6 -4 -5 5 7.11 6.48 1.27 o
3603 6 -4 -5 4 13.59 14.14 1.79 o
3604 6 -4 -5 3 28.27 29.27 2.36 o
3605 6 -4 -5 2 1.85 1.31 0.48 <
3606 6 -4 -5 1 29.37 29.72 1.88 o
3607 6 -4 -5 -1 5.83 5.07 0.70 o
3608 6 -4 -4 7 7.84 6.42 1.52 o
3609 6 -4 -4 6 7.11 6.81 1.40 o
3610 6 -4 -4 5 21.53 21.91 2.38 o
3611 6 -4 -4 4 0.21 0.09 0.18 <
3612 6 -4 -4 3 2.80 2.48 0.60 o
3613 6 -4 -4 2 100.97 101.04 3.97 o
3614 6 -4 -4 1 4.03 3.06 0.66 o
3615 6 -4 -3 8 2.13 0.62 0.81 <
3615 1 -7 3 5 2.13 0.62 0.81 <
3616 6 -4 -3 7 14.67 12.78 2.17 o
3617 6 -4 -3 6 18.61 18.16 2.29 o
3618 6 -4 -3 5 3.89 2.38 0.72 o
3619 6 -4 -3 4 9.93 9.70 1.34 o
3620 6 -4 -3 3 34.31 40.93 2.62 o
3621 6 -4 -3 2 3.33 2.44 0.62 o
3622 6 4 -2 -9 2.51 3.80 1.13 o
3622 5 -3 2 9 2.51 3.80 1.13 o
3623 6 4 -2 -8 10.81 10.26 1.62 o
3623 1 7 2 -5 10.81 10.26 1.62 o
3624 6 -4 -2 8 10.81 6.83 1.64 o
3624 1 -7 2 5 10.81 6.83 1.64 o
3625 6 -4 -2 7 8.79 5.92 1.45 o
3626 6 -4 -2 6 4.85 5.34 1.15 o
3627 6 -4 -2 5 39.51 34.92 2.81 o
3628 6 -4 -2 4 4.95 4.48 0.98 o
3629 6 -4 -2 3 40.53 42.77 2.76 o
3630 6 4 -1 -9 8.68 16.15 2.14 o
3630 5 -3 1 9 8.68 16.15 2.14 o
3631 6 -4 -1 8 4.71 1.04 0.55 <
3631 1 -7 1 5 4.71 1.04 0.55 <
3632 6 4 -1 -8 4.71 2.26 0.81 <
3632 1 7 1 -5 4.71 2.26 0.81 <
3633 6 -4 -1 7 16.25 14.73 2.27 o
3634 6 4 -1 -7 16.25 20.07 2.12 o
3635 6 -4 -1 6 15.15 17.08 2.07 o
3636 6 -4 -1 5 14.52 11.94 1.65 o
3637 6 -4 -1 4 126.74 135.12 4.95 o
3638 6 -4 0 9 3.54 4.87 1.52 o
3638 5 3 0 -9 3.54 4.87 1.52 o
3639 6 -4 0 8 30.42 24.80 3.18 o
3639 1 -7 0 5 30.42 24.80 3.18 o
3640 6 4 0 -8 30.42 27.26 2.74 o
3640 1 7 0 -5 30.42 27.26 2.74 o
3641 6 4 0 -7 17.32 18.96 2.03 o
3642 6 -4 0 7 17.32 17.36 2.27 o
3643 6 -4 0 6 0.86 -0.46 0.49 <
3644 6 4 0 -6 0.86 0.42 0.36 <
3645 6 4 0 -5 111.03 122.49 4.74 o
3646 6 -4 0 5 111.03 118.19 4.86 o
3647 6 -4 1 9 8.67 11.66 2.32 o
3647 5 3 -1 -9 8.67 11.66 2.32 o
3648 6 4 1 -8 4.68 3.20 0.95 o
3648 1 7 -1 -5 4.68 3.20 0.95 o
3649 6 -4 1 8 4.68 2.20 0.89 <
3649 1 -7 -1 5 4.68 2.20 0.89 <
3650 6 -4 1 7 15.62 15.40 2.08 o
3651 6 4 1 -7 15.62 15.97 1.95 o
3652 6 4 1 -6 15.28 20.55 2.02 o
3653 6 -4 1 6 15.28 18.03 2.08 o
3654 6 4 1 -5 14.43 14.82 1.72 o
3655 6 -4 2 9 2.41 2.81 1.20 <
3655 5 3 -2 -9 2.41 2.81 1.20 <
3656 6 4 2 -8 10.36 8.51 1.57 o
3656 1 7 -2 -5 10.36 8.51 1.57 o
3657 6 -4 2 8 10.36 6.19 1.45 o
3657 1 -7 -2 5 10.36 6.19 1.45 o
3658 6 4 2 -7 8.53 9.51 1.46 o
3659 6 -4 2 7 8.53 8.80 1.55 o
3660 6 4 2 -6 4.79 6.15 1.18 o
3661 6 4 2 -5 40.34 39.42 2.76 o
3662 6 4 2 -4 5.42 7.01 1.10 o
3663 6 4 3 -8 2.19 1.02 0.57 <
3663 1 7 -3 -5 2.19 1.02 0.57 <
3664 6 -4 3 8 2.19 1.53 0.79 <
3664 1 -7 -3 5 2.19 1.53 0.79 <
3665 6 4 3 -7 14.54 16.26 2.13 o
3666 6 4 3 -6 18.22 18.41 2.12 o
3667 6 4 3 -5 4.07 4.37 0.89 o
3668 6 4 3 -4 9.59 10.53 1.36 o
3669 6 4 3 -3 33.42 38.11 2.47 o
3670 6 4 4 -7 8.08 8.58 1.56 o
3671 6 4 4 -6 7.00 7.57 1.32 o
3672 6 4 4 -5 20.68 25.00 2.42 o
3673 6 4 4 -4 0.18 0.59 0.36 <
3674 6 4 4 -3 3.18 4.10 0.79 o
3675 6 4 5 -7 10.07 11.90 1.86 o
3676 6 4 5 -6 18.98 21.55 2.51 o
3677 6 4 5 -5 7.01 6.71 1.23 o
3678 6 4 5 -4 14.04 21.54 2.25 o
3679 6 4 5 -3 29.90 32.61 2.27 o
3680 6 4 5 -2 1.83 1.73 0.51 o
3681 6 4 6 -6 0.84 1.33 0.83 <
3682 6 4 6 -5 33.83 41.53 3.42 o
3683 6 4 6 -4 16.13 21.22 2.17 o
3684 6 4 6 -3 5.28 6.89 1.06 o
3685 6 4 6 -2 27.58 24.80 1.72 o
3686 6 4 7 -6 2.56 1.32 0.66 <
3687 6 4 7 -5 1.29 0.99 0.52 <
3688 6 4 7 -4 48.99 62.70 3.93 o
3689 6 4 7 -3 31.44 37.67 2.62 o
3690 6 4 7 -2 0.21 -0.07 0.08 <
3691 6 4 7 -1 31.20 31.02 1.73 o
3692 6 4 8 -5 16.24 15.35 2.15 o
3693 6 4 8 -4 8.32 8.14 1.48 o
3694 6 4 8 -3 4.55 4.90 0.99 o
3695 6 4 8 -2 23.53 25.23 1.85 o
3696 6 4 8 -1 4.48 3.89 0.58 o
3697 6 4 9 -3 9.89 9.45 1.43 o
3698 6 4 9 -2 0.01 -0.17 0.34 <
3699 6 4 9 -1 10.07 8.07 0.81 o
3700 6 -5 -8 4 9.31 3.87 0.93 o
3701 6 -5 -8 3 0.91 0.60 0.35 <
3702 6 -5 -8 2 0.89 0.46 0.37 <
3703 6 -5 -8 1 8.30 2.92 0.48 o
3704 6 -5 -7 6 4.40 4.15 1.35 o
3705 6 -5 -7 5 5.14 4.03 1.10 o
3706 6 -5 -7 4 0.68 0.60 0.12 o
3707 6 -5 -7 3 3.13 2.85 0.87 o
3708 6 -5 -7 2 2.74 1.68 0.57 <
3709 6 -5 -7 1 0.51 0.21 0.11 <
3710 6 -5 -7 -1 3.63 1.15 0.22 o
3711 6 -5 -6 6 1.25 7.16 1.93 o
3712 6 -5 -6 5 4.79 2.10 0.75 <
3713 6 -5 -6 4 19.80 22.17 2.37 o
3714 6 -5 -6 3 6.41 7.96 1.25 o
3715 6 -5 -6 2 5.32 8.00 1.18 o
3716 6 -5 -6 1 20.71 18.19 1.68 o
3717 6 -5 -6 -1 0.82 0.58 0.23 <
3718 6 -5 -5 7 2.03 1.04 0.56 <
3718 1 -6 5 6 2.03 1.04 0.56 <
3719 6 -5 -5 6 12.91 15.39 2.20 o
3720 6 -5 -5 5 13.38 13.19 1.98 o
3721 6 -5 -5 4 1.56 0.00 0.39 <
3722 6 -5 -5 3 30.54 36.19 2.75 o
3723 6 -5 -5 2 30.71 40.32 2.67 o
3724 6 -5 -5 1 1.00 0.46 0.29 <
3725 6 -5 -4 7 23.00 24.05 2.94 o
3725 1 -6 4 6 23.00 24.05 2.94 o
3726 6 -5 -4 6 15.74 20.05 2.47 o
3727 6 -5 -4 5 0.16 -0.19 0.35 <
3728 6 -5 -4 4 39.47 46.23 3.23 o
3729 6 -5 -4 3 6.07 7.09 1.23 o
3730 6 -5 -3 7 10.69 5.55 1.42 o
3730 1 -6 3 6 10.69 5.55 1.42 o
3731 6 -5 -3 6 11.17 17.20 2.32 o
3732 6 -5 -3 5 17.32 21.25 2.29 o
3733 6 -5 -3 4 0.47 0.30 0.41 <
3734 6 -5 -2 8 1.38 0.64 0.61 <
3735 6 -5 -2 7 24.47 23.97 3.06 o
3735 1 -6 2 6 24.47 23.97 3.06 o
3736 6 -5 -2 6 11.89 14.75 2.12 o
3737 6 -5 -2 5 0.84 0.28 0.06 o
3738 6 -5 -1 8 4.81 4.13 1.31 o
3739 6 -5 -1 7 6.58 3.59 1.09 o
3739 1 -6 1 6 6.58 3.59 1.09 o
3740 6 -5 -1 6 12.58 14.66 2.00 o
3741 6 -5 0 8 0.70 0.23 0.30 <
3742 6 5 0 -8 0.70 0.54 0.99 <
3743 6 -5 0 7 8.06 6.09 1.36 o
3743 1 -6 0 6 8.06 6.09 1.36 o
3744 6 5 0 -7 8.06 6.47 1.35 o
3744 1 6 0 -6 8.06 6.47 1.35 o
3745 6 -5 1 8 4.65 3.94 1.14 o
3746 6 5 1 -8 4.65 6.22 1.35 o
3747 6 5 1 -7 6.81 7.34 1.26 o
3747 1 6 -1 -6 6.81 7.34 1.26 o
3748 6 5 1 -6 12.59 18.71 2.19 o
3749 6 5 2 -8 1.34 0.73 0.38 <
3750 6 5 2 -7 23.85 25.09 2.60 o
3750 1 6 -2 -6 23.85 25.09 2.60 o
3751 6 5 2 -6 12.16 20.15 2.20 o
3752 6 5 2 -5 0.90 1.37 0.61 <
3753 6 5 3 -7 10.69 6.96 1.35 o
3753 1 6 -3 -6 10.69 6.96 1.35 o
3754 6 5 3 -6 11.13 21.25 2.29 o
3755 6 5 3 -5 17.81 25.99 2.46 o
3756 6 5 4 -7 23.34 29.82 3.05 o
3756 1 6 -4 -6 23.34 29.82 3.05 o
3757 6 5 4 -6 15.60 26.25 2.55 o
3758 6 5 4 -5 0.14 0.28 0.40 <
3759 6 5 4 -4 40.35 54.07 3.28 o
3760 6 5 5 -7 1.97 1.50 0.67 <
3760 1 6 -5 -6 1.97 1.50 0.67 <
3761 6 5 5 -6 12.89 20.86 2.44 o
3762 6 5 5 -5 13.07 17.56 1.95 o
3763 6 5 5 -4 1.55 0.06 0.22 <
3764 6 5 5 -3 31.41 39.34 2.67 o
3765 6 5 6 -6 1.17 5.11 1.60 o
3766 6 5 6 -5 4.71 5.99 1.21 o
3767 6 5 6 -4 19.71 26.40 2.19 o
3768 6 5 6 -3 6.05 7.24 1.10 o
3769 6 5 7 -6 4.47 7.18 1.52 o
3770 6 5 7 -5 5.25 7.61 1.42 o
3771 6 5 7 -4 0.66 0.71 0.34 <
3772 6 5 7 -3 2.87 2.38 0.57 o
3773 6 5 8 -4 9.18 8.46 1.30 o
3774 6 5 8 -3 1.05 0.93 0.31 o
3775 6 5 8 -2 0.74 0.67 0.35 <
3776 6 -6 -7 4 3.73 3.38 1.04 o
3777 6 -6 -7 3 0.28 0.58 0.40 <
3778 6 -6 -7 2 3.50 2.46 0.73 o
3779 6 -6 -6 6 7.94 5.92 1.53 o
3779 1 -5 6 7 7.94 5.92 1.53 o
3780 6 -6 -6 5 2.26 1.40 0.56 <
3781 6 -6 -6 4 1.41 0.16 0.14 <
3782 6 -6 -6 3 7.60 8.10 1.33 o
3783 6 -6 -6 2 1.09 0.18 0.26 <
3784 6 -6 -5 6 1.98 0.71 0.47 <
3784 1 -5 5 7 1.98 0.71 0.47 <
3785 6 -6 -5 5 8.30 9.46 1.78 o
3786 6 -6 -5 4 6.28 8.85 1.63 o
3787 6 -6 -5 3 0.22 0.46 0.50 <
3788 6 -6 -4 7 0.48 0.88 0.85 <
3789 6 -6 -4 6 23.39 21.11 2.74 o
3789 1 -5 4 7 23.39 21.11 2.74 o
3790 6 -6 -4 5 2.49 1.61 0.72 <
3791 6 -6 -4 4 6.01 9.42 1.75 o
3792 6 -6 -3 7 5.72 8.78 1.80 o
3793 6 -6 -3 6 10.67 9.50 1.81 o
3793 1 -5 3 7 10.67 9.50 1.81 o
3794 6 -6 -2 7 0.03 -0.98 0.59 <
3795 6 6 2 -7 0.04 0.04 0.39 <
3796 6 6 3 -7 5.71 14.56 2.14 o
3797 6 6 3 -6 10.68 10.31 1.74 o
3797 1 5 -3 -7 10.68 10.31 1.74 o
3798 6 6 4 -6 23.05 21.65 2.54 o
3798 1 5 -4 -7 23.05 21.65 2.54 o
3799 6 6 5 -6 2.03 0.88 0.52 <
3799 1 5 -5 -7 2.03 0.88 0.52 <
3800 6 6 5 -5 8.02 10.81 1.66 o
3801 6 6 6 -6 7.83 7.60 1.58 o
3801 1 5 -6 -7 7.83 7.60 1.58 o
3802 6 6 6 -5 2.43 3.61 0.92 o
3803 6 6 6 -4 1.30 0.29 0.15 <
3804 6 6 7 -4 3.74 3.49 0.80 o
3805 6 -7 -5 5 1.16 1.13 0.98 <
3805 1 -4 5 8 1.16 1.13 0.98 <
