#------------------------------------------------------------------------------
#$Date: 2019-11-17 15:32:33 +0200 (Sun, 17 Nov 2019) $
#$Revision: 230902 $
#$URL: file:///home/coder/svn-repositories/cod/cif/7/23/14/7231422.cif $
#------------------------------------------------------------------------------
#
# This file is available in the Crystallography Open Database (COD),
# http://www.crystallography.net/
#
# All data on this site have been placed in the public domain by the
# contributors.
#
data_7231422
loop_
_publ_author_name
'Collings, Ines E.'
'Manna, Rudra Sekhar'
'Tsirlin, Alexander A.'
'Bykov, Maxim'
'Bykova, Elena'
'Hanfland, Michael'
'Gegenwart, Philipp'
'van Smaalen, Sander'
'Dubrovinsky, Leonid'
'Dubrovinskaia, Natalia'
_publ_section_title
;
 Pressure dependence of spin canting in ammonium metal formate
 antiferromagnets.
;
_journal_issue                   37
_journal_name_full               'Physical chemistry chemical physics : PCCP'
_journal_page_first              24465
_journal_page_last               24476
_journal_paper_doi               10.1039/c8cp03761b
_journal_volume                  20
_journal_year                    2018
_chemical_formula_moiety         'C3 H3 Fe O6, N H4'
_chemical_formula_sum            'C3 H7 Fe N O6'
_chemical_formula_weight         208.9
_space_group_IT_number           4
_space_group_name_Hall           'P 2yb'
_space_group_name_H-M_alt        'P 1 21 1'
_symmetry_cell_setting           monoclinic
_symmetry_Int_Tables_number      4
_symmetry_space_group_name_Hall  'P 2yb'
_symmetry_space_group_name_H-M   'P 1 21 1'
_audit_creation_method           'Jana2006 Version : 25/10/2015'
_audit_update_record
;
2018-08-09 deposited with the CCDC.
2018-08-22 downloaded from the CCDC.
;
_cell_angle_alpha                90
_cell_angle_beta                 117.39(3)
_cell_angle_gamma                90
_cell_formula_units_Z            2
_cell_length_a                   6.8121(17)
_cell_length_b                   8.3238(9)
_cell_length_c                   7.3916(17)
_cell_measurement_reflns_used    239
_cell_measurement_temperature    293
_cell_measurement_theta_max      14.48
_cell_measurement_theta_min      1.95
_cell_volume                     372.14(17)
_computing_cell_refinement       'CrysAlisPro 1.171.38.46 (Rigaku OD, 2015)'
_computing_data_collection       'CrysAlisPro 1.171.38.46 (Rigaku OD, 2015)'
_computing_data_reduction        'CrysAlisPro 1.171.38.46 (Rigaku OD, 2015)'
_diffrn_ambient_pressure         '0.59 GPa'
_diffrn_ambient_temperature      293
_diffrn_detector                 'CCD plate'
_diffrn_measured_fraction_theta_full 0.94
_diffrn_measured_fraction_theta_max 0.6
_diffrn_measurement_device       'ID15B beamline, ESRF'
_diffrn_measurement_device_type
'esperanto-CrysAlisPro-abstract goniometer imported esperanto images'
_diffrn_measurement_method       '\w scans'
_diffrn_measurement_specimen_support 'diamond-anvil cell'
_diffrn_radiation_monochromator  synchrotron
_diffrn_radiation_probe          x-ray
_diffrn_radiation_source         synchrotron
_diffrn_radiation_type           synchrotron
_diffrn_radiation_wavelength     0.41111
_diffrn_reflns_av_R_equivalents  0.0235
_diffrn_reflns_av_unetI/netI     0.0411
_diffrn_reflns_limit_h_max       11
_diffrn_reflns_limit_h_min       -10
_diffrn_reflns_limit_k_max       11
_diffrn_reflns_limit_k_min       -11
_diffrn_reflns_limit_l_max       11
_diffrn_reflns_limit_l_min       -12
_diffrn_reflns_number            4649
_diffrn_reflns_theta_full        11.77
_diffrn_reflns_theta_max         20.35
_diffrn_reflns_theta_min         1.95
_diffrn_source                   synchrotron
_exptl_absorpt_coefficient_mu    0.425
_exptl_absorpt_correction_T_max  1
_exptl_absorpt_correction_T_min  0.921
_exptl_absorpt_correction_type   multi-scan
_exptl_absorpt_process_details
;
CrysAlisPro 1.171.38.46 (Rigaku Oxford Diffraction, 2015)
Empirical absorption correction using spherical harmonics,
 implemented in SCALE3 ABSPACK scaling algorithm.
;
_exptl_crystal_colour            colourless
_exptl_crystal_density_diffrn    1.8646
_exptl_crystal_description       block
_exptl_crystal_F_000             204
_exptl_crystal_size_max          0.170
_exptl_crystal_size_mid          0.110
_exptl_crystal_size_min          0.050
_refine_ls_abs_structure_details
'  1176 of Friedel pairs used in the refinement'
_refine_ls_extinction_method     none
_refine_ls_goodness_of_fit_gt    3.24
_refine_ls_goodness_of_fit_ref   2.92
_refine_ls_hydrogen_treatment    constr
_refine_ls_number_constraints    49
_refine_ls_number_parameters     69
_refine_ls_number_reflns         4649
_refine_ls_number_restraints     0
_refine_ls_R_factor_all          0.0925
_refine_ls_R_factor_gt           0.0781
_refine_ls_shift/su_max          0.0288
_refine_ls_shift/su_mean         0.0026
_refine_ls_structure_factor_coef F
_refine_ls_weighting_details     w=1/(\s^2^(F)+0.0001F^2^)
_refine_ls_weighting_scheme      sigma
_refine_ls_wR_factor_gt          0.0960
_refine_ls_wR_factor_ref         0.0989
_reflns_number_gt                3566
_reflns_number_total             4649
_reflns_threshold_expression     I>3\s(I)
_cod_data_source_file            c8cp03761b2.cif
_cod_data_source_block           AFeF_c4_p05
_cod_depositor_comments
;
The following automatic conversions were performed:

'_diffrn_radiation_probe' value 'X-ray' changed to 'x-ray' according
to
/home/data/users/saulius/crontab/automatic-downloads/rss-feeds/RSC/lib/dictionaries/cif_core.dic
dictionary named 'cif_core.dic' version 2.4.2 from 2011-04-26.

Automatic conversion script
Id: cif_fix_values 4973 2017-02-22 13:04:09Z antanas 

 Adding full bibliography for 7231402--7231432.cif.
;
_cod_original_formula_sum        'C3 H7 Fe1 N1 O6'
_cod_database_code               7231422
loop_
_space_group_symop_id
_space_group_symop_operation_xyz
1 x,y,z
2 -x,y+1/2,-z
loop_
_atom_site_label
_atom_site_type_symbol
_atom_site_fract_x
_atom_site_fract_y
_atom_site_fract_z
_atom_site_adp_type
_atom_site_U_iso_or_equiv
_atom_site_site_symmetry_multiplicity
_atom_site_occupancy
_atom_site_calc_flag
Fe1 Fe 0.66119(14) 0.24965(11) 0.32236(11) Uani 0.0336(3) 2 1 d
O1 O 0.8876(8) 0.1065(5) 0.5664(6) Uani 0.0456(13) 2 1 d
O2 O 0.6099(8) 0.6075(5) 0.7033(7) Uani 0.0468(14) 2 1 d
O3 O 0.6994(8) 0.1030(5) 0.1058(6) Uani 0.0440(14) 2 1 d
O4 O 0.9053(8) 0.3922(5) 0.2959(7) Uani 0.0456(13) 2 1 d
O5 O 0.6838(8) 0.3937(5) 0.5677(6) Uani 0.0468(14) 2 1 d
O6 O 0.4059(7) 0.3981(6) 0.1048(6) Uani 0.0440(14) 2 1 d
C1 C 1.0363(12) 0.4751(7) 0.4417(10) Uani 0.0456(13) 2 1 d
C2 C 0.5988(12) 0.5273(7) 0.5582(10) Uani 0.0468(14) 2 1 d
C3 C 0.4334(12) 0.4993(8) 0.0004(12) Uani 0.0440(14) 2 1 d
N1 N -0.0247(9) 0.2488(11) -0.0480(8) Uani 0.052(2) 2 1 d
H1c1 H 1.082648 0.431102 0.575302 Uiso 0.0547 2 1 d
H1c2 H 0.516194 0.572888 0.424841 Uiso 0.0561 2 1 d
H1c3 H 0.573738 0.498173 0.00145 Uiso 0.0528 2 1 d
loop_
_atom_site_aniso_label
_atom_site_aniso_type_symbol
_atom_site_aniso_U_11
_atom_site_aniso_U_22
_atom_site_aniso_U_33
_atom_site_aniso_U_12
_atom_site_aniso_U_13
_atom_site_aniso_U_23
Fe1 Fe 0.0584(5) 0.0043(4) 0.0349(4) 0.0005(5) 0.0188(3) 0.0000(4)
O1 O 0.065(2) 0.0179(16) 0.0428(17) 0.0137(13) 0.0155(14) 0.0028(11)
O2 O 0.077(2) 0.0196(16) 0.0425(16) 0.0113(14) 0.0265(15) -0.0047(11)
O3 O 0.063(2) 0.0213(17) 0.0448(17) -0.0058(13) 0.0228(15) -0.0136(10)
O4 O 0.065(2) 0.0179(16) 0.0428(17) 0.0137(13) 0.0155(14) 0.0028(11)
O5 O 0.077(2) 0.0196(16) 0.0425(16) 0.0113(14) 0.0265(15) -0.0047(11)
O6 O 0.063(2) 0.0213(17) 0.0448(17) -0.0058(13) 0.0228(15) -0.0136(10)
C1 C 0.065(2) 0.0179(16) 0.0428(17) 0.0137(13) 0.0155(14) 0.0028(11)
C2 C 0.077(2) 0.0196(16) 0.0425(16) 0.0113(14) 0.0265(15) -0.0047(11)
C3 C 0.063(2) 0.0213(17) 0.0448(17) -0.0058(13) 0.0228(15) -0.0136(10)
N1 N 0.059(3) 0.041(3) 0.057(3) -0.009(4) 0.027(3) 0.000(5)
loop_
_atom_type_symbol
_atom_type_scat_dispersion_real
_atom_type_scat_dispersion_imag
_atom_type_scat_source
C -0.0001 0.0005 'International Tables Vol C tables 4.2.6.8 and 6.1.1.1'
H 0.0000 0.0000 'International Tables Vol C tables 4.2.6.8 and 6.1.1.1'
Fe 0.1967 0.3056 'International Tables Vol C tables 4.2.6.8 and 6.1.1.1'
N 0.0006 0.0010 'International Tables Vol C tables 4.2.6.8 and 6.1.1.1'
O 0.0018 0.0018 'International Tables Vol C tables 4.2.6.8 and 6.1.1.1'
loop_
_twin_individual_id
_twin_individual_mass_fraction_refined
_twin_individual_twin_matrix_11
_twin_individual_twin_matrix_12
_twin_individual_twin_matrix_13
_twin_individual_twin_matrix_21
_twin_individual_twin_matrix_22
_twin_individual_twin_matrix_23
_twin_individual_twin_matrix_31
_twin_individual_twin_matrix_32
_twin_individual_twin_matrix_33
1 0.138(3) 1 0 0 0 1 0 0 0 1
2 0.1962(13) 1 0 0 0 -1 0 0.848 0 -1
3 0.1690(12) -0.0513 0 -1.0583 0 1 0 0.8989 0 -0.9487
4 0.1883(12) -0.9487 0 1.0583 0 -1 0 0.0944 0 0.9487
5 0.1057(9) -0.9487 0 1.0583 0 1 0 -0.8989 0 -0.0513
6 0.2025(14) -0.0513 0 -1.0583 0 -1 0 -0.9424 0 0.0513
loop_
_twin_refln_datum_id
_twin_refln_individual_id
_twin_refln_index_h
_twin_refln_index_k
_twin_refln_index_l
_twin_refln_f_squared_calc
_twin_refln_f_squared_meas
_twin_refln_f_squared_sigma
_twin_refln_include_status
1 1 0 0 2 6.45 7.94 0.73 o
2 1 0 0 3 208.13 151.34 4.16 o
3 1 0 0 4 7.35 4.58 0.88 o
4 1 0 1 1 485.29 449.62 4.41 o
5 1 0 -1 -1 485.31 463.31 4.64 o
6 1 0 1 2 66.95 63.77 2.23 o
7 1 0 -1 -2 66.99 66.32 2.33 o
8 1 0 -1 -3 46.45 41.90 2.34 o
9 1 0 1 3 46.45 39.63 2.22 o
10 1 0 1 4 193.94 158.47 5.15 o
11 1 0 -1 -4 193.92 149.16 5.26 o
12 1 0 -1 -5 47.41 41.25 2.89 o
13 1 0 1 5 47.39 40.51 3.00 o
14 1 0 1 6 17.20 15.60 2.11 o
15 1 0 1 7 9.06 6.79 1.64 o
16 1 0 1 8 2.68 0.80 0.70 <
17 1 0 2 1 0.17 0.34 0.13 <
18 1 0 -2 -1 0.23 0.09 0.03 <
19 1 0 2 2 165.08 138.33 3.43 o
20 1 0 -2 -2 165.01 137.89 3.62 o
21 1 0 2 3 165.28 159.14 4.34 o
22 1 0 -2 -3 165.17 161.06 4.77 o
23 1 0 -2 -4 6.68 5.02 1.05 o
24 1 0 2 4 6.68 4.71 0.96 o
25 1 0 -2 -5 32.43 28.14 2.57 o
26 1 0 2 5 32.39 25.89 2.27 o
27 1 0 2 6 26.30 23.50 2.66 o
28 1 0 -2 -6 26.33 23.87 2.54 o
29 1 0 2 7 4.65 1.88 0.89 <
30 1 0 -2 -7 4.65 2.68 0.98 <
31 1 0 2 8 4.27 2.52 1.12 <
32 1 0 -3 -1 12.03 10.72 0.90 o
33 1 0 3 1 11.97 11.53 0.93 o
34 1 0 3 2 323.69 341.08 5.64 o
35 1 0 -3 -2 323.68 338.60 6.23 o
36 1 0 3 3 1.80 1.08 0.42 <
37 1 0 -3 -3 1.80 0.52 0.29 <
38 1 0 -3 -4 0.55 0.32 0.29 <
39 1 0 3 4 0.54 0.32 0.30 <
40 1 0 3 5 12.35 10.27 1.59 o
41 1 0 -3 -5 12.39 10.73 1.64 o
42 1 0 3 6 0.02 0.02 0.13 <
43 1 0 -3 -6 0.02 -0.21 0.45 <
44 1 0 -3 -7 15.08 14.60 2.49 o
45 1 0 3 7 15.09 16.24 2.32 o
46 1 0 -3 -8 1.00 1.48 0.90 <
47 1 0 3 8 1.00 0.06 0.37 <
48 1 0 -4 -2 6.24 7.87 1.04 o
49 1 0 4 2 6.26 7.72 0.95 o
50 1 0 -4 -3 111.55 108.89 4.51 o
51 1 0 4 3 111.49 108.88 3.86 o
52 1 0 -4 -4 1.05 0.66 0.49 <
53 1 0 4 4 1.04 0.65 0.36 <
54 1 0 4 5 0.69 0.45 0.34 <
55 1 0 -4 -5 0.71 0.60 0.43 <
56 1 0 -4 -6 36.43 33.65 3.45 o
57 1 0 4 6 36.44 35.74 3.11 o
58 1 0 4 7 0.75 0.71 0.55 <
59 1 0 -4 -7 0.75 -0.20 0.43 <
60 1 0 -5 -2 116.55 112.18 4.23 o
61 1 0 5 2 116.58 111.93 3.83 o
62 1 0 -5 -3 0.90 1.08 0.50 <
63 1 0 5 3 0.89 0.97 0.33 <
64 1 0 5 4 11.52 9.82 1.36 o
65 1 0 -5 -4 11.58 10.93 1.64 o
66 1 0 -5 -5 13.17 12.85 1.94 o
67 1 0 5 5 13.17 13.21 1.68 o
68 1 0 5 6 8.32 6.91 1.38 o
69 1 0 -5 -6 8.31 9.35 1.88 o
70 1 0 -5 -7 9.21 7.77 1.84 o
71 1 0 5 7 9.22 7.01 1.57 o
72 1 0 -6 -3 55.63 47.83 3.41 o
73 1 0 6 3 55.58 51.67 2.98 o
74 1 0 -6 -4 10.77 9.02 1.58 o
75 1 0 6 4 10.78 9.35 1.38 o
76 1 0 -6 -5 43.99 38.04 3.60 o
77 1 0 6 5 44.02 40.45 3.13 o
78 1 0 -6 -6 6.55 3.53 1.26 <
79 1 0 6 6 6.57 4.92 1.08 o
80 1 0 7 4 131.07 115.47 5.08 o
81 1 0 -7 -4 130.93 108.00 5.81 o
82 1 0 7 5 31.12 28.38 2.68 o
83 1 0 -7 -5 31.07 30.30 3.33 o
84 1 -1 0 9 0.70 -0.32 0.54 <
85 1 -1 0 8 4.02 2.48 0.91 <
86 1 -1 0 7 9.98 11.73 1.86 o
87 1 -1 0 6 5.88 5.03 0.96 o
88 1 -1 0 5 152.48 144.84 4.47 o
89 1 1 0 -4 114.50 91.03 3.10 o
90 1 -1 0 4 114.50 91.36 2.92 o
91 1 1 0 -3 2.37 3.24 0.47 o
92 1 -1 0 3 2.37 3.00 0.41 o
93 1 -1 1 10 0.46 -0.69 0.96 <
94 1 -1 1 9 6.87 6.15 1.59 o
95 1 -1 1 8 3.29 2.67 1.08 <
96 1 -1 1 7 7.88 8.23 1.46 o
97 1 1 -1 -7 8.42 10.03 1.66 o
98 1 -1 1 6 28.16 28.47 2.32 o
99 1 1 -1 -6 29.38 23.76 2.23 o
100 1 -1 -1 6 29.38 28.02 2.26 o
101 1 -1 -1 5 23.80 21.88 1.81 o
102 1 1 -1 -5 23.80 22.34 2.01 o
103 1 -1 1 5 23.09 22.01 1.72 o
104 1 -1 1 4 106.98 88.85 2.91 o
105 1 -1 -1 4 107.39 96.04 2.86 o
106 1 1 -1 -4 107.39 99.43 3.43 o
107 1 -1 1 3 62.64 46.29 1.75 o
108 1 1 -1 -3 59.16 50.43 1.97 o
109 1 -1 1 2 234.64 225.12 3.22 o
110 1 1 -1 -2 233.34 224.87 3.22 o
111 2 -1 1 0 1001.47 1487.70 9.02 o
111 1 -1 -1 0 1001.47 1487.70 9.02 o
112 2 1 -1 0 1001.62 1576.97 8.68 o
112 1 1 1 0 1001.62 1576.97 8.68 o
113 6 -1 -1 -1 591.72 596.82 7.08 o
113 1 1 1 1 591.72 596.82 7.08 o
114 6 1 1 1 591.12 596.50 7.11 o
114 1 -1 -1 -1 591.12 596.50 7.11 o
115 1 -1 -1 -2 63.36 46.00 2.48 o
116 1 1 1 2 59.95 46.40 2.49 o
117 1 1 1 3 105.14 84.27 3.90 o
118 1 1 1 4 22.03 16.70 1.92 o
119 1 -1 2 9 0.32 -0.12 0.47 <
120 1 1 -2 -8 10.73 8.46 1.73 o
121 1 -1 2 8 10.36 9.92 1.87 o
122 1 1 -2 -7 13.33 14.99 2.19 o
123 1 -1 2 7 13.66 14.78 1.96 o
124 1 -1 2 6 2.15 0.71 0.40 <
125 1 1 -2 -6 2.26 1.00 0.38 <
126 1 -1 2 5 52.03 47.04 2.57 o
127 1 1 -2 -5 53.65 49.09 3.08 o
128 1 1 -2 -4 15.02 12.99 1.35 o
129 1 -1 2 4 14.33 12.26 1.15 o
130 1 -1 2 3 148.18 155.90 3.60 o
131 1 1 -2 -3 151.40 156.67 3.97 o
132 1 -1 -2 1 4.54 3.32 0.35 o
133 2 1 -2 0 12.10 9.90 0.73 o
133 1 1 2 0 12.10 9.90 0.73 o
134 2 -1 2 0 11.71 8.89 0.72 o
134 1 -1 -2 0 11.71 8.89 0.72 o
135 6 1 2 1 1248.04 1256.45 11.43 o
135 1 -1 -2 -1 1248.04 1256.45 11.43 o
136 6 -1 -2 -1 1248.22 1254.45 10.92 o
136 1 1 2 1 1248.22 1254.45 10.92 o
137 1 -1 -2 -2 146.31 149.71 4.68 o
138 1 1 2 2 149.47 154.80 4.58 o
139 1 -1 -2 -3 13.66 9.67 1.46 o
140 1 1 2 3 14.40 10.01 1.46 o
141 1 -1 -2 -4 49.76 41.29 3.22 o
142 1 1 2 4 51.29 44.78 3.31 o
143 1 -1 -2 -5 1.86 0.64 0.51 <
144 1 1 2 5 1.96 0.36 0.25 <
145 1 1 2 6 12.59 11.48 1.96 o
146 1 -1 3 9 2.16 2.00 1.00 <
147 1 1 -3 -9 2.25 0.82 0.65 <
148 1 -1 3 8 3.22 2.05 1.01 <
149 1 1 -3 -8 3.30 1.66 0.85 <
150 1 1 -3 -7 17.48 16.19 2.34 o
151 1 -1 3 7 17.33 19.42 2.20 o
152 1 -1 3 6 26.33 26.03 2.21 o
153 1 1 -3 -6 25.85 27.71 2.60 o
154 1 -1 3 5 14.67 14.14 1.43 o
155 1 1 -3 -5 14.60 14.38 1.74 o
156 1 -1 3 4 56.55 52.83 2.44 o
157 1 1 -3 -4 58.32 53.96 3.09 o
158 1 -1 3 3 204.21 201.18 4.43 o
159 1 1 -3 -3 204.39 200.77 4.82 o
160 2 1 -3 0 128.54 131.47 3.11 o
160 1 1 3 0 128.54 131.47 3.11 o
161 2 -1 3 0 128.70 130.80 3.37 o
161 1 -1 -3 0 128.70 130.80 3.37 o
162 6 1 3 1 34.94 38.38 2.10 o
162 1 -1 -3 -1 34.94 38.38 2.10 o
163 6 -1 -3 -1 35.05 38.46 1.99 o
163 1 1 3 1 35.05 38.46 1.99 o
164 1 -1 -3 -2 192.05 190.16 5.44 o
165 1 1 3 2 192.40 188.81 5.13 o
166 1 -1 -3 -3 53.07 48.17 3.17 o
167 1 1 3 3 54.81 49.47 3.01 o
168 1 -1 -3 -4 14.87 14.01 1.98 o
169 1 1 3 4 14.79 12.82 1.77 o
170 1 -1 -3 -5 26.16 20.46 2.58 o
171 1 1 3 5 25.69 20.99 2.45 o
172 1 -1 -3 -6 16.72 13.02 2.29 o
173 1 1 3 6 16.87 12.91 2.31 o
174 1 1 3 7 2.75 1.83 0.84 <
175 1 -1 -3 -7 2.68 1.63 0.69 <
176 1 1 -4 -8 4.04 2.65 0.99 <
177 1 -1 4 8 4.29 2.87 0.96 <
178 1 -1 4 7 18.98 24.25 2.52 o
179 1 1 -4 -7 19.04 26.73 2.97 o
180 1 1 -4 -6 2.67 2.71 0.93 <
181 1 -1 4 6 2.65 1.83 0.61 <
182 1 -1 4 5 15.27 16.78 1.70 o
183 1 1 -4 -5 14.55 14.91 1.85 o
184 1 -1 4 4 39.05 39.58 2.30 o
185 1 1 -4 -4 38.67 36.85 2.55 o
186 2 -1 4 0 61.22 60.54 2.53 o
186 1 -1 -4 0 61.22 60.54 2.53 o
187 2 1 -4 0 60.81 61.29 2.38 o
187 1 1 4 0 60.81 61.29 2.38 o
188 6 -1 -4 -1 615.52 609.01 8.35 o
188 1 1 4 1 615.52 609.01 8.35 o
189 6 1 4 1 616.26 610.63 8.96 o
189 1 -1 -4 -1 616.26 610.63 8.96 o
190 1 -1 -4 -2 46.80 45.76 2.82 o
191 1 1 4 2 45.95 44.79 2.61 o
192 1 -1 -4 -3 36.46 35.80 2.94 o
193 1 1 4 3 36.10 35.35 2.57 o
194 1 1 4 4 13.63 12.36 1.68 o
195 1 -1 -4 -4 14.33 14.99 2.10 o
196 1 -1 -4 -5 2.39 1.22 0.71 <
197 1 1 4 5 2.40 1.59 0.65 <
198 1 -1 -4 -6 17.21 16.51 2.57 o
199 1 1 4 6 17.27 14.24 2.38 o
200 1 1 -5 -8 1.60 0.65 0.37 <
201 1 -1 5 7 8.62 8.58 1.45 o
202 1 1 -5 -7 8.28 6.45 1.60 o
203 1 -1 5 6 27.88 29.42 2.53 o
204 1 1 -5 -6 27.95 26.00 2.82 o
205 1 1 -5 -5 7.69 7.11 1.33 o
206 1 -1 5 5 7.90 5.64 1.06 o
207 1 -1 5 4 57.40 55.01 2.96 o
208 1 1 -5 -4 55.29 53.86 3.29 o
209 2 -1 5 0 174.77 188.73 5.51 o
209 1 -1 -5 0 174.77 188.73 5.51 o
210 6 1 5 1 109.32 101.60 4.02 o
210 1 -1 -5 -1 109.32 101.60 4.02 o
211 6 -1 -5 -1 109.09 98.65 3.60 o
211 1 1 5 1 109.09 98.65 3.60 o
212 1 1 5 2 87.02 88.35 3.75 o
213 1 -1 -5 -2 86.33 90.07 4.24 o
214 1 1 5 3 56.56 46.16 3.18 o
215 1 -1 -5 -3 58.68 53.14 3.64 o
216 1 -1 -5 -4 7.76 5.30 1.31 o
217 1 1 5 4 7.55 6.77 1.28 o
218 1 1 5 5 25.24 23.78 2.73 o
219 1 -1 -5 -5 25.11 24.41 3.01 o
220 1 -1 -5 -6 8.38 4.69 1.51 o
221 1 1 5 6 8.06 4.26 1.19 o
222 1 -1 6 7 6.57 6.14 1.43 o
223 1 1 -6 -7 6.90 8.04 1.82 o
224 1 1 -6 -6 2.35 0.81 0.27 <
225 1 -1 6 6 2.47 1.07 0.59 <
226 1 -1 6 5 66.96 64.95 3.67 o
227 1 1 -6 -5 66.32 59.42 3.91 o
228 6 -1 -6 -1 270.02 238.49 6.00 o
228 1 1 6 1 270.02 238.49 6.00 o
229 6 1 6 1 269.13 241.48 6.87 o
229 1 -1 -6 -1 269.13 241.48 6.87 o
230 1 -1 -6 -2 32.45 30.39 2.62 o
231 1 1 6 2 31.01 29.85 2.29 o
232 1 1 6 3 15.67 17.23 1.86 o
233 1 -1 -6 -3 15.74 15.39 2.02 o
234 1 1 6 4 62.01 55.08 3.65 o
235 1 -1 -6 -4 62.60 59.78 4.48 o
236 1 1 6 5 2.28 0.84 0.58 <
237 1 -1 -6 -5 2.40 1.46 0.92 <
238 1 1 -7 -6 10.06 6.91 1.58 o
239 1 -1 -7 -2 13.37 11.79 1.64 o
240 1 1 7 2 13.41 12.56 1.53 o
241 1 1 7 3 38.14 35.94 2.81 o
242 1 -1 -7 -3 37.44 32.78 3.02 o
243 1 -1 -7 -4 3.29 2.01 0.82 <
244 1 1 7 4 3.32 2.89 0.89 o
245 1 -1 -8 -3 25.01 20.26 2.54 o
246 1 1 8 3 25.08 21.49 2.31 o
247 1 -2 0 10 1.70 0.79 0.72 <
248 1 -2 0 9 2.16 2.59 1.06 <
249 1 -2 0 8 1.24 0.97 0.46 <
250 1 -2 0 7 21.07 31.78 2.33 o
251 1 2 0 -6 1.26 1.88 0.59 o
252 1 -2 0 6 1.26 2.67 0.57 o
253 1 2 0 -5 3.04 2.51 0.49 o
254 1 -2 0 5 3.04 3.47 0.50 o
255 1 -2 0 4 102.45 99.47 2.21 o
256 1 2 0 -4 102.45 96.96 2.41 o
257 1 2 0 -3 0.04 0.13 0.07 <
258 1 -2 1 11 1.18 1.27 1.05 <
259 1 -2 -1 10 1.55 0.72 0.42 <
260 1 -2 1 10 1.42 1.29 0.90 <
261 1 -2 -1 9 2.52 2.20 0.95 <
262 1 -2 1 9 2.59 1.48 0.73 <
263 1 -2 -1 8 10.58 14.16 1.75 o
264 1 2 -1 -8 10.58 8.85 1.59 o
265 1 -2 1 8 11.21 14.48 1.85 o
266 1 -2 -1 7 4.83 11.08 1.40 o
267 1 -2 1 7 5.19 9.29 1.35 o
268 1 2 -1 -7 4.83 9.56 1.67 o
269 1 2 -1 -6 28.82 30.47 2.16 o
270 1 -2 1 6 28.90 37.69 2.12 o
271 1 -2 -1 6 28.82 34.30 1.90 o
272 1 -2 -1 5 29.88 29.36 1.35 o
273 1 -2 1 5 28.93 28.00 1.57 o
274 1 2 -1 -5 29.88 30.13 1.86 o
275 1 -2 -1 4 17.54 13.65 0.65 o
276 1 2 -1 -4 17.54 18.00 1.22 o
277 1 -2 2 10 1.61 1.30 0.55 <
278 1 2 -2 -9 7.93 6.31 1.41 o
279 1 -2 2 9 7.76 9.16 1.70 o
280 1 2 -2 -8 1.22 0.38 0.42 <
281 1 -2 2 8 1.21 0.62 0.45 <
282 1 -2 -2 8 1.22 0.99 0.60 <
283 1 2 -2 -7 11.80 18.79 2.15 o
284 1 -2 2 7 12.08 16.21 1.79 o
285 1 -2 -2 7 11.80 20.87 2.00 o
286 1 -2 -2 6 35.93 64.32 2.85 o
287 1 2 -2 -6 35.93 69.04 3.55 o
288 1 -2 -2 5 21.19 19.39 1.18 o
289 1 -2 2 5 21.84 20.55 1.45 o
290 1 2 -2 -5 21.19 22.90 1.70 o
291 1 2 -2 -4 91.77 73.44 2.57 o
292 1 2 2 -2 56.38 45.56 1.23 o
293 1 -2 -2 2 55.54 48.11 1.42 o
294 1 -2 -2 1 390.15 449.97 5.97 o
295 1 2 2 -1 390.27 447.77 5.65 o
296 2 -2 2 0 131.34 111.87 3.52 o
296 1 -2 -2 0 131.34 111.87 3.52 o
297 2 2 -2 0 131.63 112.98 3.41 o
297 1 2 2 0 131.63 112.98 3.41 o
298 1 2 2 1 111.55 130.14 4.46 o
299 1 -2 -2 -1 115.46 144.35 4.72 o
300 6 -2 -2 -2 210.12 174.34 5.35 o
300 1 2 2 2 210.12 174.34 5.35 o
301 6 2 2 2 210.06 172.54 5.63 o
301 1 -2 -2 -2 210.06 172.54 5.63 o
302 1 2 2 3 19.65 16.16 1.87 o
303 1 -2 -2 -3 20.24 17.21 2.04 o
304 1 2 -3 -10 1.94 1.13 0.83 <
305 1 -2 3 10 1.96 1.80 0.84 <
306 1 2 -3 -9 0.75 0.01 0.40 <
307 1 -2 3 9 0.77 0.30 0.47 <
308 1 -2 3 8 11.11 12.02 1.84 o
309 1 2 -3 -8 11.26 10.11 1.66 o
310 1 -2 3 7 17.84 32.29 2.58 o
311 1 2 -3 -7 17.67 35.81 3.10 o
312 1 -2 3 6 13.96 22.62 1.96 o
313 1 2 -3 -6 13.53 20.33 2.00 o
314 1 -2 3 5 66.58 64.68 2.89 o
315 1 2 -3 -5 67.44 68.28 3.28 o
316 1 -2 -3 3 151.55 156.73 2.85 o
317 1 -2 -3 2 294.59 278.34 4.05 o
318 1 2 3 -2 294.98 275.92 3.65 o
319 1 2 3 -1 2.94 4.63 0.58 o
320 1 -2 -3 1 2.94 4.07 0.57 o
321 2 2 -3 0 730.70 736.48 9.07 o
321 1 2 3 0 730.70 736.48 9.07 o
322 2 -2 3 0 730.57 728.59 9.36 o
322 1 -2 -3 0 730.57 728.59 9.36 o
323 1 -2 -3 -1 150.97 182.69 5.64 o
324 1 2 3 1 150.48 186.08 5.44 o
325 6 2 3 2 20.33 20.07 2.08 o
325 1 -2 -3 -2 20.33 20.07 2.08 o
326 6 -2 -3 -2 20.37 18.58 1.89 o
326 1 2 3 2 20.37 18.58 1.89 o
327 1 -2 -3 -3 60.01 56.87 3.78 o
328 1 2 3 3 60.84 61.06 3.80 o
329 1 -2 -3 -4 12.54 8.79 1.57 o
330 1 2 3 4 12.14 10.75 1.81 o
331 1 -2 -3 -5 16.51 15.44 2.31 o
332 1 2 3 5 16.36 14.27 2.38 o
333 1 -2 4 9 3.66 3.66 1.23 <
334 1 2 -4 -9 3.59 1.77 0.81 <
335 1 -2 4 8 0.31 -0.05 0.36 <
336 1 2 -4 -8 0.30 0.00 0.30 <
337 1 -2 4 7 22.52 29.09 2.45 o
338 1 2 -4 -7 22.81 32.86 2.89 o
339 1 -2 4 6 39.07 71.15 3.59 o
340 1 2 -4 -6 38.83 63.78 3.65 o
341 1 2 -4 -5 0.42 0.33 0.25 <
342 1 -2 -4 2 1.86 2.53 0.45 o
343 1 2 4 -1 311.09 324.15 5.37 o
344 1 -2 -4 1 311.15 319.58 5.93 o
345 2 -2 4 0 3.64 4.23 0.76 o
345 1 -2 -4 0 3.64 4.23 0.76 o
346 2 2 -4 0 3.47 4.71 0.74 o
346 1 2 4 0 3.47 4.71 0.74 o
347 1 2 4 1 78.30 96.27 3.85 o
348 1 -2 -4 -1 77.02 96.64 4.29 o
349 6 2 4 2 385.04 371.54 8.88 o
349 1 -2 -4 -2 385.04 371.54 8.88 o
350 6 -2 -4 -2 385.33 365.29 8.53 o
350 1 2 4 2 385.33 365.29 8.53 o
351 1 2 4 3 0.43 0.35 0.46 <
352 1 -2 -4 -3 0.35 0.23 0.39 <
353 1 -2 -4 -4 37.41 35.43 3.37 o
354 1 2 4 4 37.22 30.67 2.99 o
355 1 -2 -4 -5 19.80 18.08 2.69 o
356 1 2 4 5 20.07 19.86 2.71 o
357 1 -2 5 8 6.49 7.32 1.56 o
358 1 2 -5 -8 6.60 4.28 1.15 o
359 1 2 -5 -7 6.49 10.51 1.92 o
360 1 -2 5 7 6.17 8.67 1.51 o
361 1 2 -5 -6 23.86 30.83 2.68 o
362 1 -2 -5 2 85.31 97.42 3.48 o
363 1 -2 -5 1 38.71 49.50 2.57 o
364 1 2 5 -1 38.71 48.46 2.21 o
365 2 2 -5 0 192.28 180.16 4.87 o
365 1 2 5 0 192.28 180.16 4.87 o
366 2 -2 5 0 192.19 181.80 5.33 o
366 1 -2 -5 0 192.19 181.80 5.33 o
367 1 2 5 1 61.50 86.01 4.01 o
368 1 -2 -5 -1 62.20 84.95 4.15 o
369 6 -2 -5 -2 38.41 34.14 2.64 o
369 1 2 5 2 38.41 34.14 2.64 o
370 6 2 5 2 38.55 33.15 2.87 o
370 1 -2 -5 -2 38.55 33.15 2.87 o
371 1 -2 -5 -3 50.55 52.11 3.75 o
372 1 2 5 3 49.21 49.88 3.42 o
373 1 -2 -5 -4 19.88 21.45 2.78 o
374 1 2 5 4 20.36 21.57 2.37 o
375 1 2 5 5 5.68 2.86 0.95 o
376 1 -2 -5 -5 5.40 3.15 1.10 <
377 1 2 -6 -7 6.81 10.86 1.91 o
378 1 -2 -6 1 73.03 81.02 3.78 o
379 2 -2 6 0 63.41 68.75 3.71 o
379 1 -2 -6 0 63.41 68.75 3.71 o
380 2 2 -6 0 63.39 72.30 3.23 o
380 1 2 6 0 63.39 72.30 3.23 o
381 1 2 6 1 22.89 28.30 2.22 o
382 1 -2 -6 -1 21.11 26.52 2.48 o
383 6 -2 -6 -2 77.74 68.04 3.80 o
383 1 2 6 2 77.74 68.04 3.80 o
384 6 2 6 2 78.13 73.08 4.46 o
384 1 -2 -6 -2 78.13 73.08 4.46 o
385 1 2 6 3 15.27 14.17 1.99 o
386 1 -2 -6 -3 14.79 20.47 2.95 o
387 1 -2 -6 -4 7.26 6.77 1.62 o
388 1 2 6 4 6.81 6.76 1.41 o
389 2 2 -7 0 38.70 49.63 2.82 o
389 1 2 7 0 38.70 49.63 2.82 o
390 2 -2 7 0 38.64 46.79 3.24 o
390 1 -2 -7 0 38.64 46.79 3.24 o
391 1 2 7 1 28.92 35.68 2.57 o
392 1 -2 -7 -1 29.21 36.40 2.92 o
393 6 2 7 2 5.35 3.43 1.08 o
393 1 -2 -7 -2 5.35 3.43 1.08 o
394 6 -2 -7 -2 5.42 2.92 0.76 o
394 1 2 7 2 5.42 2.92 0.76 o
395 1 -2 -7 -3 8.43 8.31 1.70 o
396 1 2 7 3 8.82 9.06 1.51 o
397 2 -2 8 0 5.46 6.19 1.32 o
397 1 -2 -8 0 5.46 6.19 1.32 o
398 1 2 8 1 18.21 22.35 2.16 o
399 1 -2 -8 -1 19.68 24.98 2.68 o
400 6 -2 -8 -2 78.12 63.50 3.84 o
400 1 2 8 2 78.12 63.50 3.84 o
401 6 2 8 2 77.89 66.41 4.63 o
401 1 -2 -8 -2 77.89 66.41 4.63 o
402 1 -2 -9 -1 22.27 29.75 3.39 o
403 1 -3 0 10 0.13 -0.54 0.86 <
404 1 -3 0 9 5.21 11.94 1.72 o
405 1 -3 0 8 19.55 39.31 2.50 o
406 1 -3 0 7 0.21 0.35 0.07 o
407 1 3 0 -7 0.21 0.11 0.11 <
408 1 3 0 -6 2.38 3.55 0.58 o
409 1 3 0 -5 24.29 23.97 1.19 o
410 1 -3 1 11 0.20 -0.48 0.87 <
411 1 -3 1 10 1.94 3.97 1.37 <
412 1 -3 -1 10 1.97 3.09 1.17 <
413 1 -3 1 9 3.27 6.52 1.25 o
414 1 -3 -1 9 3.23 6.19 1.25 o
415 1 -3 1 8 8.64 18.67 1.84 o
416 1 -3 -1 8 8.45 15.56 1.56 o
417 1 -3 1 7 15.02 38.30 2.40 o
418 1 -3 -1 7 14.94 40.47 1.99 o
419 1 3 -1 -7 14.94 33.89 2.25 o
420 1 -3 -1 6 11.89 31.90 1.81 o
421 1 3 -1 -6 11.89 24.93 1.77 o
422 1 3 1 -5 46.81 45.98 1.29 o
423 1 3 -1 -5 44.98 44.94 1.90 o
424 1 -3 2 11 1.41 3.73 1.79 <
425 1 -3 2 10 0.36 1.13 0.71 <
426 1 -3 -2 10 0.37 0.11 0.48 <
427 1 3 -2 -10 0.37 0.49 0.48 <
428 1 -3 -2 9 3.85 4.82 1.14 o
429 1 3 -2 -9 3.85 2.25 0.85 <
430 1 -3 2 9 4.11 6.75 1.34 o
431 1 3 -2 -8 7.61 9.96 1.35 o
432 1 -3 2 8 8.12 14.13 1.67 o
433 1 -3 -2 8 7.61 11.82 1.34 o
434 1 3 -2 -7 1.46 3.78 0.77 o
435 1 -3 -2 7 1.46 2.99 0.49 o
436 1 3 -2 -6 64.09 81.73 3.14 o
437 1 -3 -2 6 64.09 64.66 1.72 o
438 1 3 2 -3 114.81 90.17 1.91 o
439 1 3 2 -2 105.07 101.10 2.95 o
440 1 3 2 -1 103.98 90.00 3.46 o
441 1 -3 3 11 0.29 2.28 1.33 <
442 1 3 -3 -11 0.30 0.36 0.42 <
443 1 3 -3 -10 3.42 2.04 0.97 <
444 1 -3 3 10 3.48 4.84 1.48 o
445 1 -3 -3 9 0.56 0.11 0.43 <
446 1 3 -3 -9 0.56 0.76 0.50 <
447 1 -3 3 9 0.53 0.42 0.28 <
448 1 -3 -3 8 2.45 2.10 0.57 o
449 1 3 -3 -8 2.45 1.71 0.61 <
450 1 3 -3 -7 19.78 46.02 2.77 o
451 1 -3 -3 7 19.78 34.30 1.61 o
452 1 3 -3 -6 11.57 16.03 1.54 o
453 1 -3 -3 3 24.21 25.67 1.44 o
454 1 3 3 -3 24.11 22.55 0.97 o
455 1 -3 -3 2 90.16 92.11 3.14 o
456 1 3 3 -2 90.14 87.83 2.71 o
457 1 -3 -3 1 90.42 87.01 3.56 o
458 1 3 3 -1 90.48 89.23 3.43 o
459 2 -3 3 0 58.05 52.50 3.07 o
459 1 -3 -3 0 58.05 52.50 3.07 o
460 2 3 -3 0 58.01 54.70 3.12 o
460 1 3 3 0 58.01 54.70 3.12 o
461 1 -3 -3 -1 19.85 14.56 1.83 o
462 1 3 3 1 18.40 14.73 1.81 o
463 1 -3 -3 -2 57.43 56.77 3.96 o
464 1 3 3 2 56.83 59.24 3.78 o
465 1 -3 4 10 0.25 0.28 0.75 <
466 1 3 -4 -10 0.24 0.57 0.63 <
467 1 3 -4 -9 3.78 2.79 0.91 o
468 1 3 -4 -8 6.71 10.04 1.47 o
469 1 3 -4 -7 0.23 0.09 0.20 <
470 1 -3 -4 5 6.48 5.89 0.65 o
471 1 -3 -4 4 6.11 6.44 0.65 o
472 1 -3 -4 3 55.49 57.63 2.30 o
473 1 3 4 -2 55.29 56.94 2.35 o
474 1 -3 -4 2 53.93 53.79 2.61 o
475 1 -3 -4 1 54.33 52.59 2.86 o
476 1 3 4 -1 53.07 50.38 2.51 o
477 2 -3 4 0 133.73 125.21 5.01 o
477 1 -3 -4 0 133.73 125.21 5.01 o
478 2 3 -4 0 133.88 123.54 4.61 o
478 1 3 4 0 133.88 123.54 4.61 o
479 1 -3 -4 -1 6.51 5.31 1.17 o
480 1 3 4 1 6.52 5.41 1.06 o
481 1 -3 -4 -2 5.42 5.67 1.23 o
482 1 3 4 2 5.38 5.74 1.21 o
483 6 3 4 3 77.60 73.02 4.66 o
483 1 -3 -4 -3 77.60 73.02 4.66 o
484 6 -3 -4 -3 77.53 68.76 4.42 o
484 1 3 4 3 77.53 68.76 4.42 o
485 1 -3 -4 -4 0.09 -0.19 0.45 <
486 1 3 4 4 0.10 -0.54 0.71 <
487 1 3 -5 -9 2.09 2.07 0.82 <
488 1 3 -5 -8 2.16 1.06 0.47 <
489 1 -3 -5 4 31.39 47.24 2.40 o
490 1 -3 -5 3 1.20 1.65 0.42 o
491 1 3 5 -2 83.49 85.16 2.90 o
492 1 -3 -5 2 84.34 91.35 3.55 o
493 1 3 5 -1 82.74 87.17 3.44 o
494 1 -3 -5 1 81.95 80.17 3.84 o
495 2 -3 5 0 2.62 3.09 0.82 o
495 1 -3 -5 0 2.62 3.09 0.82 o
496 2 3 -5 0 2.64 3.71 0.74 o
496 1 3 5 0 2.64 3.71 0.74 o
497 1 -3 -5 -1 28.03 27.12 2.63 o
498 1 3 5 1 29.91 32.23 2.59 o
499 1 -3 -5 -2 30.05 34.04 3.21 o
500 1 3 5 2 31.23 34.91 2.96 o
501 6 3 5 3 36.54 31.53 3.18 o
501 1 -3 -5 -3 36.54 31.53 3.18 o
502 6 -3 -5 -3 36.77 25.97 2.81 o
502 1 3 5 3 36.77 25.97 2.81 o
503 1 3 5 4 6.40 4.55 1.19 o
504 1 -3 -5 -4 6.21 5.65 1.49 o
505 1 -3 -6 4 1.91 3.78 0.82 o
506 1 -3 -6 3 71.43 105.24 4.09 o
507 1 -3 -6 2 11.04 11.38 1.39 o
508 1 3 6 -2 12.20 10.17 1.04 o
509 1 -3 -6 1 12.17 9.91 1.37 o
510 1 3 6 -1 11.02 9.01 1.13 o
511 2 3 -6 0 162.84 171.02 5.44 o
511 1 3 6 0 162.84 171.02 5.44 o
512 2 -3 6 0 162.86 158.92 6.07 o
512 1 -3 -6 0 162.86 158.92 6.07 o
513 1 -3 -6 -1 1.72 1.09 0.52 <
514 1 3 6 1 1.86 1.36 0.60 <
515 1 -3 -6 -2 21.88 25.56 2.78 o
516 1 3 6 2 21.57 23.68 2.47 o
517 6 3 6 3 32.55 32.58 3.54 o
517 1 -3 -6 -3 32.55 32.58 3.54 o
518 6 -3 -6 -3 32.43 29.79 3.02 o
518 1 3 6 3 32.43 29.79 3.02 o
519 1 -3 -7 3 1.88 2.90 0.75 o
520 1 -3 -7 2 12.30 15.98 1.83 o
521 1 -3 -7 1 11.54 12.15 1.59 o
522 1 3 7 -1 11.90 12.60 1.37 o
523 2 3 -7 0 4.58 3.86 0.90 o
523 1 3 7 0 4.58 3.86 0.90 o
524 2 -3 7 0 4.59 2.08 0.66 o
524 1 -3 -7 0 4.59 2.08 0.66 o
525 1 3 7 1 60.53 68.09 3.82 o
526 1 -3 -7 -1 61.16 65.88 4.34 o
527 1 -3 -7 -2 10.44 11.46 1.94 o
528 1 3 7 2 10.50 13.32 1.82 o
529 6 3 7 3 8.18 4.60 1.29 o
529 1 -3 -7 -3 8.18 4.60 1.29 o
530 1 -3 -8 2 13.71 19.99 2.30 o
531 1 -3 -8 1 12.43 16.22 2.08 o
532 2 3 -8 0 128.96 109.65 4.77 o
532 1 3 8 0 128.96 109.65 4.77 o
533 2 -3 8 0 128.90 114.37 6.03 o
533 1 -3 -8 0 128.90 114.37 6.03 o
534 1 3 8 1 4.17 4.41 0.95 o
535 1 -3 -8 -1 4.20 2.74 0.94 <
536 1 3 8 2 8.24 6.06 1.33 o
537 1 -3 -8 -2 8.02 7.81 1.54 o
538 1 -3 -9 1 38.06 47.36 4.50 o
539 2 -3 9 0 0.91 1.08 0.78 <
539 1 -3 -9 0 0.91 1.08 0.78 <
540 2 3 -9 0 0.91 0.36 0.25 <
540 1 3 9 0 0.91 0.36 0.25 <
541 1 -3 -9 -1 12.00 10.04 1.97 o
542 1 4 0 -8 18.74 25.69 1.82 o
543 1 4 0 -7 15.06 36.70 1.78 o
544 1 4 0 -6 1.37 1.28 0.25 o
545 1 4 -1 -10 0.31 0.84 0.43 <
546 1 4 -1 -9 7.94 10.62 1.35 o
547 1 4 -1 -8 5.18 7.43 0.93 o
548 1 4 -1 -7 8.16 12.63 1.08 o
549 1 4 1 -6 16.99 13.73 0.75 o
550 1 4 -2 -11 1.29 0.87 0.45 <
551 1 4 -2 -10 2.32 2.28 0.74 o
552 1 4 -2 -9 0.03 0.28 0.24 <
553 1 4 -2 -8 7.41 11.00 1.13 o
554 1 4 -2 -7 9.31 16.64 1.36 o
555 1 4 2 -4 5.14 4.26 0.56 o
556 1 4 -3 -12 0.80 0.25 0.42 <
557 1 4 -3 -11 0.26 0.22 0.26 <
558 1 4 -3 -10 2.31 1.96 0.63 o
559 1 4 -3 -9 1.22 1.33 0.50 <
560 1 4 -3 -8 1.30 1.04 0.37 <
561 1 4 3 -4 3.06 1.64 0.29 o
562 1 4 3 -3 31.21 22.66 1.61 o
563 1 4 3 -2 0.03 0.05 0.11 <
564 1 4 3 -1 28.34 20.20 1.96 o
565 1 4 -4 -11 1.85 1.29 0.68 <
566 1 4 -4 -10 2.12 1.47 0.62 <
567 1 4 -4 -9 0.11 0.26 0.35 <
568 1 4 4 -4 0.04 0.07 0.08 <
569 1 -4 -4 4 0.10 -0.05 0.08 <
570 1 4 4 -3 3.82 3.74 0.58 o
571 1 -4 -4 3 3.61 3.26 0.82 o
572 1 -4 -4 2 94.26 88.65 4.15 o
573 1 4 4 -2 94.19 90.54 3.54 o
574 1 -4 -4 1 4.29 2.04 0.70 <
575 1 4 4 -1 4.03 2.07 0.63 o
576 2 4 -4 0 0.28 -0.09 0.21 <
576 1 4 4 0 0.28 -0.09 0.21 <
577 2 -4 4 0 0.33 0.10 0.29 <
577 1 -4 -4 0 0.33 0.10 0.29 <
578 1 -4 -4 -1 12.86 10.53 1.97 o
579 1 4 4 1 13.63 11.54 1.96 o
580 1 4 4 2 6.47 6.00 1.37 o
581 1 4 -5 -10 1.61 1.00 0.64 <
582 1 -4 -5 5 4.78 6.80 0.75 o
583 1 -4 -5 4 15.81 19.51 1.61 o
584 1 -4 -5 3 33.90 38.35 2.53 o
585 1 4 5 -3 35.76 32.36 1.67 o
586 1 -4 -5 2 0.01 0.34 0.30 <
587 1 4 5 -2 0.01 -0.16 0.25 <
588 1 -4 -5 1 34.51 32.95 2.86 o
589 1 4 5 -1 32.73 31.46 2.51 o
590 2 -4 5 0 36.64 28.23 2.79 o
590 1 -4 -5 0 36.64 28.23 2.79 o
591 2 4 -5 0 36.74 34.24 2.79 o
591 1 4 5 0 36.74 34.24 2.79 o
592 1 4 5 1 3.89 3.73 1.02 o
593 1 -4 -5 -1 3.81 2.44 0.86 <
594 1 -4 -5 -2 15.55 18.38 2.58 o
595 1 4 5 2 15.44 16.66 2.33 o
596 1 4 5 3 6.81 3.45 1.06 o
597 1 -4 -5 -3 7.00 6.55 1.54 o
598 1 -4 -6 7 6.63 14.43 2.17 o
599 1 -4 -6 6 0.61 0.70 0.43 <
600 1 -4 -6 5 44.12 77.00 3.25 o
601 1 -4 -6 4 20.00 32.87 2.33 o
602 1 4 6 -3 4.99 4.55 0.65 o
603 1 -4 -6 3 4.81 5.43 1.02 o
604 1 4 6 -2 31.00 29.31 2.00 o
605 1 -4 -6 2 31.04 28.05 2.56 o
606 1 -4 -6 1 4.88 4.33 1.07 o
607 1 4 6 -1 4.72 4.88 0.93 o
608 2 -4 6 0 45.81 49.37 3.68 o
608 1 -4 -6 0 45.81 49.37 3.68 o
609 2 4 -6 0 45.86 46.07 3.40 o
609 1 4 6 0 45.86 46.07 3.40 o
610 1 -4 -6 -1 38.59 35.93 3.47 o
611 1 4 6 1 38.45 39.84 3.17 o
612 1 -4 -6 -2 0.58 0.73 0.76 <
613 1 4 6 2 0.51 0.90 0.52 <
614 1 -4 -7 6 7.09 41.20 4.88 o
615 1 -4 -7 5 3.29 8.44 1.34 o
616 1 -4 -7 4 51.16 89.04 4.57 o
617 1 -4 -7 3 35.92 50.02 3.49 o
618 1 4 7 -2 0.41 0.03 0.08 <
619 1 -4 -7 2 0.41 -0.05 0.27 <
620 1 4 7 -1 35.29 37.38 2.62 o
621 1 -4 -7 1 34.60 35.31 3.06 o
622 2 -4 7 0 116.06 110.87 5.72 o
622 1 -4 -7 0 116.06 110.87 5.72 o
623 2 4 -7 0 116.08 121.71 5.36 o
623 1 4 7 0 116.08 121.71 5.36 o
624 1 -4 -7 -1 2.88 1.42 0.77 <
625 1 4 7 1 2.87 1.29 0.67 <
626 1 -4 -7 -2 6.11 4.11 1.27 o
627 1 -4 -8 5 21.67 119.48 8.93 o
628 1 -4 -8 4 13.66 28.50 3.17 o
629 1 -4 -8 3 3.70 5.40 1.33 o
630 1 4 8 -2 23.62 19.56 1.78 o
631 1 -4 -8 2 23.62 29.63 3.06 o
632 1 4 8 -1 3.59 2.96 0.75 o
633 1 -4 -8 1 3.51 2.46 0.84 <
634 2 4 -8 0 28.27 29.29 2.59 o
634 1 4 8 0 28.27 29.29 2.59 o
635 2 -4 8 0 28.36 30.66 3.21 o
635 1 -4 -8 0 28.36 30.66 3.21 o
636 1 -4 -8 -1 18.76 16.63 2.42 o
637 1 4 8 1 18.65 21.07 2.41 o
638 1 -4 -9 3 14.37 28.44 3.58 o
639 1 -4 -9 2 0.00 0.30 0.47 <
640 1 4 9 -1 12.65 12.47 1.63 o
641 1 -4 -9 1 12.56 14.14 2.40 o
642 2 4 -9 0 17.39 15.83 2.05 o
642 1 4 9 0 17.39 15.83 2.05 o
643 2 -4 9 0 17.51 18.98 2.75 o
643 1 -4 -9 0 17.51 18.98 2.75 o
644 1 -4 -10 2 19.93 2.78 4.58 <
645 1 -4 -10 1 1.30 0.98 0.75 <
646 1 5 0 -9 2.41 4.09 0.66 o
647 1 5 0 -8 0.19 0.38 0.15 <
648 1 5 0 -7 9.27 8.88 0.74 o
649 1 5 -1 -10 0.34 -0.05 0.17 <
650 1 5 -1 -9 3.56 4.43 0.69 o
651 1 5 -1 -8 7.64 9.75 0.91 o
652 1 5 1 -7 6.83 5.07 0.50 o
653 1 5 -2 -11 0.07 -0.22 0.29 <
654 1 5 -2 -10 1.51 1.23 0.38 o
655 1 5 -2 -9 4.73 6.54 0.84 o
656 1 5 -3 -11 1.76 2.65 0.68 o
657 1 5 -3 -10 1.59 1.33 0.41 o
658 1 5 3 -5 8.97 6.00 0.49 o
659 1 5 3 -4 0.44 -0.08 0.17 <
660 1 5 3 -3 52.40 48.16 2.93 o
661 1 5 4 -5 0.79 0.05 0.03 <
662 1 5 4 -4 26.60 21.76 1.32 o
663 1 5 4 -3 2.84 3.04 0.68 o
664 1 5 4 -2 2.15 1.68 0.65 <
665 1 5 4 -1 22.33 21.14 2.46 o
666 1 5 5 -4 1.41 1.13 0.30 o
667 1 -5 -5 3 21.90 19.10 2.22 o
668 1 5 5 -3 22.90 23.54 1.83 o
669 1 -5 -5 2 24.00 21.11 2.42 o
670 1 5 5 -2 22.96 19.52 1.99 o
671 1 5 5 -1 1.47 0.87 0.45 <
672 1 -5 -5 1 1.46 0.95 0.58 <
673 2 -5 5 0 34.50 34.25 3.25 o
673 1 -5 -5 0 34.50 34.25 3.25 o
674 2 5 -5 0 34.44 30.49 3.08 o
674 1 5 5 0 34.44 30.49 3.08 o
675 1 5 5 1 8.65 6.68 1.67 o
676 1 -5 -6 5 5.52 4.47 1.00 o
677 1 -5 -6 4 25.90 26.53 2.68 o
678 1 5 6 -4 25.98 20.60 1.25 o
679 1 -5 -6 3 8.18 9.04 1.52 o
680 1 5 6 -3 7.75 8.21 1.01 o
681 1 -5 -6 2 7.95 8.41 1.46 o
682 1 5 6 -2 8.38 8.78 1.31 o
683 1 -5 -6 1 25.35 21.93 2.71 o
684 1 5 6 -1 25.24 24.02 2.36 o
685 2 -5 6 0 12.17 7.86 1.60 o
685 1 -5 -6 0 12.17 7.86 1.60 o
686 2 5 -6 0 12.15 8.69 1.64 o
686 1 5 6 0 12.15 8.69 1.64 o
687 1 5 6 1 1.77 0.89 0.56 <
688 1 -5 -6 -1 1.64 0.92 0.61 <
689 1 -5 -7 6 5.00 12.34 1.56 o
690 1 -5 -7 5 9.53 16.25 2.11 o
691 1 -5 -7 4 0.48 0.24 0.23 <
692 1 5 7 -3 7.10 6.84 0.98 o
693 1 -5 -7 3 7.39 7.80 1.55 o
694 1 5 7 -2 7.69 6.94 1.08 o
695 1 -5 -7 2 7.38 8.14 1.65 o
696 1 -5 -7 1 0.38 -0.50 0.61 <
697 1 5 7 -1 0.39 0.67 0.45 <
698 2 -5 7 0 18.96 17.80 2.54 o
698 1 -5 -7 0 18.96 17.80 2.54 o
699 2 5 -7 0 19.02 17.94 2.42 o
699 1 5 7 0 19.02 17.94 2.42 o
700 1 -5 -7 -1 4.38 1.95 1.04 <
701 1 -5 -8 6 1.44 4.19 1.22 o
702 1 -5 -8 5 0.74 1.14 0.90 <
703 1 -5 -8 4 14.11 2.56 2.81 <
704 1 -5 -8 3 2.50 1.83 0.76 <
705 1 5 8 -3 2.78 1.65 0.48 o
706 1 -5 -8 2 2.85 1.44 0.73 <
707 1 5 8 -2 2.59 1.33 0.45 <
708 1 5 8 -1 13.19 12.58 1.74 o
709 1 -5 -8 1 12.94 11.68 2.11 o
710 2 5 -8 0 2.23 0.84 0.42 <
710 1 5 8 0 2.23 0.84 0.42 <
711 2 -5 8 0 2.22 2.28 1.09 <
711 1 -5 -8 0 2.22 2.28 1.09 <
712 1 -5 -9 6 4.27 2.85 14.75 <
713 1 -5 -9 5 5.80 1.18 4.48 <
714 1 -5 -9 4 0.84 -0.11 0.94 <
715 1 -5 -9 3 6.45 0.19 1.82 <
716 1 -5 -9 2 5.53 3.35 1.17 <
717 1 5 9 -2 5.86 3.47 0.81 o
718 1 -5 -9 1 0.76 0.46 0.51 <
719 1 5 9 -1 0.74 0.71 0.50 <
720 1 -5 -10 4 6.90 1.14 4.51 <
721 1 -5 -10 3 2.44 1.11 2.08 <
722 1 -5 -10 2 2.14 -0.11 1.15 <
723 1 -5 -11 3 12.67 0.95 6.52 <
724 1 6 0 -9 1.18 1.38 0.30 o
725 1 6 -1 -10 0.91 0.97 0.33 <
726 1 6 -1 -9 0.95 0.92 0.26 o
727 1 6 1 -8 2.09 1.21 0.24 o
728 1 6 3 -6 8.19 4.34 0.40 o
729 1 6 3 -5 12.87 12.89 1.23 o
730 1 6 4 -5 4.17 4.37 0.59 o
731 1 6 4 -4 9.56 8.22 1.10 o
732 1 6 4 -3 21.34 20.69 2.34 o
733 1 6 5 -5 9.85 7.62 0.68 o
734 1 6 5 -4 8.52 8.22 0.77 o
735 1 6 5 -3 2.84 1.32 0.52 <
736 1 6 5 -2 8.19 8.17 1.51 o
737 1 6 5 -1 9.27 7.84 1.69 o
738 1 6 6 -5 1.89 0.70 0.20 o
739 1 6 6 -4 0.41 0.49 0.32 <
740 1 6 6 -3 7.66 7.60 1.17 o
741 1 6 6 -2 0.39 -0.36 0.30 <
742 1 6 6 -1 1.32 0.86 0.70 <
743 2 6 -6 0 11.35 12.84 2.23 o
743 1 6 6 0 11.35 12.84 2.23 o
744 1 -6 -7 5 1.97 0.68 0.52 <
745 1 6 7 -4 4.00 2.59 0.55 o
746 1 -6 -7 4 3.98 2.65 1.07 <
747 1 6 7 -3 0.39 0.50 0.69 <
748 1 -6 -7 3 0.39 0.34 0.51 <
749 1 6 7 -2 3.80 1.97 0.64 o
750 1 -6 -7 2 3.81 1.35 0.81 <
751 1 -6 -7 1 1.77 0.24 0.44 <
752 1 6 7 -1 1.77 0.15 0.41 <
753 1 -6 -8 5 1.62 0.30 1.31 <
754 1 6 8 -4 0.51 0.32 0.19 <
755 1 -6 -8 4 0.55 -0.18 0.52 <
756 1 6 8 -3 4.90 2.61 0.73 o
757 1 -6 -8 3 4.90 0.20 1.00 <
758 1 6 8 -2 0.51 0.48 0.34 <
759 1 -6 -8 2 0.46 0.31 0.40 <
760 1 6 8 -1 1.34 0.94 0.65 <
761 1 -6 -8 1 1.29 0.63 0.31 <
762 1 -6 -9 5 4.46 0.23 1.99 <
763 1 -6 -9 4 4.52 0.99 1.73 <
764 1 6 9 -3 0.03 0.66 0.47 <
765 1 -6 -9 3 0.03 0.00 0.46 <
766 1 -6 -9 2 4.08 0.00 1.22 <
767 1 6 9 -2 4.05 1.50 0.54 <
768 1 -6 -10 4 2.63 0.76 2.08 <
769 1 -6 -10 3 10.11 -0.16 2.95 <
770 1 -6 -11 4 3.11 1.04 7.66 <
771 1 7 1 -9 1.66 0.63 0.17 o
772 1 7 3 -7 1.51 0.41 0.11 o
773 1 7 4 -6 0.39 0.25 0.14 <
774 1 7 4 -5 7.81 8.23 1.20 o
775 1 7 5 -6 2.50 1.00 0.21 o
776 1 7 5 -5 0.83 0.26 0.14 <
777 1 7 5 -4 2.18 1.28 0.60 <
778 1 7 6 -5 2.65 1.38 0.37 o
779 1 7 6 -4 1.88 0.67 0.16 o
780 1 7 6 -3 1.98 1.84 0.84 <
781 1 7 6 -2 2.47 1.91 0.79 <
782 1 7 7 -5 0.59 0.04 0.13 <
783 1 7 7 -4 2.93 1.54 0.53 <
784 1 7 7 -3 2.92 1.57 0.68 <
785 1 7 7 -2 0.60 0.11 0.28 <
786 1 7 8 -5 4.38 2.27 0.45 o
787 1 7 8 -4 0.84 0.28 0.25 <
788 1 7 8 -3 0.85 0.39 0.34 <
789 1 7 8 -2 3.88 2.00 0.81 <
790 1 -7 -9 4 2.80 0.13 1.33 <
791 1 7 9 -4 2.85 1.35 0.48 <
792 1 -7 -9 3 2.87 0.18 0.94 <
793 1 7 9 -3 2.81 1.31 0.57 <
794 1 -7 -10 4 0.31 233.81 69.26 o
795 1 8 4 -7 1.40 0.44 0.19 <
796 1 8 5 -6 1.01 0.47 0.26 <
797 1 8 6 -6 0.26 -0.03 0.18 <
798 1 8 6 -5 0.10 0.16 0.22 <
799 1 8 7 -5 1.69 1.11 0.40 <
800 1 8 7 -4 0.06 -0.26 0.35 <
801 1 8 7 -3 1.59 0.46 0.44 <
802 1 8 8 -5 0.31 0.36 0.28 <
803 1 8 8 -4 1.72 1.42 0.63 <
804 1 8 9 -5 0.69 0.37 0.30 <
805 1 8 9 -4 0.06 -0.14 0.14 <
806 2 0 3 2 459.36 425.08 5.86 o
807 2 0 3 3 2.56 1.50 0.22 o
808 2 0 4 3 158.22 153.13 3.15 o
809 2 0 4 4 1.48 1.39 0.23 o
810 2 0 5 3 1.26 2.19 0.36 o
811 2 0 5 4 16.35 16.93 0.98 o
812 2 0 5 5 18.69 21.33 1.10 o
813 2 0 6 4 15.30 16.92 1.16 o
814 2 0 6 5 62.47 69.22 2.32 o
815 2 0 7 4 186.01 179.83 4.68 o
816 2 0 7 5 44.16 48.72 2.11 o
817 2 0 7 6 6.45 6.95 0.73 o
818 2 0 8 5 19.27 22.16 1.59 o
819 2 0 8 6 8.96 12.64 1.16 o
820 2 0 9 6 4.19 3.32 0.57 o
821 2 1 0 -8 5.71 4.00 0.45 o
822 2 1 0 -7 14.16 13.37 0.83 o
823 2 1 0 -6 8.34 6.72 0.52 o
824 2 1 0 -5 216.39 194.75 3.29 o
825 2 1 0 -4 162.50 141.62 2.57 o
826 2 -1 0 3 3.36 4.24 0.33 o
827 2 1 0 -3 3.36 4.52 0.35 o
828 2 -1 0 2 67.43 71.47 1.49 o
829 2 1 0 -2 67.43 71.64 1.49 o
830 2 1 -1 -8 4.55 2.14 0.25 o
831 2 1 -1 -7 11.96 6.27 0.43 o
832 2 1 -1 -6 41.70 25.33 0.82 o
833 2 1 1 -5 32.77 26.68 1.23 o
834 2 1 1 -4 151.82 128.27 2.78 o
835 2 1 1 -3 88.89 66.02 1.74 o
836 2 -1 -1 2 331.14 295.42 4.36 o
837 2 1 1 -2 332.98 316.99 4.64 o
838 2 1 1 -1 585.70 582.38 7.21 o
839 2 -1 -1 1 584.80 577.63 7.19 o
840 2 1 2 -3 210.29 212.15 4.06 o
841 2 -1 -2 2 712.65 733.05 9.33 o
842 2 1 2 -2 713.00 738.88 9.43 o
843 2 1 2 -1 7.85 6.27 0.52 o
844 2 -1 -2 1 6.45 4.90 0.47 o
845 3 1 2 1 1337.63 1364.59 15.27 o
845 2 -1 -2 -1 1337.63 1364.59 15.27 o
846 3 -1 -2 -1 1337.55 1373.43 15.40 o
846 2 1 2 1 1337.55 1373.43 15.40 o
847 2 -1 -2 -2 207.63 213.68 3.59 o
848 2 -1 -2 -3 19.39 14.27 0.81 o
849 2 -1 -3 1 74.25 77.25 2.15 o
850 2 1 3 -1 73.58 76.94 2.28 o
851 3 1 3 1 37.53 43.64 1.47 o
851 2 -1 -3 -1 37.53 43.64 1.47 o
852 3 -1 -3 -1 37.48 43.00 1.56 o
852 2 1 3 1 37.48 43.00 1.56 o
853 2 1 3 2 273.04 276.07 4.73 o
854 2 -1 -3 -2 272.54 273.08 4.50 o
855 2 -1 -3 -3 75.31 64.03 1.80 o
856 2 -1 -3 -4 21.10 15.69 0.79 o
857 2 -1 -3 -5 37.13 22.51 0.91 o
858 2 -1 -3 -6 23.73 11.86 0.59 o
859 2 -1 -3 -7 3.80 1.42 0.18 o
860 2 -1 4 5 21.67 9.25 0.56 o
861 3 1 4 1 659.87 718.19 9.60 o
861 2 -1 -4 -1 659.87 718.19 9.60 o
862 3 -1 -4 -1 660.19 720.62 10.12 o
862 2 1 4 1 660.19 720.62 10.12 o
863 2 1 4 2 65.21 61.62 2.21 o
864 2 -1 -4 -2 66.42 63.55 1.96 o
865 2 1 4 3 51.23 52.96 2.04 o
866 2 -1 -4 -3 51.74 51.95 1.68 o
867 2 -1 -4 -4 20.34 20.73 0.98 o
868 2 -1 -4 -5 3.39 2.46 0.30 o
869 2 -1 -4 -6 24.42 11.55 0.55 o
870 2 -1 5 5 11.21 7.52 0.66 o
871 3 1 5 1 116.99 113.32 3.13 o
871 2 -1 -5 -1 116.99 113.32 3.13 o
872 3 -1 -5 -1 117.08 113.07 3.37 o
872 2 1 5 1 117.08 113.07 3.37 o
873 2 -1 -5 -2 122.51 130.79 3.22 o
874 2 1 5 2 123.50 132.36 3.60 o
875 2 1 5 3 80.27 75.20 2.62 o
876 2 -1 -5 -3 83.27 71.50 2.16 o
877 2 1 5 4 10.72 10.62 1.01 o
878 2 -1 -5 -4 11.01 8.89 0.67 o
879 2 -1 6 6 3.51 2.19 0.30 o
880 3 -1 -6 -1 288.71 265.60 5.86 o
880 2 1 6 1 288.71 265.60 5.86 o
881 2 1 6 2 44.00 43.93 2.19 o
882 2 1 6 3 22.23 24.13 1.49 o
883 2 1 6 4 88.00 94.24 3.13 o
884 2 1 6 5 3.24 5.32 1.41 o
885 2 -1 7 6 14.59 13.46 1.14 o
886 2 1 7 2 19.04 18.35 1.48 o
887 2 1 7 3 54.12 55.59 2.55 o
888 2 1 7 4 4.71 5.35 0.77 o
889 2 1 7 5 13.36 12.26 1.32 o
890 2 1 8 3 35.60 35.04 2.26 o
891 2 1 8 4 37.59 36.84 2.38 o
892 2 1 8 5 2.02 0.47 0.29 <
893 2 1 9 4 4.41 3.42 0.86 o
894 2 1 9 5 16.58 16.19 1.71 o
895 2 1 10 5 0.37 0.18 0.13 <
896 2 2 0 -9 3.07 4.78 0.48 o
897 2 2 0 -8 1.76 1.92 0.34 o
898 2 2 0 -7 29.91 43.26 1.66 o
899 2 2 0 -6 1.80 2.54 0.45 o
900 2 2 0 -5 4.32 3.01 0.42 o
901 2 -2 0 5 4.32 3.60 0.39 o
902 2 2 0 -4 145.39 138.46 3.03 o
903 2 -2 0 4 145.39 126.82 2.83 o
904 2 -2 0 3 0.06 0.27 0.15 <
905 2 2 0 -3 0.06 0.19 0.11 <
906 2 2 1 -9 3.67 3.96 0.52 o
907 2 2 1 -8 15.91 18.66 1.17 o
908 2 2 1 -7 7.37 11.04 1.10 o
909 2 2 1 -6 41.01 44.62 1.82 o
910 2 -2 -1 5 42.40 39.24 1.54 o
911 2 -2 1 5 41.06 34.23 1.14 o
912 2 2 1 -5 41.06 38.57 1.66 o
913 2 2 1 -4 25.45 26.29 1.34 o
914 2 -2 -1 4 24.89 25.00 1.16 o
915 2 -2 1 4 25.45 24.52 1.05 o
916 2 -2 -1 3 209.05 211.53 4.08 o
917 2 2 1 -3 202.46 208.59 4.22 o
918 2 2 1 -2 58.71 48.83 1.80 o
919 2 -2 -1 2 61.70 50.50 1.85 o
920 2 2 1 -1 529.41 546.94 8.08 o
921 2 -2 -1 1 529.42 552.58 7.96 o
922 2 2 2 -8 1.71 0.71 0.27 <
923 2 2 2 -7 17.14 21.85 1.45 o
924 2 2 2 -6 49.98 76.39 2.82 o
925 2 -2 2 5 30.99 23.18 0.89 o
926 2 2 2 -5 30.99 30.59 1.66 o
927 2 2 2 -4 130.34 127.40 3.51 o
928 2 -2 -2 4 130.24 130.17 3.26 o
929 2 -2 -2 3 155.95 164.13 3.65 o
930 2 2 2 -3 161.56 164.48 3.82 o
931 2 2 2 -2 80.01 73.40 2.40 o
932 2 -2 -2 2 78.81 65.14 2.29 o
933 2 2 2 -1 553.84 596.74 8.81 o
934 2 -2 -2 1 553.67 600.93 8.70 o
935 2 -2 -2 -1 163.85 186.66 4.25 o
936 2 2 3 -6 19.81 24.26 1.60 o
937 2 2 3 -5 94.48 90.51 3.15 o
938 2 2 3 -4 13.44 13.37 1.13 o
939 2 -2 -3 4 13.36 11.85 1.02 o
940 2 -2 -3 3 215.07 224.85 4.74 o
941 2 2 3 -3 215.74 224.28 5.01 o
942 2 -2 -3 2 418.06 459.32 7.32 o
943 2 2 3 -2 418.61 456.11 7.70 o
944 2 2 3 -1 4.17 5.76 0.71 o
945 2 -2 -3 1 4.17 6.48 0.71 o
946 2 -2 -3 -1 214.24 244.13 5.14 o
947 2 2 3 1 213.56 257.08 5.55 o
948 3 2 3 2 21.82 17.05 1.26 o
948 2 -2 -3 -2 21.82 17.05 1.26 o
949 2 -2 -3 -3 85.17 67.15 2.44 o
950 2 -2 -3 -4 17.80 12.70 0.94 o
951 2 2 4 -4 236.45 217.87 5.32 o
952 2 -2 -4 3 115.80 120.59 3.47 o
953 2 2 4 -3 114.03 115.00 3.68 o
954 2 2 4 -2 2.02 2.00 0.51 o
955 2 -2 -4 2 2.64 3.33 0.54 o
956 2 -2 -4 1 441.56 447.56 7.53 o
957 2 2 4 -1 441.48 451.19 8.00 o
958 2 -2 -4 -1 109.30 133.90 3.59 o
959 2 2 4 1 111.12 138.48 3.99 o
960 3 -2 -4 -2 412.73 424.60 8.10 o
960 2 2 4 2 412.73 424.60 8.10 o
961 3 2 4 2 412.85 442.52 7.48 o
961 2 -2 -4 -2 412.85 442.52 7.48 o
962 2 -2 -4 -3 0.50 0.53 0.26 <
963 2 -2 -4 -4 53.09 42.89 1.76 o
964 2 -2 -4 -5 28.10 22.64 1.20 o
965 2 -2 -4 -6 0.33 0.11 0.13 <
966 2 -2 -4 -7 4.27 1.67 0.29 o
967 2 -2 -5 3 90.14 95.82 3.34 o
968 2 2 5 -3 91.18 96.95 3.53 o
969 2 2 5 -2 121.49 119.11 3.87 o
970 2 -2 -5 2 121.06 114.10 3.56 o
971 2 2 5 -1 54.93 68.62 2.87 o
972 2 -2 -5 1 54.93 66.65 2.56 o
973 2 -2 -5 -1 88.27 107.69 3.33 o
974 2 2 5 1 87.28 104.19 3.59 o
975 3 -2 -5 -2 41.26 41.82 2.11 o
975 2 2 5 2 41.26 41.82 2.11 o
976 3 2 5 2 41.20 39.20 1.79 o
976 2 -2 -5 -2 41.20 39.20 1.79 o
977 2 2 5 3 69.84 70.59 3.09 o
978 2 -2 -5 -3 71.74 68.43 2.35 o
979 2 -2 -5 -4 28.21 30.95 1.50 o
980 2 -2 -5 -5 7.67 6.87 0.64 o
981 2 -2 -5 -6 7.92 6.25 0.56 o
982 2 -2 6 7 9.97 6.31 0.67 o
983 2 2 6 -2 38.46 43.07 2.43 o
984 2 2 6 -1 103.55 100.25 3.73 o
985 2 -2 -6 1 103.64 100.76 3.38 o
986 2 2 6 1 32.49 36.11 2.17 o
987 2 -2 -6 -1 29.96 35.90 1.86 o
988 3 2 6 2 83.44 83.17 2.86 o
988 2 -2 -6 -2 83.44 83.17 2.86 o
989 3 -2 -6 -2 83.60 87.77 3.33 o
989 2 2 6 2 83.60 87.77 3.33 o
990 2 2 6 3 21.67 21.67 1.65 o
991 2 -2 -6 -3 20.99 20.63 1.32 o
992 2 -2 -6 -4 10.31 10.82 0.92 o
993 2 2 6 4 9.66 10.40 1.33 o
994 2 -2 -6 -5 9.04 8.89 0.76 o
995 2 2 7 -1 0.99 0.53 0.32 <
996 2 2 7 1 41.04 45.56 2.67 o
997 2 -2 -7 -1 41.46 48.17 2.30 o
998 3 2 7 2 5.79 4.89 0.68 o
998 2 -2 -7 -2 5.79 4.89 0.68 o
999 3 -2 -7 -2 5.75 4.14 0.70 o
999 2 2 7 2 5.75 4.14 0.70 o
1000 2 -2 -7 -3 11.96 13.09 1.10 o
1001 2 2 7 3 12.52 15.67 1.49 o
1002 2 -2 -7 -4 11.69 9.44 0.93 o
1003 2 2 7 4 11.40 9.42 1.30 o
1004 2 -2 -7 -5 0.57 0.08 0.10 <
1005 2 2 8 1 25.84 33.21 2.40 o
1006 3 -2 -8 -2 83.55 80.17 3.59 o
1006 2 2 8 2 83.55 80.17 3.59 o
1007 2 2 8 3 8.05 7.69 0.99 o
1008 2 2 8 4 7.68 7.10 1.16 o
1009 2 2 8 5 12.41 9.38 1.52 o
1010 2 2 9 1 32.74 39.73 2.93 o
1011 3 -2 -9 -2 9.56 7.43 1.10 o
1011 2 2 9 2 9.56 7.43 1.10 o
1012 2 2 9 3 26.69 25.03 2.09 o
1013 2 2 9 4 12.12 7.49 1.27 o
1014 2 2 9 5 4.42 1.35 0.69 <
1015 2 2 10 3 1.26 0.30 0.16 <
1016 2 2 10 4 20.61 14.68 1.99 o
1017 2 3 0 -9 7.39 8.65 0.83 o
1018 2 3 0 -8 27.75 33.22 1.69 o
1019 2 -3 0 7 0.31 0.39 0.17 <
1020 2 3 0 -7 0.31 0.26 0.11 <
1021 2 3 0 -6 3.38 2.34 0.61 o
1022 2 -3 0 6 3.38 3.28 0.46 o
1023 2 3 0 -5 34.48 27.22 1.76 o
1024 2 -3 0 5 34.48 33.74 1.65 o
1025 2 -3 0 4 40.65 41.99 1.97 o
1026 2 3 1 -10 2.75 3.77 0.54 o
1027 2 3 1 -9 4.64 6.03 0.71 o
1028 2 3 1 -8 12.26 17.28 1.26 o
1029 2 3 1 -7 21.32 37.30 1.88 o
1030 2 -3 1 7 21.32 35.51 1.41 o
1031 2 -3 -1 7 21.20 36.78 1.74 o
1032 2 3 1 -6 16.40 24.05 1.54 o
1033 2 -3 -1 6 16.87 23.63 1.41 o
1034 2 -3 1 6 16.40 24.38 1.26 o
1035 2 -3 1 5 66.42 64.44 2.23 o
1036 2 3 1 -5 66.42 69.62 2.67 o
1037 2 -3 -1 5 63.83 73.25 2.54 o
1038 2 -3 -1 4 164.53 145.72 3.86 o
1039 2 3 1 -4 165.83 146.68 4.14 o
1040 2 -3 -1 3 0.23 0.13 0.14 <
1041 2 3 1 -3 0.26 0.04 0.04 <
1042 2 -3 -1 2 141.42 123.57 3.93 o
1043 2 3 2 -10 0.51 0.41 0.29 <
1044 2 3 2 -9 5.84 6.75 0.89 o
1045 2 3 2 -8 11.52 15.25 1.27 o
1046 2 3 2 -7 2.11 3.63 0.62 o
1047 2 -3 2 7 2.11 3.14 0.38 o
1048 2 -3 -2 6 90.95 114.54 3.42 o
1049 2 3 2 -6 91.85 122.77 3.79 o
1050 2 -3 2 6 91.85 116.29 2.99 o
1051 2 -3 -2 5 40.56 45.43 1.97 o
1052 2 3 2 -5 39.91 47.52 2.25 o
1053 2 3 2 -4 0.25 0.16 0.22 <
1054 2 -3 -2 4 0.15 0.21 0.23 <
1055 2 3 2 -3 162.93 137.30 4.28 o
1056 2 -3 -2 3 163.73 153.28 4.12 o
1057 2 -3 -2 2 154.12 142.47 4.21 o
1058 2 3 2 -2 149.10 141.46 4.19 o
1059 2 -3 -2 1 142.62 131.27 3.96 o
1060 2 3 2 -1 147.56 140.54 4.32 o
1061 2 3 3 -9 0.75 0.76 0.36 <
1062 2 3 3 -8 3.36 3.37 0.71 o
1063 2 -3 3 7 28.33 34.79 1.27 o
1064 2 3 3 -7 28.33 51.61 2.51 o
1065 2 -3 -3 6 16.42 20.85 1.55 o
1066 2 3 3 -6 15.88 20.72 1.65 o
1067 2 3 3 -5 87.37 94.03 3.40 o
1068 2 -3 -3 5 86.47 93.96 3.17 o
1069 2 -3 -3 4 27.04 23.46 1.58 o
1070 2 3 3 -4 29.08 27.34 1.92 o
1071 2 -3 -3 3 34.36 34.27 1.99 o
1072 2 3 3 -3 34.22 34.19 2.13 o
1073 2 3 3 -2 127.92 122.46 4.13 o
1074 2 -3 -3 2 127.95 119.20 3.87 o
1075 2 3 3 -1 128.40 125.84 4.11 o
1076 2 -3 -3 1 128.31 124.04 4.01 o
1077 2 -3 -3 -1 28.17 17.79 1.50 o
1078 2 3 4 -8 9.12 13.41 1.44 o
1079 2 3 4 -7 0.28 0.04 0.26 <
1080 2 3 4 -6 51.58 74.44 3.43 o
1081 2 -3 -4 6 51.85 71.62 3.13 o
1082 2 3 4 -5 9.14 10.48 1.23 o
1083 2 -3 -4 5 9.19 10.86 1.11 o
1084 2 3 4 -4 8.72 8.64 1.07 o
1085 2 -3 -4 4 8.67 9.50 1.02 o
1086 2 -3 -4 3 78.74 75.78 2.95 o
1087 2 3 4 -3 79.22 73.54 3.17 o
1088 2 -3 -4 2 76.54 79.63 3.19 o
1089 2 3 4 -2 78.47 79.79 3.36 o
1090 2 3 4 -1 75.32 80.27 3.37 o
1091 2 -3 -4 1 77.10 86.49 3.36 o
1092 2 3 4 1 9.25 8.07 1.09 o
1093 2 -3 -4 -1 9.24 7.04 1.00 o
1094 2 -3 -4 -2 7.69 7.56 1.00 o
1095 3 3 4 3 83.11 67.36 2.78 o
1095 2 -3 -4 -3 83.11 67.36 2.78 o
1096 2 -3 -4 -4 0.13 0.06 0.08 <
1097 2 3 5 -6 24.18 30.09 2.41 o
1098 2 3 5 -5 46.12 47.26 2.78 o
1099 2 -3 -5 5 47.93 49.23 2.63 o
1100 2 -3 -5 4 44.55 54.31 2.66 o
1101 2 3 5 -4 41.77 44.56 2.90 o
1102 2 3 5 -3 1.80 1.88 0.60 o
1103 2 -3 -5 3 1.71 1.51 0.49 o
1104 2 -3 -5 2 119.69 120.76 3.96 o
1105 2 3 5 -2 118.49 119.95 4.30 o
1106 2 -3 -5 1 116.29 121.11 4.01 o
1107 2 3 5 -1 117.42 118.92 4.27 o
1108 2 3 5 1 42.45 39.06 2.63 o
1109 2 -3 -5 -1 39.78 42.39 2.43 o
1110 2 3 5 2 44.31 46.68 2.89 o
1111 2 -3 -5 -2 42.65 41.62 2.31 o
1112 3 3 5 3 39.33 34.46 1.97 o
1112 2 -3 -5 -3 39.33 34.46 1.97 o
1113 2 -3 -5 -4 8.81 10.22 1.01 o
1114 2 -3 -5 -5 2.54 1.26 0.35 o
1115 2 -3 -5 -6 2.39 1.13 0.31 o
1116 2 3 6 -5 33.72 38.09 2.59 o
1117 2 -3 -6 4 2.71 2.91 0.57 o
1118 2 3 6 -4 2.53 2.55 0.64 o
1119 2 -3 -6 3 101.37 110.15 3.99 o
1120 2 3 6 -3 101.34 113.18 4.57 o
1121 2 3 6 -2 17.31 16.82 1.62 o
1122 2 -3 -6 2 15.66 14.61 1.34 o
1123 2 -3 -6 1 17.27 16.68 1.44 o
1124 2 3 6 -1 15.64 12.56 1.40 o
1125 2 3 6 1 2.64 1.68 0.41 o
1126 2 -3 -6 -1 2.44 1.52 0.38 o
1127 2 3 6 2 30.61 35.74 2.52 o
1128 2 -3 -6 -2 31.05 36.58 2.02 o
1129 3 -3 -6 -3 34.84 35.45 2.66 o
1129 2 3 6 3 34.84 35.45 2.66 o
1130 3 3 6 3 34.79 35.71 1.96 o
1130 2 -3 -6 -3 34.79 35.71 1.96 o
1131 2 -3 -6 -4 1.64 1.19 0.37 o
1132 2 -3 -6 -5 6.28 5.09 0.67 o
1133 2 -3 -6 -6 5.11 3.56 0.52 o
1134 2 -3 -7 3 2.67 2.15 0.58 o
1135 2 3 7 -3 2.63 1.40 0.51 <
1136 2 3 7 -2 16.80 16.61 1.71 o
1137 2 -3 -7 2 17.46 16.76 1.51 o
1138 2 3 7 -1 16.88 17.61 1.62 o
1139 2 -3 -7 1 16.38 16.51 1.47 o
1140 2 -3 -7 -1 86.79 95.26 3.53 o
1141 2 3 7 1 85.90 99.44 4.17 o
1142 2 3 7 2 14.90 17.03 1.71 o
1143 2 -3 -7 -2 14.82 17.78 1.49 o
1144 3 -3 -7 -3 8.75 5.79 1.29 o
1144 2 3 7 3 8.75 5.79 1.29 o
1145 3 3 7 3 8.73 8.85 0.96 o
1145 2 -3 -7 -3 8.73 8.85 0.96 o
1146 2 -3 -7 -4 11.62 11.66 1.09 o
1147 2 -3 -7 -5 8.92 8.84 0.88 o
1148 2 3 8 -2 18.26 21.68 2.12 o
1149 2 -3 -8 2 19.45 22.26 1.81 o
1150 2 3 8 -1 18.80 19.38 1.83 o
1151 2 -3 -8 1 17.65 18.24 1.58 o
1152 2 -3 -8 -1 5.96 4.94 0.74 o
1153 2 3 8 1 5.92 4.45 0.83 o
1154 2 3 8 2 11.70 12.15 1.50 o
1155 2 -3 -8 -2 11.37 11.87 1.27 o
1156 3 -3 -8 -3 18.69 20.74 2.03 o
1156 2 3 8 3 18.69 20.74 2.03 o
1157 3 3 8 3 18.74 19.57 1.56 o
1157 2 -3 -8 -3 18.74 19.57 1.56 o
1158 2 3 8 4 0.32 -0.38 0.18 <
1159 2 -3 -8 -4 0.32 0.17 0.08 <
1160 2 -3 -8 -5 9.75 8.82 0.89 o
1161 2 3 9 -1 52.99 48.42 3.29 o
1162 2 -3 -9 -1 17.03 15.97 1.49 o
1163 2 3 9 1 16.68 15.68 1.69 o
1164 2 -3 -9 -2 19.08 15.35 1.57 o
1165 2 3 9 2 18.09 18.40 2.00 o
1166 3 3 9 3 5.12 4.11 0.63 o
1166 2 -3 -9 -3 5.12 4.11 0.63 o
1167 3 -3 -9 -3 5.14 3.05 0.85 o
1167 2 3 9 3 5.14 3.05 0.85 o
1168 2 3 9 4 11.78 10.18 1.73 o
1169 2 3 10 1 1.40 0.37 0.30 <
1170 2 3 10 2 4.73 2.27 0.68 o
1171 3 -3 -10 -3 40.09 34.88 2.94 o
1171 2 3 10 3 40.09 34.88 2.94 o
1172 2 3 10 4 0.01 0.12 0.15 <
1173 2 -4 0 9 0.10 0.02 0.18 <
1174 2 -4 0 8 26.59 34.98 1.79 o
1175 2 -4 0 7 21.37 35.45 2.04 o
1176 2 -4 0 6 1.94 1.44 0.35 o
1177 2 -4 0 5 156.43 136.20 4.55 o
1178 2 4 1 -10 0.40 -0.23 0.22 <
1179 2 4 1 -9 11.28 15.11 1.41 o
1180 2 -4 1 9 11.28 15.13 1.03 o
1181 2 4 1 -8 7.20 9.10 1.11 o
1182 2 -4 -1 8 7.35 12.05 1.09 o
1183 2 -4 1 8 7.20 9.72 0.89 o
1184 2 4 1 -7 11.08 13.18 1.48 o
1185 2 -4 -1 7 11.58 15.64 1.32 o
1186 2 -4 1 7 11.08 13.57 1.17 o
1187 2 -4 1 6 24.11 24.40 1.85 o
1188 2 4 1 -6 24.11 25.32 2.04 o
1189 2 -4 -1 6 23.58 29.60 1.86 o
1190 2 4 1 -5 17.12 16.63 1.58 o
1191 2 -4 -1 5 17.36 17.63 1.54 o
1192 2 -4 -1 4 148.32 139.09 4.76 o
1193 2 4 1 -4 148.13 134.89 4.93 o
1194 2 4 2 -11 1.80 1.75 0.49 o
1195 2 4 2 -10 3.29 4.96 0.78 o
1196 2 -4 2 9 0.05 -0.17 0.13 <
1197 2 4 2 -9 0.05 -0.19 0.13 <
1198 2 4 2 -8 10.11 12.57 1.34 o
1199 2 -4 2 8 10.11 13.95 1.05 o
1200 2 -4 -2 8 10.52 16.83 1.34 o
1201 2 -4 2 7 12.81 21.04 1.61 o
1202 2 4 2 -7 12.81 19.75 1.77 o
1203 2 -4 -2 7 13.22 22.24 1.75 o
1204 2 4 2 -6 3.75 4.14 0.83 o
1205 2 -4 -2 6 3.70 4.61 0.81 o
1206 2 4 2 -5 55.87 46.64 2.86 o
1207 2 -4 -2 5 54.34 54.51 2.67 o
1208 2 4 2 -4 7.29 7.11 1.23 o
1209 2 -4 -2 4 7.29 7.19 1.16 o
1210 2 -4 -2 3 13.18 10.59 1.41 o
1211 2 4 2 -3 12.31 9.75 1.49 o
1212 2 -4 -2 2 151.66 119.50 4.51 o
1213 2 4 3 -11 0.35 0.28 0.26 <
1214 2 4 3 -10 3.36 4.72 0.93 o
1215 2 -4 3 9 1.78 1.63 0.25 o
1216 2 4 3 -9 1.78 1.52 0.55 <
1217 2 -4 -3 8 1.85 2.07 0.54 o
1218 2 -4 3 8 1.98 1.55 0.31 o
1219 2 4 3 -8 1.98 2.36 0.63 o
1220 2 4 3 -7 23.36 38.87 2.71 o
1221 2 -4 -3 7 23.48 37.73 2.30 o
1222 2 4 3 -6 27.80 28.84 2.24 o
1223 2 -4 -3 6 28.08 31.01 1.97 o
1224 2 4 3 -5 3.18 3.30 0.71 o
1225 2 -4 -3 5 2.96 2.83 0.63 o
1226 2 -4 -3 4 4.90 3.24 0.68 o
1227 2 4 3 -4 4.34 1.87 0.56 o
1228 2 4 3 -3 44.29 35.90 2.52 o
1229 2 -4 -3 3 46.44 34.60 2.37 o
1230 2 4 3 -2 0.05 -0.06 0.23 <
1231 2 -4 -3 2 0.05 0.05 0.21 <
1232 2 -4 -3 1 38.13 29.74 2.31 o
1233 2 4 3 -1 40.22 37.57 2.65 o
1234 2 4 4 -10 2.98 2.14 0.62 o
1235 2 4 4 -9 0.16 0.30 0.16 <
1236 2 -4 4 9 0.16 -0.06 0.12 <
1237 2 4 4 -8 3.46 3.42 0.89 o
1238 2 -4 -4 7 9.00 25.41 2.03 o
1239 2 4 4 -7 9.36 25.55 2.18 o
1240 2 -4 -4 6 9.77 11.01 1.28 o
1241 2 4 4 -6 9.60 12.02 1.46 o
1242 2 -4 -4 5 21.95 26.75 1.91 o
1243 2 4 4 -5 20.74 20.46 2.03 o
1244 2 -4 -4 4 0.14 0.07 0.17 <
1245 2 4 4 -4 0.05 -0.26 0.21 <
1246 2 -4 -4 3 5.12 4.21 0.90 o
1247 2 4 4 -3 5.42 4.30 0.95 o
1248 2 4 4 -2 133.66 124.98 4.93 o
1249 2 -4 -4 2 133.77 125.54 4.51 o
1250 2 4 4 -1 5.72 4.73 0.95 o
1251 2 -4 -4 1 6.09 5.14 0.92 o
1252 2 -4 -4 -1 18.25 15.84 1.74 o
1253 2 4 5 -9 4.67 3.75 0.81 o
1254 2 4 5 -8 1.70 2.05 0.64 o
1255 2 -4 -5 7 10.91 19.29 1.85 o
1256 2 4 5 -7 11.19 13.96 1.77 o
1257 2 -4 -5 6 27.49 36.05 2.36 o
1258 2 4 5 -6 27.60 33.63 2.61 o
1259 2 4 5 -5 6.62 5.07 1.04 o
1260 2 -4 -5 5 6.78 5.66 0.98 o
1261 2 -4 -5 4 22.43 22.69 1.86 o
1262 2 4 5 -4 22.83 23.65 2.16 o
1263 2 4 5 -3 50.75 44.57 3.04 o
1264 2 -4 -5 3 48.10 45.55 2.84 o
1265 2 4 5 -2 0.01 -0.13 0.24 <
1266 2 -4 -5 2 0.01 -0.22 0.14 <
1267 2 4 5 -1 46.45 47.36 2.98 o
1268 2 -4 -5 1 48.97 51.67 2.96 o
1269 2 -4 -5 -1 5.41 3.53 0.75 o
1270 2 4 5 1 5.51 3.59 0.85 o
1271 2 -4 -5 -2 22.06 22.71 1.94 o
1272 2 -4 -5 -3 9.94 8.23 1.11 o
1273 2 4 6 -7 9.21 17.14 1.95 o
1274 2 4 6 -6 0.98 1.04 0.68 <
1275 2 -4 -6 6 0.87 0.62 0.26 <
1276 2 -4 -6 5 62.61 67.22 3.44 o
1277 2 4 6 -5 62.86 62.79 3.56 o
1278 2 -4 -6 4 28.38 34.20 2.44 o
1279 2 4 6 -4 28.55 30.52 2.62 o
1280 2 -4 -6 3 6.82 6.45 1.02 o
1281 2 4 6 -3 7.09 5.50 1.10 o
1282 2 4 6 -2 43.99 41.55 2.92 o
1283 2 -4 -6 2 44.04 43.79 2.60 o
1284 2 4 6 -1 6.70 5.79 0.99 o
1285 2 -4 -6 1 6.92 6.94 1.09 o
1286 2 4 6 1 54.57 60.99 3.45 o
1287 2 -4 -6 -1 54.76 57.01 3.00 o
1288 2 -4 -6 -2 0.83 0.83 0.41 <
1289 2 4 6 2 0.73 1.38 0.61 <
1290 2 -4 -6 -3 7.49 21.43 1.75 o
1291 3 4 6 4 16.00 14.50 1.44 o
1291 2 -4 -6 -4 16.00 14.50 1.44 o
1292 2 -4 -6 -5 0.41 -0.07 0.10 <
1293 2 4 7 -6 9.98 10.90 1.54 o
1294 2 4 7 -5 4.71 2.23 0.71 o
1295 2 -4 -7 5 4.68 2.19 0.57 o
1296 2 -4 -7 4 72.60 76.00 3.78 o
1297 2 4 7 -4 72.72 65.66 3.95 o
1298 2 -4 -7 3 50.98 54.60 3.14 o
1299 2 4 7 -3 49.93 52.09 3.46 o
1300 2 -4 -7 2 0.58 0.03 0.32 <
1301 2 4 7 -2 0.58 0.10 0.26 <
1302 2 4 7 -1 50.08 50.50 3.30 o
1303 2 -4 -7 1 49.10 47.35 2.80 o
1304 2 -4 -7 -1 4.09 2.79 0.64 o
1305 2 4 7 1 4.07 1.63 0.66 <
1306 2 -4 -7 -2 8.68 7.78 1.08 o
1307 2 4 7 2 8.74 10.12 1.42 o
1308 2 -4 -7 -3 2.15 1.40 0.49 <
1309 3 4 7 4 7.88 5.32 0.83 o
1309 2 -4 -7 -4 7.88 5.32 0.83 o
1310 2 -4 -7 -5 6.75 5.44 0.72 o
1311 2 4 8 -3 5.16 3.52 0.98 o
1312 2 -4 -8 3 5.25 4.95 1.01 o
1313 2 -4 -8 2 33.52 34.21 2.42 o
1314 2 4 8 -2 33.52 30.78 2.71 o
1315 2 -4 -8 1 4.98 5.35 0.98 o
1316 2 4 8 -1 5.10 3.04 0.66 o
1317 2 4 8 1 26.46 29.14 2.47 o
1318 2 -4 -8 -1 26.62 29.24 2.17 o
1319 2 -4 -8 -2 0.11 0.13 0.11 <
1320 2 4 8 2 0.14 -0.62 0.52 <
1321 2 -4 -8 -3 8.42 7.15 1.05 o
1322 2 4 8 3 8.31 5.67 1.27 o
1323 3 4 8 4 15.72 16.66 1.48 o
1323 2 -4 -8 -4 15.72 16.66 1.48 o
1324 2 -4 -8 -5 0.37 0.41 0.24 <
1325 2 4 9 1 0.65 0.46 0.50 <
1326 2 -4 -9 -1 0.60 0.07 0.09 <
1327 2 -4 -9 -2 10.05 9.33 1.19 o
1328 2 4 9 2 9.87 8.86 1.45 o
1329 2 -4 -9 -3 7.34 6.86 0.94 o
1330 2 4 9 3 7.59 7.52 1.40 o
1331 3 4 9 4 2.34 1.60 0.50 o
1331 2 -4 -9 -4 2.34 1.60 0.50 o
1332 3 4 10 4 3.98 2.92 0.62 o
1332 2 -4 -10 -4 3.98 2.92 0.62 o
1333 2 -5 0 10 2.40 2.30 0.49 o
1334 2 -5 0 9 3.42 5.47 0.84 o
1335 2 -5 0 8 0.26 0.23 0.24 <
1336 2 -5 0 7 13.16 15.18 1.73 o
1337 2 -5 -1 10 0.48 0.57 0.24 <
1338 2 -5 1 10 0.47 0.68 0.27 <
1339 2 5 1 -10 0.47 -0.12 0.15 <
1340 2 -5 -1 9 5.06 8.13 1.01 o
1341 2 -5 1 9 5.10 6.77 0.90 o
1342 2 5 1 -9 5.10 5.48 1.01 o
1343 2 5 1 -8 10.44 13.10 1.60 o
1344 2 -5 1 8 10.44 13.88 1.36 o
1345 2 -5 -1 8 10.84 15.84 1.63 o
1346 2 -5 -1 7 9.37 10.23 1.39 o
1347 2 -5 -1 6 19.00 14.78 1.76 o
1348 2 -5 -1 5 31.53 29.41 2.48 o
1349 2 5 2 -11 0.10 0.10 0.13 <
1350 2 5 2 -10 2.16 2.56 0.73 o
1351 2 -5 2 10 2.16 3.54 0.57 o
1352 2 -5 2 9 6.52 9.16 1.08 o
1353 2 5 2 -9 6.52 9.46 1.50 o
1354 2 -5 -2 9 6.71 11.18 1.34 o
1355 2 5 2 -8 1.53 0.56 0.32 <
1356 2 -5 -2 8 1.60 0.85 0.44 <
1357 2 5 2 -7 12.05 13.00 1.85 o
1358 2 -5 -2 7 12.58 14.98 1.75 o
1359 2 -5 -2 6 10.10 9.79 1.34 o
1360 2 5 2 -6 10.61 10.52 1.47 o
1361 2 -5 -2 5 3.89 3.64 0.90 o
1362 2 5 2 -5 3.93 2.33 0.85 <
1363 2 -5 -2 4 55.13 43.03 3.33 o
1364 2 5 2 -4 53.68 41.12 3.53 o
1365 2 5 3 -11 2.50 7.54 1.17 o
1366 2 5 3 -10 2.24 2.33 0.66 o
1367 2 -5 -3 9 0.63 0.90 0.41 <
1368 2 5 3 -9 0.58 1.70 0.30 o
1369 2 -5 -3 8 5.34 5.75 1.01 o
1370 2 5 3 -8 5.24 5.41 1.04 o
1371 2 5 3 -7 2.74 4.26 1.13 o
1372 2 -5 -3 7 2.72 4.76 1.04 o
1373 2 5 3 -6 12.94 15.36 1.90 o
1374 2 -5 -3 6 13.15 15.92 1.76 o
1375 2 5 3 -5 12.73 11.47 1.80 o
1376 2 -5 -3 5 12.30 15.04 1.65 o
1377 2 -5 -3 4 0.63 0.78 0.57 <
1378 2 5 3 -4 0.62 -0.11 0.26 <
1379 2 5 3 -3 74.36 63.61 3.98 o
1380 2 -5 -3 3 75.30 57.85 3.68 o
1381 2 5 4 -11 0.04 -0.21 0.24 <
1382 2 5 4 -10 1.72 2.12 0.68 o
1383 2 5 4 -9 2.13 2.26 0.85 <
1384 2 -5 -4 9 2.10 2.10 0.65 o
1385 2 5 4 -8 1.40 0.96 0.49 <
1386 2 -5 -4 8 1.35 1.30 0.50 <
1387 2 5 4 -7 31.49 43.43 3.17 o
1388 2 -5 -4 7 31.22 42.38 2.83 o
1389 2 5 4 -6 22.84 20.04 2.22 o
1390 2 -5 -4 6 23.09 25.06 2.32 o
1391 2 5 4 -5 1.12 0.91 0.38 <
1392 2 -5 -4 5 1.12 0.17 0.19 <
1393 2 5 4 -4 37.75 35.49 2.80 o
1394 2 -5 -4 4 36.67 34.68 2.69 o
1395 2 5 4 -3 4.02 3.49 0.95 o
1396 2 -5 -4 3 4.09 2.50 0.76 o
1397 2 5 4 -2 3.05 3.32 0.92 o
1398 2 -5 -4 2 2.97 2.77 0.77 o
1399 2 5 4 -1 31.68 37.34 3.03 o
1400 2 -5 -4 1 32.68 31.72 2.53 o
1401 2 5 5 -9 2.09 2.56 0.90 <
1402 2 -5 -5 8 6.84 9.96 1.41 o
1403 2 5 5 -8 7.15 8.66 1.43 o
1404 2 -5 -5 7 3.85 4.42 1.13 o
1405 2 5 5 -7 3.71 3.99 1.03 o
1406 2 5 5 -6 15.62 18.03 2.21 o
1407 2 -5 -5 6 15.47 16.54 1.81 o
1408 2 5 5 -5 23.54 25.04 2.47 o
1409 2 -5 -5 5 23.72 24.58 2.35 o
1410 2 5 5 -4 1.99 0.91 0.51 <
1411 2 -5 -5 4 2.01 1.24 0.60 <
1412 2 5 5 -3 32.50 31.99 2.80 o
1413 2 -5 -5 3 31.08 31.23 2.64 o
1414 2 5 5 -2 32.58 32.51 2.82 o
1415 2 -5 -5 2 34.05 32.95 2.51 o
1416 2 5 5 -1 2.09 1.40 0.51 <
1417 2 -5 -5 1 2.07 1.74 0.64 <
1418 2 -5 -5 -1 12.39 12.81 1.57 o
1419 2 5 6 -7 4.54 4.50 1.29 o
1420 2 -5 -6 6 3.35 1.86 0.66 <
1421 2 5 6 -6 3.12 1.90 0.79 <
1422 2 -5 -6 5 7.83 8.17 1.32 o
1423 2 5 6 -5 7.75 5.96 1.46 o
1424 2 5 6 -4 36.87 35.17 3.03 o
1425 2 -5 -6 4 36.76 33.89 2.70 o
1426 2 5 6 -3 10.99 10.44 1.57 o
1427 2 -5 -6 3 11.60 12.14 1.62 o
1428 2 5 6 -2 11.89 12.22 1.67 o
1429 2 -5 -6 2 11.28 12.23 1.46 o
1430 2 5 6 -1 35.82 38.72 3.05 o
1431 2 -5 -6 1 35.97 32.58 2.61 o
1432 2 -5 -6 -1 2.32 1.39 0.46 o
1433 2 -5 -6 -2 3.68 3.29 0.79 o
1434 2 -5 -6 -3 0.07 0.17 0.24 <
1435 2 -5 -7 4 0.69 0.00 0.33 <
1436 2 5 7 -4 0.67 0.01 0.44 <
1437 2 5 7 -3 10.07 8.90 1.75 o
1438 2 -5 -7 3 10.48 9.63 1.34 o
1439 2 5 7 -2 10.91 8.68 1.44 o
1440 2 -5 -7 2 10.47 9.54 1.31 o
1441 2 5 7 -1 0.55 0.13 0.41 <
1442 2 -5 -7 1 0.53 -0.13 0.37 <
1443 2 5 7 1 6.17 3.78 1.14 o
1444 2 -5 -7 -1 6.22 4.45 0.98 o
1445 2 -5 -7 -2 1.35 0.40 0.32 <
1446 2 -5 -7 -3 5.25 4.94 0.97 o
1447 2 -5 -7 -4 2.19 1.00 0.48 <
1448 2 5 8 -1 18.71 16.58 2.08 o
1449 2 5 8 1 1.76 1.09 0.48 <
1450 2 -5 -8 -1 1.86 1.13 0.38 <
1451 2 5 8 2 5.89 2.39 0.69 o
1452 2 -5 -8 -2 5.77 3.25 0.70 o
1453 2 -5 -8 -3 0.66 0.74 0.42 <
1454 2 -5 -8 -4 1.63 1.16 0.43 <
1455 2 -6 0 10 0.48 0.38 0.16 <
1456 2 -6 0 9 1.67 2.18 0.77 <
1457 2 -6 0 8 5.14 4.67 1.14 o
1458 2 -6 -1 11 0.63 1.15 0.43 <
1459 2 -6 -1 10 1.30 1.51 0.63 <
1460 2 -6 1 10 1.33 1.21 0.52 <
1461 2 -6 1 9 1.31 1.07 0.54 <
1462 2 -6 -1 9 1.35 1.58 0.60 <
1463 2 -6 -1 8 3.05 2.48 0.78 o
1464 2 -6 -1 7 4.31 3.24 0.92 o
1465 2 6 2 -11 1.00 0.52 0.42 <
1466 2 -6 -2 11 0.97 1.58 0.46 o
1467 2 6 2 -10 0.18 0.41 0.45 <
1468 2 -6 -2 10 0.17 0.10 0.12 <
1469 2 6 2 -9 4.60 4.20 1.16 o
1470 2 -6 -2 9 4.54 4.30 1.09 o
1471 2 6 2 -8 3.33 2.47 0.90 <
1472 2 -6 -2 8 3.19 2.99 0.97 o
1473 2 -6 -2 7 0.66 0.56 0.55 <
1474 2 6 2 -7 0.59 0.41 0.41 <
1475 2 -6 -2 6 22.57 20.11 2.39 o
1476 3 11 -3 -7 0.41 0.88 0.59 <
1476 2 6 3 -12 0.41 0.88 0.59 <
1477 2 -6 -3 11 0.13 -0.11 0.30 <
1478 2 6 3 -11 0.12 0.32 0.42 <
1479 2 6 3 -10 2.71 1.95 0.75 <
1480 2 -6 -3 10 2.75 3.57 0.87 o
1481 2 6 3 -9 0.67 0.59 0.53 <
1482 2 -6 -3 9 0.70 0.23 0.26 <
1483 2 6 3 -8 5.90 6.21 1.40 o
1484 2 -6 -3 8 5.84 5.06 1.11 o
1485 2 6 3 -7 14.13 16.32 2.20 o
1486 2 -6 -3 7 14.13 19.48 2.45 o
1487 2 -6 -3 6 11.67 11.98 1.70 o
1488 2 6 3 -6 11.63 11.99 1.93 o
1489 2 6 3 -5 18.26 15.45 2.15 o
1490 2 -6 -3 5 17.83 13.20 2.23 o
1491 2 -6 -3 4 12.51 10.22 1.66 o
1492 2 6 4 -10 0.24 0.49 0.36 <
1493 2 -6 -4 9 2.08 2.02 0.75 <
1494 2 6 4 -9 2.10 1.97 0.77 <
1495 2 -6 -4 8 3.27 2.53 0.77 o
1496 2 6 4 -8 3.18 2.44 0.92 <
1497 2 -6 -4 7 0.15 0.30 0.34 <
1498 2 6 4 -7 0.17 -0.05 0.40 <
1499 2 6 4 -6 13.80 13.85 2.10 o
1500 2 -6 -4 6 13.86 16.02 2.04 o
1501 2 -6 -4 5 5.82 6.21 1.26 o
1502 2 6 4 -5 5.92 3.94 1.04 o
1503 2 6 4 -4 13.57 10.97 1.70 o
1504 2 -6 -4 4 13.49 9.28 1.54 o
1505 2 6 4 -3 30.29 29.85 2.99 o
1506 2 -6 -4 3 30.28 27.34 2.63 o
1507 2 6 5 -7 3.75 1.84 0.72 <
1508 2 -6 -5 7 3.84 2.28 0.64 o
1509 2 6 5 -6 0.68 0.39 0.39 <
1510 2 -6 -5 6 0.64 0.34 0.48 <
1511 2 6 5 -5 13.98 11.71 1.99 o
1512 2 -6 -5 5 14.44 14.32 1.97 o
1513 2 -6 -5 4 12.07 11.24 1.78 o
1514 2 6 5 -4 12.09 11.76 1.92 o
1515 2 -6 -5 3 4.03 1.34 0.62 <
1516 2 6 5 -3 4.03 1.27 0.67 <
1517 2 6 5 -2 11.62 14.27 1.96 o
1518 2 -6 -5 2 11.63 11.57 1.59 o
1519 2 -6 -5 1 12.76 10.84 1.63 o
1520 2 6 6 -4 0.58 -0.71 0.43 <
1521 2 -6 -6 4 0.66 0.00 0.23 <
1522 2 6 6 -3 10.87 7.83 1.62 o
1523 2 -6 -6 3 10.86 11.33 1.75 o
1524 2 -6 -6 2 0.48 0.27 0.32 <
1525 2 6 6 -2 0.56 0.32 0.49 <
1526 2 -6 -6 1 2.05 1.19 0.47 <
1527 2 6 6 -1 1.87 1.77 0.75 <
1528 2 -7 0 10 0.75 0.35 0.50 <
1529 3 -10 1 8 0.25 3.55 0.99 o
1529 2 -7 -1 11 0.25 3.55 0.99 o
1530 2 -7 -1 10 0.40 0.01 0.49 <
1531 2 -7 -1 9 2.33 2.00 0.82 <
1532 3 -10 2 8 0.76 0.68 0.59 <
1532 2 -7 -2 11 0.76 0.68 0.59 <
1533 2 -7 -2 10 1.28 1.29 0.61 <
1534 2 -7 -2 9 0.64 0.16 0.41 <
1535 2 -7 -2 8 2.71 2.05 0.71 <
1536 2 7 3 -9 1.11 0.39 0.33 <
1537 2 -7 -3 9 1.02 0.93 0.57 <
1538 2 -7 -3 8 0.29 0.23 0.40 <
1539 2 7 3 -8 0.31 0.47 0.66 <
1540 2 -7 -3 7 2.25 1.00 0.65 <
1541 2 -7 -3 6 6.68 4.67 1.31 o
1542 2 7 4 -6 0.56 0.29 0.27 <
1543 2 -7 -4 5 11.28 8.22 1.83 o
1544 2 7 4 -5 11.08 9.83 1.91 o
1545 3 0 1 1 592.91 568.08 4.82 o
1546 3 0 -1 -1 592.93 557.93 4.77 o
1547 3 0 -2 -1 0.28 0.18 0.09 <
1548 3 0 2 1 0.20 0.22 0.11 <
1549 3 0 -2 -2 201.60 177.60 4.01 o
1550 3 0 2 2 201.68 180.69 3.87 o
1551 3 0 2 3 201.93 188.47 5.33 o
1552 3 0 3 1 14.63 15.77 1.03 o
1553 3 0 -3 -1 14.70 14.80 1.02 o
1554 3 0 3 2 395.47 422.37 6.35 o
1555 3 0 -3 -2 395.45 424.26 6.66 o
1556 3 0 3 3 2.20 0.87 0.40 <
1557 3 0 -3 -3 2.20 0.81 0.37 <
1558 3 0 3 4 0.66 0.39 0.30 <
1559 3 0 4 1 3.48 4.69 0.64 o
1560 3 0 -4 -1 3.38 3.80 0.61 o
1561 3 0 -4 -2 7.62 10.19 1.09 o
1562 3 0 4 2 7.65 10.70 1.00 o
1563 3 0 4 3 136.21 130.33 4.28 o
1564 3 0 -4 -3 136.29 121.27 4.53 o
1565 3 0 4 4 1.28 1.40 0.94 <
1566 3 0 -4 -4 1.29 0.52 0.50 <
1567 3 0 4 5 0.84 -0.20 0.20 <
1568 3 0 5 2 142.43 149.59 4.12 o
1569 3 0 -5 -2 142.40 138.86 4.51 o
1570 3 0 5 3 1.09 1.52 0.58 <
1571 3 0 -5 -3 1.10 1.26 0.53 <
1572 3 0 -5 -4 14.15 9.48 1.60 o
1573 3 0 5 4 14.08 8.63 1.43 o
1574 3 0 5 5 16.09 6.38 1.59 o
1575 3 0 -5 -5 16.09 15.65 2.19 o
1576 3 0 5 6 10.16 4.32 1.43 o
1577 3 0 -6 -2 57.10 54.58 2.99 o
1578 3 0 6 2 57.08 57.31 2.69 o
1579 3 0 -6 -3 67.96 62.10 3.56 o
1580 3 0 6 3 67.90 62.23 3.16 o
1581 3 0 6 4 13.17 9.60 1.36 o
1582 3 0 -6 -4 13.16 10.92 1.63 o
1583 3 0 -6 -5 53.75 42.09 3.65 o
1584 3 0 6 5 53.78 40.84 3.15 o
1585 3 0 6 6 8.03 2.33 0.91 <
1586 3 0 -6 -6 8.00 1.20 0.68 <
1587 3 0 -7 -2 9.33 7.55 1.07 o
1588 3 0 -7 -3 29.03 24.76 2.33 o
1589 3 0 7 3 29.03 27.85 2.09 o
1590 3 0 7 4 160.13 145.96 5.47 o
1591 3 0 -7 -4 159.96 137.08 5.91 o
1592 3 0 -7 -5 37.95 32.10 3.12 o
1593 3 0 7 5 38.02 33.08 2.71 o
1594 3 0 7 6 5.56 1.95 0.90 <
1595 3 0 -7 -6 5.58 2.33 0.88 <
1596 3 0 -8 -3 82.44 66.03 4.01 o
1597 3 0 8 3 82.45 68.63 3.46 o
1598 3 0 8 4 1.11 1.02 0.49 <
1599 3 0 -8 -4 1.10 1.00 0.73 <
1600 3 0 -8 -5 16.56 13.43 2.07 o
1601 3 0 8 5 16.59 15.69 1.95 o
1602 3 0 -9 -3 0.23 -0.07 0.29 <
1603 3 0 9 4 9.78 7.74 1.17 o
1604 3 0 -9 -4 9.85 5.05 1.28 o
1605 3 -1 1 2 286.67 319.05 4.80 o
1606 3 1 -1 -2 285.09 318.62 4.89 o
1607 3 1 -1 -1 503.47 534.45 4.95 o
1608 3 -1 1 1 504.24 532.26 4.68 o
1609 3 1 -2 -3 184.98 191.62 5.07 o
1610 3 -1 2 3 181.04 186.29 4.75 o
1611 3 -1 2 2 613.84 683.08 7.37 o
1612 3 1 -2 -2 613.53 681.22 7.74 o
1613 3 1 -2 -1 5.55 4.41 0.51 o
1614 3 -1 2 1 6.76 5.60 0.54 o
1615 4 -1 2 0 12.65 11.03 0.61 o
1615 3 -1 -2 0 12.65 11.03 0.61 o
1616 3 -1 -2 -1 1337.55 1573.24 9.41 o
1616 2 1 2 1 1337.55 1573.24 9.41 o
1617 3 1 2 1 1337.63 1576.97 9.31 o
1617 2 -1 -2 -1 1337.63 1576.97 9.31 o
1618 3 1 2 2 182.62 172.85 4.14 o
1619 3 1 -3 -4 71.26 60.58 3.54 o
1620 3 -1 3 4 69.09 55.71 3.46 o
1621 3 1 -3 -3 249.71 246.73 5.92 o
1622 3 -1 3 3 249.50 243.24 5.65 o
1623 3 1 -3 -2 17.00 23.69 1.56 o
1624 3 -1 3 2 17.28 21.56 1.39 o
1625 3 -1 3 1 63.34 71.17 2.17 o
1626 3 1 -3 -1 63.92 72.06 2.35 o
1627 3 1 3 1 37.53 52.30 1.78 o
1627 2 -1 -3 -1 37.53 52.30 1.78 o
1628 3 -1 -3 -1 37.48 49.15 1.85 o
1628 2 1 3 1 37.48 49.15 1.85 o
1629 3 -1 -3 -2 234.64 232.68 5.06 o
1630 3 1 3 2 235.06 230.28 4.81 o
1631 3 1 3 3 66.97 41.22 2.69 o
1632 3 1 -4 -5 17.78 13.77 2.01 o
1633 3 -1 4 5 18.65 13.57 2.00 o
1634 3 -1 4 4 47.72 44.57 2.84 o
1635 3 1 -4 -4 47.25 41.76 2.99 o
1636 3 1 -4 -3 56.13 53.14 2.99 o
1637 3 -1 4 3 57.20 57.84 2.82 o
1638 3 -1 4 2 317.33 359.80 6.18 o
1639 3 1 -4 -2 319.23 364.49 6.84 o
1640 3 -1 -4 -1 660.19 815.86 8.67 o
1640 2 1 4 1 660.19 815.86 8.67 o
1641 3 1 4 1 659.87 809.84 8.03 o
1641 2 -1 -4 -1 659.87 809.84 8.03 o
1642 3 1 4 2 56.14 54.26 2.34 o
1643 3 -1 -4 -2 57.18 52.89 2.47 o
1644 3 -1 -4 -3 44.54 38.87 2.69 o
1645 3 1 4 3 44.11 43.39 2.52 o
1646 3 1 4 4 16.65 9.65 1.69 o
1647 3 1 -5 -6 34.15 27.88 3.11 o
1648 3 -1 5 6 34.06 25.78 3.00 o
1649 3 1 -5 -5 9.40 7.04 1.56 o
1650 3 -1 5 5 9.65 6.01 1.21 o
1651 3 -1 5 4 70.13 68.68 3.60 o
1652 3 1 -5 -4 67.55 60.50 3.73 o
1653 3 1 -5 -3 110.04 123.43 4.80 o
1654 3 -1 5 3 109.24 119.14 4.20 o
1655 3 -1 5 2 54.58 55.39 2.55 o
1656 3 1 -5 -2 55.18 55.79 2.77 o
1657 3 -1 -5 -1 117.08 113.87 3.46 o
1657 2 1 5 1 117.08 113.87 3.46 o
1658 3 1 5 1 116.99 111.27 3.15 o
1658 2 -1 -5 -1 116.99 111.27 3.15 o
1659 3 1 5 2 106.32 113.39 3.62 o
1660 3 -1 -5 -2 105.47 106.08 3.91 o
1661 3 1 5 3 69.10 61.08 3.01 o
1662 3 -1 -5 -3 71.69 53.82 3.37 o
1663 3 -1 -5 -4 9.48 5.06 1.32 o
1664 3 1 5 4 9.23 5.70 1.05 o
1665 3 1 5 5 30.83 15.20 2.12 o
1666 3 -1 6 6 3.02 1.19 0.78 <
1667 3 1 -6 -6 2.88 1.35 0.82 <
1668 3 -1 6 5 81.80 72.90 4.24 o
1669 3 1 -6 -5 81.03 67.42 4.31 o
1670 3 1 -6 -4 20.03 19.77 2.23 o
1671 3 -1 6 4 20.08 19.87 1.92 o
1672 3 -1 6 3 41.49 38.76 2.43 o
1673 3 1 -6 -3 39.66 35.46 2.62 o
1674 3 -1 6 2 133.61 132.72 4.16 o
1675 3 1 -6 -2 131.34 130.11 4.61 o
1676 3 -1 -6 -1 288.71 300.44 6.41 o
1676 2 1 6 1 288.71 300.44 6.41 o
1677 3 -1 -6 -2 39.65 35.24 2.33 o
1678 3 1 6 2 37.88 37.04 2.14 o
1679 3 1 6 3 19.14 20.67 1.77 o
1680 3 -1 -6 -3 19.23 16.37 1.81 o
1681 3 -1 -6 -4 76.48 65.75 4.27 o
1682 3 1 6 4 75.76 70.92 3.71 o
1683 3 -1 -6 -5 2.93 0.15 0.38 <
1684 3 1 6 5 2.79 1.39 0.66 <
1685 3 1 6 6 7.44 0.75 0.48 <
1686 3 1 -7 -6 12.29 7.60 1.75 o
1687 3 -1 7 6 12.56 7.21 1.54 o
1688 3 1 -7 -5 4.39 2.89 0.96 o
1689 3 -1 7 5 4.36 3.37 0.89 o
1690 3 1 -7 -4 48.44 43.87 3.36 o
1691 3 -1 7 4 47.51 48.42 2.97 o
1692 3 -1 7 3 16.14 17.11 1.67 o
1693 3 1 -7 -3 16.39 16.06 1.93 o
1694 3 -1 -7 -2 16.34 15.14 1.67 o
1695 3 1 7 2 16.39 14.40 1.42 o
1696 3 1 7 3 46.59 47.98 2.72 o
1697 3 -1 -7 -3 45.74 42.73 2.89 o
1698 3 -1 -7 -4 4.02 2.26 0.79 <
1699 3 1 7 4 4.06 2.35 0.63 o
1700 3 1 7 5 11.50 6.14 1.27 o
1701 3 -1 -7 -5 11.74 4.62 1.46 o
1702 3 1 7 6 0.93 0.82 0.43 <
1703 3 -1 8 5 31.78 29.82 2.67 o
1704 3 1 -8 -5 32.43 26.76 2.88 o
1705 3 1 -8 -4 29.92 27.50 2.78 o
1706 3 -1 8 4 29.86 27.87 2.43 o
1707 3 -1 8 3 28.55 25.53 2.02 o
1708 3 1 -8 -3 29.88 27.38 2.58 o
1709 3 -1 -8 -2 25.96 24.21 2.18 o
1710 3 1 8 3 30.65 25.77 2.10 o
1711 3 -1 -8 -3 30.56 25.16 2.37 o
1712 3 1 8 4 32.36 29.01 2.34 o
1713 3 -1 -8 -4 31.68 26.70 2.69 o
1714 3 -1 -8 -5 1.69 0.05 0.56 <
1715 3 1 8 5 1.74 0.49 0.51 <
1716 3 1 -9 -4 21.37 18.67 2.47 o
1717 3 -1 -9 -3 19.62 15.85 2.03 o
1718 3 1 9 3 20.01 16.33 1.76 o
1719 3 -1 -9 -4 3.65 1.95 0.89 <
1720 3 1 9 4 3.80 1.63 0.58 <
1721 3 -1 -10 -3 6.91 3.21 1.03 o
1722 3 -2 0 2 2.89 4.71 0.58 o
1723 3 2 0 -1 74.28 73.78 1.52 o
1724 3 -2 0 1 74.28 69.01 1.40 o
1725 3 2 -1 -3 179.98 168.64 4.29 o
1726 3 -2 1 3 174.31 162.85 4.31 o
1727 3 -2 1 2 50.54 36.11 1.67 o
1728 3 2 -1 -2 53.12 38.27 1.71 o
1729 3 2 -1 -1 455.79 430.64 4.64 o
1730 3 -2 1 1 455.78 443.75 4.42 o
1731 3 -2 2 4 112.21 100.49 4.18 o
1732 3 2 -2 -4 112.12 103.08 4.24 o
1733 3 2 -2 -3 134.26 137.90 4.35 o
1734 3 -2 2 3 139.09 138.63 4.00 o
1735 3 -2 2 2 68.89 55.87 2.10 o
1736 3 2 -2 -2 67.85 55.83 2.28 o
1737 3 2 -2 -1 476.66 476.00 5.48 o
1738 3 2 2 1 136.28 179.74 3.21 o
1739 3 2 -3 -5 82.40 76.63 4.10 o
1740 3 -2 3 5 81.34 75.32 4.10 o
1741 3 2 -3 -4 11.50 9.53 1.36 o
1742 3 -2 3 4 11.57 10.78 1.37 o
1743 3 -2 3 3 185.74 191.91 4.97 o
1744 3 2 -3 -3 185.16 195.15 5.24 o
1745 3 -2 3 2 360.39 432.85 6.43 o
1746 3 2 -3 -2 359.91 427.20 7.10 o
1747 4 -2 3 0 780.32 886.49 6.43 o
1747 3 -2 -3 0 780.32 886.49 6.43 o
1748 3 2 3 1 183.85 227.43 3.87 o
1749 3 -2 -3 -1 184.44 238.08 4.17 o
1750 3 2 3 2 21.82 17.97 1.50 o
1750 2 -2 -3 -2 21.82 17.97 1.50 o
1751 3 2 3 3 74.33 43.03 2.76 o
1752 3 2 -4 -6 47.44 81.17 4.89 o
1753 3 -2 4 6 47.74 88.88 5.00 o
1754 3 -2 4 5 0.43 0.37 0.45 <
1755 3 2 -4 -5 0.51 0.08 0.19 <
1756 3 2 -4 -4 202.70 213.50 6.42 o
1757 3 -2 4 4 203.57 198.32 5.90 o
1758 3 -2 4 3 98.17 103.46 3.78 o
1759 3 2 -4 -3 99.70 108.07 4.45 o
1760 3 -2 4 2 1.74 2.07 0.51 o
1761 3 2 -4 -2 2.28 2.46 0.56 o
1762 4 -2 4 0 3.82 5.20 0.62 o
1762 3 -2 -4 0 3.82 5.20 0.62 o
1763 3 2 4 1 95.67 118.60 2.95 o
1764 3 -2 -4 -1 94.10 122.73 3.31 o
1765 3 2 4 2 412.85 478.28 7.10 o
1765 2 -2 -4 -2 412.85 478.28 7.10 o
1766 3 -2 -4 -2 412.73 475.15 8.58 o
1766 2 2 4 2 412.73 475.15 8.58 o
1767 3 2 4 3 0.53 0.43 0.27 <
1768 3 2 4 4 45.47 19.51 1.86 o
1769 3 -2 5 7 7.54 6.56 1.76 o
1770 3 2 -5 -7 7.93 8.05 2.22 o
1771 3 2 -5 -6 29.15 46.55 3.83 o
1772 3 -2 5 6 28.48 48.60 3.70 o
1773 3 2 -5 -5 64.42 63.66 4.01 o
1774 3 -2 5 5 66.24 67.99 3.84 o
1775 3 -2 5 4 20.33 18.35 1.78 o
1776 3 2 -5 -4 20.73 18.87 2.16 o
1777 3 -2 5 3 78.50 89.53 3.62 o
1778 3 2 -5 -3 77.61 84.59 4.09 o
1779 3 2 -5 -2 104.23 98.36 3.82 o
1780 3 -2 5 2 104.59 98.02 3.57 o
1781 3 2 5 1 75.14 92.90 2.83 o
1782 3 -2 -5 -1 75.99 99.31 3.31 o
1783 3 2 5 2 41.20 48.25 2.26 o
1783 2 -2 -5 -2 41.20 48.25 2.26 o
1784 3 -2 -5 -2 41.26 48.04 2.60 o
1784 2 2 5 2 41.26 48.04 2.60 o
1785 3 -2 -5 -3 61.76 46.33 3.75 o
1786 3 2 5 3 60.12 58.63 2.89 o
1787 3 2 5 4 24.87 18.59 1.92 o
1788 3 2 5 5 6.94 1.40 0.53 <
1789 3 -2 6 6 9.63 26.48 2.73 o
1790 3 2 -6 -6 9.03 29.93 3.23 o
1791 3 2 -6 -5 22.10 19.90 2.29 o
1792 3 -2 6 5 21.44 18.06 1.97 o
1793 3 2 -6 -4 41.45 43.99 3.34 o
1794 3 -2 6 4 40.38 43.91 2.82 o
1795 3 -2 6 3 26.66 30.59 2.26 o
1796 3 2 -6 -3 28.86 30.63 2.59 o
1797 3 -2 -6 -1 25.79 32.70 2.01 o
1798 3 2 6 2 83.44 93.51 3.35 o
1798 2 -2 -6 -2 83.44 93.51 3.35 o
1799 3 -2 -6 -2 83.60 94.25 3.86 o
1799 2 2 6 2 83.60 94.25 3.86 o
1800 3 -2 -6 -3 18.07 15.47 1.91 o
1801 3 2 6 3 18.66 19.25 1.69 o
1802 3 -2 -6 -4 8.87 5.74 1.43 o
1803 3 2 6 4 8.32 7.95 1.31 o
1804 3 2 6 5 7.55 2.92 0.84 o
1805 3 -2 7 6 10.54 10.56 1.60 o
1806 3 2 -7 -6 10.33 12.37 2.06 o
1807 3 -2 7 5 11.77 14.24 1.70 o
1808 3 2 -7 -5 12.36 12.73 1.87 o
1809 3 2 -7 -4 2.50 0.63 0.29 <
1810 3 -2 7 4 2.70 1.56 0.56 <
1811 3 -2 7 3 37.00 41.82 2.55 o
1812 3 2 -7 -3 36.60 39.21 2.97 o
1813 3 -2 -7 -1 35.69 39.27 2.53 o
1814 3 2 7 2 5.79 4.35 0.78 o
1814 2 -2 -7 -2 5.79 4.35 0.78 o
1815 3 -2 -7 -2 5.75 4.53 0.82 o
1815 2 2 7 2 5.75 4.53 0.82 o
1816 3 -2 -7 -3 10.30 12.50 1.71 o
1817 3 2 7 3 10.78 12.81 1.40 o
1818 3 -2 -7 -4 10.07 5.75 1.43 o
1819 3 2 7 4 9.82 8.70 1.25 o
1820 3 2 7 5 0.49 0.15 0.38 <
1821 3 2 7 6 7.78 1.36 0.69 <
1822 3 2 -8 -5 6.91 4.22 1.16 o
1823 3 -2 8 4 40.33 43.39 2.95 o
1824 3 2 -8 -4 39.80 41.30 3.44 o
1825 3 -2 -8 -2 83.55 85.71 4.22 o
1825 2 2 8 2 83.55 85.71 4.22 o
1826 3 2 8 3 6.93 6.39 1.02 o
1827 3 -2 -8 -3 7.31 5.35 1.08 o
1828 3 2 8 4 6.61 5.22 0.91 o
1829 3 -2 -8 -4 5.95 5.91 1.42 o
1830 3 2 8 5 10.68 5.61 1.15 o
1831 3 -2 -8 -5 10.56 5.42 1.60 o
1832 3 -2 -9 -2 9.56 7.60 1.24 o
1832 2 2 9 2 9.56 7.60 1.24 o
1833 3 2 9 3 22.98 17.81 1.80 o
1834 3 -2 -9 -3 22.61 21.03 2.22 o
1835 3 2 9 4 10.44 8.05 1.26 o
1836 3 -2 -9 -4 10.46 4.61 1.24 o
1837 3 -2 -10 -3 1.11 0.72 0.28 <
1838 3 -3 0 3 378.07 349.43 5.93 o
1839 3 -3 0 2 0.02 0.08 0.07 <
1840 3 3 0 -2 0.02 0.05 0.09 <
1841 3 3 0 -1 0.45 0.04 0.08 <
1842 3 3 -1 -4 141.65 123.59 4.43 o
1843 3 -3 1 4 142.77 122.66 4.57 o
1844 3 -3 1 3 0.23 0.12 0.16 <
1845 3 3 -1 -3 0.20 0.13 0.17 <
1846 3 -3 -1 2 121.75 119.22 2.61 o
1847 3 -3 1 2 125.33 119.77 2.86 o
1848 3 3 -1 -1 122.55 104.65 2.28 o
1849 3 3 -2 -5 34.92 38.28 2.82 o
1850 3 -3 2 5 34.36 35.23 2.82 o
1851 3 -3 2 4 0.21 0.24 0.23 <
1852 3 3 -2 -4 0.13 0.08 0.25 <
1853 3 -3 2 3 140.27 138.73 3.91 o
1854 3 3 -2 -3 140.96 133.88 4.33 o
1855 3 -3 2 2 128.37 132.52 3.34 o
1856 3 3 -2 -2 132.68 137.27 3.74 o
1857 3 3 2 1 0.52 0.13 0.10 <
1858 3 3 -3 -6 14.14 23.65 2.77 o
1859 3 -3 3 6 13.67 26.10 2.78 o
1860 3 3 -3 -5 74.44 78.20 4.36 o
1861 3 -3 3 5 75.22 73.06 4.11 o
1862 3 -3 3 4 25.04 20.09 1.86 o
1863 3 3 -3 -4 23.28 22.42 2.08 o
1864 3 -3 3 3 29.46 34.47 2.08 o
1865 3 3 -3 -3 29.58 32.77 2.35 o
1866 3 3 -3 -2 110.15 115.33 3.82 o
1867 3 -3 3 2 110.13 117.80 3.46 o
1868 4 -3 3 0 61.99 98.85 2.12 o
1868 3 -3 -3 0 61.99 98.85 2.12 o
1869 3 3 3 1 22.49 20.23 1.09 o
1870 3 3 3 2 69.43 52.78 2.26 o
1871 3 3 -4 -7 0.28 0.09 0.49 <
1872 3 -3 4 7 0.24 0.11 0.31 <
1873 3 3 -4 -6 44.64 77.45 4.96 o
1874 3 -3 4 6 44.41 81.61 4.87 o
1875 3 -3 4 5 7.87 7.67 1.32 o
1876 3 3 -4 -5 7.91 7.89 1.36 o
1877 3 -3 4 4 7.50 6.86 1.08 o
1878 3 3 -4 -4 7.46 6.93 1.29 o
1879 3 3 -4 -3 67.79 75.60 3.70 o
1880 3 -3 4 3 68.20 69.68 3.10 o
1881 3 3 -4 -2 65.89 59.89 2.99 o
1882 4 -3 4 0 142.88 190.07 3.41 o
1882 3 -3 -4 0 142.88 190.07 3.41 o
1883 3 3 4 1 7.96 7.80 0.70 o
1884 3 -3 -4 -1 7.96 10.58 1.08 o
1885 3 3 4 2 6.58 8.01 0.91 o
1886 3 3 4 3 83.11 55.25 2.80 o
1886 2 -3 -4 -3 83.11 55.25 2.80 o
1887 3 -3 5 7 8.96 18.94 2.65 o
1888 3 3 -5 -7 9.23 22.42 2.87 o
1889 3 3 -5 -6 20.13 39.60 3.85 o
1890 3 -3 5 6 20.81 39.71 3.42 o
1891 3 -3 5 5 39.71 38.48 2.79 o
1892 3 3 -5 -5 41.26 42.46 3.28 o
1893 3 -3 5 4 35.96 40.34 2.73 o
1894 3 3 -5 -4 38.36 44.49 3.33 o
1895 3 -3 5 3 1.55 2.13 0.62 o
1896 3 3 -5 -3 1.47 1.76 0.59 <
1897 4 -3 5 0 2.80 5.88 0.66 o
1897 3 -3 -5 0 2.80 5.88 0.66 o
1898 3 3 5 1 36.54 41.16 1.74 o
1899 3 -3 -5 -1 34.25 43.44 2.17 o
1900 3 -3 -5 -2 36.72 36.85 3.02 o
1901 3 3 5 2 38.15 40.93 2.03 o
1902 3 3 5 3 39.33 34.85 2.15 o
1902 2 -3 -5 -3 39.33 34.85 2.15 o
1903 3 3 5 4 7.83 4.03 0.93 o
1904 3 3 -6 -6 19.21 25.74 3.04 o
1905 3 -3 6 6 18.81 26.19 2.67 o
1906 3 -3 6 5 29.03 31.37 2.60 o
1907 3 3 -6 -5 28.54 32.29 3.11 o
1908 3 3 -6 -4 2.33 1.22 0.57 <
1909 3 -3 6 4 2.18 2.28 0.67 o
1910 3 -3 6 3 87.25 96.61 3.94 o
1911 3 3 -6 -3 87.27 87.47 4.45 o
1912 4 -3 6 0 173.93 228.72 4.79 o
1912 3 -3 -6 0 173.93 228.72 4.79 o
1913 3 -3 -6 -1 2.10 1.51 0.44 o
1914 3 -3 -6 -2 26.74 29.71 2.54 o
1915 3 3 6 2 26.35 31.43 1.88 o
1916 3 -3 -6 -3 34.84 31.60 3.80 o
1916 2 3 6 3 34.84 31.60 3.80 o
1917 3 3 6 3 34.79 37.01 2.22 o
1917 2 -3 -6 -3 34.79 37.01 2.22 o
1918 3 3 6 4 1.42 0.83 0.51 <
1919 3 3 6 5 5.64 1.19 0.44 <
1920 3 -3 7 5 14.93 14.96 1.85 o
1921 3 3 -7 -5 15.03 16.28 2.19 o
1922 3 -3 7 4 83.46 87.75 4.31 o
1923 3 3 -7 -4 82.42 90.44 4.84 o
1924 3 -3 -7 -1 74.72 86.88 3.58 o
1925 3 3 7 2 12.83 14.98 1.38 o
1926 3 -3 -7 -2 12.76 15.27 1.90 o
1927 3 -3 -7 -3 8.75 8.94 1.77 o
1927 2 3 7 3 8.75 8.94 1.77 o
1928 3 3 7 3 8.73 7.88 1.09 o
1928 2 -3 -7 -3 8.73 7.88 1.09 o
1929 3 3 7 4 9.97 9.21 1.18 o
1930 3 3 7 5 7.78 3.84 0.86 o
1931 3 -3 8 4 5.77 8.20 1.47 o
1932 3 3 -8 -4 5.75 6.86 1.76 o
1933 3 -3 -8 -1 5.13 4.74 0.83 o
1934 3 -3 -8 -2 9.79 11.99 1.52 o
1935 3 -3 -8 -3 18.69 22.88 2.63 o
1935 2 3 8 3 18.69 22.88 2.63 o
1936 3 3 8 3 18.74 19.89 1.84 o
1936 2 -3 -8 -3 18.74 19.89 1.84 o
1937 3 3 8 4 0.28 -0.06 0.21 <
1938 3 -3 -8 -4 0.28 -1.18 0.85 <
1939 3 3 8 5 8.18 3.63 0.84 o
1940 3 -3 -9 -1 14.66 17.72 2.19 o
1941 3 -3 -9 -2 16.43 17.87 2.01 o
1942 3 3 9 3 5.12 3.51 0.64 o
1942 2 -3 -9 -3 5.12 3.51 0.64 o
1943 3 -3 -9 -3 5.14 3.66 1.11 o
1943 2 3 9 3 5.14 3.66 1.11 o
1944 3 3 9 4 10.14 9.75 1.36 o
1945 3 -3 -9 -4 10.18 8.57 2.07 o
1946 3 -3 -10 -2 4.02 1.79 0.62 <
1947 3 -3 -10 -3 40.09 39.53 3.58 o
1947 2 3 10 3 40.09 39.53 3.58 o
1948 3 -3 -10 -4 0.01 -0.31 0.65 <
1949 3 -4 0 4 93.73 74.10 3.45 o
1950 3 4 0 -3 10.52 6.16 0.93 o
1951 3 -4 0 3 10.52 8.81 0.88 o
1952 3 -4 0 2 56.73 50.59 1.63 o
1953 3 4 0 -2 56.73 51.55 1.79 o
1954 3 4 0 -1 10.73 8.61 0.59 o
1955 3 -4 1 5 14.74 10.36 1.65 o
1956 3 4 -1 -4 127.69 112.83 4.20 o
1957 3 -4 1 4 127.53 119.65 3.99 o
1958 3 -4 -1 3 83.86 79.65 2.77 o
1959 3 -4 1 3 84.33 76.01 2.74 o
1960 3 4 -1 -3 83.86 77.39 3.11 o
1961 3 -4 1 2 4.11 2.02 0.39 o
1962 3 -4 -1 2 4.11 1.65 0.28 o
1963 3 4 -1 -2 4.11 2.74 0.51 o
1964 3 -4 2 6 3.23 1.62 0.66 <
1965 3 4 -2 -5 46.78 38.32 2.98 o
1966 3 -4 2 5 48.10 37.45 3.03 o
1967 3 4 -2 -4 6.27 5.84 1.04 o
1968 3 -4 2 4 6.28 6.57 1.00 o
1969 3 -4 2 3 10.60 10.81 1.17 o
1970 3 4 -2 -3 11.35 13.16 1.39 o
1971 3 -4 -2 2 130.57 111.04 2.31 o
1972 3 4 -2 -2 130.57 121.69 3.52 o
1973 3 4 -3 -6 24.17 33.48 3.51 o
1974 3 -4 3 6 23.94 28.68 3.15 o
1975 3 4 -3 -5 2.55 2.33 0.70 o
1976 3 -4 3 5 2.74 1.94 0.65 <
1977 3 -4 3 4 3.73 2.11 0.57 o
1978 3 4 -3 -4 4.22 3.17 0.84 o
1979 3 4 -3 -3 39.98 38.02 2.44 o
1980 3 -4 3 3 38.13 35.90 2.14 o
1981 3 4 -3 -2 0.04 0.12 0.12 <
1982 3 4 3 1 2.05 1.80 0.34 o
1983 3 4 3 2 20.33 15.51 1.24 o
1984 3 4 -4 -7 7.75 19.03 2.69 o
1985 3 -4 4 7 8.06 17.49 2.69 o
1986 3 4 -4 -6 8.41 8.40 1.61 o
1987 3 -4 4 6 8.26 8.17 1.51 o
1988 3 -4 4 5 17.85 20.09 2.06 o
1989 3 4 -4 -5 18.90 23.04 2.34 o
1990 3 4 -4 -4 0.12 0.50 0.31 <
1991 3 -4 4 4 0.04 0.24 0.27 <
1992 3 -4 4 3 4.67 5.24 0.92 o
1993 3 4 -4 -3 4.41 4.55 0.94 o
1994 3 -4 -4 1 5.25 3.37 0.38 o
1995 4 -4 4 0 0.33 0.94 0.28 o
1995 3 -4 -4 0 0.33 0.94 0.28 o
1996 3 4 4 1 16.65 19.53 1.08 o
1997 3 4 4 2 7.90 8.08 0.92 o
1998 3 4 4 3 5.93 3.18 0.62 o
1999 3 -4 5 7 9.63 11.23 1.93 o
2000 3 4 -5 -7 9.40 13.28 2.35 o
2001 3 4 -5 -6 23.66 26.80 3.02 o
2002 3 -4 5 6 23.76 25.12 2.68 o
2003 3 -4 5 5 5.70 3.83 0.82 o
2004 3 4 -5 -5 5.84 4.39 1.16 o
2005 3 -4 5 4 19.66 23.20 2.04 o
2006 3 4 -5 -4 19.31 23.79 2.45 o
2007 3 -4 5 3 43.69 47.06 2.66 o
2008 3 4 -5 -3 41.41 41.58 2.93 o
2009 3 -4 -5 1 42.16 38.54 1.65 o
2010 4 -4 5 0 39.17 65.90 2.42 o
2010 3 -4 -5 0 39.17 65.90 2.42 o
2011 3 -4 -5 -1 4.65 5.41 1.22 o
2012 3 4 5 1 4.75 4.90 0.55 o
2013 3 4 5 2 18.86 19.48 1.34 o
2014 3 4 5 3 8.32 4.53 0.69 o
2015 3 4 -6 -6 0.74 1.15 0.88 <
2016 3 -4 6 6 0.85 0.89 0.49 <
2017 3 -4 6 5 54.12 53.60 3.49 o
2018 3 4 -6 -5 53.91 58.07 4.21 o
2019 3 -4 6 4 24.58 31.57 2.59 o
2020 3 4 -6 -4 24.43 29.07 2.71 o
2021 4 -4 6 0 48.94 86.13 2.95 o
2021 3 -4 -6 0 48.94 86.13 2.95 o
2022 3 -4 -6 -1 47.15 58.66 3.30 o
2023 3 4 6 2 0.63 0.61 0.38 <
2024 3 -4 -6 -2 0.71 1.42 0.89 <
2025 3 4 6 3 6.57 7.07 0.87 o
2026 3 4 6 4 16.00 9.52 1.16 o
2026 2 -4 -6 -4 16.00 9.52 1.16 o
2027 3 -4 7 5 4.05 2.01 0.67 o
2028 3 4 -7 -5 4.03 1.70 0.75 <
2029 3 4 -7 -4 62.50 68.09 4.32 o
2030 3 -4 7 4 62.61 71.74 3.73 o
2031 4 -4 7 0 123.97 179.42 4.55 o
2031 3 -4 -7 0 123.97 179.42 4.55 o
2032 3 -4 -7 -1 3.52 3.35 0.79 o
2033 3 4 7 2 7.53 8.40 0.95 o
2034 3 -4 -7 -2 7.47 10.98 1.99 o
2035 3 4 7 3 1.77 1.30 0.38 o
2036 3 4 7 4 7.88 4.93 0.84 o
2036 2 -4 -7 -4 7.88 4.93 0.84 o
2037 3 4 7 5 5.80 1.73 0.55 o
2038 4 -4 8 0 30.26 43.84 2.44 o
2038 3 -4 -8 0 30.26 43.84 2.44 o
2039 3 -4 -8 -1 22.92 30.33 2.34 o
2040 3 -4 -8 -2 0.10 0.45 0.37 <
2041 3 4 8 3 7.15 7.53 1.01 o
2042 3 -4 -8 -3 7.25 6.41 2.34 <
2043 3 4 8 4 15.72 14.74 1.46 o
2043 2 -4 -8 -4 15.72 14.74 1.46 o
2044 3 4 8 5 0.31 0.41 0.22 <
2045 3 -4 -9 -1 0.52 0.12 0.39 <
2046 3 -4 -9 -2 8.65 9.60 1.68 o
2047 3 4 9 3 6.53 5.37 0.81 o
2048 3 -4 -9 -3 6.32 5.72 1.88 o
2049 3 4 9 4 2.34 1.54 0.53 <
2049 2 -4 -9 -4 2.34 1.54 0.53 <
2050 3 4 9 5 1.85 0.84 0.40 <
2051 3 -4 -10 -1 7.42 4.79 1.06 o
2052 3 -4 -10 -2 2.37 1.81 0.96 <
2053 3 -4 -10 -3 3.11 1.75 1.22 <
2054 3 4 10 4 3.98 2.62 0.63 o
2054 2 -4 -10 -4 3.98 2.62 0.63 o
2055 3 -4 -11 -2 7.98 6.88 1.46 o
2056 3 -5 0 5 3.67 1.40 0.57 <
2057 3 -5 0 4 62.45 56.54 2.74 o
2058 3 5 0 -3 1.93 1.41 0.37 o
2059 3 -5 0 3 1.93 1.20 0.24 o
2060 3 5 0 -2 2.04 1.76 0.35 o
2061 3 -5 1 6 16.27 10.84 1.86 o
2062 3 5 -1 -5 27.14 17.36 2.02 o
2063 3 -5 1 5 26.57 23.66 2.20 o
2064 3 -5 -1 4 4.84 3.10 0.72 o
2065 3 -5 1 4 4.88 3.21 0.72 o
2066 3 5 -1 -4 4.84 2.73 0.64 o
2067 3 -5 1 3 16.74 19.17 1.32 o
2068 3 -5 -1 3 17.74 16.98 1.06 o
2069 3 5 -1 -3 17.74 17.45 1.46 o
2070 3 5 -1 -2 16.57 17.63 1.26 o
2071 3 5 -2 -6 8.70 5.96 1.41 o
2072 3 -5 2 6 9.14 6.74 1.51 o
2073 3 5 -2 -5 3.35 2.92 0.79 o
2074 3 -5 2 5 3.38 2.74 0.75 o
2075 3 -5 2 4 46.21 51.76 2.67 o
2076 3 5 -2 -4 47.47 44.62 2.86 o
2077 3 -5 2 3 13.12 12.99 1.33 o
2078 3 5 -2 -3 12.50 13.98 1.44 o
2079 3 -5 -2 3 12.50 12.34 1.03 o
2080 3 5 -2 -2 13.17 10.91 1.11 o
2081 3 -5 3 7 2.36 1.92 0.98 <
2082 3 5 -3 -7 2.34 2.98 1.04 <
2083 3 5 -3 -6 11.32 13.36 1.89 o
2084 3 -5 3 6 11.14 10.91 1.67 o
2085 3 5 -3 -5 10.59 11.87 1.65 o
2086 3 -5 3 5 10.96 12.41 1.57 o
2087 3 -5 3 4 0.53 -0.01 0.14 <
2088 3 5 -3 -4 0.55 0.04 0.15 <
2089 3 -5 3 3 64.02 71.68 2.91 o
2090 3 5 -3 -3 64.83 73.37 3.43 o
2091 3 5 3 1 10.50 7.27 0.59 o
2092 3 5 -4 -7 26.88 30.89 3.51 o
2093 3 -5 4 7 27.11 27.91 3.18 o
2094 3 5 -4 -6 19.88 20.19 2.41 o
2095 3 -5 4 6 19.67 20.94 2.28 o
2096 3 -5 4 5 0.97 0.34 0.28 <
2097 3 5 -4 -5 0.96 0.44 0.44 <
2098 3 -5 4 4 32.50 38.81 2.56 o
2099 3 5 -4 -4 31.57 38.65 2.93 o
2100 3 5 -4 -3 3.52 3.94 0.90 o
2101 3 5 4 1 17.22 12.15 0.79 o
2102 3 5 4 2 21.10 11.90 0.97 o
2103 3 -5 5 7 3.20 1.78 0.87 <
2104 3 5 -5 -7 3.32 2.36 0.92 <
2105 3 5 -5 -6 13.32 12.63 2.09 o
2106 3 -5 5 6 13.45 16.31 2.10 o
2107 3 -5 5 5 20.27 22.22 2.18 o
2108 3 5 -5 -5 20.42 19.70 2.56 o
2109 3 5 -5 -4 1.73 1.23 0.62 <
2110 3 -5 5 4 1.72 1.98 0.55 o
2111 3 -5 -5 1 1.78 1.47 0.33 o
2112 3 5 5 1 10.56 9.03 0.67 o
2113 3 5 5 2 2.59 1.86 0.37 o
2114 3 5 5 3 4.63 2.63 0.52 o
2115 3 -5 6 6 2.69 0.66 0.35 <
2116 3 5 -6 -6 2.88 1.24 0.46 <
2117 3 -5 6 5 6.67 5.01 1.20 o
2118 3 5 -6 -5 6.74 5.33 1.21 o
2119 3 -5 6 4 31.74 37.53 2.70 o
2120 3 5 -6 -4 31.65 32.13 2.99 o
2121 3 -5 -6 1 30.97 30.92 1.63 o
2122 4 -5 6 0 12.99 39.19 2.61 o
2122 3 -5 -6 0 12.99 39.19 2.61 o
2123 3 5 6 2 2.97 3.08 0.51 o
2124 3 5 6 3 0.05 0.11 0.20 <
2125 3 5 6 4 3.86 0.91 0.37 <
2126 3 5 -7 -5 11.64 10.77 2.07 o
2127 3 -5 -7 1 0.46 0.15 0.33 <
2128 4 -5 7 0 20.27 54.28 2.79 o
2128 3 -5 -7 0 20.27 54.28 2.79 o
2129 3 -5 -7 -1 5.35 11.68 2.56 o
2130 3 5 7 2 1.20 0.88 0.29 <
2131 3 5 7 3 4.51 4.48 0.65 o
2132 3 5 7 4 1.92 0.51 0.20 <
2133 4 -5 8 0 2.38 2.84 0.59 o
2133 3 -5 -8 0 2.38 2.84 0.59 o
2134 3 -5 -8 -1 1.60 1.68 1.02 <
2135 3 -5 -8 -2 4.96 15.64 5.69 <
2136 3 5 8 3 0.59 0.58 0.26 <
2137 3 5 8 4 1.53 0.66 0.28 <
2138 4 -5 9 0 13.39 30.72 2.38 o
2138 3 -5 -9 0 13.39 30.72 2.38 o
2139 3 -5 -9 -1 4.51 6.58 1.53 o
2140 3 -5 -9 -2 1.53 0.22 0.76 <
2141 3 -6 0 6 4.56 1.46 0.83 <
2142 3 -6 0 5 1.36 0.63 0.35 <
2143 3 6 0 -4 0.01 0.29 0.27 <
2144 3 -6 0 4 0.01 0.20 0.27 <
2145 3 6 0 -3 16.43 15.01 1.22 o
2146 3 -6 0 3 16.43 15.88 1.09 o
2147 3 6 0 -2 0.03 0.34 0.18 <
2148 3 -6 1 6 0.46 0.50 0.64 <
2149 3 6 -1 -5 7.89 5.50 1.19 o
2150 3 -6 1 5 7.92 8.54 1.31 o
2151 3 -6 -1 5 7.89 7.51 1.37 o
2152 3 6 -1 -4 11.83 11.90 1.34 o
2153 3 -6 1 4 11.72 11.91 1.24 o
2154 3 -6 -1 4 11.83 11.64 1.13 o
2155 3 -6 -1 3 0.13 -0.06 0.12 <
2156 3 6 -1 -3 0.13 0.00 0.11 <
2157 3 6 1 -2 11.51 8.57 0.57 o
2158 3 6 -1 -2 11.40 9.91 0.96 o
2159 3 6 1 -1 7.64 3.26 0.36 o
2160 3 -6 2 7 0.51 -0.36 0.52 <
2161 3 6 -2 -6 19.43 15.43 2.08 o
2162 3 -6 2 6 19.58 19.24 2.27 o
2163 3 -6 2 5 5.79 7.82 1.17 o
2164 3 6 -2 -5 6.14 6.23 1.18 o
2165 3 -6 2 4 0.39 0.60 0.42 <
2166 3 -6 -2 4 0.39 -0.50 0.42 <
2167 3 6 -2 -4 0.39 0.27 0.30 <
2168 3 -6 -2 3 23.27 16.01 0.82 o
2169 3 6 -2 -3 23.27 25.78 1.93 o
2170 3 -6 3 8 5.08 2.68 1.21 <
2171 3 6 -3 -7 12.16 12.20 2.00 o
2172 3 -6 3 7 12.16 13.81 2.48 o
2173 3 -6 3 6 10.01 10.18 1.63 o
2174 3 6 -3 -6 10.04 10.17 1.79 o
2175 3 6 -3 -5 15.35 15.83 1.99 o
2176 3 -6 3 5 15.72 17.75 1.87 o
2177 3 6 -3 -4 10.77 13.34 1.74 o
2178 3 -6 3 4 10.88 13.91 1.48 o
2179 3 -6 -3 3 1.46 0.55 0.14 o
2180 3 6 -3 -3 1.46 0.73 0.32 <
2181 3 6 3 1 9.65 3.55 0.42 o
2182 3 6 -4 -7 0.13 0.00 0.20 <
2183 3 -6 4 7 0.15 0.01 0.19 <
2184 3 6 -4 -6 11.93 13.21 2.04 o
2185 3 -6 4 6 11.88 14.90 2.04 o
2186 3 -6 4 5 5.10 7.36 1.21 o
2187 3 6 -4 -5 5.01 4.27 1.07 o
2188 3 6 -4 -4 11.61 10.38 1.56 o
2189 3 -6 4 4 11.69 12.05 1.49 o
2190 3 6 -4 -3 26.07 22.93 2.08 o
2191 3 6 4 1 0.19 0.13 0.09 <
2192 3 6 4 2 1.82 0.54 0.20 <
2193 3 6 -5 -7 3.31 2.37 1.11 <
2194 3 6 -5 -6 0.55 -0.03 0.57 <
2195 3 -6 5 6 0.59 0.10 0.22 <
2196 3 -6 5 5 12.04 17.50 1.92 o
2197 3 6 -5 -5 12.43 13.35 1.99 o
2198 3 6 -5 -4 10.39 12.20 1.70 o
2199 3 6 5 2 1.30 0.47 0.25 <
2200 3 -6 6 5 2.31 2.04 0.71 <
2201 3 6 -6 -5 2.13 1.57 0.85 <
2202 3 -6 -6 2 0.42 0.11 0.16 <
2203 3 6 6 3 2.28 0.64 0.27 <
2204 3 -6 -7 1 2.16 3.24 0.69 o
2205 3 -6 -8 1 1.57 2.72 0.79 o
2206 3 -7 0 6 0.05 0.36 0.45 <
2207 3 -7 0 5 9.54 13.54 1.54 o
2208 3 -7 0 4 2.55 3.54 0.58 o
2209 3 7 0 -4 2.55 1.48 0.51 <
2210 3 7 0 -3 2.78 2.84 0.46 o
2211 3 7 0 -2 8.81 12.29 0.94 o
2212 3 -7 1 7 4.29 3.01 1.13 <
2213 3 -7 -1 6 2.64 1.59 0.83 <
2214 3 -7 1 6 2.61 1.74 0.73 <
2215 3 -7 1 5 1.17 0.33 0.16 <
2216 3 -7 -1 5 1.18 0.68 0.23 <
2217 3 7 -1 -5 1.18 0.60 0.40 <
2218 3 7 -1 -4 6.59 7.07 1.07 o
2219 3 -7 -1 4 6.59 8.87 0.87 o
2220 3 7 -1 -3 6.60 10.48 1.10 o
2221 3 7 1 -2 1.12 0.24 0.09 <
2222 3 7 -1 -2 1.11 0.51 0.19 <
2223 3 7 1 -1 2.01 0.80 0.21 o
2224 3 -7 2 8 2.42 1.80 0.79 <
2225 3 -7 2 7 3.48 1.71 0.92 <
2226 3 -7 2 6 1.36 0.95 0.42 <
2227 3 7 -2 -6 1.29 0.89 0.69 <
2228 3 7 -2 -5 7.43 6.61 1.22 o
2229 3 -7 -2 5 7.43 6.27 1.17 o
2230 3 -7 2 4 1.18 1.31 0.42 o
2231 3 -7 -2 4 1.14 0.77 0.22 o
2232 3 7 -2 -4 1.14 1.63 0.60 <
2233 3 7 -2 -3 1.06 0.88 0.32 <
2234 3 -7 3 8 0.27 0.30 0.56 <
2235 3 7 -3 -7 1.94 -0.07 0.36 <
2236 3 -7 3 7 1.85 1.53 0.68 <
2237 3 -7 3 6 5.64 6.33 1.25 o
2238 3 7 -3 -6 5.75 3.38 1.14 <
2239 3 -7 3 5 0.66 0.84 0.37 <
2240 3 7 -3 -5 0.68 0.01 0.20 <
2241 3 -7 -3 4 3.83 2.70 0.55 o
2242 3 7 -3 -4 3.83 3.85 0.98 o
2243 3 7 -3 -3 3.97 3.82 0.73 o
2244 3 7 3 1 0.17 0.05 0.08 <
2245 3 -7 4 7 0.95 0.17 0.37 <
2246 3 7 -4 -7 0.92 0.43 0.39 <
2247 3 7 -4 -6 0.53 0.79 0.59 <
2248 3 -7 4 6 0.48 0.53 0.42 <
2249 3 -7 4 5 9.54 12.96 1.64 o
2250 3 7 -4 -5 9.71 11.24 1.84 o
2251 3 7 -4 -4 0.14 -0.19 0.18 <
2252 3 -7 5 6 3.05 2.66 0.97 <
2253 3 7 -5 -6 2.91 2.18 0.62 o
2254 3 -7 5 5 1.02 0.91 0.39 <
2255 3 7 -5 -5 1.00 0.38 0.20 <
2256 3 7 -5 -4 2.80 1.45 0.58 <
2257 3 7 -6 -5 3.27 3.14 1.08 <
2258 3 -8 0 7 2.28 1.03 0.77 <
2259 3 -8 0 6 1.49 2.20 0.78 <
2260 3 -8 0 5 0.16 -0.21 0.31 <
2261 3 8 0 -4 4.45 3.39 0.67 o
2262 3 8 0 -3 0.15 0.31 0.19 <
2263 3 8 0 -2 1.27 0.90 0.22 o
2264 3 -8 1 8 1.78 3.44 1.85 <
2265 3 -8 1 7 0.31 -0.14 0.48 <
2266 3 -8 1 6 1.45 1.60 0.81 <
2267 3 -8 -1 6 1.45 0.80 0.22 o
2268 3 -8 -1 5 2.71 4.32 0.78 o
2269 3 8 -1 -5 2.71 2.72 0.70 o
2270 3 8 -1 -4 0.00 0.10 0.21 <
2271 3 8 -1 -3 2.43 3.69 0.61 o
2272 3 8 1 -1 0.29 0.00 0.04 <
2273 3 -8 2 8 0.06 0.83 0.58 <
2274 3 -8 2 7 2.66 1.88 0.90 <
2275 3 8 -2 -7 2.78 0.42 0.44 <
2276 3 -8 -2 6 0.06 -0.13 0.61 <
2277 3 -8 2 6 0.08 0.11 0.13 <
2278 3 8 -2 -6 0.06 -0.51 0.58 <
2279 3 -8 2 5 0.33 0.40 0.20 <
2280 3 8 -2 -5 0.31 0.02 0.12 <
2281 3 -8 -2 5 0.31 0.18 0.24 <
2282 3 8 -2 -4 4.66 7.20 1.13 o
2283 3 8 -2 -3 0.33 0.59 0.31 <
2284 3 8 -3 -8 0.25 -0.09 0.53 <
2285 3 -8 3 7 0.09 0.88 0.64 <
2286 3 8 -3 -7 0.09 -0.64 0.71 <
2287 3 -8 3 6 1.92 2.40 0.90 <
2288 3 8 -3 -6 1.94 0.40 0.19 <
2289 3 -8 3 5 0.91 1.17 0.47 <
2290 3 -8 -3 5 0.85 1.17 0.53 <
2291 3 8 -3 -5 0.85 0.45 0.23 <
2292 3 8 -3 -4 0.00 -0.13 0.27 <
2293 3 -8 4 7 1.71 0.66 0.29 <
2294 3 8 -4 -7 1.64 -0.45 0.84 <
2295 3 8 -4 -6 0.99 0.21 0.60 <
2296 3 -8 4 6 0.99 1.74 0.74 <
2297 3 8 -4 -5 0.17 0.58 0.59 <
2298 3 8 -4 -4 0.36 -0.18 0.28 <
2299 3 -8 5 6 1.23 2.04 0.86 <
2300 3 8 -5 -6 1.24 1.50 0.85 <
2301 3 8 -5 -5 1.76 0.49 0.19 <
2302 3 -9 0 7 0.00 -0.61 0.71 <
2303 3 -9 0 6 1.21 1.25 0.51 <
2304 3 9 0 -2 0.00 -0.22 0.17 <
2305 3 -9 1 8 0.52 -2.63 1.26 <
2306 3 -9 1 7 0.37 0.56 1.03 <
2307 3 -9 -1 7 0.37 0.24 0.87 <
2308 3 -9 1 6 0.01 0.01 0.22 <
2309 3 -9 -1 6 0.01 -0.65 0.49 <
2310 3 9 -1 -5 0.73 0.92 0.46 <
2311 3 9 -1 -4 0.74 0.53 0.17 o
2312 3 9 -1 -3 0.00 -0.02 0.15 <
2313 3 -9 2 8 0.32 2.56 1.57 <
2314 3 9 -2 -7 0.20 -0.58 0.46 <
2315 3 -9 2 7 0.19 1.57 0.95 <
2316 3 -9 2 6 0.79 0.91 0.33 <
2317 3 9 -2 -6 0.76 0.40 0.48 <
2318 3 -9 -2 6 0.76 0.70 0.41 <
2319 3 9 -2 -5 0.19 0.50 0.30 <
2320 3 9 -2 -4 0.17 0.18 0.18 <
2321 3 -9 3 7 0.59 1.26 0.64 <
2322 3 9 -3 -7 0.58 0.78 0.47 <
2323 3 -9 3 6 0.25 0.11 0.26 <
2324 3 9 -3 -6 0.25 0.17 0.39 <
2325 3 9 -3 -5 0.38 0.62 0.39 <
2326 3 9 -3 -4 0.38 0.36 0.19 <
2327 3 9 -4 -6 1.44 0.86 0.63 <
2328 3 9 -4 -5 0.14 0.47 0.53 <
2329 3 9 -5 -5 0.73 0.88 0.48 <
2330 3 -10 1 8 0.25 8.09 2.38 o
2330 2 -7 -1 11 0.25 8.09 2.38 o
2331 3 -10 1 7 0.22 -0.01 0.41 <
2332 3 -10 2 8 0.76 0.96 0.88 <
2332 2 -7 -2 11 0.76 0.96 0.88 <
2333 3 -10 2 7 0.07 0.39 0.23 <
2334 3 10 -2 -7 0.07 -0.41 0.46 <
2335 3 10 -2 -6 0.00 -0.29 0.36 <
2336 3 10 -2 -5 0.40 0.30 0.39 <
2337 3 -10 3 7 0.17 -0.25 0.24 <
2338 3 10 -3 -7 0.18 -0.12 0.48 <
2339 3 10 -3 -6 0.38 -0.02 0.28 <
2340 3 10 -3 -5 0.05 0.36 0.52 <
2341 3 10 -4 -6 0.00 -0.46 0.41 <
2342 3 11 -3 -7 0.41 0.32 0.40 <
2342 2 6 3 -12 0.41 0.32 0.40 <
2343 4 0 -1 -1 660.97 858.44 9.00 o
2344 4 0 1 1 660.94 833.96 9.17 o
2345 4 0 -1 -2 91.24 82.00 2.25 o
2346 4 0 1 2 91.18 80.51 2.24 o
2347 4 0 1 3 63.26 56.95 2.35 o
2348 4 0 -1 -3 63.26 54.13 2.21 o
2349 4 0 -1 -4 264.11 226.94 5.74 o
2350 4 0 1 4 264.13 217.66 5.87 o
2351 4 0 -1 -5 64.57 56.81 3.06 o
2352 4 0 -1 -6 23.42 16.64 1.97 o
2353 4 0 -2 -1 0.31 0.44 0.15 <
2354 4 0 2 1 0.23 0.48 0.15 o
2355 4 0 -2 -2 224.73 183.29 3.90 o
2356 4 0 2 2 224.83 179.71 3.99 o
2357 4 0 2 3 225.10 214.81 5.19 o
2358 4 0 -2 -3 224.95 223.70 5.09 o
2359 4 0 2 4 9.10 6.76 1.05 o
2360 4 0 -2 -4 9.09 6.87 1.06 o
2361 4 0 -2 -5 44.16 39.91 2.73 o
2362 4 0 2 5 44.12 36.45 2.56 o
2363 4 0 -2 -6 35.85 36.41 2.84 o
2364 4 0 2 6 35.82 32.31 2.68 o
2365 4 0 -2 -7 6.34 5.08 1.25 o
2366 4 0 -2 -8 5.82 4.15 1.26 o
2367 4 0 3 1 16.31 14.47 1.03 o
2368 4 0 -3 -1 16.39 15.12 1.02 o
2369 4 0 -3 -2 440.83 452.34 7.25 o
2370 4 0 3 2 440.85 450.03 7.42 o
2371 4 0 -3 -3 2.45 1.38 0.38 o
2372 4 0 3 3 2.46 1.45 0.47 o
2373 4 0 3 4 0.73 0.67 0.34 <
2374 4 0 -3 -4 0.75 0.66 0.34 <
2375 4 0 3 5 16.82 14.11 1.72 o
2376 4 0 -3 -5 16.88 13.80 1.61 o
2377 4 0 -3 -6 0.03 -0.21 0.16 <
2378 4 0 3 6 0.02 0.12 0.20 <
2379 4 0 -3 -7 20.54 19.14 2.29 o
2380 4 0 3 7 20.55 21.53 2.42 o
2381 4 0 -3 -8 1.36 0.84 0.56 <
2382 4 0 4 2 8.53 8.76 1.02 o
2383 4 0 -4 -2 8.50 9.22 0.91 o
2384 4 0 4 3 151.84 143.01 4.71 o
2385 4 0 -4 -3 151.93 146.22 4.46 o
2386 4 0 4 4 1.42 0.66 0.38 <
2387 4 0 -4 -4 1.44 1.23 0.48 <
2388 4 0 -4 -5 0.97 0.80 0.43 <
2389 4 0 4 5 0.94 0.80 0.45 <
2390 4 0 -4 -6 49.61 45.76 3.16 o
2391 4 0 4 6 49.63 45.11 3.15 o
2392 4 0 -4 -7 1.03 -0.03 0.38 <
2393 4 0 4 7 1.03 0.61 0.49 <
2394 4 0 5 2 158.77 149.21 4.70 o
2395 4 0 -5 -2 158.74 147.22 4.36 o
2396 4 0 5 3 1.21 1.71 0.49 o
2397 4 0 -5 -3 1.23 1.57 0.50 o
2398 4 0 -5 -4 15.77 14.27 1.57 o
2399 4 0 5 4 15.69 15.12 1.76 o
2400 4 0 -5 -5 17.93 18.26 1.97 o
2401 4 0 5 5 17.94 18.07 1.98 o
2402 4 0 5 6 11.33 10.38 1.52 o
2403 4 0 -5 -6 11.32 12.13 1.74 o
2404 4 0 5 7 12.55 10.39 1.71 o
2405 4 0 -6 -3 75.76 67.89 3.18 o
2406 4 0 6 3 75.69 62.04 3.54 o
2407 4 0 -6 -4 14.67 13.32 1.59 o
2408 4 0 6 4 14.69 12.69 1.73 o
2409 4 0 6 5 59.95 53.58 3.55 o
2410 4 0 -6 -5 59.91 55.98 3.55 o
2411 4 0 6 6 8.95 6.13 1.24 o
2412 4 0 -6 -6 8.92 5.54 1.23 o
2413 4 0 7 3 32.36 24.22 2.28 o
2414 4 0 7 4 178.51 152.04 6.02 o
2415 4 0 -7 -4 178.31 156.97 5.69 o
2416 4 0 7 5 42.38 37.33 3.52 o
2417 4 0 -7 -5 42.31 37.48 2.89 o
2418 4 0 8 4 1.23 0.95 0.57 <
2419 4 0 -8 -4 1.23 0.76 0.43 <
2420 5 1 0 1 93.43 93.98 1.70 o
2420 4 -1 0 -1 93.43 93.98 1.70 o
2421 5 -1 0 -1 93.43 97.31 1.70 o
2421 4 1 0 1 93.43 97.31 1.70 o
2422 4 -1 0 -2 4.05 4.31 0.44 o
2423 4 1 0 2 4.05 4.79 0.50 o
2424 4 1 0 3 158.29 120.18 3.66 o
2425 4 -1 0 -3 158.29 130.16 3.27 o
2426 4 -1 0 -4 199.45 167.78 4.58 o
2427 4 -1 0 -5 7.78 5.45 0.94 o
2428 4 -1 0 -6 13.18 8.79 1.44 o
2429 4 -1 1 3 85.31 79.92 2.81 o
2430 4 1 -1 -3 80.58 75.58 2.93 o
2431 4 1 -1 -2 317.80 340.42 5.35 o
2432 4 -1 1 2 319.57 338.82 5.26 o
2433 4 -1 1 1 562.10 686.39 8.39 o
2434 4 1 -1 -1 561.23 882.41 8.88 o
2435 5 1 1 1 510.70 601.10 6.42 o
2435 4 -1 -1 -1 510.70 601.10 6.42 o
2436 5 -1 -1 -1 509.92 454.40 6.48 o
2436 4 1 1 1 509.92 454.40 6.48 o
2437 4 1 1 2 81.65 65.04 2.10 o
2438 4 -1 -1 -2 86.29 65.36 2.04 o
2439 4 1 1 3 143.20 126.06 3.50 o
2440 4 -1 -1 -3 142.62 120.73 3.30 o
2441 4 1 1 4 30.00 28.05 1.84 o
2442 4 -1 -1 -4 29.09 27.15 1.82 o
2443 4 -1 -1 -5 35.18 30.78 2.32 o
2444 4 1 1 5 36.73 32.18 2.53 o
2445 4 -1 -1 -6 9.45 9.06 1.41 o
2446 4 -1 -1 -7 4.56 4.85 1.09 o
2447 4 1 -2 -6 3.08 0.90 0.46 <
2448 4 1 -2 -5 73.06 62.97 3.36 o
2449 4 -1 2 5 70.86 61.78 3.48 o
2450 4 -1 2 4 19.52 13.88 1.50 o
2451 4 1 -2 -4 20.46 14.98 1.49 o
2452 4 1 -2 -3 206.20 203.28 4.79 o
2453 4 -1 2 3 201.82 201.65 4.89 o
2454 4 -1 2 2 684.27 745.30 9.73 o
2455 4 1 -2 -2 683.93 749.96 10.12 o
2456 4 -1 2 1 7.53 7.01 0.62 o
2457 4 1 -2 -1 6.19 4.65 0.47 o
2458 5 -1 -2 -1 1076.85 1576.97 16.57 o
2458 4 1 2 1 1076.85 1576.97 16.57 o
2459 4 1 2 2 203.57 184.30 3.98 o
2460 4 -1 -2 -2 199.26 184.54 3.95 o
2461 4 -1 -2 -3 18.61 14.99 1.24 o
2462 4 1 2 3 19.61 16.11 1.28 o
2463 4 1 2 4 69.85 54.70 2.58 o
2464 4 -1 -2 -4 67.77 59.80 2.69 o
2465 4 -1 -2 -5 2.53 1.14 0.44 <
2466 4 1 2 5 2.67 1.13 0.50 <
2467 4 1 2 6 17.14 15.35 1.88 o
2468 4 -1 -2 -6 17.54 17.24 1.78 o
2469 4 -1 -2 -7 13.04 13.89 1.84 o
2470 4 -1 -2 -8 0.38 -0.09 0.30 <
2471 4 1 -3 -8 4.50 2.53 0.92 <
2472 4 1 -3 -7 23.81 23.28 2.65 o
2473 4 -1 3 7 23.61 22.38 2.67 o
2474 4 1 -3 -6 35.21 36.27 3.01 o
2475 4 -1 3 6 35.85 33.61 2.80 o
2476 4 -1 3 5 19.98 19.76 2.02 o
2477 4 1 -3 -5 19.89 17.49 1.96 o
2478 4 1 -3 -4 79.43 70.12 3.27 o
2479 4 -1 3 4 77.02 64.86 3.15 o
2480 4 -1 3 3 278.13 262.20 5.81 o
2481 4 1 -3 -3 278.36 259.52 5.76 o
2482 4 -1 3 2 19.26 24.84 1.47 o
2483 4 1 -3 -2 18.95 23.28 1.37 o
2484 4 -1 3 1 70.61 84.55 2.81 o
2485 4 1 -3 -1 71.25 77.50 2.35 o
2486 4 -1 -3 -2 261.56 241.89 4.95 o
2487 4 1 3 2 262.03 243.26 5.26 o
2488 4 1 3 3 74.65 76.33 3.22 o
2489 4 -1 -3 -3 72.28 70.72 2.89 o
2490 4 -1 -3 -4 20.25 19.69 1.66 o
2491 4 1 3 4 20.15 18.08 1.69 o
2492 4 -1 -3 -5 35.63 33.03 2.30 o
2493 4 1 3 5 34.99 30.78 2.26 o
2494 4 -1 -3 -6 22.77 23.42 2.17 o
2495 4 1 3 6 22.97 24.89 2.55 o
2496 4 -1 -3 -7 3.65 2.77 0.86 o
2497 4 1 3 7 3.75 3.09 0.92 o
2498 4 1 3 8 2.68 1.85 0.80 <
2499 4 1 -4 -7 25.94 27.29 2.79 o
2500 4 -1 4 7 25.84 26.78 2.89 o
2501 4 1 -4 -6 3.63 3.02 0.82 o
2502 4 -1 4 6 3.61 4.42 1.08 o
2503 4 -1 4 5 20.80 20.62 2.00 o
2504 4 1 -4 -5 19.82 17.99 1.90 o
2505 4 -1 4 4 53.19 48.09 2.87 o
2506 4 1 -4 -4 52.67 49.71 2.79 o
2507 4 1 -4 -3 62.57 55.24 2.68 o
2508 4 -1 4 3 63.76 58.86 2.98 o
2509 4 1 -4 -2 355.86 363.22 6.54 o
2510 4 -1 4 2 353.73 356.84 6.78 o
2511 4 1 -4 -1 35.87 37.85 1.76 o
2512 4 -1 4 1 34.51 51.79 2.40 o
2513 4 1 4 2 62.59 59.46 2.80 o
2514 4 -1 -4 -2 63.74 59.55 2.51 o
2515 4 1 4 3 49.17 50.34 2.58 o
2516 4 -1 -4 -3 49.65 47.09 2.46 o
2517 4 -1 -4 -4 19.52 22.20 1.84 o
2518 4 1 4 4 18.56 20.66 1.98 o
2519 4 1 4 5 3.28 3.15 0.82 o
2520 4 -1 -4 -5 3.25 3.43 0.74 o
2521 4 1 4 6 23.52 21.42 2.35 o
2522 4 -1 -4 -6 23.44 28.79 2.58 o
2523 4 1 4 7 5.24 4.41 1.24 o
2524 4 -1 -4 -7 5.57 6.17 1.33 o
2525 4 -1 5 7 11.74 10.11 1.89 o
2526 4 1 -5 -7 11.27 9.37 1.64 o
2527 4 -1 5 6 37.97 30.44 2.85 o
2528 4 1 -5 -6 38.07 29.91 2.75 o
2529 4 1 -5 -5 10.47 8.00 1.26 o
2530 4 -1 5 5 10.76 8.18 1.46 o
2531 4 -1 5 4 78.17 68.20 3.57 o
2532 4 1 -5 -4 75.30 70.97 3.55 o
2533 4 1 -5 -3 122.66 123.18 4.15 o
2534 4 -1 5 3 121.77 123.69 4.57 o
2535 4 -1 5 2 60.84 55.32 2.62 o
2536 4 1 -5 -2 61.51 53.18 2.30 o
2537 4 -1 5 1 103.89 130.85 3.93 o
2538 4 -1 -5 -3 79.91 76.29 3.40 o
2539 4 1 5 3 77.03 70.59 3.43 o
2540 4 -1 -5 -4 10.57 8.53 1.18 o
2541 4 1 5 4 10.28 8.08 1.17 o
2542 4 1 5 5 34.37 34.30 2.81 o
2543 4 -1 -5 -5 34.20 37.19 2.85 o
2544 4 1 5 6 10.98 10.95 1.68 o
2545 4 -1 -5 -6 11.41 11.03 1.56 o
2546 4 -1 6 6 3.37 1.05 0.44 <
2547 4 1 -6 -6 3.21 1.24 0.58 <
2548 4 -1 6 5 91.19 78.20 4.37 o
2549 4 1 -6 -5 90.33 93.65 4.67 o
2550 4 1 -6 -4 22.32 21.63 1.99 o
2551 4 -1 6 4 22.39 22.56 2.27 o
2552 4 1 -6 -3 44.21 37.91 2.36 o
2553 4 -1 6 3 46.25 37.31 2.56 o
2554 4 1 -6 -2 146.41 144.12 4.36 o
2555 4 -1 6 2 148.94 139.24 4.62 o
2556 4 1 6 3 21.34 22.29 1.96 o
2557 4 -1 -6 -4 85.26 85.48 3.94 o
2558 4 1 6 4 84.45 82.36 4.14 o
2559 4 -1 -6 -5 3.26 2.34 0.73 o
2560 4 1 6 5 3.11 1.60 0.64 <
2561 4 1 -7 -5 4.90 4.74 1.07 o
2562 4 -1 7 5 4.86 2.73 0.92 <
2563 4 1 -7 -4 53.99 45.88 2.88 o
2564 4 -1 7 4 52.97 46.55 3.15 o
2565 4 -1 7 3 18.00 16.09 1.67 o
2566 4 1 -7 -3 18.28 18.68 1.68 o
2567 4 -1 -7 -4 4.49 4.86 0.98 o
2568 4 1 7 4 4.52 3.92 1.06 o
2569 4 1 -8 -4 33.35 28.33 2.42 o
2570 4 -1 8 4 33.28 26.83 2.68 o
2571 4 -1 8 3 31.83 26.13 2.34 o
2572 4 2 0 1 0.02 0.26 0.08 o
2573 5 -2 0 -2 205.10 194.35 3.41 o
2573 4 2 0 2 205.10 194.35 3.41 o
2574 5 2 0 2 205.10 190.98 3.44 o
2574 4 -2 0 -2 205.10 190.98 3.44 o
2575 4 -2 0 -3 3.93 2.96 0.45 o
2576 4 2 0 3 3.93 3.08 0.48 o
2577 4 -2 0 -4 1.15 1.49 0.43 o
2578 4 -2 0 -5 25.28 27.13 1.94 o
2579 4 -2 0 -6 1.53 0.82 0.37 <
2580 4 -2 0 -7 2.62 2.75 0.71 o
2581 4 2 1 1 185.90 158.27 3.02 o
2582 5 2 1 2 35.77 33.51 1.44 o
2582 4 -2 -1 -2 35.77 33.51 1.44 o
2583 5 -2 -1 -2 35.57 36.54 1.56 o
2583 4 2 1 2 35.57 36.54 1.56 o
2584 5 2 -1 2 35.57 34.51 1.15 o
2584 4 -2 1 -2 35.57 34.51 1.15 o
2585 4 -2 1 -3 37.98 34.60 1.48 o
2586 4 -2 -1 -3 36.63 33.34 1.69 o
2587 4 2 1 4 36.88 35.70 2.15 o
2588 4 -2 -1 -4 36.89 37.36 2.03 o
2589 4 -2 1 -5 6.19 4.44 0.78 o
2590 4 -2 -1 -5 6.64 4.85 0.93 o
2591 4 2 1 5 6.19 4.82 0.92 o
2592 4 -2 1 -6 12.81 11.49 1.42 o
2593 4 -2 -1 -6 13.58 12.10 1.63 o
2594 4 -2 -1 -7 3.10 2.98 0.81 o
2595 4 -2 -1 -8 1.57 0.80 0.52 <
2596 4 2 -2 -4 124.99 118.66 4.22 o
2597 4 -2 2 4 125.09 130.79 4.50 o
2598 4 2 -2 -3 149.67 147.62 4.08 o
2599 4 -2 2 3 155.05 164.08 4.24 o
2600 4 -2 2 2 76.79 66.30 2.21 o
2601 4 2 -2 -2 75.64 59.68 2.18 o
2602 4 -2 2 1 531.52 569.05 7.05 o
2603 4 2 -2 -1 531.35 566.46 7.08 o
2604 5 -2 -2 -2 181.24 175.75 4.10 o
2604 4 2 2 2 181.24 175.75 4.10 o
2605 5 2 2 2 181.32 181.62 4.15 o
2605 4 -2 -2 -2 181.32 181.62 4.15 o
2606 4 -2 -2 -3 27.57 29.23 1.71 o
2607 4 2 2 3 26.76 31.00 1.86 o
2608 4 2 2 4 43.67 44.03 2.43 o
2609 4 -2 -2 -4 42.82 48.25 2.45 o
2610 4 -2 -2 -5 14.21 15.81 1.60 o
2611 4 2 2 5 13.88 14.19 1.60 o
2612 4 2 2 6 1.35 0.88 0.46 <
2613 4 -2 -2 -6 1.33 0.53 0.29 <
2614 4 -2 -2 -7 9.04 11.13 1.63 o
2615 4 2 2 7 9.25 13.01 1.98 o
2616 4 -2 -2 -8 1.86 1.45 0.74 <
2617 4 2 -3 -6 18.42 19.15 2.17 o
2618 4 -2 3 6 19.01 20.40 2.25 o
2619 4 2 -3 -5 91.85 83.10 3.97 o
2620 4 -2 3 5 90.67 81.69 3.90 o
2621 4 -2 3 4 12.90 12.34 1.42 o
2622 4 2 -3 -4 12.82 11.24 1.34 o
2623 4 -2 3 3 207.05 216.90 5.23 o
2624 4 2 -3 -3 206.40 219.01 5.36 o
2625 4 -2 3 2 401.74 422.49 7.08 o
2626 4 2 -3 -2 401.21 426.28 6.87 o
2627 4 2 -3 -1 4.00 5.89 0.58 o
2628 4 -2 3 1 4.00 6.18 0.63 o
2629 5 -2 -3 -2 17.54 18.18 1.51 o
2629 4 2 3 2 17.54 18.18 1.51 o
2630 4 2 3 3 82.86 84.88 3.23 o
2631 4 -2 -3 -3 81.74 83.32 3.12 o
2632 4 2 3 4 16.54 17.60 1.65 o
2633 4 -2 -3 -4 17.08 18.70 1.64 o
2634 4 2 3 5 22.28 22.89 2.08 o
2635 4 -2 -3 -5 22.48 26.44 2.07 o
2636 4 -2 -3 -6 12.57 17.58 1.90 o
2637 4 2 3 6 12.77 15.77 1.89 o
2638 4 2 3 7 0.78 0.52 0.39 <
2639 4 -2 -3 -7 0.80 0.08 0.19 <
2640 4 -2 4 7 30.67 31.27 3.17 o
2641 4 2 -4 -7 31.07 34.83 3.29 o
2642 4 -2 4 6 53.21 56.69 3.70 o
2643 4 2 -4 -6 52.89 60.54 3.94 o
2644 4 -2 4 5 0.48 0.34 0.32 <
2645 4 2 -4 -5 0.57 0.43 0.37 <
2646 4 -2 4 4 226.92 216.10 6.10 o
2647 4 2 -4 -4 225.96 226.52 6.20 o
2648 4 2 -4 -3 111.14 108.12 3.61 o
2649 4 -2 4 3 109.43 107.68 3.80 o
2650 4 2 -4 -2 2.54 3.09 0.51 o
2651 4 -2 4 2 1.94 1.99 0.44 o
2652 4 2 -4 -1 423.76 387.63 6.02 o
2653 4 -2 4 1 423.69 394.63 6.40 o
2654 4 2 4 3 0.59 0.49 0.20 <
2655 4 -2 -4 -3 0.48 0.26 0.17 <
2656 4 -2 -4 -4 50.95 54.88 2.79 o
2657 4 2 4 4 50.69 53.15 2.96 o
2658 4 2 4 5 27.34 33.04 2.64 o
2659 4 -2 -4 -5 26.97 32.32 2.41 o
2660 4 2 4 6 0.31 0.01 0.23 <
2661 4 -2 -4 -6 0.31 0.20 0.24 <
2662 4 2 4 7 4.01 2.98 0.98 o
2663 4 -2 -4 -7 4.10 4.11 0.94 o
2664 4 2 -5 -7 8.84 9.68 1.77 o
2665 4 -2 5 7 8.41 9.97 1.79 o
2666 4 -2 5 6 31.75 36.10 3.02 o
2667 4 2 -5 -6 32.49 36.45 2.94 o
2668 4 -2 5 5 73.84 66.55 3.72 o
2669 4 2 -5 -5 71.81 64.35 3.49 o
2670 4 -2 5 4 22.66 19.63 1.83 o
2671 4 2 -5 -4 23.11 22.15 1.88 o
2672 4 2 -5 -3 86.51 85.66 3.58 o
2673 4 -2 5 3 87.51 83.91 3.72 o
2674 4 2 -5 -2 116.18 108.48 3.54 o
2675 4 -2 5 2 116.59 111.40 3.72 o
2676 4 -2 5 1 52.72 59.97 2.45 o
2677 4 2 -5 -1 52.72 55.21 2.05 o
2678 4 2 5 3 67.02 66.58 3.36 o
2679 4 -2 -5 -4 27.07 35.23 2.57 o
2680 4 2 5 4 27.73 36.46 2.64 o
2681 4 -2 -5 -5 7.36 9.34 1.35 o
2682 4 2 5 5 7.74 9.25 1.40 o
2683 4 2 5 6 7.72 8.61 1.62 o
2684 4 -2 -5 -6 7.60 9.24 1.39 o
2685 4 -2 6 6 10.74 14.22 2.04 o
2686 4 2 -6 -6 10.06 13.79 1.93 o
2687 4 -2 6 5 23.90 21.36 2.24 o
2688 4 2 -6 -5 24.64 19.42 2.04 o
2689 4 -2 6 4 45.01 45.80 2.96 o
2690 4 2 -6 -4 46.21 49.36 3.07 o
2691 4 2 -6 -3 32.17 33.16 2.18 o
2692 4 -2 6 3 29.72 31.68 2.34 o
2693 4 2 -6 -2 36.98 38.79 2.07 o
2694 4 -2 6 2 36.91 38.73 2.32 o
2695 4 -2 6 1 99.37 96.09 3.52 o
2696 4 2 6 4 9.27 10.32 1.53 o
2697 4 2 6 5 8.41 9.99 1.64 o
2698 4 -2 -6 -5 8.67 14.06 1.75 o
2699 4 -2 7 5 13.12 13.83 1.83 o
2700 4 2 -7 -5 13.78 14.26 1.73 o
2701 4 2 -7 -4 2.78 1.16 0.41 <
2702 4 -2 7 4 3.01 1.50 0.56 <
2703 4 2 -7 -3 40.80 38.17 2.31 o
2704 4 -2 7 3 41.25 41.91 2.81 o
2705 4 -2 7 2 22.80 29.69 2.12 o
2706 4 -2 8 5 8.15 7.15 1.41 o
2707 4 2 -8 -4 44.36 39.54 2.75 o
2708 4 -2 8 4 44.96 45.92 3.39 o
2709 4 2 -8 -3 23.64 26.02 2.01 o
2710 4 -2 8 3 25.70 25.71 2.25 o
2711 4 -2 8 2 2.96 3.22 0.74 o
2712 4 -2 9 3 33.15 23.14 2.34 o
2713 4 3 0 1 38.06 39.71 1.22 o
2714 4 3 0 2 29.24 33.61 1.31 o
2715 5 -3 0 -3 3.98 5.04 0.68 o
2715 4 3 0 3 3.98 5.04 0.68 o
2716 5 3 0 3 3.98 5.31 0.59 o
2716 4 -3 0 -3 3.98 5.31 0.59 o
2717 4 3 0 4 0.39 0.14 0.16 <
2718 4 -3 0 -4 0.39 0.19 0.16 <
2719 4 -3 0 -5 21.05 28.87 1.82 o
2720 4 -3 0 -6 5.33 8.70 1.15 o
2721 4 -3 0 -7 0.16 0.00 0.14 <
2722 4 -3 0 -8 1.21 1.10 0.60 <
2723 4 -3 1 -2 56.77 47.01 1.26 o
2724 4 3 1 2 56.77 63.19 2.12 o
2725 5 -3 -1 -3 21.40 22.37 1.41 o
2725 4 3 1 3 21.40 22.37 1.41 o
2726 5 3 1 3 21.23 25.54 1.44 o
2726 4 -3 -1 -3 21.23 25.54 1.44 o
2727 5 3 -1 3 21.40 23.39 1.14 o
2727 4 -3 1 -3 21.40 23.39 1.14 o
2728 4 -3 1 -4 16.36 19.51 1.26 o
2729 4 3 1 4 16.36 22.14 1.59 o
2730 4 -3 -1 -4 16.48 23.33 1.61 o
2731 4 3 1 5 9.61 13.59 1.41 o
2732 4 -3 -1 -5 9.85 15.19 1.43 o
2733 4 -3 1 -5 9.61 11.32 1.09 o
2734 4 -3 1 -6 3.56 3.85 0.74 o
2735 4 -3 -1 -6 3.61 5.89 1.03 o
2736 4 -3 1 -7 2.05 1.43 0.50 <
2737 4 -3 -1 -7 2.01 3.05 0.84 o
2738 4 -3 -1 -8 0.21 0.20 0.15 <
2739 4 3 -2 -2 147.90 135.22 3.85 o
2740 4 3 -2 -1 136.88 119.27 2.48 o
2741 4 3 2 2 36.26 39.99 1.99 o
2742 5 -3 -2 -3 118.70 152.96 4.08 o
2742 4 3 2 3 118.70 152.96 4.08 o
2743 5 3 2 3 118.99 142.10 3.82 o
2743 4 -3 -2 -3 118.99 142.10 3.82 o
2744 4 3 2 4 1.60 2.04 0.50 o
2745 4 -3 2 -4 1.60 1.56 0.36 o
2746 4 -3 -2 -4 1.62 1.80 0.47 o
2747 4 3 2 5 9.23 11.53 1.43 o
2748 4 -3 2 -5 9.23 10.09 1.14 o
2749 4 -3 -2 -5 9.84 12.95 1.43 o
2750 4 -3 2 -6 4.50 4.62 0.91 o
2751 4 3 2 6 4.50 6.10 1.10 o
2752 4 -3 -2 -6 4.82 6.31 1.05 o
2753 4 3 2 7 0.42 0.06 0.09 <
2754 4 -3 -2 -7 0.41 0.27 0.32 <
2755 4 -3 -2 -8 1.38 2.02 0.75 <
2756 4 3 -3 -5 82.98 83.69 4.07 o
2757 4 3 -3 -4 25.95 21.73 1.93 o
2758 4 -3 3 4 27.91 25.46 2.12 o
2759 4 3 -3 -3 32.97 31.83 1.99 o
2760 4 -3 3 3 32.84 32.17 2.08 o
2761 4 -3 3 2 122.77 122.62 3.54 o
2762 4 3 -3 -2 122.79 123.47 3.47 o
2763 4 -3 3 1 123.22 128.39 3.00 o
2764 4 3 -3 -1 123.14 113.23 2.66 o
2765 5 3 -3 3 21.58 17.36 0.92 o
2765 4 -3 3 -3 21.58 17.36 0.92 o
2766 5 -3 -3 -3 21.58 21.24 1.60 o
2766 4 3 3 3 21.58 21.24 1.60 o
2767 4 -3 -3 -4 23.25 33.66 2.14 o
2768 4 3 3 4 23.06 33.83 2.32 o
2769 4 3 3 5 2.73 3.72 0.87 o
2770 4 -3 -3 -5 2.66 3.82 0.73 o
2771 4 -3 -3 -6 0.51 0.41 0.29 <
2772 4 3 3 6 0.54 0.40 0.19 <
2773 4 3 3 7 3.52 4.48 1.11 o
2774 4 -3 -3 -7 3.59 4.69 1.03 o
2775 4 3 -4 -7 0.31 0.00 0.23 <
2776 4 3 -4 -6 49.76 56.40 3.57 o
2777 4 -3 4 6 49.51 57.78 3.87 o
2778 4 3 -4 -5 8.82 9.55 1.39 o
2779 4 -3 4 5 8.77 9.07 1.36 o
2780 4 -3 4 4 8.37 7.43 1.15 o
2781 4 3 -4 -4 8.32 7.96 1.21 o
2782 4 -3 4 3 76.03 72.18 3.06 o
2783 4 3 -4 -3 75.57 74.03 3.20 o
2784 4 -3 4 2 75.30 70.08 2.73 o
2785 4 3 -4 -2 73.45 73.33 2.68 o
2786 4 -3 4 1 72.28 72.38 2.42 o
2787 4 3 -4 -1 73.99 72.84 2.24 o
2788 4 -3 4 -1 8.88 6.26 0.54 o
2789 5 -3 -4 -3 66.97 75.08 3.32 o
2789 4 3 4 3 66.97 75.08 3.32 o
2790 4 3 4 4 0.14 -0.09 0.30 <
2791 4 3 4 5 7.65 13.65 1.65 o
2792 4 -3 -4 -5 7.33 12.76 1.63 o
2793 4 3 4 6 4.03 4.20 1.02 o
2794 4 -3 -4 -6 3.91 5.48 1.01 o
2795 4 -3 5 7 9.99 13.90 2.05 o
2796 4 3 -5 -7 10.29 13.95 2.08 o
2797 4 -3 5 6 23.20 27.92 2.60 o
2798 4 3 -5 -6 22.44 26.57 2.54 o
2799 4 -3 5 5 44.26 44.41 3.03 o
2800 4 3 -5 -5 45.99 44.22 2.87 o
2801 4 -3 5 4 40.09 37.88 2.66 o
2802 4 3 -5 -4 42.76 42.03 2.66 o
2803 4 3 -5 -3 1.64 1.39 0.43 o
2804 4 -3 5 3 1.73 1.37 0.49 <
2805 4 -3 5 2 113.71 108.21 3.74 o
2806 4 3 -5 -2 114.87 111.63 3.57 o
2807 4 3 -5 -1 111.61 115.91 3.12 o
2808 4 -3 5 1 112.68 122.88 3.45 o
2809 4 3 5 4 8.72 10.07 1.59 o
2810 4 3 5 5 2.40 2.82 0.74 o
2811 4 3 5 6 2.29 1.95 0.73 <
2812 4 -3 6 6 20.97 23.59 2.54 o
2813 4 3 -6 -6 21.41 25.05 2.39 o
2814 4 3 -6 -5 31.82 34.41 2.58 o
2815 4 -3 6 5 32.36 33.53 2.67 o
2816 4 3 -6 -4 2.60 1.74 0.49 o
2817 4 -3 6 4 2.43 1.34 0.42 o
2818 4 -3 6 3 97.26 88.20 3.99 o
2819 4 3 -6 -3 97.29 96.16 3.70 o
2820 4 3 -6 -2 15.03 12.23 1.10 o
2821 4 -3 6 2 16.62 15.39 1.51 o
2822 4 -3 6 1 15.01 13.80 1.21 o
2823 4 3 6 5 6.28 6.79 1.39 o
2824 4 -3 7 6 5.08 6.24 1.38 o
2825 4 -3 7 5 16.64 16.53 1.97 o
2826 4 3 -7 -5 16.75 18.68 2.01 o
2827 4 -3 7 4 93.04 90.53 4.35 o
2828 4 3 -7 -4 91.87 83.00 3.98 o
2829 4 3 -7 -3 2.56 2.28 0.57 o
2830 4 -3 7 3 2.52 1.72 0.52 o
2831 4 3 -7 -2 16.76 16.70 1.38 o
2832 4 -3 7 2 16.12 17.70 1.68 o
2833 4 -3 7 1 16.20 16.98 1.49 o
2834 4 -3 8 5 12.29 11.11 1.64 o
2835 4 3 -8 -5 12.61 12.70 1.63 o
2836 4 -3 8 4 6.43 4.65 1.03 o
2837 4 3 -8 -4 6.41 6.32 1.04 o
2838 4 3 -8 -3 76.32 68.49 3.30 o
2839 4 -3 8 3 76.51 69.42 3.94 o
2840 4 -3 8 2 17.52 18.13 1.71 o
2841 4 -3 8 1 18.04 18.72 1.68 o
2842 4 3 -9 -4 17.06 15.35 1.73 o
2843 4 -3 9 4 17.25 15.31 1.98 o
2844 4 -3 9 3 0.49 0.57 0.41 <
2845 4 -3 9 2 53.43 49.04 3.11 o
2846 4 -3 10 3 27.68 25.65 2.63 o
2847 4 4 0 1 127.00 121.75 2.63 o
2848 4 4 0 2 2.32 2.06 0.35 o
2849 4 4 0 3 18.72 24.47 1.43 o
2850 5 4 0 4 31.62 56.46 2.22 o
2850 4 -4 0 -4 31.62 56.46 2.22 o
2851 5 -4 0 -4 31.62 52.82 2.39 o
2851 4 4 0 4 31.62 52.82 2.39 o
2852 4 -4 0 -5 0.08 -0.21 0.18 <
2853 4 -4 0 -6 3.03 6.41 0.94 o
2854 4 4 -1 2 19.44 23.97 0.93 o
2855 4 4 1 2 19.00 27.02 1.39 o
2856 4 4 1 3 9.08 13.18 1.11 o
2857 5 -4 -1 -4 8.90 16.05 1.31 o
2857 4 4 1 4 8.90 16.05 1.31 o
2858 5 4 -1 4 8.90 13.01 0.93 o
2858 4 -4 1 -4 8.90 13.01 0.93 o
2859 4 -4 -1 -5 7.85 17.52 1.43 o
2860 4 -4 1 -5 7.85 14.99 1.18 o
2861 4 4 1 5 7.85 15.94 1.56 o
2862 4 -4 -1 -6 0.23 0.30 0.31 <
2863 4 -4 1 -6 0.26 0.36 0.24 <
2864 4 -4 -1 -7 0.88 0.85 0.31 <
2865 4 4 2 2 3.37 5.00 0.79 o
2866 4 4 2 3 9.91 14.99 1.30 o
2867 5 -4 -2 -4 11.46 22.10 1.64 o
2867 4 4 2 4 11.46 22.10 1.64 o
2868 5 4 -2 4 11.46 16.33 0.96 o
2868 4 -4 2 -4 11.46 16.33 0.96 o
2869 4 -4 -2 -5 0.09 -0.06 0.18 <
2870 4 4 2 5 0.08 0.22 0.18 <
2871 4 -4 2 -5 0.08 0.16 0.19 <
2872 4 4 2 6 2.30 4.77 0.97 o
2873 4 -4 -2 -6 2.29 5.95 0.95 o
2874 4 -4 2 -6 2.30 3.86 0.71 o
2875 4 4 2 7 1.21 1.69 0.63 <
2876 4 -4 -2 -7 1.18 1.71 0.51 o
2877 4 4 -3 -3 44.57 28.10 1.98 o
2878 4 4 -3 -2 0.05 -0.02 0.13 <
2879 4 4 -3 -1 36.60 34.13 1.33 o
2880 4 4 3 3 18.61 26.72 1.89 o
2881 5 -4 -3 -4 2.38 4.31 0.85 o
2881 4 4 3 4 2.38 4.31 0.85 o
2882 5 4 -3 4 2.38 2.18 0.30 o
2882 4 -4 3 -4 2.38 2.18 0.30 o
2883 4 -4 3 -5 1.31 1.13 0.24 o
2884 4 4 3 5 1.31 2.43 0.71 o
2885 4 -4 -3 -6 2.60 5.95 1.01 o
2886 4 4 3 6 2.54 4.06 0.91 o
2887 4 -4 -3 -7 0.19 0.51 0.42 <
2888 4 4 3 7 0.20 0.22 0.21 <
2889 4 4 -4 -5 21.07 21.36 2.05 o
2890 4 -4 4 5 19.90 21.96 2.25 o
2891 4 4 -4 -4 0.14 0.08 0.08 <
2892 4 -4 4 4 0.05 -0.07 0.16 <
2893 4 4 -4 -3 4.92 5.14 0.86 o
2894 4 -4 4 3 5.21 3.71 0.77 o
2895 4 -4 4 2 128.28 121.33 3.89 o
2896 4 4 -4 -2 128.38 121.37 3.46 o
2897 4 -4 4 1 5.49 5.25 0.68 o
2898 4 4 -4 -1 5.85 5.61 0.57 o
2899 5 -4 -4 -4 3.81 8.12 1.26 o
2899 4 4 4 4 3.81 8.12 1.26 o
2900 5 4 -4 4 3.81 3.92 0.39 o
2900 4 -4 4 -4 3.81 3.92 0.39 o
2901 4 4 4 5 0.16 -0.13 0.00 <
2902 4 -4 4 -5 0.16 0.08 0.06 <
2903 4 4 4 6 2.02 3.17 0.81 o
2904 4 -4 5 7 10.74 13.92 2.12 o
2905 4 4 -5 -7 10.47 14.70 2.11 o
2906 4 -4 5 6 26.49 28.43 2.74 o
2907 4 4 -5 -6 26.38 30.26 2.85 o
2908 4 4 -5 -5 6.50 5.22 1.08 o
2909 4 -4 5 5 6.35 5.38 1.03 o
2910 4 -4 5 4 21.91 21.76 1.98 o
2911 4 4 -5 -4 21.53 20.66 1.89 o
2912 4 -4 5 3 48.70 41.84 2.71 o
2913 4 4 -5 -3 46.16 43.57 2.41 o
2914 4 -4 5 2 0.01 0.18 0.17 <
2915 4 4 -5 -2 0.01 0.09 0.11 <
2916 4 -4 5 1 44.58 46.75 2.01 o
2917 4 4 -5 -1 47.00 42.62 1.69 o
2918 4 -4 5 -1 5.29 5.31 0.51 o
2919 4 -4 5 -2 21.03 9.48 0.67 o
2920 4 4 5 5 3.40 4.59 1.09 o
2921 4 4 -6 -6 0.83 0.59 0.45 <
2922 4 -4 6 6 0.94 0.54 0.20 <
2923 4 -4 6 5 60.33 62.03 3.97 o
2924 4 4 -6 -5 60.09 57.00 3.36 o
2925 4 -4 6 4 27.40 29.04 2.35 o
2926 4 4 -6 -4 27.24 28.74 2.23 o
2927 4 -4 6 3 6.80 5.86 0.95 o
2928 4 4 -6 -3 6.55 7.55 1.06 o
2929 4 -4 6 2 42.21 38.65 2.46 o
2930 4 4 -6 -2 42.27 39.64 2.10 o
2931 4 -4 6 1 6.43 6.52 0.84 o
2932 4 -4 6 -1 52.37 58.49 2.11 o
2933 4 4 -7 -6 9.65 9.07 1.49 o
2934 4 -4 7 6 9.58 11.07 1.87 o
2935 4 4 -7 -5 4.49 2.93 0.73 o
2936 4 -4 7 5 4.52 2.70 0.75 o
2937 4 -4 7 4 69.79 64.69 3.67 o
2938 4 4 -7 -4 69.68 76.96 3.81 o
2939 4 -4 7 3 47.91 49.89 2.94 o
2940 4 4 -7 -3 48.93 50.70 2.80 o
2941 4 -4 7 2 0.56 0.05 0.23 <
2942 4 4 -7 -2 0.56 0.02 0.20 <
2943 4 -4 7 1 48.07 60.00 2.91 o
2944 4 -4 7 -1 3.90 6.35 2.78 <
2945 4 -4 8 5 29.68 23.75 2.35 o
2946 4 4 -8 -5 29.51 29.42 2.54 o
2947 4 -4 8 4 18.33 18.00 2.05 o
2948 4 4 -8 -4 18.61 20.02 1.91 o
2949 4 -4 8 3 4.96 4.80 0.97 o
2950 4 4 -8 -3 5.04 5.12 0.85 o
2951 4 -4 8 2 32.17 32.85 2.47 o
2952 4 -4 8 1 4.89 6.73 1.06 o
2953 4 -4 9 4 10.73 7.97 1.35 o
2954 4 4 -9 -4 11.19 10.73 1.40 o
2955 4 -4 9 3 19.48 18.54 1.99 o
2956 4 4 -9 -3 19.57 17.14 1.63 o
2957 4 -4 9 2 0.00 -0.27 0.10 <
2958 4 -4 9 1 17.23 20.13 1.86 o
2959 4 -4 10 3 1.94 0.87 0.51 <
2960 4 -4 10 2 27.19 23.60 2.34 o
2961 4 5 0 2 10.45 19.75 1.09 o
2962 4 5 0 3 0.22 0.66 0.17 o
2963 4 5 0 4 2.25 5.96 0.73 o
2964 4 5 -1 1 14.90 9.25 0.52 o
2965 4 5 -1 2 8.03 9.68 0.57 o
2966 4 5 1 2 7.78 11.59 0.94 o
2967 4 5 1 3 8.40 19.03 1.33 o
2968 4 5 1 4 3.73 8.80 0.98 o
2969 4 5 1 5 0.27 1.18 0.40 <
2970 4 5 2 3 1.31 1.46 0.32 o
2971 4 5 2 4 4.71 12.00 1.24 o
2972 4 5 2 5 1.35 7.15 0.98 o
2973 4 5 2 6 0.06 -0.07 0.11 <
2974 4 5 -3 -2 69.39 56.06 2.26 o
2975 4 5 -3 -1 0.25 0.12 0.04 <
2976 4 5 3 4 0.33 1.28 0.47 <
2977 4 5 3 5 1.66 5.87 1.02 o
2978 4 5 3 6 1.56 5.42 1.12 o
2979 4 5 3 7 0.22 0.29 0.07 o
2980 4 5 -4 -4 35.19 30.19 2.28 o
2981 4 5 -4 -3 3.93 3.58 0.73 o
2982 4 5 -4 -2 2.85 4.23 0.61 o
2983 4 5 -4 -1 31.37 33.56 1.37 o
2984 4 5 4 4 1.53 2.37 0.65 o
2985 4 5 4 5 1.17 3.37 0.82 o
2986 4 5 4 6 0.02 0.40 0.50 <
2987 4 5 -5 -6 14.85 15.81 1.93 o
2988 4 5 -5 -5 22.77 19.19 2.14 o
2989 4 -5 5 4 1.91 1.67 0.65 <
2990 4 5 -5 -4 1.93 1.54 0.47 o
2991 4 -5 5 3 31.19 24.57 2.36 o
2992 4 5 -5 -3 29.82 29.86 2.02 o
2993 4 -5 5 2 31.27 29.35 2.20 o
2994 4 5 -5 -2 32.68 32.91 1.75 o
2995 4 5 -5 -1 1.98 1.89 0.30 o
2996 4 -5 5 1 2.01 1.79 0.48 o
2997 4 5 -6 -6 3.21 1.28 0.57 <
2998 4 -5 6 6 3.00 1.52 0.74 <
2999 4 -5 6 5 7.44 4.58 1.01 o
3000 4 5 -6 -5 7.52 5.18 0.98 o
3001 4 -5 6 4 35.39 32.88 2.71 o
3002 4 5 -6 -4 35.28 34.69 2.39 o
3003 4 -5 6 3 10.55 12.72 1.45 o
3004 4 5 -6 -3 11.14 13.11 1.31 o
3005 4 -5 6 2 11.41 12.19 1.46 o
3006 4 5 -6 -2 10.83 12.51 1.11 o
3007 4 -5 6 1 34.37 40.62 2.38 o
3008 4 -5 6 -1 2.41 3.20 0.43 o
3009 4 5 -7 -6 6.81 5.12 1.13 o
3010 4 -5 7 6 6.85 3.99 1.09 o
3011 4 5 -7 -5 12.97 11.37 1.52 o
3012 4 -5 7 5 13.19 12.40 1.77 o
3013 4 5 -7 -4 0.66 0.21 0.24 <
3014 4 -5 7 4 0.64 0.20 0.13 <
3015 4 -5 7 3 9.67 11.54 1.44 o
3016 4 5 -7 -3 10.06 11.39 1.28 o
3017 4 -5 7 2 10.47 7.63 1.27 o
3018 4 5 -7 -2 10.05 10.17 1.06 o
3019 4 -5 7 1 0.53 0.19 0.27 <
3020 4 -5 7 -1 5.92 7.12 0.76 o
3021 4 -5 7 -2 1.33 0.56 0.21 <
3022 4 -5 8 5 1.04 0.47 0.36 <
3023 4 5 -8 -5 1.01 0.99 0.52 <
3024 4 -5 8 4 18.84 18.79 2.05 o
3025 4 5 -8 -4 19.22 18.74 1.94 o
3026 4 -5 8 3 3.79 1.85 0.62 o
3027 4 5 -8 -3 3.41 2.10 0.54 o
3028 4 -5 8 2 3.53 2.35 0.64 o
3029 4 -5 8 1 17.96 22.35 1.82 o
3030 4 -5 8 -1 1.69 3.47 0.60 o
3031 4 -5 9 4 1.17 0.03 0.29 <
3032 4 5 -9 -4 1.14 1.48 1.02 <
3033 4 -5 9 3 8.31 6.76 1.23 o
3034 4 5 -9 -3 8.78 6.51 0.99 o
3035 4 -5 9 2 7.98 7.90 1.26 o
3036 4 -5 9 1 1.00 0.55 0.34 <
3037 4 -5 10 3 3.39 1.88 0.64 <
3038 4 -5 10 2 2.84 2.17 0.86 <
3039 4 -5 10 1 7.88 8.60 1.39 o
3040 4 6 0 2 3.68 7.20 0.72 o
3041 4 6 0 3 1.03 4.27 0.53 o
3042 4 6 -1 1 3.27 2.23 0.30 o
3043 4 6 1 2 2.25 4.27 0.65 o
3044 4 6 1 3 0.83 2.14 0.47 o
3045 4 6 1 4 0.70 2.58 0.52 o
3046 4 6 2 3 3.09 6.26 0.95 o
3047 4 6 2 4 0.09 0.17 0.21 <
3048 4 6 2 5 0.56 2.18 0.61 o
3049 4 6 -3 -1 14.56 14.30 0.79 o
3050 4 6 3 4 1.88 4.57 0.89 o
3051 4 6 3 5 0.08 0.60 0.39 <
3052 4 6 -4 -3 29.06 25.11 1.88 o
3053 4 6 -4 -2 11.68 11.43 0.97 o
3054 4 6 -4 -1 5.85 5.17 0.48 o
3055 4 6 -5 -5 13.86 11.97 1.55 o
3056 4 6 -5 -4 11.59 14.41 1.59 o
3057 4 6 -5 -3 3.86 2.93 0.59 o
3058 4 6 -5 -2 11.16 13.10 1.04 o
3059 4 6 -5 -1 12.24 10.55 0.69 o
3060 4 6 -6 -6 8.67 5.79 1.18 o
3061 4 6 -6 -5 2.38 1.51 0.64 <
3062 4 6 -6 -4 0.64 0.15 0.14 <
3063 4 6 -6 -3 10.42 10.91 1.17 o
3064 4 6 -6 -2 0.46 0.19 0.14 <
3065 4 6 -7 -6 0.03 -0.03 0.21 <
3066 4 -6 7 6 0.04 -0.35 0.44 <
3067 4 -6 7 5 2.64 1.43 0.59 <
3068 4 6 -7 -5 2.68 0.97 0.43 <
3069 4 6 -7 -4 5.42 3.59 0.81 o
3070 4 -6 7 4 5.44 3.11 0.84 o
3071 4 6 -7 -3 0.53 0.30 0.21 <
3072 4 -6 7 3 0.53 0.08 0.16 <
3073 4 -6 7 2 5.18 2.75 0.83 o
3074 4 6 -7 -2 5.19 5.05 0.68 o
3075 4 -6 7 1 2.41 1.60 0.46 o
3076 4 -6 8 5 2.11 1.13 0.20 o
3077 4 6 -8 -5 2.20 1.22 0.62 <
3078 4 -6 8 4 0.69 -0.18 0.42 <
3079 4 6 -8 -4 0.75 0.68 0.37 <
3080 4 -6 8 3 6.67 4.78 0.99 o
3081 4 6 -8 -3 6.68 4.61 0.76 o
3082 4 -6 8 2 0.69 0.55 0.40 <
3083 4 -6 8 1 1.83 2.09 0.68 o
3084 4 -6 9 4 6.18 3.20 0.96 o
3085 4 6 -9 -4 6.15 2.38 0.62 o
3086 4 -6 9 3 0.04 0.03 0.15 <
3087 4 6 -9 -3 0.04 -0.32 0.25 <
3088 4 -6 9 2 5.52 4.17 0.98 o
3089 4 -6 9 1 5.63 5.91 1.10 o
3090 4 -6 10 3 13.75 10.75 1.71 o
3091 4 -6 10 2 3.26 2.36 0.67 o
3092 4 7 0 2 0.24 0.27 0.18 <
3093 4 7 -1 1 0.99 0.36 0.13 <
3094 4 7 1 3 0.24 0.56 0.16 o
3095 4 7 -3 -1 5.43 4.53 0.42 o
3096 4 7 -4 -2 9.24 9.93 0.91 o
3097 4 7 -4 -1 0.42 0.23 0.11 <
3098 4 7 -5 -4 3.12 1.56 0.48 o
3099 4 7 -5 -3 3.08 2.20 0.54 o
3100 4 7 -5 -2 1.28 0.52 0.20 <
3101 4 7 -6 -5 3.64 2.09 0.64 o
3102 4 7 -6 -4 2.52 1.72 0.54 o
3103 4 7 -6 -3 2.73 2.29 0.55 o
3104 4 7 -6 -2 3.33 2.87 0.46 o
3105 4 7 -7 -6 1.87 1.33 0.59 <
3106 4 7 -7 -5 0.81 -0.16 0.40 <
3107 4 7 -7 -4 4.01 2.43 0.67 o
3108 4 7 -7 -3 3.96 3.66 0.61 o
3109 4 7 -8 -5 5.92 3.88 0.95 o
3110 4 7 -8 -4 1.19 0.86 0.32 <
3111 4 7 -8 -3 1.10 0.61 0.16 o
3112 4 -7 9 4 3.88 1.41 0.73 <
3113 4 7 -9 -4 3.81 2.68 0.70 o
3114 4 -7 9 3 3.83 1.54 0.82 <
3115 4 -7 10 4 0.48 0.45 0.63 <
3116 4 7 -10 -4 0.42 0.10 0.27 <
3117 4 8 -3 -1 0.07 0.01 0.05 <
3118 4 8 -4 -2 0.84 0.61 0.22 <
3119 4 8 -5 -3 1.51 0.71 0.27 <
3120 4 8 -5 -2 1.19 1.10 0.28 o
3121 4 8 -6 -4 5.18 3.77 0.76 o
3122 4 8 -6 -3 0.11 0.41 0.30 <
3123 4 8 -7 -5 2.29 1.08 0.45 <
3124 4 8 -7 -4 0.09 0.15 0.03 o
3125 4 8 -7 -3 2.17 1.48 0.40 o
3126 4 8 -8 -5 0.41 -0.18 0.36 <
3127 4 8 -8 -4 2.35 1.41 0.45 o
3128 4 8 -9 -4 0.08 0.07 0.15 <
3129 5 0 -2 -1 0.18 0.26 0.08 o
3130 5 0 -2 -2 126.13 98.53 1.44 o
3131 5 0 2 2 126.18 96.35 1.55 o
3132 5 0 2 4 5.11 2.30 0.21 o
3133 5 0 2 5 24.76 17.33 0.65 o
3134 5 0 -3 -2 247.41 228.15 3.10 o
3135 5 0 3 3 1.38 0.91 0.17 o
3136 5 0 -3 -3 1.37 0.90 0.19 o
3137 5 0 3 4 0.41 0.38 0.11 o
3138 5 0 3 5 9.44 5.49 0.36 o
3139 5 0 -4 -2 4.77 6.11 0.61 o
3140 5 0 -4 -3 85.27 82.07 2.05 o
3141 5 0 -4 -4 0.81 0.77 0.18 o
3142 5 0 -5 -3 0.69 1.10 0.25 o
3143 5 0 -5 -4 8.85 9.95 0.83 o
3144 5 0 -5 -5 10.06 9.47 0.82 o
3145 5 0 -6 -3 42.52 46.15 2.39 o
3146 5 0 -6 -4 8.23 7.79 0.76 o
3147 5 0 -6 -5 33.63 46.71 2.23 o
3148 5 0 -7 -4 100.08 104.49 3.35 o
3149 5 0 -7 -5 23.75 25.80 1.61 o
3150 5 0 -7 -6 3.49 2.35 0.43 o
3151 5 0 -8 -4 0.69 1.34 0.41 o
3152 5 0 -8 -5 10.36 11.80 1.17 o
3153 5 0 -8 -6 4.84 5.19 0.78 o
3154 5 0 -9 -5 2.05 2.23 0.78 <
3155 5 0 -9 -6 2.25 1.32 0.47 <
3156 6 -1 0 0 331.57 194.59 2.14 o
3156 5 -1 0 0 331.57 194.59 2.14 o
3157 5 1 0 1 93.43 102.46 1.40 o
3157 4 -1 0 -1 93.43 102.46 1.40 o
3158 5 -1 0 -1 93.43 100.79 1.44 o
3158 4 1 0 1 93.43 100.79 1.44 o
3159 5 1 0 2 2.28 2.03 0.21 o
3160 5 1 0 3 88.84 60.27 1.28 o
3161 5 -1 1 1 315.47 356.75 3.44 o
3162 5 1 -1 -1 314.99 349.44 3.40 o
3163 6 1 1 0 922.55 873.08 5.25 o
3163 5 1 -1 0 922.55 873.08 5.25 o
3164 6 -1 -1 0 922.80 897.42 5.48 o
3164 5 -1 1 0 922.80 897.42 5.48 o
3165 5 1 -1 1 509.92 558.42 4.78 o
3165 4 -1 1 -1 509.92 558.42 4.78 o
3166 5 -1 1 -1 510.70 630.48 4.32 o
3166 4 1 -1 1 510.70 630.48 4.32 o
3167 5 1 -1 2 48.43 27.08 0.90 o
3168 5 1 1 5 20.61 9.72 0.60 o
3169 5 1 1 6 5.68 3.50 0.41 o
3170 5 -1 2 4 10.95 7.80 0.65 o
3171 5 -1 2 3 113.27 112.08 2.25 o
3172 5 -1 2 2 384.04 413.20 4.10 o
3173 5 1 -2 -2 383.85 413.82 4.16 o
3174 5 -1 2 1 4.23 4.09 0.41 o
3175 5 1 -2 -1 3.47 2.94 0.35 o
3176 6 1 2 0 10.64 7.69 0.60 o
3176 5 1 -2 0 10.64 7.69 0.60 o
3177 6 -1 -2 0 11.30 7.12 0.61 o
3177 5 -1 2 0 11.30 7.12 0.61 o
3178 5 1 -2 1 1076.85 1576.97 8.63 o
3178 4 -1 2 -1 1076.85 1576.97 8.63 o
3179 5 -1 3 7 13.25 10.53 0.77 o
3180 5 -1 3 6 20.12 21.09 1.16 o
3181 5 -1 3 5 11.21 8.83 0.65 o
3182 5 -1 3 4 43.22 32.44 1.27 o
3183 5 -1 3 3 156.10 152.90 2.89 o
3184 5 1 -3 -3 156.23 153.24 3.00 o
3185 5 -1 3 2 10.81 14.53 0.89 o
3186 5 1 -3 -2 10.64 14.34 0.90 o
3187 5 1 -3 -1 39.99 45.05 1.71 o
3188 5 -1 3 1 39.63 49.92 1.72 o
3189 6 -1 -3 0 118.36 99.19 2.42 o
3189 5 -1 3 0 118.36 99.19 2.42 o
3190 6 1 3 0 118.63 99.63 2.55 o
3190 5 1 -3 0 118.63 99.63 2.55 o
3191 5 -1 4 8 3.28 2.38 0.36 o
3192 5 -1 4 7 14.50 14.19 0.88 o
3193 5 -1 4 6 2.03 1.94 0.30 o
3194 5 -1 4 5 11.67 10.83 0.75 o
3195 5 1 -4 -4 29.56 28.96 1.57 o
3196 5 -1 4 4 29.85 28.14 1.28 o
3197 5 1 -4 -3 35.12 34.03 1.58 o
3198 5 -1 4 3 35.78 34.91 1.50 o
3199 5 -1 4 2 198.53 229.97 3.90 o
3200 5 1 -4 -2 199.72 235.52 4.34 o
3201 5 1 -4 -1 20.13 22.33 1.33 o
3202 5 -1 4 1 19.37 22.60 1.24 o
3203 5 -1 -4 -3 27.87 26.78 1.08 o
3204 5 -1 5 7 6.59 10.31 0.99 o
3205 5 -1 5 6 21.31 23.22 1.29 o
3206 5 1 -5 -5 5.88 5.46 0.79 o
3207 5 -1 5 5 6.04 5.57 0.59 o
3208 5 1 -5 -4 42.26 45.12 2.06 o
3209 5 -1 5 4 43.88 43.66 1.77 o
3210 5 1 -5 -3 68.84 68.22 2.34 o
3211 5 -1 5 3 68.34 68.54 2.23 o
3212 5 1 -5 -2 34.52 31.56 1.63 o
3213 5 -1 5 2 34.15 35.80 1.65 o
3214 5 1 -5 -1 58.42 94.96 3.63 o
3215 5 -1 -5 -4 5.93 5.23 0.48 o
3216 5 1 -6 -6 1.80 1.00 0.40 <
3217 5 -1 6 6 1.89 1.61 0.37 o
3218 5 1 -6 -5 50.70 61.31 2.83 o
3219 5 -1 6 5 51.18 55.83 2.18 o
3220 5 1 -6 -4 12.53 13.10 1.12 o
3221 5 -1 6 4 12.56 13.00 1.01 o
3222 5 1 -6 -3 24.81 22.27 1.49 o
3223 5 1 -6 -2 82.17 98.68 3.55 o
3224 5 -1 -6 -4 47.85 53.10 1.96 o
3225 5 -1 -6 -5 1.83 1.86 0.36 o
3226 5 1 -7 -6 7.69 7.47 1.16 o
3227 5 1 -7 -5 2.75 2.76 0.58 o
3228 5 1 -7 -4 30.30 25.35 1.60 o
3229 5 1 -7 -3 10.26 11.05 1.24 o
3230 5 -1 -7 -4 2.52 13.48 2.27 o
3231 5 -1 -7 -5 7.35 9.34 0.85 o
3232 5 1 -8 -6 1.14 0.36 0.14 <
3233 5 1 -8 -5 20.29 17.57 1.53 o
3234 5 1 -8 -4 18.72 18.60 1.59 o
3235 5 1 -8 -3 18.70 45.58 4.24 o
3236 5 -1 -8 -5 1.06 1.29 0.43 o
3237 5 1 -9 -6 9.03 7.41 1.22 o
3238 5 1 -9 -5 2.65 0.94 0.38 <
3239 5 1 -9 -4 13.37 30.28 3.43 o
3240 5 1 -10 -6 0.23 0.30 0.39 <
3241 5 1 -10 -5 7.39 15.63 3.31 o
3242 6 -2 0 0 4.43 8.42 0.70 o
3242 5 -2 0 0 4.43 8.42 0.70 o
3243 5 -2 0 -1 0.01 0.24 0.13 <
3244 5 2 0 1 0.01 0.16 0.13 <
3245 5 2 0 2 205.10 189.14 2.82 o
3245 4 -2 0 -2 205.10 189.14 2.82 o
3246 5 -2 0 -2 205.10 189.02 2.79 o
3246 4 2 0 2 205.10 189.02 2.79 o
3247 5 2 0 3 2.21 1.59 0.23 o
3248 5 2 0 4 0.64 1.05 0.18 o
3249 5 2 0 5 14.19 14.40 0.75 o
3250 5 2 0 6 0.86 0.84 0.21 o
3251 5 2 0 7 1.47 2.93 0.46 o
3252 5 2 -1 -1 285.16 286.86 4.10 o
3253 5 -2 1 1 285.15 287.47 4.09 o
3254 6 -2 -1 0 81.07 53.80 1.68 o
3254 5 -2 1 0 81.07 53.80 1.68 o
3255 6 2 1 0 82.42 52.67 1.78 o
3255 5 2 -1 0 82.42 52.67 1.78 o
3256 5 2 -1 1 101.02 112.92 2.49 o
3257 5 -2 1 -1 104.33 115.58 2.49 o
3258 5 2 -1 2 35.57 31.56 1.28 o
3258 4 -2 1 -2 35.57 31.56 1.28 o
3259 5 -2 -1 -2 35.57 32.20 0.98 o
3259 4 2 1 2 35.57 32.20 0.98 o
3260 5 -2 1 -2 35.77 34.29 1.26 o
3260 4 2 -1 2 35.77 34.29 1.26 o
3261 5 2 -1 3 20.56 17.69 1.03 o
3262 5 -2 -1 -3 20.56 17.23 0.69 o
3263 5 2 -1 4 20.70 20.27 1.12 o
3264 5 2 1 4 20.70 20.27 0.75 o
3265 5 2 -1 5 3.73 3.49 0.53 o
3266 5 2 1 5 3.47 2.53 0.25 o
3267 5 2 1 6 7.19 5.31 0.38 o
3268 5 -2 2 3 87.02 80.70 2.44 o
3269 5 -2 2 2 43.10 36.09 1.61 o
3270 5 2 -2 -2 42.45 34.14 1.54 o
3271 5 -2 2 1 298.31 316.17 4.53 o
3272 5 2 -2 -1 298.22 317.33 4.61 o
3273 6 -2 -2 0 121.38 74.55 2.20 o
3273 5 -2 2 0 121.38 74.55 2.20 o
3274 6 2 2 0 120.88 73.86 2.23 o
3274 5 2 -2 0 120.88 73.86 2.23 o
3275 5 2 -2 1 88.25 122.34 3.17 o
3276 5 -2 2 -1 85.26 115.32 2.83 o
3277 5 -2 2 -2 181.32 182.90 3.26 o
3277 4 2 -2 2 181.32 182.90 3.26 o
3278 5 2 -2 2 181.24 190.80 3.77 o
3278 4 -2 2 -2 181.24 190.80 3.77 o
3279 5 2 -2 3 15.47 13.19 0.95 o
3280 5 -2 3 5 50.89 39.63 1.93 o
3281 5 -2 3 4 7.24 5.63 0.69 o
3282 5 2 -3 -3 115.84 113.47 2.99 o
3283 5 -2 3 3 116.21 110.03 2.91 o
3284 5 -2 3 2 225.47 246.55 4.37 o
3285 5 2 -3 -2 225.18 244.70 4.39 o
3286 5 2 -3 -1 2.25 3.31 0.54 o
3287 5 -2 3 1 2.24 3.32 0.49 o
3288 6 -2 -3 0 673.22 606.16 7.04 o
3288 5 -2 3 0 673.22 606.16 7.04 o
3289 6 2 3 0 672.99 599.73 7.55 o
3289 5 2 -3 0 672.99 599.73 7.55 o
3290 5 2 -3 1 115.39 147.34 3.74 o
3291 5 -2 3 -1 115.03 148.46 3.39 o
3292 5 2 -3 2 17.54 17.63 1.28 o
3292 4 -2 3 -2 17.54 17.63 1.28 o
3293 5 -2 4 8 0.24 0.06 0.09 <
3294 5 -2 4 7 17.21 17.96 1.22 o
3295 5 -2 4 6 29.86 32.77 1.68 o
3296 5 -2 4 5 0.27 0.27 0.16 <
3297 5 2 -4 -4 126.82 119.86 3.50 o
3298 5 -2 4 4 127.36 120.47 3.23 o
3299 5 -2 4 3 61.42 63.83 2.42 o
3300 5 2 -4 -3 62.37 63.51 2.45 o
3301 5 2 -4 -2 1.42 1.86 0.44 o
3302 5 -2 4 2 1.09 1.09 0.32 o
3303 5 2 -4 -1 237.83 272.72 5.51 o
3304 5 -2 4 1 237.79 274.38 5.08 o
3305 6 2 4 0 3.42 3.46 0.59 o
3305 5 2 -4 0 3.42 3.46 0.59 o
3306 6 -2 -4 0 3.13 3.32 0.53 o
3306 5 -2 4 0 3.13 3.32 0.53 o
3307 5 -2 4 -1 59.85 77.38 2.60 o
3308 5 2 -4 1 58.87 75.48 2.80 o
3309 5 -2 5 9 0.84 0.50 0.25 <
3310 5 -2 5 8 4.96 4.24 0.59 o
3311 5 -2 5 7 4.72 6.98 0.83 o
3312 5 -2 5 6 17.82 23.57 1.48 o
3313 5 2 -5 -5 40.30 42.38 2.44 o
3314 5 -2 5 5 41.44 42.22 1.93 o
3315 5 -2 5 4 12.72 12.80 1.10 o
3316 5 2 -5 -4 12.97 12.98 1.27 o
3317 5 -2 5 3 49.11 54.87 2.44 o
3318 5 2 -5 -3 48.55 48.95 2.36 o
3319 5 2 -5 -2 65.21 65.17 2.71 o
3320 5 -2 5 2 65.44 68.82 2.61 o
3321 5 -2 5 1 29.59 35.61 1.82 o
3322 5 2 -5 -1 29.59 37.95 2.06 o
3323 6 -2 -5 0 177.18 148.32 3.93 o
3323 5 -2 5 0 177.18 148.32 3.93 o
3324 6 2 5 0 177.02 150.89 4.32 o
3324 5 2 -5 0 177.02 150.89 4.32 o
3325 5 -2 -5 -4 15.20 8.36 0.67 o
3326 5 -2 6 8 0.47 0.54 0.32 <
3327 5 -2 6 7 5.37 9.97 1.13 o
3328 5 2 -6 -6 5.65 9.23 1.48 o
3329 5 -2 6 6 6.03 14.39 1.31 o
3330 5 2 -6 -5 13.83 13.19 1.44 o
3331 5 -2 6 5 13.41 12.09 1.09 o
3332 5 2 -6 -4 25.93 28.01 1.87 o
3333 5 -2 6 4 25.26 27.30 1.66 o
3334 5 -2 6 3 16.68 18.73 1.37 o
3335 5 2 -6 -3 18.06 17.35 1.44 o
3336 5 -2 6 2 20.71 25.29 1.60 o
3337 5 2 -6 -2 20.76 24.30 1.77 o
3338 5 2 -6 -1 55.83 56.01 2.74 o
3339 5 -2 6 1 55.77 60.04 2.53 o
3340 5 -2 -6 -5 4.87 2.87 0.31 o
3341 5 -2 7 8 5.42 18.93 2.39 o
3342 5 -2 7 7 0.43 0.64 0.34 <
3343 5 2 -7 -6 6.46 7.79 1.38 o
3344 5 -2 7 6 6.60 8.38 0.98 o
3345 5 2 -7 -5 7.73 7.55 1.11 o
3346 5 -2 7 5 7.36 7.26 0.84 o
3347 5 2 -7 -4 1.56 0.72 0.35 <
3348 5 -2 7 4 1.69 0.85 0.33 <
3349 5 2 -7 -3 22.90 21.75 1.63 o
3350 5 -2 7 3 23.15 23.07 1.59 o
3351 5 -2 7 2 12.80 14.89 1.25 o
3352 5 2 -7 -2 12.71 15.98 1.56 o
3353 5 -2 -7 -5 0.30 0.18 0.07 <
3354 5 -2 8 7 7.91 17.42 2.07 o
3355 5 2 -8 -7 8.01 6.06 1.37 o
3356 5 -2 8 6 4.98 10.00 1.18 o
3357 5 2 -8 -6 5.45 6.01 1.29 o
3358 5 -2 8 5 4.58 4.75 0.69 o
3359 5 2 -8 -5 4.32 3.24 0.69 o
3360 5 -2 8 4 25.23 20.99 1.51 o
3361 5 2 -8 -4 24.90 20.67 1.73 o
3362 5 2 -8 -3 13.27 14.55 1.56 o
3363 5 2 -8 -2 1.63 1.89 0.37 o
3364 5 2 -9 -7 2.39 3.40 0.99 o
3365 5 2 -9 -6 6.63 5.07 1.06 o
3366 5 2 -9 -5 15.95 10.52 1.41 o
3367 5 2 -9 -4 2.73 1.19 0.58 <
3368 5 2 -9 -3 19.32 33.82 3.62 o
3369 5 2 -10 -7 4.28 2.05 0.91 <
3370 5 2 -10 -6 11.15 14.09 1.93 o
3371 5 2 -10 -5 0.88 0.53 0.51 <
3372 5 2 -10 -4 21.98 42.52 4.92 o
3373 5 2 -11 -6 1.99 1.71 0.92 <
3374 5 3 0 1 21.36 22.81 1.51 o
3375 5 -3 0 -1 21.36 21.53 1.27 o
3376 5 -3 0 -2 16.41 20.01 1.16 o
3377 5 3 0 2 16.41 18.46 1.20 o
3378 5 3 0 3 3.98 4.47 0.59 o
3378 4 -3 0 -3 3.98 4.47 0.59 o
3379 5 -3 0 -3 3.98 4.71 0.49 o
3379 4 3 0 3 3.98 4.71 0.49 o
3380 5 3 0 4 0.22 0.15 0.09 <
3381 5 3 0 5 11.81 19.41 1.01 o
3382 5 3 0 6 2.99 5.61 0.52 o
3383 5 3 -1 -1 76.67 68.28 2.55 o
3384 5 -3 1 1 74.55 68.31 2.60 o
3385 6 -3 -1 0 0.78 0.10 0.10 <
3385 5 -3 1 0 0.78 0.10 0.10 <
3386 6 3 1 0 0.76 0.13 0.15 <
3386 5 3 -1 0 0.76 0.13 0.15 <
3387 5 -3 1 -1 80.60 82.08 2.46 o
3388 5 3 -1 1 81.31 81.66 2.57 o
3389 5 -3 1 -2 31.86 42.87 2.03 o
3390 5 -3 -1 -2 33.18 39.38 1.62 o
3391 5 3 -1 2 33.18 40.02 1.77 o
3392 5 -3 1 -3 21.23 20.54 1.06 o
3392 4 3 -1 3 21.23 20.54 1.06 o
3393 5 -3 -1 -3 21.40 22.38 1.01 o
3393 4 3 1 3 21.40 22.38 1.01 o
3394 5 3 -1 3 21.40 20.65 1.21 o
3394 4 -3 1 -3 21.40 20.65 1.21 o
3395 5 3 -1 4 9.25 11.08 0.85 o
3396 5 3 -1 5 5.53 8.10 0.78 o
3397 5 3 -1 6 2.02 3.93 0.56 o
3398 5 3 -1 7 1.13 3.37 0.60 o
3399 5 3 -2 -2 83.01 76.06 2.77 o
3400 5 -3 2 2 80.31 73.92 2.82 o
3401 5 3 -2 -1 76.82 73.70 2.68 o
3402 5 -3 2 1 79.48 72.39 2.66 o
3403 6 -3 -2 0 231.42 182.13 3.95 o
3403 5 -3 2 0 231.42 182.13 3.95 o
3404 6 3 2 0 231.66 179.29 4.15 o
3404 5 3 -2 0 231.66 179.29 4.15 o
3405 5 3 -2 1 0.43 0.01 0.14 <
3406 5 -3 2 -1 0.33 0.12 0.15 <
3407 5 -3 2 -2 20.35 26.82 1.50 o
3408 5 3 -2 2 19.98 24.04 1.44 o
3409 5 -3 2 -3 118.99 128.73 2.86 o
3409 4 3 -2 3 118.99 128.73 2.86 o
3410 5 -3 -2 -3 118.70 125.42 2.37 o
3410 4 3 2 3 118.70 125.42 2.37 o
3411 5 3 -2 3 118.70 127.13 3.18 o
3411 4 -3 2 -3 118.70 127.13 3.18 o
3412 5 3 -2 4 0.91 0.76 0.25 o
3413 5 3 -2 5 5.52 7.11 0.96 o
3414 5 3 -2 6 2.71 3.89 0.72 o
3415 5 -3 3 4 15.66 11.65 1.21 o
3416 5 3 -3 -3 18.51 15.84 1.40 o
3417 5 -3 3 3 18.43 15.72 1.42 o
3418 5 3 -3 -2 68.92 66.11 2.69 o
3419 5 -3 3 2 68.90 68.78 2.73 o
3420 5 -3 3 1 69.16 68.06 2.70 o
3421 5 3 -3 -1 69.11 65.95 2.77 o
3422 6 -3 -3 0 53.43 40.52 2.03 o
3422 5 -3 3 0 53.43 40.52 2.03 o
3423 6 3 3 0 53.49 40.70 2.11 o
3423 5 3 -3 0 53.49 40.70 2.11 o
3424 5 3 -3 1 15.17 14.29 1.26 o
3425 5 -3 3 -1 14.07 16.05 1.27 o
3426 5 -3 3 -2 43.44 52.77 2.33 o
3427 5 3 -3 2 43.89 58.12 2.63 o
3428 5 -3 -3 -3 21.58 20.54 1.04 o
3428 4 3 3 3 21.58 20.54 1.04 o
3429 5 3 -3 3 21.58 24.13 1.73 o
3429 4 -3 3 -3 21.58 24.13 1.73 o
3430 5 3 -3 4 13.05 17.70 1.39 o
3431 5 -3 4 6 27.78 36.18 2.19 o
3432 5 -3 4 5 4.92 4.58 0.74 o
3433 5 -3 4 4 4.70 3.79 0.69 o
3434 5 3 -4 -4 4.67 4.25 0.73 o
3435 5 -3 4 3 42.67 41.41 2.19 o
3436 5 3 -4 -3 42.41 35.81 2.21 o
3437 5 -3 4 2 42.26 47.35 2.43 o
3438 5 3 -4 -2 41.23 44.16 2.39 o
3439 5 -3 4 1 40.57 43.08 2.21 o
3440 5 3 -4 -1 41.53 46.11 2.48 o
3441 6 -3 -4 0 123.39 97.18 3.41 o
3441 5 -3 4 0 123.39 97.18 3.41 o
3442 6 3 4 0 123.15 99.65 3.70 o
3442 5 3 -4 0 123.15 99.65 3.70 o
3443 5 -3 4 -1 4.98 4.82 0.68 o
3444 5 3 -4 1 4.98 4.87 0.82 o
3445 5 -3 4 -2 4.11 5.99 0.79 o
3446 5 3 -4 2 4.14 7.06 0.94 o
3447 5 3 -4 3 66.97 65.27 2.59 o
3447 4 -3 4 -3 66.97 65.27 2.59 o
3448 5 -3 5 8 1.69 0.88 0.35 <
3449 5 -3 5 7 5.61 10.10 1.10 o
3450 5 -3 5 6 13.02 17.04 1.40 o
3451 5 3 -5 -5 25.81 25.45 1.91 o
3452 5 -3 5 5 24.84 21.31 1.58 o
3453 5 3 -5 -4 24.00 23.61 1.84 o
3454 5 -3 5 4 22.50 26.47 1.91 o
3455 5 -3 5 3 0.97 1.08 0.39 <
3456 5 3 -5 -3 0.92 0.86 0.39 <
3457 5 -3 5 2 63.82 70.65 3.02 o
3458 5 3 -5 -2 64.47 70.53 3.27 o
3459 5 -3 5 1 63.24 69.49 3.00 o
3460 5 3 -5 -1 62.64 67.72 3.11 o
3461 6 3 5 0 2.40 2.91 0.70 o
3461 5 3 -5 0 2.40 2.91 0.70 o
3462 6 -3 -5 0 2.44 2.60 0.57 o
3462 5 -3 5 0 2.44 2.60 0.57 o
3463 5 3 -5 1 21.43 27.07 1.98 o
3464 5 -3 5 -1 22.86 27.59 1.80 o
3465 5 3 -5 2 22.97 23.15 1.72 o
3466 5 -3 6 9 3.46 2.50 0.56 o
3467 5 -3 6 8 4.09 2.83 0.58 o
3468 5 -3 6 7 1.00 1.32 0.44 o
3469 5 -3 6 6 11.77 13.23 1.37 o
3470 5 3 -6 -6 12.02 13.57 1.78 o
3471 5 3 -6 -5 17.86 18.53 1.72 o
3472 5 -3 6 5 18.16 17.49 1.50 o
3473 5 3 -6 -4 1.46 0.91 0.39 <
3474 5 -3 6 4 1.36 0.78 0.32 <
3475 5 -3 6 3 54.59 66.89 3.08 o
3476 5 3 -6 -3 54.60 56.70 3.11 o
3477 5 3 -6 -2 8.44 7.72 1.05 o
3478 5 -3 6 2 9.33 9.56 1.13 o
3479 5 3 -6 -1 9.30 8.76 1.16 o
3480 5 -3 6 1 8.42 6.96 0.93 o
3481 6 3 6 0 150.04 131.11 4.71 o
3481 5 3 -6 0 150.04 131.11 4.71 o
3482 6 -3 -6 0 150.01 127.34 4.19 o
3482 5 -3 6 0 150.01 127.34 4.19 o
3483 5 3 -6 1 1.31 1.38 0.45 o
3484 5 -3 7 9 0.96 0.53 0.20 <
3485 5 -3 7 8 5.71 5.31 0.92 o
3486 5 -3 7 7 7.65 13.00 1.50 o
3487 5 3 -7 -6 2.97 4.43 1.09 o
3488 5 -3 7 6 2.85 6.41 1.06 o
3489 5 -3 7 5 9.34 10.66 1.17 o
3490 5 3 -7 -5 9.40 10.50 1.33 o
3491 5 -3 7 4 52.22 51.09 2.70 o
3492 5 3 -7 -4 51.56 46.04 2.72 o
3493 5 -3 7 3 1.42 0.49 0.26 <
3494 5 3 -7 -3 1.44 1.19 0.46 <
3495 5 3 -7 -2 9.41 8.87 1.15 o
3496 5 -3 7 2 9.05 8.68 1.02 o
3497 5 -3 7 1 9.09 10.21 1.18 o
3498 5 3 -7 -1 8.82 9.15 1.26 o
3499 6 -3 -7 0 4.21 2.04 0.60 o
3499 5 -3 7 0 4.21 2.04 0.60 o
3500 6 3 7 0 4.23 2.65 0.68 o
3500 5 3 -7 0 4.23 2.65 0.68 o
3501 5 -3 8 9 1.55 2.24 0.83 <
3502 5 -3 8 8 6.52 8.28 1.32 o
3503 5 3 -8 -7 0.16 0.46 0.47 <
3504 5 -3 8 7 0.16 0.44 0.39 <
3505 5 -3 8 6 6.50 9.19 1.19 o
3506 5 3 -8 -6 6.28 5.28 1.27 o
3507 5 3 -8 -5 7.08 6.19 1.04 o
3508 5 -3 8 5 6.90 6.31 0.93 o
3509 5 -3 8 4 3.61 2.15 0.52 o
3510 5 3 -8 -4 3.60 1.73 0.58 <
3511 5 -3 8 3 42.94 35.21 2.29 o
3512 5 3 -8 -3 42.83 32.91 2.38 o
3513 5 3 -8 -2 10.48 10.97 1.46 o
3514 5 -3 8 2 9.83 9.45 1.17 o
3515 5 3 -8 -1 9.50 11.27 1.79 o
3516 5 -3 9 8 0.70 0.78 0.49 <
3517 5 -3 9 7 7.89 15.41 1.74 o
3518 5 3 -9 -7 7.84 10.65 1.84 o
3519 5 -3 9 6 1.94 3.48 0.81 o
3520 5 3 -9 -6 2.05 1.44 0.63 <
3521 5 -3 9 5 10.66 8.80 1.20 o
3522 5 3 -9 -5 10.11 7.40 1.15 o
3523 5 -3 9 4 9.68 7.62 1.07 o
3524 5 3 -9 -4 9.58 7.13 1.17 o
3525 5 3 -9 -3 0.28 0.42 0.39 <
3526 5 -3 9 3 0.28 0.26 0.20 <
3527 5 3 -9 -2 29.31 36.38 3.77 o
3528 5 3 -10 -7 0.01 0.58 0.40 <
3529 5 3 -10 -6 13.06 14.09 1.90 o
3530 5 3 -10 -5 2.91 1.82 0.73 <
3531 5 -4 0 -1 71.28 73.32 2.93 o
3532 5 -4 0 -2 1.30 0.81 0.29 <
3533 5 4 0 3 10.51 15.86 1.34 o
3534 5 -4 0 -3 10.51 15.93 1.20 o
3535 5 4 0 4 31.62 54.06 2.44 o
3535 4 -4 0 -4 31.62 54.06 2.44 o
3536 5 -4 0 -4 31.62 55.30 2.02 o
3536 4 4 0 4 31.62 55.30 2.02 o
3537 5 4 0 5 0.04 -0.10 0.02 <
3538 5 -4 1 1 52.07 51.57 3.11 o
3539 6 4 1 0 222.12 157.54 4.52 o
3539 5 4 -1 0 222.12 157.54 4.52 o
3540 6 -4 -1 0 222.04 156.86 4.19 o
3540 5 -4 1 0 222.04 156.86 4.19 o
3541 5 4 -1 1 8.47 9.48 1.12 o
3542 5 -4 1 -1 8.59 7.35 0.96 o
3543 5 4 -1 2 10.91 13.86 1.42 o
3544 5 -4 1 -2 10.67 17.16 1.35 o
3545 5 -4 -1 -2 10.91 13.38 1.23 o
3546 5 -4 1 -3 5.10 6.90 0.80 o
3547 5 -4 -1 -3 4.88 7.93 0.82 o
3548 5 4 -1 3 4.88 7.45 0.87 o
3549 5 4 -1 4 8.90 16.13 1.23 o
3549 4 -4 1 -4 8.90 16.13 1.23 o
3550 5 -4 -1 -4 8.90 12.65 0.88 o
3550 4 4 1 4 8.90 12.65 0.88 o
3551 5 4 -1 5 4.41 10.72 1.02 o
3552 5 4 -1 6 0.13 -0.02 0.16 <
3553 5 -4 2 2 81.78 64.99 3.23 o
3554 5 4 -2 -2 81.69 65.49 3.09 o
3555 5 4 -2 -1 7.49 5.13 0.97 o
3556 5 -4 2 1 8.01 4.75 0.97 o
3557 6 4 2 0 10.80 8.16 1.16 o
3557 5 4 -2 0 10.80 8.16 1.16 o
3558 6 -4 -2 0 10.83 7.04 0.99 o
3558 5 -4 2 0 10.83 7.04 0.99 o
3559 5 4 -2 1 28.19 33.40 2.04 o
3560 5 -4 2 -1 27.39 30.41 1.84 o
3561 5 4 -2 2 1.92 2.22 0.54 o
3562 5 -4 2 -2 1.89 2.67 0.61 o
3563 5 -4 2 -3 5.56 8.38 0.84 o
3564 5 -4 -2 -3 5.37 8.94 0.93 o
3565 5 4 -2 3 5.37 8.09 0.97 o
3566 5 -4 -2 -4 11.46 14.46 0.84 o
3566 4 4 2 4 11.46 14.46 0.84 o
3567 5 4 -2 4 11.46 21.80 1.56 o
3567 4 -4 2 -4 11.46 21.80 1.56 o
3568 5 4 -2 5 0.05 -0.17 0.17 <
3569 5 4 -2 6 1.28 5.20 0.89 o
3570 5 4 -3 -3 25.02 16.42 1.59 o
3571 5 -4 3 3 23.86 17.36 1.60 o
3572 5 4 -3 -2 0.03 -0.09 0.16 <
3573 5 -4 3 2 0.03 -0.17 0.11 <
3574 5 4 -3 -1 20.54 19.61 1.70 o
3575 5 -4 3 1 21.66 19.11 1.56 o
3576 6 4 3 0 5.27 4.13 0.78 o
3576 5 4 -3 0 5.27 4.13 0.78 o
3577 6 -4 -3 0 5.07 4.13 0.77 o
3577 5 -4 3 0 5.07 4.13 0.77 o
3578 5 -4 3 -1 1.28 1.09 0.41 <
3579 5 4 -3 1 1.38 1.45 0.44 o
3580 5 -4 3 -2 12.72 19.44 1.55 o
3581 5 4 -3 2 12.55 17.22 1.52 o
3582 5 -4 -3 -3 10.37 11.83 0.94 o
3583 5 -4 3 -3 10.45 13.40 1.24 o
3584 5 4 -3 3 10.37 15.26 1.41 o
3585 5 4 -3 4 2.38 3.70 0.74 o
3585 4 -4 3 -4 2.38 3.70 0.74 o
3586 5 -4 -3 -4 2.38 2.36 0.29 o
3586 4 4 3 4 2.38 2.36 0.29 o
3587 5 4 -3 5 0.77 1.52 0.51 <
3588 5 4 -3 6 1.46 5.49 1.22 o
3589 5 -4 4 5 11.17 8.65 1.15 o
3590 5 -4 4 4 0.03 -0.09 0.18 <
3591 5 4 -4 -4 0.08 0.21 0.20 <
3592 5 4 -4 -3 2.76 2.26 0.59 o
3593 5 -4 4 3 2.92 3.11 0.70 o
3594 5 4 -4 -2 72.05 70.52 3.35 o
3595 5 -4 4 2 71.99 71.44 3.28 o
3596 5 4 -4 -1 3.28 2.70 0.69 o
3597 5 -4 4 1 3.08 2.58 0.66 o
3598 6 -4 -4 0 0.25 -0.01 0.20 <
3598 5 -4 4 0 0.25 -0.01 0.20 <
3599 6 4 4 0 0.32 -0.01 0.14 <
3599 5 4 -4 0 0.32 -0.01 0.14 <
3600 5 -4 4 -1 10.42 15.70 1.46 o
3601 5 4 -4 1 9.83 12.25 1.42 o
3602 5 -4 4 -2 4.94 6.33 0.95 o
3603 5 4 -4 2 4.86 7.26 1.11 o
3604 5 4 -4 3 3.85 5.24 0.86 o
3605 5 4 -4 4 3.81 6.68 0.95 o
3605 4 -4 4 -4 3.81 6.68 0.95 o
3606 5 -4 -4 -4 3.81 4.13 0.37 o
3606 4 4 4 4 3.81 4.13 0.37 o
3607 5 4 -4 5 0.09 -0.11 0.30 <
3608 5 -4 5 7 6.03 9.08 1.31 o
3609 5 -4 5 6 14.87 13.18 1.48 o
3610 5 4 -5 -5 3.65 1.79 0.61 <
3611 5 -4 5 5 3.57 1.61 0.52 o
3612 5 4 -5 -4 12.08 9.90 1.34 o
3613 5 -4 5 4 12.30 10.45 1.28 o
3614 5 4 -5 -3 25.91 24.12 2.09 o
3615 5 -4 5 3 27.33 28.58 2.35 o
3616 5 4 -5 -2 0.00 -0.17 0.20 <
3617 5 -4 5 2 0.00 0.12 0.20 <
3618 5 -4 5 1 25.02 27.15 2.09 o
3619 5 4 -5 -1 26.38 27.43 2.26 o
3620 6 -4 -5 0 33.88 27.52 2.04 o
3620 5 -4 5 0 33.88 27.52 2.04 o
3621 6 4 5 0 33.72 26.80 2.29 o
3621 5 4 -5 0 33.72 26.80 2.29 o
3622 5 4 -5 1 2.91 2.67 0.71 o
3623 5 -4 5 -1 2.97 2.95 0.64 o
3624 5 -4 5 -2 11.80 21.00 1.77 o
3625 5 4 -5 2 11.88 18.31 1.72 o
3626 5 4 -5 3 5.35 5.84 0.96 o
3627 5 -4 6 8 6.02 5.88 1.07 o
3628 5 -4 6 7 4.96 7.96 1.20 o
3629 5 -4 6 6 0.53 0.19 0.16 <
3630 5 4 -6 -6 0.47 0.46 0.54 <
3631 5 4 -6 -5 33.73 29.11 2.36 o
3632 5 -4 6 5 33.86 31.84 2.34 o
3633 5 4 -6 -4 15.29 17.20 1.80 o
3634 5 -4 6 4 15.38 17.82 1.76 o
3635 5 4 -6 -3 3.67 3.04 0.74 o
3636 5 -4 6 3 3.82 3.89 0.82 o
3637 5 -4 6 2 23.69 26.46 2.16 o
3638 5 4 -6 -2 23.72 22.91 2.17 o
3639 5 4 -6 -1 3.73 3.35 0.78 o
3640 5 -4 6 1 3.61 3.69 0.78 o
3641 6 -4 -6 0 42.26 35.49 2.30 o
3641 5 -4 6 0 42.26 35.49 2.30 o
3642 6 4 6 0 42.18 37.77 2.68 o
3642 5 4 -6 0 42.18 37.77 2.68 o
3643 5 -4 6 -1 29.39 37.90 2.41 o
3644 5 4 -6 1 29.50 34.71 2.55 o
3645 5 4 -6 2 0.45 0.18 0.06 o
3646 5 -4 7 9 5.04 4.78 0.91 o
3647 5 -4 7 8 2.89 1.58 0.50 o
3648 5 -4 7 7 1.42 0.85 0.43 <
3649 5 4 -7 -6 5.42 3.44 0.87 o
3650 5 -4 7 6 5.38 4.58 0.91 o
3651 5 -4 7 5 2.54 2.03 0.66 o
3652 5 4 -7 -5 2.52 1.30 0.63 <
3653 5 4 -7 -4 39.10 38.18 2.92 o
3654 5 -4 7 4 39.17 42.07 2.85 o
3655 5 -4 7 3 26.89 30.06 2.38 o
3656 5 4 -7 -3 27.46 27.81 2.40 o
3657 5 -4 7 2 0.31 -0.24 0.22 <
3658 5 4 -7 -2 0.31 0.21 0.19 <
3659 5 -4 7 1 26.98 27.38 2.12 o
3660 5 4 -7 -1 26.45 27.26 2.36 o
3661 6 -4 -7 0 106.95 84.13 3.78 o
3661 5 -4 7 0 106.95 84.13 3.78 o
3662 6 4 7 0 106.92 81.20 4.18 o
3662 5 4 -7 0 106.92 81.20 4.18 o
3663 5 4 -7 1 2.20 1.02 0.41 <
3664 5 -4 7 -1 2.19 1.06 0.39 <
3665 5 -4 8 9 0.22 0.41 0.24 <
3666 5 -4 8 8 5.82 6.68 1.18 o
3667 5 4 -8 -7 4.95 9.42 1.77 o
3668 5 -4 8 7 5.02 6.64 1.27 o
3669 5 4 -8 -6 0.15 0.22 0.27 <
3670 5 -4 8 6 0.13 0.49 0.39 <
3671 5 4 -8 -5 16.56 15.15 1.83 o
3672 5 -4 8 5 16.66 16.42 1.78 o
3673 5 -4 8 4 10.29 9.33 1.29 o
3674 5 4 -8 -4 10.44 5.81 1.15 o
3675 5 -4 8 3 2.78 1.55 0.57 <
3676 5 4 -8 -3 2.83 1.58 0.56 <
3677 5 -4 8 2 18.05 16.50 1.68 o
3678 5 4 -8 -2 18.06 15.37 1.82 o
3679 5 4 -8 -1 2.68 0.43 0.58 <
3680 5 -4 8 1 2.75 2.22 0.66 o
3681 5 -4 9 9 1.54 0.66 0.47 <
3682 5 -4 9 8 0.86 -0.20 0.39 <
3683 5 -4 9 7 4.92 5.19 1.05 o
3684 5 4 -9 -7 5.07 3.85 1.09 o
3685 5 -4 9 6 6.36 5.71 1.09 o
3686 5 4 -9 -6 6.21 4.56 1.12 o
3687 5 4 -9 -5 0.30 0.12 0.23 <
3688 5 -4 9 5 0.28 0.11 0.25 <
3689 5 -5 0 -1 1.13 1.47 0.51 <
3690 5 -5 0 -2 5.86 9.45 1.27 o
3691 5 -5 0 -3 0.12 0.67 0.35 <
3692 5 -5 0 -4 1.26 2.50 0.46 o
3693 6 -5 -1 0 40.42 38.43 2.39 o
3693 5 -5 1 0 40.42 38.43 2.39 o
3694 5 5 -1 1 8.36 7.49 1.30 o
3695 5 -5 1 -1 8.42 7.63 1.25 o
3696 5 -5 -1 -2 4.51 5.02 0.93 o
3697 5 -5 1 -2 4.37 7.36 1.10 o
3698 5 5 -1 2 4.51 5.02 0.97 o
3699 5 5 -1 3 4.54 11.39 1.29 o
3700 5 -5 1 -3 4.72 10.42 1.27 o
3701 5 -5 -1 -3 4.54 12.89 1.40 o
3702 5 -5 -1 -4 2.11 3.53 0.58 o
3703 5 -5 1 -4 2.10 3.23 0.51 o
3704 5 5 -1 4 2.11 3.35 0.71 o
3705 5 5 -1 5 0.15 1.37 0.41 o
3706 5 5 -2 -1 26.91 23.10 2.19 o
3707 5 -5 2 1 27.65 24.46 2.18 o
3708 6 -5 -2 0 6.03 5.11 0.89 o
3708 5 -5 2 0 6.03 5.11 0.89 o
3709 6 5 2 0 6.01 5.17 0.99 o
3709 5 5 -2 0 6.01 5.17 0.99 o
3710 5 5 -2 1 4.74 4.83 0.93 o
3711 5 -5 2 -1 4.52 5.00 0.99 o
3712 5 -5 2 -2 5.26 8.44 1.27 o
3713 5 5 -2 2 5.01 6.94 1.09 o
3714 5 -5 -2 -3 0.71 0.53 0.22 <
3715 5 -5 2 -3 0.74 0.36 0.24 <
3716 5 5 -2 3 0.71 1.03 0.42 <
3717 5 -5 2 -4 2.64 5.63 0.76 o
3718 5 -5 -2 -4 2.57 5.14 0.66 o
3719 5 5 -2 4 2.57 6.82 1.02 o
3720 5 5 -2 5 0.76 8.68 1.22 o
3721 5 5 -2 6 0.03 0.03 0.24 <
3722 5 5 -3 -3 40.56 33.76 2.53 o
3723 5 -5 3 3 40.05 34.13 2.50 o
3724 5 5 -3 -2 38.95 32.80 2.52 o
3725 5 -5 3 2 39.48 33.71 2.53 o
3726 5 5 -3 -1 0.14 0.12 0.23 <
3727 5 -5 3 1 0.15 0.09 0.15 <
3728 6 5 3 0 18.65 14.56 1.71 o
3728 5 5 -3 0 18.65 14.56 1.71 o
3729 6 -5 -3 0 18.85 15.48 1.77 o
3729 5 -5 3 0 18.85 15.48 1.77 o
3730 5 5 -3 1 6.48 9.94 1.30 o
3731 5 -5 3 -1 6.57 9.36 1.24 o
3732 5 5 -3 2 0.97 1.19 0.54 <
3733 5 -5 3 -2 0.96 1.39 0.54 <
3734 5 5 -3 3 1.67 2.85 0.67 o
3735 5 -5 3 -3 1.72 3.41 0.72 o
3736 5 5 -3 4 0.17 0.23 0.28 <
3737 5 -5 -3 -4 0.17 -0.12 0.19 <
3738 5 5 -3 5 0.92 7.74 1.33 o
3739 5 5 -3 6 0.87 6.86 1.51 o
3740 5 5 -4 -4 19.75 14.77 1.68 o
3741 5 -5 4 4 20.33 15.75 1.68 o
3742 5 -5 4 3 2.17 1.89 0.62 o
3743 5 5 -4 -3 2.20 2.07 0.64 o
3744 5 -5 4 2 1.64 1.48 0.57 <
3745 5 5 -4 -2 1.60 1.78 0.66 <
3746 5 5 -4 -1 17.60 18.93 2.00 o
3747 5 -5 4 1 17.07 19.04 1.93 o
3748 6 5 4 0 2.46 0.35 0.27 <
3748 5 5 -4 0 2.46 0.35 0.27 <
3749 6 -5 -4 0 2.46 0.36 0.24 <
3749 5 -5 4 0 2.46 0.36 0.24 <
3750 5 -5 4 -1 10.77 16.03 1.68 o
3751 5 5 -4 1 10.66 12.62 1.65 o
3752 5 -5 4 -2 13.20 20.60 1.78 o
3753 5 5 -4 2 13.32 20.75 2.02 o
3754 5 -5 4 -3 0.59 0.70 0.36 <
3755 5 5 -4 3 0.61 0.87 0.47 <
3756 5 -5 -4 -4 0.87 0.62 0.18 o
3757 5 5 -4 4 0.87 1.11 0.58 <
3758 5 5 -4 5 0.64 4.40 1.13 o
3759 5 -5 5 6 8.41 6.55 1.17 o
3760 5 -5 5 5 12.68 10.78 1.41 o
3761 5 5 -5 -5 12.78 9.58 1.45 o
3762 5 -5 5 4 1.07 0.93 0.43 <
3763 5 5 -5 -4 1.08 0.55 0.34 <
3764 5 5 -5 -3 16.74 17.21 1.92 o
3765 5 -5 5 3 17.50 17.95 1.91 o
3766 5 5 -5 -2 18.34 20.41 2.14 o
3767 5 -5 5 2 17.55 17.53 1.91 o
3768 5 5 -5 -1 1.11 0.82 0.45 <
3769 5 -5 5 1 1.13 0.69 0.44 <
3770 6 -5 -5 0 31.71 29.65 2.38 o
3770 5 -5 5 0 31.71 29.65 2.38 o
3771 6 5 5 0 31.81 31.08 2.60 o
3771 5 5 -5 0 31.81 31.08 2.60 o
3772 5 -5 5 -1 6.61 9.82 1.35 o
3773 5 5 -5 1 6.68 10.00 1.45 o
3774 5 -5 5 -2 1.62 2.65 0.70 o
3775 5 5 -5 2 1.56 1.41 0.61 <
3776 5 5 -5 3 3.03 6.06 1.22 o
3777 5 5 -5 4 0.84 1.09 0.63 <
3778 5 -5 6 7 2.44 2.27 0.79 <
3779 5 -5 6 6 1.68 0.31 0.11 <
3780 5 5 -6 -6 1.80 0.94 0.58 <
3781 5 -5 6 5 4.18 2.36 0.69 o
3782 5 5 -6 -5 4.22 1.79 0.62 <
3783 5 5 -6 -4 19.80 16.69 1.98 o
3784 5 -5 6 4 19.86 21.40 2.21 o
3785 5 5 -6 -3 6.25 5.76 1.16 o
3786 5 -5 6 3 5.92 4.76 0.96 o
3787 5 5 -6 -2 6.08 5.08 1.16 o
3788 5 -5 6 2 6.40 6.60 1.19 o
3789 5 -5 6 1 19.29 20.26 2.14 o
3790 5 5 -6 -1 19.38 19.34 2.22 o
3791 6 -5 -6 0 11.19 7.61 1.17 o
3791 5 -5 6 0 11.19 7.61 1.17 o
3792 6 5 6 0 11.22 7.16 1.41 o
3792 5 5 -6 0 11.22 7.16 1.41 o
3793 5 -5 6 -1 1.35 1.08 0.45 <
3794 5 5 -6 1 1.25 1.09 0.50 <
3795 5 -5 6 -2 1.86 2.31 0.58 o
3796 5 5 -6 2 1.98 1.64 0.53 o
3797 5 -5 7 8 3.67 2.94 0.89 o
3798 5 -5 7 7 0.81 0.82 0.47 <
3799 5 5 -7 -6 3.82 2.15 0.68 o
3800 5 -5 7 6 3.85 1.96 0.69 <
3801 5 5 -7 -5 7.28 3.90 1.00 o
3802 5 -5 7 5 7.40 6.39 1.19 o
3803 5 5 -7 -4 0.37 0.09 0.38 <
3804 5 -5 7 4 0.36 0.05 0.08 <
3805 5 5 -7 -3 5.65 5.30 1.11 o
3806 5 -5 7 3 5.42 4.95 1.05 o
3807 5 -5 7 2 5.88 90.58 5.34 o
3808 5 5 -7 -2 5.64 139.58 8.09 o
3809 5 -5 7 1 0.29 0.04 0.26 <
3810 5 5 -7 -1 0.29 0.28 0.31 <
3811 6 5 7 0 17.44 14.00 1.98 o
3811 5 5 -7 0 17.44 14.00 1.98 o
3812 5 -6 0 -1 1.39 1.45 0.59 <
3813 5 -6 0 -2 2.07 2.51 0.80 o
3814 5 -6 0 -3 0.58 1.14 0.52 <
3815 5 -6 0 -4 0.21 0.04 0.21 <
3816 6 -6 -1 0 0.64 -0.02 0.28 <
3816 5 -6 1 0 0.64 -0.02 0.28 <
3817 5 -6 1 -1 1.70 1.45 0.59 <
3818 5 -6 -1 -2 1.23 1.71 0.57 <
3819 5 -6 1 -2 1.26 1.68 0.72 <
3820 5 -6 1 -3 0.46 1.25 0.70 <
3821 5 -6 -1 -3 0.45 0.96 0.37 <
3822 5 -6 1 -4 0.39 0.76 0.31 <
3823 5 -6 -1 -4 0.41 0.52 0.21 <
3824 5 -6 2 1 3.45 4.19 1.08 o
3825 6 6 2 0 29.18 24.33 2.47 o
3825 5 6 -2 0 29.18 24.33 2.47 o
3826 6 -6 -2 0 29.24 27.63 2.29 o
3826 5 -6 2 0 29.24 27.63 2.29 o
3827 5 6 -2 1 0.28 0.33 0.33 <
3828 5 -6 2 -1 0.31 0.26 0.31 <
3829 5 6 -2 2 1.41 1.19 0.54 <
3830 5 -6 2 -2 1.35 1.86 0.78 <
3831 5 -6 -2 -3 1.76 2.21 0.50 o
3832 5 -6 2 -3 1.74 3.97 0.92 o
3833 5 6 -2 3 1.76 3.13 0.95 o
3834 5 -6 2 -4 0.05 0.13 0.15 <
3835 5 -6 -2 -4 0.05 -0.09 0.13 <
3836 5 6 -2 5 0.33 0.65 0.44 <
3837 5 6 -3 -2 5.56 6.04 1.17 o
3838 5 -6 3 2 5.49 6.32 1.19 o
3839 5 -6 3 1 7.97 7.73 1.25 o
3840 5 6 -3 -1 8.17 9.49 1.46 o
3841 6 6 3 0 16.94 14.13 1.87 o
3841 5 6 -3 0 16.94 14.13 1.87 o
3842 6 -6 -3 0 16.93 15.15 1.74 o
3842 5 -6 3 0 16.93 15.15 1.74 o
3843 5 6 -3 1 6.05 9.37 1.52 o
3844 5 -6 3 -1 6.04 10.93 1.52 o
3845 5 -6 3 -2 2.28 3.21 0.99 o
3846 5 6 -3 2 2.31 2.37 0.71 o
3847 5 -6 3 -3 0.31 0.00 0.17 <
3848 5 6 -3 3 0.30 0.03 0.03 <
3849 5 -6 3 -4 1.06 1.43 0.53 <
3850 5 6 -3 4 1.04 2.55 0.94 <
3851 5 6 -3 5 0.04 -0.07 0.32 <
3852 5 6 -4 -3 16.31 13.56 1.79 o
3853 5 -6 4 3 16.31 14.70 1.85 o
3854 5 -6 4 2 6.53 4.23 0.94 o
3855 5 6 -4 -2 6.56 4.14 0.96 o
3856 5 -6 4 1 3.23 2.49 0.76 o
3857 5 6 -4 -1 3.28 2.48 0.68 o
3858 6 6 4 0 19.57 18.29 2.09 o
3858 5 6 -4 0 19.57 18.29 2.09 o
3859 6 -6 -4 0 19.55 17.74 2.02 o
3859 5 -6 4 0 19.55 17.74 2.02 o
3860 5 6 -4 1 0.13 0.30 0.38 <
3861 5 -6 4 -1 0.12 -0.27 0.26 <
3862 5 6 -4 2 1.10 1.70 0.68 <
3863 5 -6 4 -2 1.14 2.91 0.80 o
3864 5 -6 4 -3 0.64 1.95 0.62 o
3865 5 6 -4 3 0.64 1.35 0.59 <
3866 5 6 -4 4 0.11 0.31 0.75 <
3867 5 6 -4 5 0.96 4.52 1.64 <
3868 5 -6 5 5 7.53 5.24 0.99 o
3869 5 6 -5 -4 6.50 4.14 0.92 o
3870 5 -6 5 4 6.51 5.94 1.17 o
3871 5 -6 5 3 2.17 1.20 0.57 <
3872 5 6 -5 -3 2.17 0.21 0.47 <
3873 5 -6 5 2 6.26 7.21 1.33 o
3874 5 6 -5 -2 6.26 6.29 1.46 o
3875 5 6 -5 -1 6.87 6.47 1.34 o
3876 5 -6 5 1 7.08 6.62 1.33 o
3877 6 6 5 0 0.83 -0.02 0.04 <
3877 5 6 -5 0 0.83 -0.02 0.04 <
3878 6 -6 -5 0 0.85 0.13 0.19 <
3878 5 -6 5 0 0.85 0.13 0.19 <
3879 5 6 -5 1 1.49 1.88 0.72 <
3880 5 -6 5 -1 1.54 1.92 0.74 <
3881 5 6 -5 2 0.81 0.20 0.23 <
3882 5 -6 5 -2 0.81 1.12 0.50 <
3883 5 -6 6 6 4.83 3.18 0.91 o
3884 5 -6 6 5 1.45 0.65 0.39 <
3885 5 6 -6 -5 1.33 0.41 0.31 <
3886 5 -6 6 4 0.31 0.18 0.14 <
3887 5 6 -6 -4 0.36 0.32 0.36 <
3888 5 -6 6 3 5.85 6.17 1.26 o
3889 5 6 -6 -3 5.85 5.55 1.26 o
3890 5 6 -6 -2 0.26 0.05 0.23 <
3891 5 -6 6 2 0.30 -0.54 0.49 <
3892 5 6 -6 -1 1.10 0.64 0.60 <
3893 5 -7 0 -2 0.14 0.37 0.45 <
3894 5 -7 0 -3 0.24 0.52 0.36 <
3895 5 -7 1 -1 0.56 0.32 0.35 <
3896 5 -7 1 -2 0.83 0.39 0.49 <
3897 5 -7 1 -3 0.14 0.33 0.33 <
3898 5 -7 -1 -3 0.14 0.05 0.17 <
3899 6 -7 -2 0 4.97 5.62 1.30 o
3899 5 -7 2 0 4.97 5.62 1.30 o
3900 5 -7 2 -1 1.10 1.26 0.54 <
3901 5 -7 2 -2 0.30 0.26 0.50 <
3902 5 -7 2 -3 0.45 0.69 0.50 <
3903 5 -7 2 -4 0.13 0.16 0.09 <
3904 5 -7 3 2 0.44 0.46 0.20 <
3905 5 -7 3 1 3.12 2.07 0.77 <
3906 5 7 -3 -1 3.05 2.84 0.92 o
3907 6 -7 -3 0 3.03 2.20 0.68 o
3907 5 -7 3 0 3.03 2.20 0.68 o
3908 6 7 3 0 3.07 1.77 0.78 <
3908 5 7 -3 0 3.07 1.77 0.78 <
3909 5 7 -3 1 0.12 0.54 0.52 <
3910 5 -7 3 -1 0.11 -0.26 0.22 <
3911 5 7 -3 2 0.38 0.25 0.41 <
3912 5 -7 3 -2 0.34 1.47 0.80 <
3913 5 7 -3 3 0.36 0.49 0.41 <
3914 5 -7 3 -3 0.36 0.36 0.47 <
3915 5 7 -3 4 0.19 2.03 0.93 <
3916 5 -7 3 -4 0.19 0.34 0.16 <
3917 5 7 -3 5 0.13 0.68 0.58 <
3918 5 -7 4 3 0.10 0.06 0.12 <
3919 5 7 -4 -3 0.08 0.22 0.29 <
3920 5 -7 4 2 5.28 5.46 1.18 o
3921 5 7 -4 -2 5.19 3.59 0.99 o
3922 5 -7 4 1 0.26 0.64 0.51 <
3923 5 7 -4 -1 0.23 -0.13 0.07 <
3924 6 7 4 0 1.29 0.80 0.42 <
3924 5 7 -4 0 1.29 0.80 0.42 <
3925 6 -7 -4 0 1.30 1.24 0.63 <
3925 5 -7 4 0 1.30 1.24 0.63 <
3926 5 7 -4 1 0.69 1.15 0.60 <
3927 5 -8 1 -2 0.10 0.38 0.39 <
3928 6 -8 -2 0 0.10 -0.60 0.66 <
3928 5 -8 2 0 0.10 -0.60 0.66 <
3929 5 -8 2 -1 0.08 -0.18 0.34 <
3930 6 0 1 1 710.60 764.70 10.20 o
3931 6 0 -1 -1 710.63 758.44 10.22 o
3932 6 0 -2 -1 0.34 0.69 0.17 o
3933 6 0 2 1 0.24 0.42 0.12 o
3934 6 0 2 2 241.72 218.77 4.76 o
3935 6 0 -2 -2 241.61 217.21 4.76 o
3936 6 0 -2 -3 241.85 240.35 5.84 o
3937 6 0 3 1 17.53 20.70 1.26 o
3938 6 0 -3 -1 17.62 19.56 1.17 o
3939 6 0 3 2 473.97 542.12 9.68 o
3940 6 0 -3 -2 473.95 550.91 9.44 o
3941 6 0 3 3 2.64 1.87 0.49 o
3942 6 0 -3 -3 2.63 1.17 0.39 <
3943 6 0 -3 -4 0.81 0.44 0.14 o
3944 6 0 4 1 4.17 5.11 0.71 o
3945 6 0 -4 -1 4.06 5.15 0.63 o
3946 6 0 -4 -2 9.13 11.65 1.08 o
3947 6 0 4 2 9.17 12.67 1.16 o
3948 6 0 -4 -3 163.34 164.60 5.10 o
3949 6 0 4 3 163.25 151.98 5.07 o
3950 6 0 -4 -4 1.54 1.07 0.46 <
3951 6 0 4 4 1.53 0.77 0.36 <
3952 6 0 -4 -5 1.04 0.28 0.16 <
3953 6 0 5 2 170.70 171.59 5.31 o
3954 6 0 -5 -2 170.66 174.74 5.01 o
3955 6 0 -5 -3 1.32 1.09 0.33 o
3956 6 0 5 3 1.31 1.07 0.44 <
3957 6 0 5 4 16.87 13.16 1.65 o
3958 6 0 -5 -4 16.95 15.00 1.78 o
3959 6 0 5 5 19.28 14.24 1.96 o
3960 6 0 -5 -5 19.28 16.31 1.82 o
3961 6 0 -5 -6 12.17 11.10 1.67 o
3962 6 0 6 2 68.40 70.32 3.45 o
3963 6 0 -6 -2 68.44 67.87 3.16 o
3964 6 0 -6 -3 81.45 74.75 3.63 o
3965 6 0 6 3 81.38 69.69 3.70 o
3966 6 0 -6 -4 15.77 14.94 1.72 o
3967 6 0 6 4 15.79 11.76 1.65 o
3968 6 0 6 5 64.45 56.63 3.73 o
3969 6 0 -6 -5 64.41 54.33 3.64 o
3970 6 0 -6 -6 9.59 2.90 0.78 o
3971 6 0 6 6 9.62 5.28 0.96 o
3972 6 0 7 2 11.01 7.36 1.13 o
3973 6 0 -7 -3 34.79 33.14 2.42 o
3974 6 0 7 3 34.79 31.90 2.52 o
3975 6 0 -7 -4 191.71 169.76 6.10 o
3976 6 0 7 4 191.92 161.08 6.26 o
3977 6 0 -7 -5 45.49 41.81 3.25 o
3978 6 0 7 5 45.56 37.69 3.09 o
3979 6 0 -7 -6 6.68 2.40 0.83 <
3980 6 0 7 6 6.66 3.53 1.10 o
3981 6 0 8 3 98.81 89.15 4.70 o
3982 6 0 -8 -3 98.80 91.53 4.32 o
3983 6 0 8 4 1.33 1.42 0.47 o
3984 6 0 -8 -4 1.32 0.49 0.27 <
3985 6 0 -8 -5 19.85 17.89 2.08 o
3986 6 0 8 5 19.88 15.74 2.06 o
3987 6 0 9 3 0.26 -0.21 0.21 <
3988 6 0 -9 -4 11.80 9.37 1.43 o
3989 6 0 9 4 11.72 7.63 1.45 o
3990 6 1 1 1 591.12 674.32 10.20 o
3990 1 -1 -1 -1 591.12 674.32 10.20 o
3991 6 -1 -1 -1 591.72 672.98 10.23 o
3991 1 1 1 1 591.72 672.98 10.23 o
3992 6 1 -2 -3 221.69 236.76 5.13 o
3993 6 1 -2 -2 735.31 895.04 12.33 o
3994 6 -1 2 2 735.68 932.32 12.38 o
3995 6 -1 -2 -1 1248.22 1576.97 20.99 o
3995 1 1 2 1 1248.22 1576.97 20.99 o
3996 6 1 2 1 1248.04 1513.42 21.01 o
3996 1 -1 -2 -1 1248.04 1513.42 21.01 o
3997 6 -1 -2 -2 214.24 235.36 5.83 o
3998 6 1 2 2 218.87 242.27 5.87 o
3999 6 1 -3 -4 85.40 70.14 3.18 o
4000 6 -1 3 3 299.02 304.85 6.26 o
4001 6 1 -3 -3 299.28 298.98 6.16 o
4002 6 1 -3 -2 20.38 27.18 1.33 o
4003 6 -1 3 2 20.71 30.67 1.46 o
4004 6 1 3 1 34.94 49.67 2.38 o
4004 1 -1 -3 -1 34.94 49.67 2.38 o
4005 6 -1 -3 -1 35.05 53.31 2.38 o
4005 1 1 3 1 35.05 53.31 2.38 o
4006 6 1 3 2 281.72 295.86 7.11 o
4007 6 -1 -3 -2 281.21 299.82 6.99 o
4008 6 -1 -3 -3 77.71 75.05 3.62 o
4009 6 1 3 3 80.26 79.86 3.76 o
4010 6 1 -4 -5 21.31 18.29 1.93 o
4011 6 -1 4 4 57.19 48.06 2.94 o
4012 6 1 -4 -4 56.63 54.86 2.91 o
4013 6 -1 4 3 68.55 71.87 2.88 o
4014 6 1 -4 -3 67.27 61.31 2.64 o
4015 6 1 -4 -2 382.60 440.62 7.83 o
4016 6 -1 4 2 380.31 446.81 8.10 o
4017 6 1 4 1 616.26 861.69 14.61 o
4017 1 -1 -4 -1 616.26 861.69 14.61 o
4018 6 -1 -4 -1 615.52 857.18 14.07 o
4018 1 1 4 1 615.52 857.18 14.07 o
4019 6 1 4 2 67.29 69.95 3.38 o
4020 6 -1 -4 -2 68.53 68.66 3.19 o
4021 6 -1 -4 -3 53.38 58.26 3.30 o
4022 6 1 4 3 52.86 54.42 3.21 o
4023 6 1 4 4 19.95 21.31 2.23 o
4024 6 -1 -4 -4 20.99 20.41 2.26 o
4025 6 1 -5 -6 40.93 31.15 2.66 o
4026 6 -1 5 5 11.57 8.94 1.36 o
4027 6 1 -5 -5 11.26 8.39 1.21 o
4028 6 -1 5 4 84.05 75.58 3.62 o
4029 6 1 -5 -4 80.95 80.05 3.47 o
4030 6 -1 5 3 130.92 139.54 4.58 o
4031 6 1 -5 -3 131.88 143.58 4.43 o
4032 6 -1 5 2 65.41 73.50 3.03 o
4033 6 1 5 1 109.32 134.80 4.76 o
4033 1 -1 -5 -1 109.32 134.80 4.76 o
4034 6 -1 -5 -1 109.09 138.29 4.58 o
4034 1 1 5 1 109.09 138.29 4.58 o
4035 6 -1 -5 -2 126.41 145.59 5.07 o
4036 6 1 5 2 127.43 141.15 5.16 o
4037 6 -1 -5 -3 85.92 80.20 4.12 o
4038 6 1 5 3 82.82 77.66 4.12 o
4039 6 1 5 4 11.06 10.46 2.02 o
4040 6 -1 -5 -4 11.36 10.96 1.83 o
4041 6 -1 -5 -5 36.77 27.69 2.89 o
4042 6 1 5 5 36.95 34.04 3.21 o
4043 6 1 -6 -7 10.11 8.48 1.62 o
4044 6 1 -6 -6 3.45 1.51 0.67 <
4045 6 -1 6 6 3.62 2.04 0.84 <
4046 6 -1 6 5 98.04 87.72 4.30 o
4047 6 1 -6 -5 97.11 90.88 4.13 o
4048 6 1 -6 -4 24.00 23.54 1.87 o
4049 6 -1 6 4 24.07 21.17 1.96 o
4050 6 1 -6 -3 47.53 44.40 2.44 o
4051 6 -1 6 3 49.72 47.14 2.78 o
4052 6 -1 6 2 160.13 171.25 5.22 o
4053 6 -1 -6 -1 270.02 340.99 8.22 o
4053 1 1 6 1 270.02 340.99 8.22 o
4054 6 1 6 1 269.13 329.74 8.75 o
4054 1 -1 -6 -1 269.13 329.74 8.75 o
4055 6 -1 -6 -2 47.52 49.21 2.95 o
4056 6 1 6 2 45.40 47.37 3.12 o
4057 6 -1 -6 -3 23.05 24.79 2.34 o
4058 6 1 6 3 22.94 24.82 2.37 o
4059 6 -1 -6 -4 91.67 82.97 4.60 o
4060 6 1 6 4 90.79 82.48 4.70 o
4061 6 -1 -6 -5 3.51 1.02 0.29 o
4062 6 1 6 5 3.34 2.21 1.01 <
4063 6 1 -7 -7 1.11 1.22 0.78 <
4064 6 1 -7 -6 14.73 12.40 1.66 o
4065 6 -1 7 6 15.05 8.51 1.53 o
4066 6 1 -7 -5 5.26 4.85 0.98 o
4067 6 -1 7 5 5.23 3.22 0.89 o
4068 6 -1 7 4 56.94 58.28 3.51 o
4069 6 1 -7 -4 58.05 58.44 3.16 o
4070 6 -1 7 3 19.35 20.64 1.89 o
4071 6 -1 -7 -2 19.58 19.64 1.89 o
4072 6 1 7 2 19.64 18.60 1.98 o
4073 6 1 7 3 55.84 52.92 3.65 o
4074 6 -1 -7 -3 54.82 52.13 3.27 o
4075 6 1 7 4 4.86 2.76 0.92 o
4076 6 -1 -7 -4 4.82 3.72 0.96 o
4077 6 1 7 5 13.78 10.55 1.75 o
4078 6 -1 -7 -5 14.07 10.68 1.63 o
4079 6 -1 8 7 9.94 5.32 1.37 o
4080 6 1 -8 -6 2.18 0.09 0.28 <
4081 6 -1 8 6 2.11 0.73 0.48 <
4082 6 1 -8 -5 38.87 36.86 2.75 o
4083 6 -1 8 5 38.09 35.55 2.92 o
4084 6 -1 8 4 35.78 30.17 2.60 o
4085 6 1 -8 -4 35.86 31.39 2.44 o
4086 6 -1 8 3 34.22 30.20 2.65 o
4087 6 -1 -8 -2 31.11 30.82 2.50 o
4088 6 1 8 2 32.66 31.61 2.78 o
4089 6 -1 -8 -3 36.62 29.10 2.50 o
4090 6 1 8 3 36.73 29.34 2.83 o
4091 6 -1 -8 -4 37.97 31.64 2.82 o
4092 6 1 8 4 38.79 26.13 2.77 o
4093 6 -1 9 6 16.89 11.82 1.96 o
4094 6 1 -9 -6 17.31 11.41 1.74 o
4095 6 1 -9 -5 5.07 2.49 0.68 o
4096 6 -1 9 5 4.87 2.56 0.78 o
4097 6 -1 9 4 25.18 21.67 2.24 o
4098 6 1 9 3 23.98 19.43 2.33 o
4099 6 -1 -9 -3 23.52 21.58 2.27 o
4100 6 -1 10 4 9.50 5.17 1.40 o
4101 6 2 0 -1 89.02 90.04 1.93 o
4102 6 -2 0 1 89.02 84.69 1.92 o
4103 6 -2 -1 1 546.26 499.98 7.67 o
4104 6 2 1 -1 546.25 502.82 7.75 o
4105 6 -2 -1 -1 193.51 227.01 5.64 o
4106 6 2 1 1 199.86 231.05 5.69 o
4107 6 2 -2 -3 160.91 178.91 3.50 o
4108 6 -2 -2 1 571.28 589.64 9.34 o
4109 6 2 2 -1 571.45 594.70 9.44 o
4110 6 2 2 1 163.33 215.43 5.65 o
4111 6 -2 -2 -1 169.06 215.41 5.69 o
4112 6 -2 -2 -2 210.12 229.62 6.40 o
4112 1 2 2 2 210.12 229.62 6.40 o
4113 6 2 2 2 210.06 221.49 6.44 o
4113 1 -2 -2 -2 210.06 221.49 6.44 o
4114 6 2 -3 -5 98.75 96.77 3.67 o
4115 6 2 -3 -4 13.78 13.11 1.11 o
4116 6 -2 3 3 222.60 246.93 4.79 o
4117 6 2 -3 -3 221.91 239.62 4.69 o
4118 6 -2 3 2 431.92 436.43 6.88 o
4119 6 2 3 1 220.35 288.13 7.16 o
4120 6 -2 -3 -1 221.05 284.92 6.96 o
4121 6 2 3 2 20.33 22.99 1.95 o
4121 1 -2 -3 -2 20.33 22.99 1.95 o
4122 6 -2 -3 -2 20.37 23.54 1.98 o
4122 1 2 3 2 20.37 23.54 1.98 o
4123 6 2 3 3 89.08 91.66 4.52 o
4124 6 -2 -3 -3 87.88 86.47 4.32 o
4125 6 2 -4 -6 56.86 62.96 3.48 o
4126 6 2 -4 -5 0.61 0.41 0.21 <
4127 6 -2 4 4 243.97 264.20 6.04 o
4128 6 2 -4 -4 242.94 265.16 5.77 o
4129 6 2 -4 -3 119.48 124.42 3.33 o
4130 6 -2 4 3 117.66 126.97 3.52 o
4131 6 -2 -4 -1 112.77 157.04 5.25 o
4132 6 2 4 1 114.66 153.33 5.24 o
4133 6 2 4 2 385.04 456.95 10.57 o
4133 1 -2 -4 -2 385.04 456.95 10.57 o
4134 6 -2 -4 -2 385.33 465.77 10.45 o
4134 1 2 4 2 385.33 465.77 10.45 o
4135 6 2 4 3 0.63 0.41 0.37 <
4136 6 -2 -4 -3 0.52 0.39 0.27 <
4137 6 2 4 4 54.50 56.44 3.84 o
4138 6 -2 -4 -4 54.78 55.22 3.90 o
4139 6 2 -5 -7 9.50 11.83 1.75 o
4140 6 2 -5 -6 34.93 41.22 2.79 o
4141 6 -2 5 5 79.38 70.93 3.48 o
4142 6 2 -5 -5 77.21 81.57 3.34 o
4143 6 2 -5 -4 24.84 26.15 1.67 o
4144 6 -2 5 4 24.37 26.10 1.84 o
4145 6 -2 5 3 94.08 104.74 3.55 o
4146 6 2 5 1 90.06 130.26 5.22 o
4147 6 -2 -5 -1 91.07 133.62 4.90 o
4148 6 -2 -5 -2 38.41 47.44 3.06 o
4148 1 2 5 2 38.41 47.44 3.06 o
4149 6 2 5 2 38.55 40.89 2.99 o
4149 1 -2 -5 -2 38.55 40.89 2.99 o
4150 6 -2 -5 -3 74.02 78.51 4.30 o
4151 6 2 5 3 72.06 72.97 4.20 o
4152 6 2 5 4 29.81 34.18 3.07 o
4153 6 -2 -5 -4 29.11 35.03 3.08 o
4154 6 -2 -5 -5 7.91 5.54 1.33 o
4155 6 2 -6 -7 9.97 12.35 1.61 o
4156 6 -2 6 6 11.54 16.71 2.09 o
4157 6 2 -6 -6 10.82 18.84 1.86 o
4158 6 -2 6 5 25.70 20.27 1.87 o
4159 6 2 -6 -5 26.49 24.41 1.81 o
4160 6 2 -6 -4 49.68 53.58 2.59 o
4161 6 -2 6 4 48.39 57.44 3.00 o
4162 6 -2 6 3 31.95 33.61 2.09 o
4163 6 -2 -6 -1 30.91 39.63 2.75 o
4164 6 2 6 1 33.52 43.77 3.06 o
4165 6 -2 -6 -2 77.74 97.86 4.57 o
4165 1 2 6 2 77.74 97.86 4.57 o
4166 6 2 6 2 78.13 91.20 4.71 o
4166 1 -2 -6 -2 78.13 91.20 4.71 o
4167 6 2 6 3 22.36 22.73 2.43 o
4168 6 -2 -6 -3 21.66 21.96 2.25 o
4169 6 2 6 4 9.97 10.38 1.75 o
4170 6 -2 -6 -4 10.63 12.45 1.86 o
4171 6 2 -7 -8 10.48 5.95 1.22 o
4172 6 2 -7 -7 0.83 1.22 0.58 <
4173 6 -2 7 6 12.63 9.87 1.58 o
4174 6 2 -7 -6 12.38 12.74 1.54 o
4175 6 -2 7 5 14.10 14.14 1.67 o
4176 6 2 -7 -5 14.82 15.23 1.51 o
4177 6 -2 7 4 3.24 1.43 0.42 o
4178 6 -2 7 3 44.35 45.36 2.82 o
4179 6 -2 -7 -1 42.78 55.89 3.36 o
4180 6 2 7 1 42.34 55.89 3.76 o
4181 6 -2 -7 -2 5.42 4.14 0.96 o
4181 1 2 7 2 5.42 4.14 0.96 o
4182 6 2 7 2 5.35 4.37 1.10 o
4182 1 -2 -7 -2 5.35 4.37 1.10 o
4183 6 -2 -7 -3 12.34 15.60 1.91 o
4184 6 2 7 3 12.92 13.39 1.80 o
4185 6 -2 -7 -4 12.07 9.93 1.75 o
4186 6 2 7 4 11.76 6.78 1.49 o
4187 6 2 -8 -8 1.58 0.83 0.57 <
4188 6 2 -8 -7 15.34 14.98 1.88 o
4189 6 -2 8 7 15.16 14.08 1.99 o
4190 6 2 -8 -6 10.44 12.53 1.56 o
4191 6 -2 8 6 9.54 9.57 1.54 o
4192 6 2 -8 -5 8.28 8.59 1.22 o
4193 6 -2 8 5 8.77 7.99 1.19 o
4194 6 -2 8 4 48.34 50.76 3.19 o
4195 6 2 8 1 26.67 32.35 2.94 o
4196 6 -2 -8 -2 78.12 90.79 4.79 o
4196 1 2 8 2 78.12 90.79 4.79 o
4197 6 2 8 2 77.89 82.26 4.92 o
4197 1 -2 -8 -2 77.89 82.26 4.92 o
4198 6 -2 -8 -3 8.75 6.46 1.35 o
4199 6 2 8 3 8.31 6.95 1.48 o
4200 6 2 -9 -7 4.57 5.98 1.37 o
4201 6 -2 9 7 4.80 5.83 1.45 o
4202 6 2 -9 -6 12.70 9.08 1.39 o
4203 6 -2 9 6 12.79 8.81 1.56 o
4204 6 -2 9 5 30.18 23.91 2.36 o
4205 6 -2 9 4 5.25 4.36 0.88 o
4206 6 -2 10 6 21.62 21.70 2.72 o
4207 6 -2 10 5 1.74 1.21 0.65 <
4208 6 3 0 -2 0.03 0.16 0.09 <
4209 6 -3 0 2 0.03 0.01 0.04 <
4210 6 -3 0 1 0.54 0.14 0.10 <
4211 6 3 0 -1 0.54 0.00 0.07 <
4212 6 3 1 -2 150.21 131.66 3.19 o
4213 6 -3 -1 1 146.87 144.80 3.67 o
4214 6 3 1 -1 142.80 137.28 3.77 o
4215 6 -3 -1 -1 155.75 134.78 4.71 o
4216 6 3 -2 -4 0.15 0.11 0.02 o
4217 6 3 2 -2 153.84 138.48 3.79 o
4218 6 3 2 -1 152.25 154.24 4.35 o
4219 6 -3 -2 1 147.16 142.18 3.92 o
4220 6 3 2 1 0.62 0.09 0.10 <
4221 6 -3 -2 -1 0.82 0.31 0.26 <
4222 6 -3 -2 -2 38.27 44.09 3.05 o
4223 6 3 -3 -5 89.22 88.02 2.91 o
4224 6 3 -3 -4 27.90 22.25 1.06 o
4225 6 -3 3 3 35.31 33.25 1.17 o
4226 6 -3 -3 1 132.39 136.26 4.30 o
4227 6 3 3 -1 132.48 135.96 4.38 o
4228 6 3 3 1 26.95 24.34 2.15 o
4229 6 -3 -3 -1 29.07 28.46 2.23 o
4230 6 3 3 2 83.21 98.05 4.74 o
4231 6 -3 -3 -2 84.09 101.79 4.81 o
4232 6 3 -4 -6 53.50 70.51 3.08 o
4233 6 3 -4 -5 9.48 11.75 1.01 o
4234 6 -3 4 4 8.99 10.08 0.84 o
4235 6 3 -4 -4 8.94 8.86 0.73 o
4236 6 -3 4 3 81.74 83.55 2.41 o
4237 6 -3 -4 1 79.55 86.51 3.70 o
4238 6 3 4 -1 77.71 88.52 4.05 o
4239 6 -3 -4 -1 9.53 7.76 1.18 o
4240 6 3 4 1 9.54 8.94 1.33 o
4241 6 -3 -4 -2 7.94 9.89 1.55 o
4242 6 3 4 2 7.88 12.27 1.65 o
4243 6 3 4 3 77.60 89.04 4.86 o
4243 1 -3 -4 -3 77.60 89.04 4.86 o
4244 6 -3 -4 -3 77.53 89.57 4.88 o
4244 1 3 4 3 77.53 89.57 4.88 o
4245 6 3 -5 -7 11.06 18.34 1.70 o
4246 6 3 -5 -6 24.13 40.00 2.29 o
4247 6 -3 5 5 47.59 46.91 2.32 o
4248 6 3 -5 -5 49.45 47.70 2.15 o
4249 6 -3 5 4 43.10 53.58 2.34 o
4250 6 -3 5 3 1.86 2.31 0.48 o
4251 6 -3 -5 -1 41.04 52.46 3.30 o
4252 6 3 5 1 43.80 48.79 3.36 o
4253 6 3 5 2 45.72 56.17 3.82 o
4254 6 -3 -5 -2 44.01 50.99 3.46 o
4255 6 -3 -5 -3 36.77 40.72 3.36 o
4255 1 3 5 3 36.77 40.72 3.36 o
4256 6 3 5 3 36.54 38.79 3.21 o
4256 1 -3 -5 -3 36.54 38.79 3.21 o
4257 6 -3 -5 -4 9.09 11.08 1.73 o
4258 6 3 5 4 9.38 11.00 1.88 o
4259 6 3 -6 -8 8.16 6.09 1.14 o
4260 6 3 -6 -7 1.91 1.75 0.54 o
4261 6 -3 6 6 22.54 24.14 2.15 o
4262 6 3 -6 -6 23.02 27.88 1.92 o
4263 6 -3 6 5 34.79 38.27 2.31 o
4264 6 3 -6 -5 34.21 34.52 1.95 o
4265 6 -3 6 4 2.61 2.73 0.54 o
4266 6 3 6 1 2.73 1.80 0.62 <
4267 6 -3 -6 -1 2.51 1.73 0.58 o
4268 6 -3 -6 -2 32.04 40.85 3.28 o
4269 6 3 6 2 31.58 41.53 3.55 o
4270 6 3 6 3 32.55 41.73 3.57 o
4270 1 -3 -6 -3 32.55 41.73 3.57 o
4271 6 -3 -6 -3 32.43 43.31 3.59 o
4271 1 3 6 3 32.43 43.31 3.59 o
4272 6 3 -7 -8 11.07 7.93 1.30 o
4273 6 3 -7 -7 14.61 21.15 1.88 o
4274 6 -3 7 6 5.46 9.72 1.49 o
4275 6 3 -7 -6 5.68 11.73 1.25 o
4276 6 -3 7 5 17.89 20.05 1.72 o
4277 6 -3 7 4 100.03 112.60 4.12 o
4278 6 -3 -7 -1 89.55 112.82 5.30 o
4279 6 3 7 1 88.63 98.04 5.38 o
4280 6 3 7 2 15.38 17.48 2.32 o
4281 6 -3 -7 -2 15.29 21.30 2.39 o
4282 6 3 7 3 8.18 5.43 1.28 o
4282 1 -3 -7 -3 8.18 5.43 1.28 o
4283 6 3 -8 -9 2.75 0.84 0.39 <
4284 6 3 -8 -8 12.17 8.05 1.22 o
4285 6 3 -8 -7 0.30 0.29 0.27 <
4286 6 -3 8 7 0.30 0.14 0.22 <
4287 6 3 -8 -6 12.03 15.36 1.56 o
4288 6 -3 8 6 12.46 13.62 1.77 o
4289 6 -3 8 5 13.22 14.66 1.65 o
4290 6 -3 8 4 6.92 7.44 1.10 o
4291 6 3 8 1 6.11 4.97 1.07 o
4292 6 -3 -8 -1 6.15 5.01 1.08 o
4293 6 3 -9 -8 1.20 0.51 0.24 <
4294 6 3 -9 -7 15.03 19.97 2.05 o
4295 6 -3 9 7 15.11 18.26 2.12 o
4296 6 -3 9 6 3.72 3.46 1.12 o
4297 6 -3 9 5 20.41 19.60 1.96 o
4298 6 -3 10 7 0.01 0.87 0.64 <
4299 6 -3 10 6 25.14 24.76 2.73 o
4300 6 -3 10 5 5.48 1.72 0.60 <
4301 6 -3 11 6 2.09 1.90 0.94 <
4302 6 4 0 -3 12.61 12.80 0.79 o
4303 6 4 0 -2 67.99 61.31 2.16 o
4304 6 -4 0 2 67.99 59.03 2.05 o
4305 6 -4 0 1 12.86 11.51 1.04 o
4306 6 4 1 -3 101.07 88.11 2.64 o
4307 6 4 1 -2 4.92 3.30 0.54 o
4308 6 -4 1 2 4.92 2.64 0.37 o
4309 6 -4 -1 2 4.92 2.96 0.51 o
4310 6 4 1 -1 99.75 90.46 3.37 o
4311 6 -4 -1 1 100.26 89.56 3.36 o
4312 6 -4 -2 2 156.49 159.74 4.36 o
4313 6 4 2 -2 156.66 157.30 4.55 o
4314 6 4 2 -1 15.35 15.07 1.50 o
4315 6 -4 -2 1 14.35 15.12 1.43 o
4316 6 4 2 1 52.46 47.93 3.52 o
4317 6 -4 -2 -1 53.99 54.67 3.38 o
4318 6 4 -3 -6 28.97 27.96 1.48 o
4319 6 4 -3 -5 3.06 2.45 0.32 o
4320 6 -4 -3 2 0.05 0.03 0.03 <
4321 6 4 3 -2 0.05 -0.19 0.22 <
4322 6 4 3 -1 41.50 44.62 2.61 o
4323 6 -4 -3 1 39.34 41.15 2.46 o
4324 6 -4 -3 -1 2.64 2.49 0.78 o
4325 6 4 3 1 2.45 2.53 0.57 o
4326 6 4 3 2 24.37 27.73 2.82 o
4327 6 -4 -3 -2 24.03 30.38 3.00 o
4328 6 4 -4 -7 9.29 18.08 1.50 o
4329 6 4 -4 -6 10.08 10.72 0.87 o
4330 6 4 -4 -5 22.65 18.14 0.99 o
4331 6 -4 4 4 0.05 0.04 0.03 <
4332 6 4 4 -2 137.91 157.90 5.43 o
4333 6 4 4 -1 5.91 5.16 0.92 o
4334 6 -4 -4 1 6.29 7.21 1.14 o
4335 6 4 4 1 19.96 28.01 2.57 o
4336 6 -4 -4 -1 18.83 25.71 2.55 o
4337 6 -4 -4 -2 9.31 10.65 1.66 o
4338 6 4 4 2 9.47 11.10 1.78 o
4339 6 -4 -4 -3 7.38 8.53 1.61 o
4340 6 4 4 3 7.10 8.47 1.65 o
4341 6 4 -5 -8 1.88 1.30 0.45 <
4342 6 4 -5 -7 11.26 15.61 1.35 o
4343 6 4 -5 -6 28.36 29.15 1.55 o
4344 6 -4 5 5 6.83 6.38 0.70 o
4345 6 -4 5 4 23.56 25.63 1.34 o
4346 6 -4 -5 1 50.53 61.88 3.42 o
4347 6 4 5 -1 47.93 60.93 3.60 o
4348 6 4 5 1 5.69 4.57 1.08 o
4349 6 -4 -5 -1 5.58 5.09 1.04 o
4350 6 4 5 2 22.61 28.45 2.93 o
4351 6 -4 -5 -2 22.76 34.32 3.19 o
4352 6 -4 -5 -3 10.26 12.31 1.89 o
4353 6 4 5 3 9.97 12.30 1.89 o
4354 6 4 -6 -8 11.47 8.92 1.15 o
4355 6 4 -6 -7 9.71 14.03 1.31 o
4356 6 -4 6 6 1.01 0.66 0.37 <
4357 6 4 -6 -6 0.89 0.76 0.29 <
4358 6 -4 6 5 64.86 71.49 2.75 o
4359 6 -4 6 4 29.46 37.81 1.94 o
4360 6 -4 -6 1 7.14 6.04 1.15 o
4361 6 4 6 -1 6.91 7.79 1.49 o
4362 6 -4 -6 -1 56.50 58.68 3.98 o
4363 6 4 6 1 56.31 68.24 4.55 o
4364 6 4 6 2 0.75 0.51 0.45 <
4365 6 -4 -6 -2 0.85 0.51 0.42 <
4366 6 4 -7 -9 9.61 8.34 1.33 o
4367 6 4 -7 -8 5.43 3.34 0.70 o
4368 6 4 -7 -7 2.61 1.92 0.55 o
4369 6 -4 7 6 10.30 10.18 1.20 o
4370 6 -4 7 5 4.86 4.19 0.71 o
4371 6 -4 7 4 75.03 87.00 3.35 o
4372 6 4 7 1 4.20 1.98 0.80 <
4373 6 -4 -7 -1 4.22 2.72 0.88 o
4374 6 4 -8 -9 0.40 1.12 0.63 <
4375 6 4 -8 -8 11.17 10.00 1.28 o
4376 6 4 -8 -7 9.49 12.39 1.48 o
4377 6 -4 8 7 9.62 9.20 1.56 o
4378 6 -4 8 6 0.25 0.28 0.17 <
4379 6 -4 8 5 31.91 36.37 2.28 o
4380 6 4 -9 -9 2.88 2.50 0.85 <
4381 6 4 -9 -8 1.71 0.51 0.13 o
4382 6 -4 9 7 9.42 7.02 1.28 o
4383 6 -4 9 6 12.18 10.06 1.46 o
4384 6 -4 9 5 0.54 0.06 0.23 <
4385 6 -4 10 7 5.10 3.17 0.99 o
4386 6 -4 10 6 2.89 1.98 0.54 o
4387 6 5 0 -4 74.85 73.67 2.17 o
4388 6 5 0 -3 2.32 2.13 0.39 o
4389 6 -5 0 3 2.32 2.60 0.41 o
4390 6 5 0 -2 2.45 1.55 0.44 o
4391 6 -5 0 2 2.45 1.66 0.38 o
4392 6 -5 0 1 71.36 64.59 3.09 o
4393 6 5 -1 -4 5.80 3.99 0.34 o
4394 6 5 1 -4 5.84 5.32 0.64 o
4395 6 -5 1 3 20.06 16.19 0.85 o
4396 6 5 1 -3 20.06 20.70 1.40 o
4397 6 5 1 -2 21.00 19.75 1.56 o
4398 6 -5 -1 2 19.86 21.09 1.52 o
4399 6 -5 1 2 21.00 18.77 1.33 o
4400 6 -5 -1 1 4.94 4.41 0.78 o
4401 6 5 1 -1 4.90 3.58 0.75 o
4402 6 5 2 -3 15.73 19.12 1.50 o
4403 6 -5 2 3 15.73 9.92 0.57 o
4404 6 -5 -2 2 15.78 18.83 1.55 o
4405 6 5 2 -2 15.07 16.74 1.50 o
4406 6 5 2 -1 52.96 59.65 3.22 o
4407 6 -5 -2 1 51.55 54.27 2.90 o
4408 6 -5 -2 -1 9.08 9.22 1.50 o
4409 6 5 -3 -7 2.81 4.17 0.60 o
4410 6 5 -3 -6 13.57 7.50 0.49 o
4411 6 5 3 -3 76.73 80.39 3.63 o
4412 6 -5 -3 2 74.61 83.76 3.59 o
4413 6 5 3 -2 75.64 89.75 3.89 o
4414 6 -5 -3 1 0.27 0.36 0.33 <
4415 6 5 3 -1 0.28 0.27 0.07 o
4416 6 5 3 1 12.59 15.73 2.11 o
4417 6 -5 -3 -1 12.42 17.97 2.16 o
4418 6 -5 -3 -2 1.86 1.37 0.60 <
4419 6 5 -4 -8 1.40 0.85 0.27 o
4420 6 5 -4 -7 32.21 33.03 1.50 o
4421 6 -5 -4 2 3.07 4.73 0.99 o
4422 6 5 4 -2 3.15 6.36 1.08 o
4423 6 -5 -4 1 33.72 38.53 2.76 o
4424 6 5 4 -1 32.69 40.35 3.06 o
4425 6 5 4 1 20.64 24.14 2.70 o
4426 6 -5 -4 -1 20.42 25.69 2.73 o
4427 6 5 4 2 25.28 36.51 3.63 o
4428 6 -5 -4 -2 25.52 39.82 3.63 o
4429 6 5 -5 -8 7.05 7.64 0.90 o
4430 6 5 -5 -7 3.98 3.67 0.50 o
4431 6 -5 5 4 2.06 1.27 0.28 o
4432 6 5 5 -2 33.62 37.77 2.98 o
4433 6 5 5 -1 2.16 1.75 0.72 <
4434 6 -5 -5 1 2.13 1.65 0.59 <
4435 6 5 5 1 12.66 16.11 2.29 o
4436 6 -5 -5 -1 12.79 17.08 2.39 o
4437 6 5 5 2 3.10 3.24 1.05 o
4438 6 5 -6 -9 6.38 5.08 0.85 o
4439 6 5 -6 -8 0.07 0.27 0.24 <
4440 6 -5 6 5 8.00 7.76 0.73 o
4441 6 -5 6 4 38.05 29.31 1.86 o
4442 6 -5 -6 1 37.12 45.36 3.28 o
4443 6 5 6 -1 36.96 42.85 3.50 o
4444 6 5 6 1 2.59 1.47 0.76 <
4445 6 -5 -6 -1 2.40 1.14 0.55 <
4446 6 5 -7 -9 3.22 1.52 0.51 o
4447 6 -5 7 6 7.37 6.28 0.83 o
4448 6 -5 7 5 14.18 19.04 1.34 o
4449 6 5 7 -1 0.56 0.88 0.69 <
4450 6 -5 -7 1 0.55 -0.07 0.40 <
4451 6 -5 8 6 2.22 1.50 0.40 o
4452 6 -5 8 5 1.12 0.99 0.26 o
4453 6 -5 9 6 6.26 4.19 0.77 o
4454 6 6 0 -5 1.63 1.24 0.25 o
4455 6 6 0 -4 0.02 -0.08 0.13 <
4456 6 6 0 -3 19.69 15.61 1.50 o
4457 6 -6 0 3 19.69 19.97 1.35 o
4458 6 -6 0 2 0.03 0.23 0.19 <
4459 6 -6 0 1 1.21 0.94 0.45 <
4460 6 6 -1 -5 9.46 7.87 0.53 o
4461 6 6 1 -5 9.50 12.54 1.14 o
4462 6 6 1 -4 14.04 16.84 1.30 o
4463 6 6 1 -3 0.16 -0.13 0.16 <
4464 6 -6 -1 3 0.16 0.00 0.08 <
4465 6 -6 1 3 0.16 0.02 0.16 <
4466 6 6 1 -2 13.79 13.27 1.58 o
4467 6 -6 -1 2 13.66 15.42 1.42 o
4468 6 -6 1 2 13.79 11.93 1.21 o
4469 6 -6 -1 1 9.19 9.00 1.23 o
4470 6 6 1 -1 9.16 7.52 1.37 o
4471 6 6 2 -4 0.47 0.29 0.12 <
4472 6 -6 -2 3 27.89 31.58 2.03 o
4473 6 6 2 -3 27.84 33.70 2.21 o
4474 6 6 2 -2 0.45 0.19 0.25 <
4475 6 -6 -2 2 0.48 0.21 0.23 <
4476 6 6 2 -1 6.60 8.49 1.35 o
4477 6 -6 -2 1 6.22 8.74 1.28 o
4478 6 6 3 -4 13.03 16.18 1.62 o
4479 6 6 3 -3 1.75 1.79 0.50 o
4480 6 -6 -3 3 1.75 1.57 0.55 <
4481 6 -6 3 3 1.75 0.69 0.20 o
4482 6 -6 -3 2 10.66 14.14 1.53 o
4483 6 6 3 -2 10.52 16.29 1.79 o
4484 6 6 3 -1 15.27 18.29 2.27 o
4485 6 -6 -3 1 15.65 21.38 2.10 o
4486 6 6 3 1 11.56 19.07 2.41 o
4487 6 -6 -3 -1 11.58 18.13 2.41 o
4488 6 6 -4 -8 3.38 2.72 0.38 o
4489 6 6 4 -3 31.25 43.38 2.92 o
4490 6 -6 -4 2 12.56 14.10 1.80 o
4491 6 6 4 -2 12.51 13.20 1.83 o
4492 6 6 4 -1 6.19 6.10 1.12 o
4493 6 -6 -4 1 6.29 6.93 1.23 o
4494 6 6 4 1 0.23 0.69 0.71 <
4495 6 -6 -4 -1 0.25 0.63 0.37 <
4496 6 6 -5 -9 1.68 0.78 0.19 o
4497 6 6 5 -3 4.15 3.33 0.84 o
4498 6 6 5 -2 11.99 18.26 2.15 o
4499 6 -6 -5 2 12.00 18.28 2.03 o
4500 6 -6 -5 1 13.16 18.59 2.29 o
4501 6 6 5 -1 13.57 17.77 2.27 o
4502 6 -6 6 5 2.77 1.54 0.29 o
4503 6 6 6 -2 0.58 -0.77 0.60 <
4504 6 -6 -6 2 0.50 -0.02 0.26 <
4505 6 -6 -6 1 2.11 1.69 0.71 <
4506 6 6 6 -1 1.93 0.98 0.49 <
4507 6 -6 7 5 2.84 1.31 0.33 o
4508 6 7 0 -6 0.06 0.10 0.04 <
4509 6 7 0 -5 11.44 17.39 1.23 o
4510 6 7 0 -4 3.06 3.48 0.70 o
4511 6 -7 0 3 3.33 3.01 0.62 o
4512 6 -7 0 2 10.56 11.86 1.47 o
4513 6 -7 0 1 0.05 -0.20 0.45 <
4514 6 7 -1 -7 5.07 2.87 0.43 o
4515 6 7 -1 -6 3.16 2.93 0.32 o
4516 6 7 1 -5 1.40 1.26 0.35 o
4517 6 7 1 -4 8.04 10.85 1.25 o
4518 6 -7 1 4 8.04 9.29 0.77 o
4519 6 -7 -1 3 7.91 10.31 1.20 o
4520 6 -7 1 3 7.77 9.09 0.96 o
4521 6 7 1 -3 7.77 11.33 1.30 o
4522 6 7 1 -2 1.34 0.49 0.29 <
4523 6 -7 1 2 1.34 1.06 0.34 o
4524 6 -7 -1 2 1.33 0.62 0.29 <
4525 6 -7 -1 1 2.39 2.41 0.71 o
4526 6 7 2 -5 9.24 12.80 1.37 o
4527 6 -7 2 4 1.42 0.82 0.19 o
4528 6 7 2 -4 1.42 1.35 0.36 o
4529 6 7 2 -3 1.22 1.23 0.49 <
4530 6 -7 2 3 1.22 0.79 0.32 <
4531 6 -7 -2 3 1.27 1.12 0.48 <
4532 6 -7 -2 2 8.14 9.08 1.48 o
4533 6 7 2 -2 7.84 8.44 1.44 o
4534 6 7 2 -1 1.14 1.12 0.59 <
4535 6 -7 -2 1 1.21 0.77 0.27 <
4536 6 7 3 -4 4.63 4.69 0.90 o
4537 6 -7 3 4 4.63 2.40 0.29 o
4538 6 -7 -3 3 4.76 5.64 0.97 o
4539 6 7 3 -3 4.68 5.53 1.01 o
4540 6 7 3 -2 0.84 0.55 0.40 <
4541 6 -7 -3 2 0.82 0.46 0.32 <
4542 6 7 3 -1 5.97 5.62 1.39 o
4543 6 -7 -3 1 5.84 6.26 1.23 o
4544 6 -7 4 4 0.12 -0.03 0.05 <
4545 6 7 4 -4 0.12 -0.59 0.45 <
4546 6 -7 -4 3 0.14 -0.01 0.08 <
4547 6 7 4 -3 0.19 0.13 0.22 <
4548 6 -7 -4 2 9.94 14.72 1.96 o
4549 6 7 4 -2 10.11 12.69 1.89 o
4550 6 -7 -4 1 0.45 0.12 0.24 <
4551 6 7 4 -1 0.50 1.04 0.63 <
4552 6 7 5 -3 3.50 3.13 0.97 o
4553 6 -7 -5 2 1.37 0.64 0.47 <
4554 6 7 5 -2 1.34 0.98 0.67 <
4555 6 7 5 -1 2.88 1.50 0.75 <
4556 6 -7 -5 1 3.04 3.02 1.01 <
4557 6 7 6 -3 2.90 3.44 1.01 o
4558 6 7 6 -2 3.61 3.63 1.10 o
4559 6 8 0 -7 2.73 4.26 0.59 o
4560 6 8 0 -6 1.78 3.70 0.57 o
4561 6 8 0 -5 0.19 0.02 0.17 <
4562 6 -8 0 4 5.34 7.42 0.87 o
4563 6 -8 0 3 0.18 0.54 0.35 <
4564 6 -8 0 2 1.52 1.53 0.53 <
4565 6 8 -1 -8 2.18 0.98 0.28 o
4566 6 8 1 -6 1.73 1.77 0.45 o
4567 6 8 1 -5 3.35 4.66 0.79 o
4568 6 8 1 -4 0.00 0.24 0.16 <
4569 6 -8 -1 4 0.00 0.15 0.12 <
4570 6 -8 1 4 0.00 0.35 0.22 <
4571 6 -8 -1 3 2.92 3.27 0.67 o
4572 6 8 1 -3 2.83 2.71 0.78 o
4573 6 -8 1 3 2.83 3.09 0.63 o
4574 6 -8 1 2 1.48 1.22 0.51 <
4575 6 -8 -1 2 1.47 1.08 0.60 <
4576 6 -8 -1 1 0.35 0.00 0.07 <
4577 6 8 2 -6 0.10 0.27 0.08 o
4578 6 8 2 -5 0.40 0.30 0.25 <
4579 6 8 2 -4 5.57 7.47 1.21 o
4580 6 -8 2 4 5.57 4.99 0.63 o
4581 6 -8 2 3 0.37 0.31 0.17 <
4582 6 8 2 -3 0.37 0.12 0.12 <
4583 6 -8 -2 2 0.06 0.48 0.29 <
4584 6 8 2 -2 0.05 -0.48 0.32 <
4585 6 -8 -2 1 2.62 2.87 0.83 o
4586 6 8 3 -5 1.09 0.96 0.53 <
4587 6 -8 3 4 0.00 -0.34 0.19 <
4588 6 8 3 -4 0.00 -0.49 0.43 <
4589 6 -8 -3 3 1.01 0.98 0.57 <
4590 6 8 3 -3 0.95 0.78 0.46 <
4591 6 8 3 -2 2.12 1.67 0.74 <
4592 6 -8 -3 2 2.09 1.36 0.59 <
4593 6 -8 -3 1 0.08 0.08 0.17 <
4594 6 8 3 -1 0.08 1.00 0.79 <
4595 6 -8 4 4 0.44 -0.33 0.17 <
4596 6 8 4 -4 0.44 0.29 0.29 <
4597 6 -8 -4 3 0.21 -0.32 0.39 <
4598 6 8 4 -3 0.24 0.48 0.44 <
4599 6 -8 -4 2 0.91 1.29 0.65 <
4600 6 8 4 -2 0.90 1.70 0.84 <
4601 6 8 5 -4 0.00 -0.09 0.23 <
4602 6 -8 -5 3 1.62 1.39 0.49 <
4603 6 8 5 -3 1.71 2.04 0.89 <
4604 6 -9 0 4 0.00 0.01 0.10 <
4605 6 -9 0 3 1.27 1.14 0.52 <
4606 6 -9 0 2 0.00 0.12 0.41 <
4607 6 9 1 -7 0.44 1.32 0.42 o
4608 6 9 1 -6 0.01 0.00 0.17 <
4609 6 9 1 -5 0.88 -4.43 1.30 <
4610 6 9 1 -4 0.87 0.95 0.47 <
4611 6 -9 -1 4 0.89 1.09 0.43 <
4612 6 -9 1 4 0.87 0.36 0.17 <
4613 6 -9 -1 3 0.00 -0.01 0.26 <
4614 6 -9 1 3 0.00 -0.11 0.17 <
4615 6 -9 -1 2 0.36 0.32 0.41 <
4616 6 9 2 -6 0.94 0.70 0.38 <
4617 6 9 2 -5 0.24 0.80 0.42 <
4618 6 -9 -2 4 0.20 -0.15 0.36 <
4619 6 -9 2 4 0.19 -0.13 0.18 <
4620 6 -9 -2 3 0.77 0.44 0.27 <
4621 6 9 2 -3 0.75 -0.08 0.35 <
4622 6 -9 -2 2 0.21 0.59 0.46 <
4623 6 9 3 -6 0.30 0.98 0.56 <
4624 6 9 3 -5 0.46 -0.04 0.17 <
4625 6 9 3 -4 0.45 0.79 0.53 <
4626 6 -9 3 4 0.45 -0.02 0.04 <
4627 6 9 3 -3 0.27 0.44 0.30 <
4628 6 -9 -3 3 0.28 0.27 0.32 <
4629 6 -9 -3 2 0.48 0.47 0.08 o
4630 6 9 3 -2 0.48 -0.29 0.60 <
4631 6 9 4 -5 0.17 1.01 0.61 <
4632 6 9 4 -4 0.23 -0.11 0.35 <
4633 6 -9 -4 3 1.58 2.12 0.81 <
4634 6 9 4 -3 1.59 2.55 0.98 <
4635 6 -10 0 3 0.02 -0.37 0.23 <
4636 6 -10 -1 4 0.08 -0.25 0.31 <
4637 6 -10 -1 3 0.21 0.62 0.39 <
4638 6 -10 -1 2 0.07 0.08 0.22 <
4639 6 10 2 -6 0.00 -0.13 0.30 <
4640 6 10 2 -5 0.48 1.15 0.55 <
4641 6 -10 -2 4 0.00 0.30 0.37 <
4642 6 10 2 -4 0.00 0.35 0.28 <
4643 6 -10 -2 3 0.07 0.20 0.09 <
4644 6 10 3 -6 0.45 1.00 0.39 <
4645 6 10 3 -5 0.06 0.50 0.22 <
4646 6 -10 -3 4 0.43 0.64 0.31 <
4647 6 10 3 -4 0.43 0.34 0.62 <
4648 6 10 4 -5 0.56 1.08 0.78 <
4649 6 11 3 -5 0.06 0.09 0.22 <
