#------------------------------------------------------------------------------
#$Date: 2019-11-17 15:32:33 +0200 (Sun, 17 Nov 2019) $
#$Revision: 230902 $
#$URL: file:///home/coder/svn-repositories/cod/cif/7/23/14/7231410.cif $
#------------------------------------------------------------------------------
#
# This file is available in the Crystallography Open Database (COD),
# http://www.crystallography.net/
#
# All data on this site have been placed in the public domain by the
# contributors.
#
data_7231410
loop_
_publ_author_name
'Collings, Ines E.'
'Manna, Rudra Sekhar'
'Tsirlin, Alexander A.'
'Bykov, Maxim'
'Bykova, Elena'
'Hanfland, Michael'
'Gegenwart, Philipp'
'van Smaalen, Sander'
'Dubrovinsky, Leonid'
'Dubrovinskaia, Natalia'
_publ_section_title
;
 Pressure dependence of spin canting in ammonium metal formate
 antiferromagnets.
;
_journal_issue                   37
_journal_name_full               'Physical chemistry chemical physics : PCCP'
_journal_page_first              24465
_journal_page_last               24476
_journal_paper_doi               10.1039/c8cp03761b
_journal_volume                  20
_journal_year                    2018
_chemical_formula_moiety         'C3 H3 Ni O6, N H4'
_chemical_formula_sum            'C3 H7 N Ni O6'
_chemical_formula_weight         211.8
_space_group_IT_number           4
_space_group_name_Hall           'P 2yb'
_space_group_name_H-M_alt        'P 1 21 1'
_symmetry_cell_setting           monoclinic
_symmetry_Int_Tables_number      4
_symmetry_space_group_name_Hall  'P 2yb'
_symmetry_space_group_name_H-M   'P 1 21 1'
_audit_creation_method           'Jana2006 Version : 25/10/2015'
_audit_update_record
;
2018-08-09 deposited with the CCDC.
2018-08-22 downloaded from the CCDC.
;
_cell_angle_alpha                90
_cell_angle_beta                 116.96(5)
_cell_angle_gamma                90
_cell_formula_units_Z            2
_cell_length_a                   6.607(3)
_cell_length_b                   8.0559(10)
_cell_length_c                   7.270(2)
_cell_measurement_reflns_used    147
_cell_measurement_temperature    293
_cell_measurement_theta_max      12.71
_cell_measurement_theta_min      2
_cell_volume                     344.9(2)
_computing_cell_refinement       'CrysAlisPro 1.171.38.46 (Rigaku OD, 2015)'
_computing_data_collection       'CrysAlisPro 1.171.38.46 (Rigaku OD, 2015)'
_computing_data_reduction        'CrysAlisPro 1.171.38.46 (Rigaku OD, 2015)'
_diffrn_ambient_pressure         '1.60 GPa'
_diffrn_ambient_temperature      293
_diffrn_detector                 'CCD plate'
_diffrn_measured_fraction_theta_full 0.98
_diffrn_measured_fraction_theta_max 0.98
_diffrn_measurement_device       'ID15B beamline, ESRF'
_diffrn_measurement_device_type
'esperanto-CrysAlisPro-abstract goniometer imported esperanto images'
_diffrn_measurement_method       '\w scans'
_diffrn_measurement_specimen_support 'diamond-anvil cell'
_diffrn_radiation_monochromator  synchrotron
_diffrn_radiation_probe          x-ray
_diffrn_radiation_source         synchrotron
_diffrn_radiation_type           synchrotron
_diffrn_radiation_wavelength     0.41128
_diffrn_reflns_av_R_equivalents  0.0276
_diffrn_reflns_av_unetI/netI     0.0535
_diffrn_reflns_limit_h_max       7
_diffrn_reflns_limit_h_min       -7
_diffrn_reflns_limit_k_max       8
_diffrn_reflns_limit_k_min       -8
_diffrn_reflns_limit_l_max       8
_diffrn_reflns_limit_l_min       -8
_diffrn_reflns_number            3466
_diffrn_reflns_theta_full        13.2
_diffrn_reflns_theta_max         13.21
_diffrn_reflns_theta_min         1.82
_diffrn_source                   synchrotron
_exptl_absorpt_coefficient_mu    0.619
_exptl_absorpt_correction_T_max  1
_exptl_absorpt_correction_T_min  0.876
_exptl_absorpt_correction_type   multi-scan
_exptl_absorpt_process_details
;
CrysAlisPro 1.171.38.46 (Rigaku Oxford Diffraction, 2015)
Empirical absorption correction using spherical harmonics,
 implemented in SCALE3 ABSPACK scaling algorithm.
;
_exptl_crystal_colour            green
_exptl_crystal_density_diffrn    2.0393
_exptl_crystal_description       'hexagonal bipyramid'
_exptl_crystal_F_000             208
_exptl_crystal_size_max          0.075
_exptl_crystal_size_mid          0.060
_exptl_crystal_size_min          0.050
_refine_ls_abs_structure_details
'  519 of Friedel pairs used in the refinement'
_refine_ls_extinction_method     none
_refine_ls_goodness_of_fit_gt    3.57
_refine_ls_goodness_of_fit_ref   3.20
_refine_ls_hydrogen_treatment    constr
_refine_ls_number_constraints    49
_refine_ls_number_parameters     69
_refine_ls_number_reflns         2918
_refine_ls_number_restraints     0
_refine_ls_R_factor_all          0.1079
_refine_ls_R_factor_gt           0.0916
_refine_ls_shift/su_max          0.0062
_refine_ls_shift/su_mean         0.0008
_refine_ls_structure_factor_coef F
_refine_ls_weighting_details     w=1/(\s^2^(F)+0.0001F^2^)
_refine_ls_weighting_scheme      sigma
_refine_ls_wR_factor_gt          0.1136
_refine_ls_wR_factor_ref         0.1165
_reflns_number_gt                2237
_reflns_number_total             2918
_reflns_threshold_expression     I>3\s(I)
_cod_data_source_file            c8cp03761b2.cif
_cod_data_source_block           ANiF_c2_p08
_cod_depositor_comments
;
The following automatic conversions were performed:

'_diffrn_radiation_probe' value 'X-ray' changed to 'x-ray' according
to
/home/data/users/saulius/crontab/automatic-downloads/rss-feeds/RSC/lib/dictionaries/cif_core.dic
dictionary named 'cif_core.dic' version 2.4.2 from 2011-04-26.

Automatic conversion script
Id: cif_fix_values 4973 2017-02-22 13:04:09Z antanas 

 Adding full bibliography for 7231402--7231432.cif.
;
_cod_original_formula_sum        'C3 H7 N1 Ni1 O6'
_cod_database_code               7231410
loop_
_space_group_symop_id
_space_group_symop_operation_xyz
1 x,y,z
2 -x,y+1/2,-z
loop_
_atom_site_label
_atom_site_type_symbol
_atom_site_fract_x
_atom_site_fract_y
_atom_site_fract_z
_atom_site_adp_type
_atom_site_U_iso_or_equiv
_atom_site_site_symmetry_multiplicity
_atom_site_occupancy
_atom_site_calc_flag
Ni1 Ni 0.6606(2) 0.2537(2) 0.32059(18) Uani 0.0464(6) 2 1 d
N1 N 0.9764(15) 0.257(2) 0.9538(13) Uani 0.055(4) 2 1 d
O1 O 0.4065(15) 0.3967(11) 0.1060(11) Uani 0.058(3) 2 1 d
O2 O 0.6785(16) 0.3914(10) 0.5601(12) Uani 0.057(3) 2 1 d
C3 C 0.958(2) -0.0233(14) 0.5508(19) Uani 0.057(3) 2 1 d
O4 O 0.6978(15) 0.1094(11) 0.1063(11) Uani 0.058(3) 2 1 d
O5 O 0.3921(16) 0.1110(11) 0.2966(12) Uani 0.057(3) 2 1 d
C2 C 0.590(2) 0.5305(15) 0.549(2) Uani 0.057(3) 2 1 d
O3 O 0.8833(15) 0.1151(10) 0.5589(11) Uani 0.057(3) 2 1 d
O6 O 0.9026(15) 0.3931(11) 0.2935(12) Uani 0.057(3) 2 1 d
C1 C 0.452(3) 0.4984(19) -0.002(2) Uani 0.058(3) 2 1 d
H1c1 H 0.594568 0.493605 -0.005988 Uiso 0.0694 2 1 d
H1c2 H 0.503856 0.578565 0.41487 Uiso 0.0689 2 1 d
H1c3 H 0.908637 -0.072299 0.416802 Uiso 0.0689 2 1 d
loop_
_atom_site_aniso_label
_atom_site_aniso_type_symbol
_atom_site_aniso_U_11
_atom_site_aniso_U_22
_atom_site_aniso_U_33
_atom_site_aniso_U_12
_atom_site_aniso_U_13
_atom_site_aniso_U_23
Ni1 Ni 0.0748(10) 0.0128(7) 0.0442(8) 0.0002(9) 0.0206(6) 0.0006(9)
N1 N 0.054(6) 0.041(5) 0.071(6) 0.016(7) 0.029(5) 0.008(10)
O1 O 0.085(4) 0.039(3) 0.042(3) -0.008(3) 0.022(3) 0.003(3)
O2 O 0.090(4) 0.029(3) 0.050(3) 0.005(3) 0.030(3) -0.001(3)
C3 C 0.081(4) 0.027(3) 0.051(3) 0.004(3) 0.018(3) -0.006(3)
O4 O 0.085(4) 0.039(3) 0.042(3) -0.008(3) 0.022(3) 0.003(3)
O5 O 0.090(4) 0.029(3) 0.050(3) 0.005(3) 0.030(3) -0.001(3)
C2 C 0.090(4) 0.029(3) 0.050(3) 0.005(3) 0.030(3) -0.001(3)
O3 O 0.081(4) 0.027(3) 0.051(3) 0.004(3) 0.018(3) -0.006(3)
O6 O 0.081(4) 0.027(3) 0.051(3) 0.004(3) 0.018(3) -0.006(3)
C1 C 0.085(4) 0.039(3) 0.042(3) -0.008(3) 0.022(3) 0.003(3)
loop_
_atom_type_symbol
_atom_type_scat_dispersion_real
_atom_type_scat_dispersion_imag
_atom_type_scat_source
C -0.0001 0.0005 'International Tables Vol C tables 4.2.6.8 and 6.1.1.1'
H 0.0000 0.0000 'International Tables Vol C tables 4.2.6.8 and 6.1.1.1'
N 0.0006 0.0010 'International Tables Vol C tables 4.2.6.8 and 6.1.1.1'
Ni 0.2309 0.4094 'International Tables Vol C tables 4.2.6.8 and 6.1.1.1'
O 0.0018 0.0018 'International Tables Vol C tables 4.2.6.8 and 6.1.1.1'
loop_
_geom_bond_atom_site_label_1
_geom_bond_atom_site_label_2
_geom_bond_site_symmetry_2
_geom_bond_distance
Ni1 O1 . 2.055(8)
Ni1 O2 . 2.019(9)
Ni1 O4 . 2.052(10)
Ni1 O5 . 2.050(10)
Ni1 O3 . 2.022(8)
Ni1 O6 . 2.032(11)
O1 C1 . 1.26(2)
O2 C2 . 1.252(15)
C3 O3 . 1.237(16)
C3 O6 2_746 1.284(13)
C3 H1c1 . 0.96
O4 C1 2_645 1.310(17)
O5 C2 2_646 1.261(17)
C2 H1c2 . 0.96
loop_
_twin_individual_id
_twin_individual_mass_fraction_refined
_twin_individual_twin_matrix_11
_twin_individual_twin_matrix_12
_twin_individual_twin_matrix_13
_twin_individual_twin_matrix_21
_twin_individual_twin_matrix_22
_twin_individual_twin_matrix_23
_twin_individual_twin_matrix_31
_twin_individual_twin_matrix_32
_twin_individual_twin_matrix_33
1 0.172(4) 1 0 0 0 1 0 0 0 1
2 0.1762(19) 1 0 0 0 -1 0 0.8244 0 -1
3 0.151(2) -0.0597 0 -1.0682 0 1 0 0.8836 0 -0.9403
4 0.1619(18) -0.9403 0 1.0682 0 -1 0 0.1084 0 0.9403
5 0.1765(17) -0.9403 0 1.0682 0 1 0 -0.8836 0 -0.0597
6 0.1618(18) -0.0597 0 -1.0682 0 -1 0 -0.9328 0 0.0597
loop_
_twin_refln_datum_id
_twin_refln_individual_id
_twin_refln_index_h
_twin_refln_index_k
_twin_refln_index_l
_twin_refln_f_squared_calc
_twin_refln_f_squared_meas
_twin_refln_f_squared_sigma
_twin_refln_include_status
1 2 1 -1 0 1194.13 1188.79 8.80 o
1 1 1 1 0 1194.13 1188.79 8.80 o
2 2 1 1 0 1194.11 1218.01 8.95 o
2 1 1 -1 0 1194.11 1218.01 8.95 o
3 2 1 -2 0 17.16 9.82 0.86 o
3 1 1 2 0 17.16 9.82 0.86 o
4 2 1 2 0 17.13 10.24 0.83 o
4 1 1 -2 0 17.13 10.24 0.83 o
5 2 2 -2 0 146.72 110.03 3.94 o
5 1 2 2 0 146.72 110.03 3.94 o
6 2 2 2 0 146.69 108.09 3.87 o
6 1 2 -2 0 146.69 108.09 3.87 o
7 2 1 -3 0 183.36 194.82 4.99 o
7 1 1 3 0 183.36 194.82 4.99 o
8 2 1 3 0 183.37 215.30 5.32 o
8 1 1 -3 0 183.37 215.30 5.32 o
9 2 2 -3 0 698.34 713.71 10.20 o
9 1 2 3 0 698.34 713.71 10.20 o
10 2 2 3 0 698.33 713.72 9.69 o
10 1 2 -3 0 698.33 713.72 9.69 o
11 2 3 -3 0 42.65 41.34 2.99 o
11 1 3 3 0 42.65 41.34 2.99 o
12 2 3 3 0 42.65 43.95 2.92 o
12 1 3 -3 0 42.65 43.95 2.92 o
13 2 4 3 0 10.61 4.74 1.17 o
13 1 4 -3 0 10.61 4.74 1.17 o
14 2 1 -4 0 67.98 91.92 3.76 o
14 1 1 4 0 67.98 91.92 3.76 o
15 2 1 4 0 68.02 95.93 3.88 o
15 1 1 -4 0 68.02 95.93 3.88 o
16 2 2 -4 0 3.26 4.91 0.91 o
16 1 2 4 0 3.26 4.91 0.91 o
17 2 2 4 0 3.27 5.51 0.87 o
17 1 2 -4 0 3.27 5.51 0.87 o
18 2 3 -4 0 141.79 112.99 4.82 o
18 1 3 4 0 141.79 112.99 4.82 o
19 2 3 4 0 141.79 120.01 4.86 o
19 1 3 -4 0 141.79 120.01 4.86 o
20 2 4 4 0 0.14 -0.21 0.24 <
20 1 4 -4 0 0.14 -0.21 0.24 <
21 2 5 4 0 0.77 -0.18 0.69 <
21 1 5 -4 0 0.77 -0.18 0.69 <
22 2 1 -5 0 154.50 283.19 7.79 o
22 1 1 5 0 154.50 283.19 7.79 o
23 2 2 -5 0 211.94 212.14 6.40 o
23 1 2 5 0 211.94 212.14 6.40 o
24 2 2 5 0 211.94 214.59 6.51 o
24 1 2 -5 0 211.94 214.59 6.51 o
25 2 3 -5 0 2.35 1.44 0.63 <
25 1 3 5 0 2.35 1.44 0.63 <
26 2 3 5 0 2.35 0.60 0.23 <
26 1 3 -5 0 2.35 0.60 0.23 <
27 2 4 -5 0 28.11 23.67 2.78 o
27 1 4 5 0 28.11 23.67 2.78 o
28 2 4 5 0 28.10 22.71 2.48 o
28 1 4 -5 0 28.10 22.71 2.48 o
29 2 5 5 0 14.98 16.59 2.29 o
29 1 5 -5 0 14.98 16.59 2.29 o
30 2 1 -6 0 51.33 96.59 4.75 o
30 1 1 6 0 51.33 96.59 4.75 o
31 2 2 -6 0 48.48 61.35 3.66 o
31 1 2 6 0 48.48 61.35 3.66 o
32 2 2 6 0 48.48 63.34 3.94 o
32 1 2 -6 0 48.48 63.34 3.94 o
33 2 3 -6 0 157.39 137.11 5.95 o
33 1 3 6 0 157.39 137.11 5.95 o
34 2 3 6 0 157.40 138.85 5.67 o
34 1 3 -6 0 157.40 138.85 5.67 o
35 2 4 -6 0 28.88 27.66 3.03 o
35 1 4 6 0 28.88 27.66 3.03 o
36 2 4 6 0 28.88 26.33 2.63 o
36 1 4 -6 0 28.88 26.33 2.63 o
37 2 2 -7 0 42.10 53.66 3.78 o
37 1 2 7 0 42.10 53.66 3.78 o
38 2 3 -7 0 4.76 2.31 0.92 <
38 1 3 7 0 4.76 2.31 0.92 <
39 2 3 7 0 4.76 2.28 0.57 o
39 1 3 -7 0 4.76 2.28 0.57 o
40 2 4 -7 0 62.71 62.63 4.80 o
40 1 4 7 0 62.71 62.63 4.80 o
41 2 4 7 0 62.71 62.55 4.35 o
41 1 4 -7 0 62.71 62.55 4.35 o
42 2 2 -8 0 6.19 4.30 1.37 o
42 1 2 8 0 6.19 4.30 1.37 o
43 1 -1 0 1 230.02 159.07 2.29 o
44 1 -2 1 1 367.18 324.81 6.92 o
45 1 -2 -1 1 367.27 312.40 6.67 o
46 1 -1 1 1 581.71 568.99 6.81 o
47 1 -1 -1 1 581.24 557.79 6.71 o
48 1 -3 2 1 106.70 90.37 4.47 o
49 1 -3 -2 1 101.98 95.99 4.58 o
50 1 -2 2 1 497.15 465.96 8.41 o
51 1 -2 -2 1 496.75 466.04 8.36 o
52 1 -1 2 1 11.15 4.68 0.69 o
53 1 -1 -2 1 9.60 5.84 0.71 o
54 6 -1 -2 -1 1245.19 1514.10 11.47 o
54 1 1 2 1 1245.19 1514.10 11.47 o
55 6 -1 2 -1 1245.21 1512.77 11.20 o
55 1 1 -2 1 1245.21 1512.77 11.20 o
56 1 -4 3 1 31.86 21.34 2.67 o
57 1 -4 -3 1 29.94 25.13 2.72 o
58 1 -3 3 1 99.69 94.10 4.70 o
59 1 -3 -3 1 100.41 90.32 4.52 o
60 1 -2 3 1 5.40 8.43 1.12 o
61 1 -2 -3 1 5.41 8.49 1.10 o
62 1 -1 3 1 89.86 91.54 3.60 o
63 1 -1 -3 1 89.93 105.14 3.97 o
64 6 -1 -3 -1 42.99 48.04 1.57 o
64 1 1 3 1 42.99 48.04 1.57 o
65 6 -1 3 -1 43.02 48.55 1.53 o
65 1 1 -3 1 43.02 48.55 1.53 o
66 1 2 -3 1 173.27 237.43 5.58 o
67 1 3 -3 1 25.48 20.55 2.00 o
68 1 -5 -4 1 15.50 12.71 2.13 o
69 1 -4 4 1 2.91 2.16 0.86 <
70 1 -4 -4 1 3.23 -0.34 0.98 <
71 1 -3 4 1 52.98 53.79 3.67 o
72 1 -3 -4 1 54.47 53.91 3.47 o
73 1 -2 4 1 364.22 367.50 8.49 o
74 1 -2 -4 1 364.49 358.66 8.36 o
75 1 -1 4 1 35.54 39.71 2.60 o
76 1 -1 -4 1 37.58 41.08 2.74 o
77 6 -1 -4 -1 607.73 731.49 7.66 o
77 1 1 4 1 607.73 731.49 7.66 o
78 6 -1 4 -1 607.56 728.21 7.46 o
78 1 1 -4 1 607.56 728.21 7.46 o
79 1 2 4 1 92.95 121.25 4.38 o
80 1 2 -4 1 91.91 128.33 4.02 o
81 1 3 -4 1 5.97 2.32 0.66 o
82 1 4 -4 1 13.12 10.75 1.52 o
83 1 -5 5 1 0.95 1.39 0.72 <
84 1 -5 -5 1 0.95 0.91 0.64 <
85 1 -4 5 1 25.25 24.30 2.81 o
86 1 -4 -5 1 26.74 21.13 2.49 o
87 1 -3 5 1 97.28 86.78 5.02 o
88 1 -3 -5 1 96.47 84.36 4.70 o
89 1 -2 5 1 35.55 41.51 3.00 o
90 1 -2 -5 1 35.52 42.17 3.03 o
91 1 -1 5 1 77.07 112.23 5.10 o
92 6 -1 -5 -1 89.32 105.22 3.09 o
92 1 1 5 1 89.32 105.22 3.09 o
93 1 2 5 1 75.01 117.06 4.75 o
94 1 2 -5 1 76.11 122.69 4.48 o
95 1 3 5 1 31.78 28.57 2.52 o
96 1 3 -5 1 29.87 32.60 2.51 o
97 1 4 -5 1 3.18 1.66 0.63 <
98 1 -5 6 1 15.56 11.94 2.40 o
99 1 -5 -6 1 15.66 10.68 2.15 o
100 1 -4 6 1 4.15 3.47 1.20 <
101 1 -4 -6 1 4.31 2.38 0.97 <
102 1 -3 6 1 11.15 8.67 1.69 o
103 1 -3 -6 1 12.51 7.26 1.43 o
104 1 -2 6 1 83.03 89.68 4.96 o
105 1 -2 -6 1 82.55 91.16 4.98 o
106 6 -1 -6 -1 256.80 328.11 6.47 o
106 1 1 6 1 256.80 328.11 6.47 o
107 1 2 6 1 24.73 30.30 2.41 o
108 1 2 -6 1 22.69 34.74 2.64 o
109 1 3 6 1 0.98 1.17 0.65 <
110 1 3 -6 1 0.92 1.09 0.53 <
111 1 4 -6 1 25.74 28.23 2.57 o
112 1 -4 7 1 25.89 19.06 2.57 o
113 1 -4 -7 1 25.44 20.84 2.64 o
114 1 -3 7 1 14.53 9.55 1.76 o
115 1 -3 -7 1 14.17 9.38 1.81 o
116 1 -2 7 1 1.41 0.81 0.60 <
117 6 -1 -7 -1 1.22 1.65 0.56 <
117 1 1 7 1 1.22 1.65 0.56 <
118 1 2 7 1 30.91 39.46 2.93 o
119 1 3 7 1 47.47 62.58 4.01 o
120 1 3 -7 1 47.65 57.93 3.74 o
121 1 -3 8 1 7.06 5.95 1.47 o
122 1 -3 -8 1 6.60 6.12 1.54 o
123 1 -2 8 1 47.55 40.98 3.64 o
124 6 -1 -8 -1 89.83 107.32 4.21 o
124 1 1 8 1 89.83 107.32 4.21 o
125 1 2 8 1 8.55 16.19 2.04 o
126 1 -2 0 2 2.85 4.40 0.59 o
127 1 -1 0 2 91.68 102.02 2.10 o
128 1 -3 1 2 111.49 93.57 4.70 o
129 1 -3 -1 2 107.79 102.39 4.84 o
130 1 -2 1 2 67.55 50.48 2.91 o
131 1 -2 -1 2 71.42 50.85 2.85 o
132 1 -1 1 2 241.30 244.12 3.31 o
133 1 -1 -1 2 239.05 247.35 5.33 o
134 1 -4 2 2 97.55 72.10 4.95 o
135 1 -4 -2 2 97.42 82.17 4.96 o
136 1 -3 2 2 102.86 88.09 4.70 o
137 1 -3 -2 2 107.74 86.19 4.62 o
138 1 -2 2 2 70.33 61.06 3.27 o
139 1 -2 -2 2 69.20 63.05 3.30 o
140 1 -1 2 2 647.23 749.52 10.63 o
141 1 -1 -2 2 647.22 731.35 10.81 o
142 1 -5 -3 2 40.85 33.30 3.45 o
143 1 -4 3 2 0.72 0.42 0.58 <
144 1 -4 -3 2 0.72 0.01 0.22 <
145 1 -3 3 2 101.21 96.89 4.97 o
146 1 -3 -3 2 100.44 100.14 4.86 o
147 1 -2 3 2 352.89 359.70 8.44 o
148 1 -2 -3 2 352.59 368.36 8.58 o
149 1 -1 3 2 24.46 25.34 2.13 o
150 1 -1 -3 2 23.94 27.51 2.25 o
151 6 -2 3 -2 28.05 21.75 1.44 o
151 1 2 -3 2 28.05 21.75 1.44 o
152 1 -6 -4 2 3.45 2.71 1.30 <
153 1 -5 4 2 2.23 1.78 0.74 <
154 1 -5 -4 2 2.23 3.06 1.32 <
155 1 -4 4 2 94.66 93.14 5.63 o
156 1 -4 -4 2 94.63 91.98 5.33 o
157 1 -3 4 2 54.75 50.31 3.74 o
158 1 -3 -4 2 53.55 55.95 3.83 o
159 1 -2 4 2 1.61 1.96 0.47 o
160 1 -2 -4 2 2.23 2.14 0.66 o
161 1 -1 4 2 310.48 352.56 9.05 o
162 1 1 4 2 47.38 44.07 1.76 o
163 6 -2 4 -2 355.93 333.33 5.57 o
163 1 2 -4 2 355.93 333.33 5.57 o
164 1 3 -4 2 9.41 8.42 1.11 o
165 1 -6 5 2 4.39 4.10 1.65 <
166 1 -6 -5 2 4.35 4.24 1.69 <
167 1 -5 5 2 14.94 11.95 2.28 o
168 1 -5 -5 2 15.81 10.92 2.11 o
169 1 -4 5 2 0.05 0.03 0.36 <
170 1 -4 -5 2 0.04 -0.40 0.62 <
171 1 -3 5 2 93.10 95.52 5.38 o
172 1 -3 -5 2 93.99 93.28 5.14 o
173 1 -2 5 2 103.82 102.66 5.19 o
174 1 -2 -5 2 103.81 114.53 5.57 o
175 1 1 5 2 116.96 125.79 3.62 o
176 6 -2 -5 -2 30.73 31.04 1.97 o
176 1 2 5 2 30.73 31.04 1.97 o
177 6 -2 5 -2 30.71 31.63 1.87 o
177 1 2 -5 2 30.71 31.63 1.87 o
178 1 3 -5 2 25.65 24.80 1.90 o
179 1 4 -5 2 11.31 14.26 1.70 o
180 1 -5 6 2 3.75 2.46 0.98 <
181 1 -5 -6 2 3.45 4.05 1.45 <
182 1 -4 6 2 31.88 22.72 3.06 o
183 1 -4 -6 2 31.81 24.20 2.91 o
184 1 -3 6 2 14.91 6.82 1.48 o
185 1 -3 -6 2 13.44 6.87 1.40 o
186 1 -2 6 2 24.64 28.96 2.79 o
187 1 -2 -6 2 24.79 32.15 3.13 o
188 1 1 6 2 32.63 34.91 2.18 o
189 6 -2 -6 -2 70.62 76.89 3.30 o
189 1 2 6 2 70.62 76.89 3.30 o
190 6 -2 6 -2 70.55 59.99 2.95 o
190 1 2 -6 2 70.55 59.99 2.95 o
191 1 3 -6 2 17.10 19.79 1.71 o
192 1 -4 7 2 0.32 -0.22 0.47 <
193 1 -4 -7 2 0.32 0.04 0.60 <
194 1 -3 7 2 12.71 7.23 1.61 o
195 1 -3 -7 2 13.08 9.93 1.83 o
196 1 -2 7 2 22.74 25.46 3.00 o
197 1 1 7 2 20.14 15.45 1.62 o
198 6 -2 -7 -2 1.97 0.85 0.21 o
198 1 2 7 2 1.97 0.85 0.21 o
199 1 -3 8 2 7.19 5.61 1.81 o
200 1 -3 -8 2 7.84 5.33 1.30 o
201 1 1 8 2 12.26 11.83 1.57 o
202 1 -3 0 3 314.10 266.26 5.71 o
203 1 -2 0 3 0.81 0.30 0.24 <
204 1 -1 0 3 1.08 0.95 0.20 o
205 1 -4 1 3 69.02 52.70 4.32 o
206 1 -4 -1 3 68.61 57.45 4.25 o
207 1 -3 1 3 0.43 0.63 0.53 <
208 1 -3 -1 3 0.44 0.40 0.16 <
209 1 -2 1 3 157.69 168.96 3.64 o
210 1 -2 -1 3 163.86 162.50 5.34 o
211 1 -1 1 3 81.61 63.46 1.94 o
212 1 -1 -1 3 76.72 74.23 2.16 o
213 1 0 -1 3 59.27 49.72 1.87 o
214 1 -5 2 3 7.20 2.46 1.03 <
215 1 -5 -2 3 6.69 3.25 0.98 o
216 1 -4 2 3 7.94 4.47 1.31 o
217 1 -4 -2 3 8.57 3.34 1.07 o
218 1 -3 2 3 134.00 126.75 5.68 o
219 1 -3 -2 3 134.79 132.50 5.71 o
220 1 -2 2 3 129.01 131.06 5.04 o
221 1 -2 -2 3 123.35 138.65 5.32 o
222 1 -1 2 3 169.31 167.73 3.37 o
223 1 -1 -2 3 173.87 176.76 6.10 o
224 1 -6 -3 3 1.79 0.95 0.79 <
225 1 -5 3 3 38.69 32.81 3.72 o
226 1 -5 -3 3 39.29 32.30 3.50 o
227 1 -4 3 3 31.59 25.73 3.20 o
228 1 -4 -3 3 33.45 25.70 2.99 o
229 1 -3 3 3 21.78 22.77 2.55 o
230 1 -3 -3 3 21.86 24.06 2.53 o
231 1 -2 3 3 166.60 186.10 6.55 o
232 1 -2 -3 3 166.64 197.67 6.79 o
233 1 -1 3 3 268.30 257.31 7.80 o
234 1 -1 -3 3 268.47 266.79 8.08 o
235 1 -6 4 3 17.14 10.72 2.34 o
236 1 -6 -4 3 17.14 7.82 1.89 o
237 1 -5 4 3 2.78 2.10 1.14 <
238 1 -5 -4 3 2.85 3.59 1.39 <
239 1 -4 4 3 3.77 1.64 0.72 <
240 1 -4 -4 3 3.40 2.73 0.97 <
241 1 -3 4 3 70.24 60.47 4.36 o
242 1 -3 -4 3 69.57 64.76 4.34 o
243 1 -2 4 3 92.77 97.26 5.09 o
244 1 -2 -4 3 93.83 109.44 5.56 o
245 1 2 -4 3 0.43 0.02 0.09 <
246 6 -3 4 -3 59.19 54.20 2.85 o
246 1 3 -4 3 59.19 54.20 2.85 o
247 1 -6 5 3 0.79 1.64 1.10 <
248 1 -6 -5 3 0.80 0.41 0.41 <
249 1 -5 5 3 16.82 13.31 2.43 o
250 1 -5 -5 3 15.95 11.58 2.23 o
251 1 -4 5 3 30.27 26.04 3.21 o
252 1 -4 -5 3 28.73 26.24 3.10 o
253 1 -3 5 3 1.37 0.47 0.21 <
254 1 -3 -5 3 1.25 0.28 0.73 <
255 1 -2 5 3 76.16 78.66 4.86 o
256 1 -2 -5 3 75.16 88.07 5.30 o
257 1 0 5 3 1.04 0.54 0.21 <
258 1 1 5 3 58.84 40.61 1.51 o
259 1 2 -5 3 48.57 29.18 1.55 o
260 6 -3 5 -3 22.32 20.69 1.59 o
260 1 3 -5 3 22.32 20.69 1.59 o
261 1 -5 6 3 3.54 2.45 0.78 o
262 1 -5 -6 3 3.86 2.20 0.90 <
263 1 -4 6 3 3.64 1.97 0.85 <
264 1 -4 -6 3 3.63 2.79 1.04 <
265 1 -3 6 3 78.88 73.43 5.24 o
266 1 -3 -6 3 79.03 76.92 5.43 o
267 1 -2 6 3 26.25 26.51 3.00 o
268 1 -2 -6 3 28.65 24.21 2.97 o
269 1 1 6 3 19.17 15.89 1.19 o
270 1 -4 7 3 25.08 24.84 3.31 o
271 1 -4 -7 3 25.65 25.05 3.41 o
272 1 -3 -7 3 2.02 1.87 0.79 <
273 1 1 7 3 29.40 29.70 1.91 o
274 1 2 7 3 9.62 7.92 0.96 o
275 1 -4 0 4 65.15 68.68 3.35 o
276 1 -3 0 4 27.85 35.42 2.05 o
277 1 -2 0 4 135.81 128.65 3.30 o
278 1 -1 0 4 141.92 128.88 3.16 o
279 1 -5 -1 4 4.04 1.75 0.83 <
280 1 -4 1 4 93.93 94.92 5.67 o
281 1 -4 -1 4 94.04 93.17 5.54 o
282 1 -3 1 4 128.12 122.26 3.79 o
283 1 -3 -1 4 126.96 124.62 5.50 o
284 1 -2 1 4 27.27 28.05 1.54 o
285 1 -2 -1 4 26.43 27.40 1.53 o
286 1 -1 1 4 115.74 100.48 2.81 o
287 1 -1 -1 4 116.74 109.72 2.99 o
288 1 0 -1 4 246.20 192.04 4.51 o
289 1 -6 -2 4 0.18 -0.08 0.70 <
290 1 -5 2 4 37.46 29.79 3.35 o
291 1 -5 -2 4 38.36 27.67 3.35 o
292 1 -4 2 4 8.81 7.04 1.51 o
293 1 -4 -2 4 8.82 7.59 1.59 o
294 1 -3 2 4 0.07 0.02 0.30 <
295 1 -3 -2 4 0.07 0.49 0.45 <
296 1 -2 2 4 100.34 106.69 3.17 o
297 1 -2 -2 4 100.43 111.02 5.12 o
298 1 -1 2 4 24.43 19.11 1.24 o
299 1 -1 -2 4 25.23 20.46 1.36 o
300 1 0 -2 4 10.18 6.75 0.63 o
301 1 -6 3 4 5.35 4.02 1.43 <
302 1 -6 -3 4 5.36 4.13 1.43 <
303 1 -5 3 4 0.09 -0.23 0.39 <
304 1 -5 -3 4 0.08 0.48 0.34 <
305 1 -4 3 4 4.51 2.54 1.00 <
306 1 -4 -3 4 4.78 1.22 0.85 <
307 1 -3 3 4 24.53 23.59 2.56 o
308 1 -3 -3 4 22.79 26.73 2.88 o
309 1 -2 3 4 14.77 15.65 2.09 o
310 1 -2 -3 4 14.46 15.54 1.99 o
311 1 -1 3 4 63.63 58.03 2.34 o
312 1 -6 4 4 3.35 2.28 0.91 <
313 1 -6 -4 4 3.36 2.37 0.95 <
314 1 -5 4 4 16.84 15.70 2.71 o
315 1 -5 -4 4 16.33 13.57 2.43 o
316 1 -4 4 4 0.01 1.33 0.97 <
317 1 -4 -4 4 0.05 0.20 0.61 <
318 1 -3 4 4 5.02 5.06 1.31 o
319 1 -3 -4 4 5.08 4.90 1.35 o
320 1 -2 4 4 186.18 188.92 7.64 o
321 1 -2 -4 4 185.61 224.19 8.69 o
322 1 2 -4 4 33.35 19.40 1.13 o
323 1 -5 5 4 1.04 -0.05 0.43 <
324 1 -5 -5 4 1.04 -0.48 0.71 <
325 1 -4 5 4 12.58 9.27 1.72 o
326 1 -4 -5 4 12.11 11.50 2.24 o
327 1 -3 5 4 30.84 32.84 3.39 o
328 1 -3 -5 4 32.82 34.75 3.63 o
329 1 -2 5 4 17.73 18.21 2.43 o
330 1 -2 -5 4 18.09 18.67 2.63 o
331 1 -5 6 4 15.68 14.41 2.72 o
332 1 -5 -6 4 15.57 11.47 2.41 o
333 1 -4 6 4 14.79 14.45 2.41 o
334 1 -4 -6 4 14.70 12.44 2.36 o
335 1 -3 6 4 0.53 0.28 0.64 <
336 1 -3 -6 4 0.52 2.61 1.99 <
337 1 -2 6 4 33.64 33.93 3.57 o
338 1 0 6 4 7.52 1.73 0.37 o
339 1 -4 7 4 31.58 34.93 4.00 o
340 1 -4 -7 4 31.58 33.95 4.26 o
341 1 -3 7 4 52.45 55.29 5.18 o
342 1 -3 -7 4 52.26 63.63 5.76 o
343 1 0 7 4 108.81 60.05 3.02 o
344 1 -5 0 5 2.42 0.84 0.53 <
345 1 -4 0 5 108.54 119.97 4.36 o
346 1 -3 0 5 34.60 51.57 2.61 o
347 1 -2 0 5 1.88 1.86 0.40 o
348 1 -1 0 5 175.62 163.94 4.07 o
349 1 -5 1 5 19.22 19.25 2.64 o
350 1 -5 -1 5 19.71 18.59 2.77 o
351 1 -4 1 5 12.62 13.01 1.39 o
352 1 -4 -1 5 12.82 12.66 1.97 o
353 1 -3 1 5 44.25 54.91 2.59 o
354 1 -3 -1 5 42.28 56.37 2.68 o
355 1 -2 1 5 38.43 56.07 2.37 o
356 1 -2 -1 5 39.32 54.44 2.45 o
357 1 -1 1 5 32.12 29.87 1.71 o
358 1 -1 -1 5 33.33 30.55 2.05 o
359 1 0 -1 5 52.13 51.20 2.64 o
360 1 -6 2 5 3.07 4.50 1.52 <
361 1 -6 -2 5 3.26 1.74 1.06 <
362 1 -5 2 5 0.97 1.58 0.84 <
363 1 -5 -2 5 0.94 0.73 0.49 <
364 1 -4 2 5 35.58 36.01 3.54 o
365 1 -4 -2 5 34.51 35.32 3.48 o
366 1 -3 2 5 25.24 41.09 2.33 o
367 1 -3 -2 5 25.56 42.33 3.60 o
368 1 -2 2 5 19.98 25.62 1.62 o
369 1 -2 -2 5 19.34 23.38 1.73 o
370 1 -1 2 5 65.11 60.47 2.49 o
371 1 -1 -2 5 66.99 58.95 2.66 o
372 1 0 -2 5 36.38 33.54 1.71 o
373 1 -6 3 5 7.53 5.30 2.05 <
374 1 -6 -3 5 7.31 3.64 1.47 <
375 1 -5 3 5 7.43 4.36 1.60 <
376 1 -5 -3 5 7.24 4.15 1.39 <
377 1 -4 3 5 2.10 1.57 0.57 <
378 1 -4 -3 5 1.91 2.23 1.07 <
379 1 -3 3 5 55.31 66.23 4.68 o
380 1 -3 -3 5 54.56 70.55 4.92 o
381 1 -2 3 5 73.37 95.64 3.32 o
382 1 -2 -3 5 74.71 115.60 6.40 o
383 1 -1 3 5 16.24 14.22 1.07 o
384 1 1 -3 5 26.65 9.90 0.91 o
385 1 -6 4 5 1.61 0.14 0.83 <
386 1 -6 -4 5 1.55 0.90 0.60 <
387 1 -5 4 5 0.34 0.77 0.31 <
388 1 -5 -4 5 0.32 0.97 0.96 <
389 1 -4 4 5 11.64 9.45 2.01 o
390 1 -4 -4 5 12.30 12.19 2.21 o
391 1 -3 4 5 9.57 11.11 2.09 o
392 1 -3 -4 5 9.64 12.44 2.24 o
393 1 -2 4 5 0.23 -0.44 0.50 <
394 1 -2 -4 5 0.30 0.05 0.16 <
395 1 -1 4 5 14.73 8.97 0.71 o
396 1 2 -4 5 16.20 8.31 0.67 o
397 1 -5 5 5 6.75 10.14 2.26 o
398 1 -5 -5 5 6.91 7.00 1.81 o
399 1 -4 5 5 3.19 3.37 1.38 <
400 1 -4 -5 5 3.31 4.55 1.67 <
401 1 -3 5 5 22.57 23.08 3.07 o
402 1 -3 -5 5 23.71 26.59 3.51 o
403 1 -2 5 5 51.10 77.60 5.71 o
404 1 -2 -5 5 49.77 87.96 6.30 o
405 1 -1 5 5 8.64 3.88 0.50 o
406 1 -4 6 5 25.84 32.22 3.98 o
407 1 -4 -6 5 25.80 38.83 4.48 o
408 1 -3 6 5 20.77 30.11 4.01 o
409 1 -3 -6 5 20.49 37.14 4.69 o
410 1 -5 0 6 2.66 3.93 0.89 o
411 1 -4 0 6 1.96 1.66 0.56 <
412 1 -3 0 6 1.61 3.78 0.66 o
413 1 -2 0 6 1.73 4.43 0.67 o
414 1 -1 0 6 5.42 4.29 0.80 o
415 1 -6 1 6 0.23 0.85 0.56 <
416 1 -6 -1 6 0.26 0.35 0.46 <
417 1 -5 1 6 9.73 10.50 1.46 o
418 1 -5 -1 6 9.76 10.03 1.96 o
419 1 -4 1 6 15.22 33.11 2.31 o
420 1 -4 -1 6 14.92 29.39 2.22 o
421 1 -3 1 6 11.38 30.32 2.01 o
422 1 -3 -1 6 11.81 29.69 1.99 o
423 1 -2 1 6 28.10 37.14 2.05 o
424 1 -2 -1 6 27.64 41.39 2.27 o
425 1 -1 1 6 35.87 47.12 3.52 o
426 1 -1 -1 6 37.34 47.63 2.91 o
427 1 0 -1 6 19.28 15.47 1.62 o
428 1 -6 2 6 8.18 8.93 2.28 o
429 1 -6 -2 6 8.12 6.70 2.06 o
430 1 -5 2 6 5.22 7.80 2.00 o
431 1 -5 -2 6 4.94 6.99 1.80 o
432 1 -4 2 6 1.82 1.94 0.64 o
433 1 -4 -2 6 1.78 3.47 2.58 <
434 1 -3 2 6 60.37 96.92 3.66 o
435 1 -3 -2 6 59.55 101.53 6.13 o
436 1 -2 2 6 43.52 92.54 3.38 o
437 1 -2 -2 6 44.55 90.74 3.67 o
438 1 -1 2 6 1.49 2.06 0.98 <
439 1 -1 -2 6 1.53 2.19 0.53 o
440 1 0 -2 6 22.63 25.61 1.77 o
441 1 -6 3 6 4.50 2.96 1.30 <
442 1 -6 -3 6 4.51 3.45 1.49 <
443 1 -5 3 6 5.22 5.11 1.90 <
444 1 -5 -3 6 5.30 4.93 1.54 o
445 1 -4 3 6 16.36 31.27 3.70 o
446 1 -4 -3 6 16.45 30.07 3.67 o
447 1 -3 3 6 11.51 18.44 1.61 o
448 1 -3 -3 6 12.03 21.29 2.97 o
449 1 -2 3 6 11.76 17.66 1.53 o
450 1 -2 -3 6 11.34 27.27 3.52 o
451 1 0 -3 6 0.48 2.45 0.53 o
452 1 1 -3 6 12.81 4.50 0.83 o
453 1 -5 4 6 10.09 18.62 3.13 o
454 1 -5 -4 6 10.22 16.30 2.84 o
455 1 -4 4 6 2.59 2.39 0.89 <
456 1 -4 -4 6 2.63 3.78 1.43 <
457 1 -3 4 6 30.83 50.40 2.85 o
458 1 -3 -4 6 31.04 68.00 5.75 o
459 1 -2 4 6 32.57 51.69 2.74 o
460 1 -2 -4 6 32.60 71.96 5.82 o
461 1 -4 5 6 13.65 25.08 3.38 o
462 1 -4 -5 6 13.73 28.19 3.96 o
463 1 -3 5 6 13.56 26.50 3.57 o
464 1 -3 -5 6 12.97 27.51 3.83 o
465 1 -2 5 6 16.27 17.69 1.51 o
466 1 -6 0 7 0.62 0.94 0.50 <
467 1 -5 0 7 5.02 5.10 1.00 o
468 1 -4 0 7 8.91 14.50 1.60 o
469 1 -3 0 7 0.09 0.32 0.29 <
470 1 -2 0 7 20.03 17.02 1.54 o
471 1 -1 0 7 8.84 7.13 1.25 o
472 1 -6 1 7 1.65 0.98 0.79 <
473 1 -6 -1 7 1.49 2.97 1.39 <
474 1 -5 1 7 4.87 3.44 0.85 o
475 1 -5 -1 7 4.65 5.05 1.54 o
476 1 -4 1 7 4.66 4.14 0.80 o
477 1 -4 -1 7 4.99 4.58 0.92 o
478 1 -3 1 7 11.81 15.16 1.43 o
479 1 -3 -1 7 11.73 16.68 1.59 o
480 1 -2 1 7 4.24 2.11 0.58 o
481 1 -2 -1 7 3.85 1.98 0.60 o
482 1 -1 1 7 7.30 5.28 1.39 o
483 1 -1 -1 7 7.92 4.35 0.93 o
484 1 0 -1 7 6.73 3.56 0.74 o
485 1 -5 2 7 5.78 4.82 0.98 o
486 1 -5 -2 7 6.06 3.06 1.19 <
487 1 -4 2 7 8.48 10.77 1.39 o
488 1 -4 -2 7 8.75 11.54 2.28 o
489 1 -3 2 7 0.87 0.69 0.42 <
490 1 -3 -2 7 0.85 1.62 0.50 o
491 1 -2 2 7 10.54 7.04 0.92 o
492 1 -2 -2 7 10.25 10.02 1.22 o
493 1 -1 -2 7 14.29 16.18 1.56 o
494 1 0 -2 7 1.65 0.46 0.23 <
495 1 -5 3 7 2.02 1.69 0.78 <
496 1 -5 -3 7 2.01 1.81 1.09 <
497 1 -4 3 7 10.70 12.61 1.54 o
498 1 -4 -3 7 10.66 13.16 2.61 o
499 1 -3 3 7 17.29 19.38 1.65 o
500 1 -3 -3 7 17.16 26.27 3.50 o
501 1 -2 3 7 17.63 12.65 1.33 o
502 1 -1 -3 7 11.54 9.50 1.06 o
503 1 -4 4 7 5.66 6.91 2.15 o
504 1 -4 -4 7 5.42 5.66 1.78 o
505 1 -3 4 7 0.09 -0.12 0.13 <
506 1 -3 -4 7 0.09 0.97 0.99 <
507 1 -2 4 7 17.22 11.65 1.24 o
508 1 -4 0 8 12.46 15.72 1.71 o
509 1 -3 0 8 18.46 22.40 1.95 o
510 1 -3 1 8 5.59 4.82 0.92 o
511 1 -3 -1 8 5.47 6.20 1.12 o
512 2 0 0 1 200.49 147.37 2.52 o
513 2 0 1 1 723.85 650.53 8.19 o
514 2 0 -1 1 723.95 646.09 8.36 o
515 3 -1 -1 -1 461.87 514.91 7.57 o
515 2 1 1 1 461.87 514.91 7.57 o
516 3 -1 1 -1 462.19 544.69 7.92 o
516 2 1 -1 1 462.19 544.69 7.92 o
517 2 -2 2 1 508.78 512.43 6.78 o
518 2 0 2 1 2.10 0.18 0.29 <
519 2 0 -2 1 2.43 0.20 0.23 <
520 3 -1 -2 -1 1221.45 1514.10 13.62 o
520 2 1 2 1 1221.45 1514.10 13.62 o
521 3 -1 2 -1 1221.49 1491.20 13.69 o
521 2 1 -2 1 1221.49 1491.20 13.69 o
522 2 2 2 1 131.90 205.30 7.76 o
523 2 2 -2 1 138.03 211.33 8.34 o
524 2 -4 3 1 32.61 22.96 2.84 o
525 2 -3 3 1 102.03 94.10 4.13 o
526 2 -2 3 1 5.53 7.95 0.87 o
527 2 -2 -3 1 5.54 8.80 1.00 o
528 2 0 3 1 29.82 32.62 2.54 o
529 2 0 -3 1 29.62 32.60 2.58 o
530 3 -1 -3 -1 42.15 50.30 2.60 o
530 2 1 3 1 42.15 50.30 2.60 o
531 3 -1 3 -1 42.22 49.68 2.63 o
531 2 1 -3 1 42.22 49.68 2.63 o
532 2 2 3 1 177.15 266.40 8.78 o
533 2 2 -3 1 177.32 291.98 9.75 o
534 2 3 3 1 24.35 28.88 3.35 o
535 2 3 -3 1 26.08 31.97 3.71 o
536 2 4 3 1 1.83 1.73 0.85 <
537 2 -5 4 1 15.52 11.68 2.20 o
538 2 -4 4 1 2.98 1.48 0.49 o
539 2 -3 4 1 54.22 51.24 3.13 o
540 2 -3 -4 1 55.75 52.83 3.67 o
541 2 -2 4 1 372.75 360.01 7.63 o
542 2 -2 -4 1 373.02 371.85 7.69 o
543 2 0 -4 1 3.81 6.58 1.43 o
544 3 -1 -4 -1 596.27 837.59 12.23 o
544 2 1 4 1 596.27 837.59 12.23 o
545 3 -1 4 -1 595.87 786.39 11.95 o
545 2 1 -4 1 595.87 786.39 11.95 o
546 2 2 4 1 95.12 132.84 6.19 o
547 2 2 -4 1 94.06 146.35 6.94 o
548 2 3 4 1 6.03 4.25 1.14 o
549 2 3 -4 1 6.11 5.83 1.69 o
550 2 4 4 1 14.13 9.65 2.08 o
551 2 -5 5 1 0.97 1.10 0.73 <
552 2 -4 5 1 25.85 23.76 2.60 o
553 2 -4 -5 1 27.36 26.59 3.23 o
554 2 -3 5 1 99.55 97.40 4.62 o
555 2 -3 -5 1 98.73 85.89 4.80 o
556 2 -2 -5 1 36.35 42.30 2.78 o
557 3 -1 -5 -1 87.65 111.49 4.74 o
557 2 1 5 1 87.65 111.49 4.74 o
558 3 -1 5 -1 87.55 97.88 4.38 o
558 2 1 -5 1 87.55 97.88 4.38 o
559 2 2 5 1 76.77 133.21 6.85 o
560 2 2 -5 1 77.89 125.81 6.75 o
561 2 3 5 1 32.53 30.44 3.33 o
562 2 3 -5 1 30.56 37.13 4.09 o
563 2 4 5 1 3.35 1.95 0.98 <
564 2 4 -5 1 3.25 1.01 0.55 <
565 2 -5 6 1 15.92 12.28 2.10 o
566 2 -4 6 1 4.24 3.58 1.10 o
567 2 -4 -6 1 4.41 2.23 0.74 o
568 2 -3 6 1 11.41 7.87 1.41 o
569 2 -3 -6 1 12.80 7.33 1.46 o
570 2 -2 -6 1 84.48 79.93 4.41 o
571 3 -1 -6 -1 251.79 360.22 9.50 o
571 2 1 6 1 251.79 360.22 9.50 o
572 3 -1 6 -1 252.18 318.92 8.84 o
572 2 1 -6 1 252.18 318.92 8.84 o
573 2 2 6 1 25.31 32.51 3.50 o
574 2 2 -6 1 23.22 34.16 3.54 o
575 2 3 6 1 1.00 1.62 0.74 <
576 2 3 -6 1 0.94 1.03 1.08 <
577 2 4 6 1 26.51 27.45 3.33 o
578 2 4 -6 1 26.34 37.72 4.69 o
579 2 -4 7 1 26.50 23.69 2.75 o
580 2 -4 -7 1 26.03 25.74 3.07 o
581 2 -3 -7 1 14.50 9.87 1.68 o
582 2 -2 -7 1 1.44 0.19 0.53 <
583 3 -1 7 -1 1.19 2.12 0.83 <
583 2 1 -7 1 1.19 2.12 0.83 <
584 2 2 7 1 31.63 39.77 4.12 o
585 2 2 -7 1 32.33 38.58 4.14 o
586 2 3 7 1 48.58 58.44 5.22 o
587 2 3 -7 1 48.76 62.37 5.76 o
588 2 -3 -8 1 6.76 8.98 1.90 o
589 2 -2 -8 1 48.65 44.44 3.95 o
590 3 -1 8 -1 87.95 90.88 5.24 o
590 2 1 -8 1 87.95 90.88 5.24 o
591 2 2 8 1 8.75 16.01 2.75 o
592 2 2 -8 1 9.85 14.36 2.82 o
593 2 -1 0 2 93.83 95.66 2.25 o
594 2 0 0 2 5.53 6.80 0.81 o
595 2 -1 1 2 246.95 266.86 4.08 o
596 2 -1 -1 2 244.64 243.02 3.79 o
597 2 0 1 2 95.17 97.08 4.41 o
598 2 0 -1 2 95.17 92.60 4.27 o
599 2 1 1 2 77.86 69.33 4.36 o
600 2 1 -1 2 82.56 67.91 4.47 o
601 2 -1 2 2 662.38 687.45 12.06 o
602 2 -1 -2 2 662.37 706.51 12.49 o
603 2 0 2 2 237.12 177.50 6.12 o
604 2 0 -2 2 237.29 190.49 6.54 o
605 2 1 2 2 177.44 154.55 6.64 o
606 2 1 -2 2 172.76 165.96 7.08 o
607 3 -2 -2 -2 193.64 203.32 8.46 o
607 2 2 2 2 193.64 203.32 8.46 o
608 3 -2 2 -2 193.58 231.24 9.58 o
608 2 2 -2 2 193.58 231.24 9.58 o
609 2 -4 3 2 0.73 -0.04 0.21 <
610 2 -3 3 2 103.58 80.72 2.65 o
611 2 0 3 2 383.89 418.05 11.01 o
612 2 0 -3 2 384.01 363.16 9.70 o
613 2 1 3 2 262.41 257.01 8.66 o
614 2 1 -3 2 262.35 256.73 8.78 o
615 3 -2 -3 -2 27.49 22.69 2.84 o
615 2 2 3 2 27.49 22.69 2.84 o
616 3 -2 3 -2 27.52 25.27 3.14 o
616 2 2 -3 2 27.52 25.27 3.14 o
617 2 3 3 2 56.88 69.79 5.50 o
618 2 3 -3 2 57.74 81.51 6.60 o
619 2 -5 4 2 2.28 3.72 1.76 <
620 2 -4 4 2 96.87 76.60 3.57 o
621 2 -3 4 2 56.03 43.96 2.38 o
622 2 -3 -4 2 54.80 59.08 2.92 o
623 2 -2 -4 2 2.28 2.00 0.46 o
624 2 0 4 2 15.46 20.27 2.43 o
625 2 0 -4 2 15.45 16.97 2.17 o
626 2 1 4 2 48.49 47.14 3.85 o
627 2 1 -4 2 49.57 45.08 3.80 o
628 3 -2 -4 -2 349.06 375.93 11.91 o
628 2 2 4 2 349.06 375.93 11.91 o
629 3 -2 4 -2 349.18 405.69 13.08 o
629 2 2 -4 2 349.18 405.69 13.08 o
630 2 3 4 2 9.47 7.85 1.64 o
631 2 3 -4 2 9.63 9.90 2.32 o
632 2 4 4 2 2.80 2.69 1.29 <
633 2 -6 5 2 4.49 1.97 0.77 <
634 2 -5 5 2 15.28 14.79 1.80 o
635 2 -4 5 2 0.05 0.59 0.48 <
636 2 -3 -5 2 96.19 95.78 3.97 o
637 2 -2 -5 2 106.24 106.07 4.21 o
638 2 0 5 2 156.56 152.64 7.46 o
639 2 0 -5 2 156.50 147.41 7.32 o
640 2 1 5 2 119.70 131.91 7.17 o
641 2 1 -5 2 118.93 124.99 6.97 o
642 3 -2 -5 -2 30.16 30.20 3.42 o
642 2 2 5 2 30.16 30.20 3.42 o
643 3 -2 5 -2 30.11 35.02 3.92 o
643 2 2 -5 2 30.11 35.02 3.92 o
644 2 3 5 2 27.43 24.71 3.44 o
645 2 3 -5 2 26.25 29.37 4.10 o
646 2 4 5 2 11.63 15.75 3.01 o
647 2 4 -5 2 11.57 20.40 3.69 o
648 2 -5 6 2 3.83 5.00 1.27 o
649 2 -4 6 2 32.63 23.57 2.14 o
650 2 -4 -6 2 32.56 28.67 2.66 o
651 2 -3 -6 2 13.75 8.53 1.21 o
652 2 -2 -6 2 25.37 31.11 2.60 o
653 2 0 -6 2 59.93 62.86 5.11 o
654 2 1 6 2 33.39 33.52 3.80 o
655 2 1 -6 2 35.24 30.90 3.61 o
656 3 -2 -6 -2 69.33 69.33 5.68 o
656 2 2 6 2 69.33 69.33 5.68 o
657 3 -2 6 -2 69.15 64.60 5.57 o
657 2 2 -6 2 69.15 64.60 5.57 o
658 2 3 6 2 17.21 20.27 3.15 o
659 2 3 -6 2 17.50 21.47 3.52 o
660 2 -4 -7 2 0.33 -0.21 0.58 <
661 2 -3 -7 2 13.39 11.96 1.61 o
662 2 1 7 2 20.61 10.90 2.17 o
663 2 1 -7 2 20.16 14.25 2.61 o
664 3 -2 -7 -2 1.93 0.47 0.57 <
664 2 2 7 2 1.93 0.47 0.57 <
665 3 -2 7 -2 1.93 0.88 0.57 <
665 2 2 -7 2 1.93 0.88 0.57 <
666 2 -3 -8 2 8.02 7.67 1.36 o
667 2 1 -8 2 11.66 8.01 2.08 o
668 2 -2 0 3 0.83 0.24 0.21 <
669 2 -1 0 3 1.10 1.39 0.37 o
670 2 0 0 3 231.89 189.03 5.23 o
671 2 -2 1 3 161.38 167.38 4.07 o
672 2 -2 -1 3 167.69 157.20 3.64 o
673 2 -1 1 3 83.53 66.62 2.58 o
674 2 -1 -1 3 78.52 67.99 2.57 o
675 2 0 1 3 60.72 48.52 3.79 o
676 2 0 -1 3 60.66 37.81 2.39 o
677 2 1 1 3 120.80 100.86 6.19 o
678 2 1 -1 3 119.93 110.96 6.66 o
679 2 -1 2 3 173.27 190.25 7.35 o
680 2 -1 -2 3 177.94 148.23 4.04 o
681 2 0 2 3 221.84 205.86 8.16 o
682 2 0 -2 3 221.48 201.50 7.89 o
683 2 1 2 3 25.72 18.03 2.63 o
684 2 1 -2 3 24.81 21.49 2.99 o
685 2 2 2 3 19.28 17.35 2.81 o
686 2 2 -2 3 19.98 16.79 2.85 o
687 2 -4 3 3 32.33 24.93 1.61 o
688 2 -1 3 3 274.58 270.14 9.45 o
689 2 -1 -3 3 274.75 252.16 9.10 o
690 2 0 3 3 6.37 2.17 0.96 <
691 2 0 -3 3 6.37 2.59 1.00 <
692 2 1 3 3 71.99 62.15 5.08 o
693 2 1 -3 3 69.46 68.43 5.31 o
694 2 2 3 3 72.10 65.04 5.32 o
695 2 2 -3 3 70.91 76.44 6.43 o
696 3 -3 -3 -3 23.23 19.14 3.28 o
696 2 3 3 3 23.23 19.14 3.28 o
697 3 -3 3 -3 23.16 24.48 3.98 o
697 2 3 -3 3 23.16 24.48 3.98 o
698 2 -5 4 3 2.84 2.48 0.67 o
699 2 -4 4 3 3.86 1.28 0.33 o
700 2 -1 4 3 48.19 49.02 4.25 o
701 2 -1 -4 3 47.40 48.83 4.36 o
702 2 0 4 3 160.68 146.64 8.02 o
703 2 0 -4 3 160.42 141.24 7.48 o
704 2 1 4 3 48.41 44.39 4.30 o
705 2 1 -4 3 49.33 43.11 4.34 o
706 2 2 4 3 0.53 1.38 1.10 <
707 2 2 -4 3 0.44 -1.30 1.03 <
708 3 -3 -4 -3 58.10 60.14 5.74 o
708 2 3 4 3 58.10 60.14 5.74 o
709 3 -3 4 -3 58.05 70.84 7.57 o
709 2 3 -4 3 58.05 70.84 7.57 o
710 2 4 4 3 4.79 3.80 1.80 <
711 2 -6 5 3 0.81 1.00 0.38 <
712 2 -5 5 3 17.21 11.42 1.19 o
713 2 -3 -5 3 1.28 0.47 0.21 <
714 2 -1 -5 3 122.65 125.15 7.75 o
715 2 0 5 3 1.06 0.85 0.45 <
716 2 0 -5 3 1.07 0.11 0.53 <
717 2 1 5 3 60.22 56.26 5.31 o
718 2 1 -5 3 62.66 51.28 5.02 o
719 2 2 5 3 48.25 49.99 4.84 o
720 2 2 -5 3 49.70 52.93 5.38 o
721 3 -3 -5 -3 21.85 22.38 3.49 o
721 2 3 5 3 21.85 22.38 3.49 o
722 3 -3 5 -3 21.92 29.05 4.48 o
722 2 3 -5 3 21.92 29.05 4.48 o
723 2 -5 6 3 3.62 3.25 0.81 o
724 2 -4 -6 3 3.71 4.28 0.91 o
725 2 -3 -6 3 80.88 70.25 3.24 o
726 2 0 6 3 79.41 62.11 5.61 o
727 2 0 -6 3 79.27 51.74 5.06 o
728 2 1 6 3 19.61 12.15 2.58 o
729 2 1 -6 3 19.37 17.21 3.78 o
730 2 2 6 3 8.09 5.32 1.71 o
731 2 2 -6 3 7.75 7.37 1.70 o
732 2 -4 -7 3 26.25 26.45 2.19 o
733 2 -3 -7 3 2.07 0.82 0.19 o
734 2 0 7 3 25.81 18.22 3.17 o
735 2 0 -7 3 25.79 15.14 2.85 o
736 2 1 7 3 30.09 23.39 3.67 o
737 2 1 -7 3 29.72 27.29 3.99 o
738 2 2 7 3 9.85 4.16 1.59 <
739 2 2 -7 3 9.48 8.49 2.45 o
740 2 0 -8 3 48.79 41.65 5.02 o
741 2 -3 0 4 28.50 35.80 2.83 o
742 2 -2 0 4 138.99 131.00 3.84 o
743 2 -1 0 4 145.24 131.30 4.17 o
744 2 0 0 4 1.87 1.92 0.68 <
745 2 1 0 4 180.07 118.96 7.56 o
746 2 -3 1 4 131.12 118.26 4.02 o
747 2 -2 1 4 27.91 29.30 1.82 o
748 2 -2 -1 4 27.05 26.61 1.62 o
749 2 -1 1 4 118.45 108.89 3.90 o
750 2 -1 -1 4 119.47 106.08 3.78 o
751 2 0 1 4 251.75 195.86 8.48 o
752 2 0 -1 4 251.96 215.79 6.43 o
753 2 1 1 4 33.16 22.26 3.37 o
754 2 1 -1 4 32.00 26.08 3.61 o
755 2 -3 2 4 0.08 0.07 0.18 <
756 2 -2 2 4 102.68 104.74 3.69 o
757 2 -2 -2 4 102.78 102.22 3.45 o
758 2 -1 2 4 25.00 21.38 2.80 o
759 2 -1 -2 4 25.82 21.26 1.75 o
760 2 0 2 4 10.37 6.56 1.71 o
761 2 0 -2 4 10.42 6.66 1.67 o
762 2 1 2 4 68.65 47.43 4.71 o
763 2 1 -2 4 66.74 56.54 5.44 o
764 2 2 2 4 41.34 37.85 4.73 o
765 2 2 -2 4 40.45 41.14 5.31 o
766 2 -2 3 4 15.11 14.22 2.31 o
767 2 -2 -3 4 14.79 13.96 1.39 o
768 2 -1 3 4 65.11 69.65 5.55 o
769 2 -1 -3 4 67.38 64.07 4.96 o
770 2 0 3 4 4.39 2.05 0.79 <
771 2 0 -3 4 4.14 2.82 1.27 <
772 2 1 3 4 14.32 9.46 2.18 o
773 2 1 -3 4 14.31 13.57 2.65 o
774 2 2 3 4 10.81 8.82 2.25 o
775 2 2 -3 4 11.19 10.10 2.78 o
776 2 3 3 4 16.00 16.60 3.17 o
777 2 3 -3 4 16.10 17.34 3.61 o
778 2 -6 4 4 3.42 1.86 0.67 <
779 2 -1 4 4 53.57 51.33 4.94 o
780 2 -1 -4 4 52.97 47.47 4.52 o
781 2 0 4 4 1.46 0.30 4.16 <
782 2 0 -4 4 1.42 0.61 0.64 <
783 2 1 4 4 13.38 11.13 2.37 o
784 2 1 -4 4 13.82 12.24 2.64 o
785 2 2 4 4 34.05 30.64 4.16 o
786 2 2 -4 4 34.13 33.59 4.76 o
787 2 3 4 4 0.09 1.46 1.42 <
788 2 3 -4 4 0.09 1.41 1.33 <
789 2 -6 5 4 5.55 1.81 0.43 o
790 2 -1 5 4 66.61 58.05 5.44 o
791 2 -1 -5 4 64.10 54.27 5.11 o
792 2 0 5 4 17.18 8.74 2.12 o
793 2 0 -5 4 17.13 7.38 1.87 o
794 2 1 5 4 9.95 2.82 1.12 <
795 2 1 -5 4 10.23 4.25 1.67 <
796 2 2 5 4 17.50 13.22 2.62 o
797 2 2 -5 4 17.03 16.12 3.27 o
798 2 -3 -6 4 0.53 0.61 0.32 <
799 2 -1 6 4 19.24 17.22 3.10 o
800 2 -1 -6 4 19.48 15.21 3.04 o
801 2 0 6 4 7.69 3.12 1.14 <
802 2 0 -6 4 7.74 4.44 1.55 <
803 2 1 6 4 51.53 50.66 5.70 o
804 2 1 -6 4 52.18 43.74 5.24 o
805 2 -4 -7 4 32.32 27.67 1.77 o
806 2 0 7 4 111.36 92.64 7.93 o
807 2 0 -7 4 111.62 94.77 8.05 o
808 2 -4 0 5 111.08 122.42 6.16 o
809 2 -3 0 5 35.41 55.09 2.77 o
810 2 -2 0 5 1.93 3.06 0.62 o
811 2 -1 0 5 179.73 170.79 5.59 o
812 2 0 0 5 106.07 88.48 4.60 o
813 2 1 0 5 4.69 2.28 1.14 <
814 2 -4 1 5 12.91 15.00 1.72 o
815 2 -3 1 5 45.29 55.85 2.72 o
816 2 -3 -1 5 43.27 58.36 2.79 o
817 2 -2 1 5 39.33 62.20 3.11 o
818 2 -2 -1 5 40.24 57.51 2.87 o
819 2 -1 1 5 32.87 31.40 2.43 o
820 2 -1 -1 5 34.11 30.59 2.36 o
821 2 0 1 5 53.33 45.15 4.58 o
822 2 0 -1 5 53.35 49.41 3.48 o
823 2 1 1 5 37.93 27.61 4.02 o
824 2 1 -1 5 36.37 36.69 4.83 o
825 2 -4 2 5 36.41 37.39 2.19 o
826 2 -3 2 5 25.83 47.41 2.77 o
827 2 -3 -2 5 26.16 45.65 2.60 o
828 2 -2 2 5 20.45 28.09 2.21 o
829 2 -2 -2 5 19.79 26.56 1.94 o
830 2 -1 2 5 66.63 53.59 4.69 o
831 2 -1 -2 5 68.56 57.16 3.30 o
832 2 0 2 5 37.08 28.60 3.78 o
833 2 0 -2 5 37.23 32.27 4.02 o
834 2 1 2 5 1.12 0.12 0.46 <
835 2 1 -2 5 1.07 -0.34 1.17 <
836 2 2 2 5 10.41 6.60 2.18 o
837 2 2 -2 5 10.52 8.45 2.68 o
838 2 -5 3 5 7.61 2.01 0.48 o
839 2 -3 -3 5 55.84 57.21 2.62 o
840 2 -2 3 5 75.08 114.64 7.42 o
841 2 -2 -3 5 76.46 95.19 4.08 o
842 2 -1 3 5 16.62 20.33 3.40 o
843 2 -1 -3 5 16.59 20.09 3.00 o
844 2 0 3 5 13.92 5.70 1.87 o
845 2 0 -3 5 13.96 4.53 1.68 <
846 2 1 3 5 26.73 18.57 3.37 o
847 2 1 -3 5 27.28 21.80 3.85 o
848 2 2 3 5 17.49 8.45 2.54 o
849 2 2 -3 5 17.69 12.42 3.24 o
850 2 -3 -4 5 9.86 9.10 0.91 o
851 2 -2 4 5 0.23 0.58 0.80 <
852 2 -2 -4 5 0.31 0.20 0.40 <
853 2 -1 4 5 15.08 16.38 3.10 o
854 2 -1 -4 5 14.27 15.03 2.83 o
855 2 0 4 5 1.69 -0.09 0.79 <
856 2 0 -4 5 1.60 0.91 1.16 <
857 2 1 4 5 1.19 0.57 0.07 o
858 2 1 -4 5 1.21 1.20 0.85 <
859 2 2 4 5 16.80 12.33 3.12 o
860 2 2 -4 5 16.58 13.09 3.15 o
861 2 -3 -5 5 24.27 18.10 1.27 o
862 2 -2 5 5 52.29 89.52 7.26 o
863 2 -2 -5 5 50.93 81.16 6.80 o
864 2 -1 5 5 8.85 5.80 2.03 <
865 2 -1 -5 5 8.54 7.98 2.33 o
866 2 0 5 5 6.68 5.94 2.05 <
867 2 0 -5 5 6.59 5.73 1.82 o
868 2 1 5 5 21.71 13.42 2.97 o
869 2 1 -5 5 21.67 16.71 3.44 o
870 2 -1 6 5 54.44 57.38 6.31 o
871 2 -1 -6 5 53.81 50.57 5.74 o
872 2 0 6 5 38.30 32.46 4.90 o
873 2 0 -6 5 38.46 29.69 4.55 o
874 2 -4 0 6 2.01 48.17 3.99 o
875 2 -3 0 6 1.65 3.89 0.70 o
876 2 -2 0 6 1.77 4.04 0.87 o
877 2 -1 0 6 5.55 2.29 0.59 o
878 2 0 0 6 8.49 6.27 1.32 o
879 2 -5 1 6 9.96 14.87 2.02 o
880 2 -4 1 6 15.58 37.22 3.08 o
881 2 -4 -1 6 15.27 37.79 4.00 o
882 2 -3 1 6 11.65 32.53 2.35 o
883 2 -3 -1 6 12.09 29.65 2.25 o
884 2 -2 1 6 28.76 39.31 2.73 o
885 2 -2 -1 6 28.28 38.06 2.63 o
886 2 -1 1 6 36.71 46.77 3.38 o
887 2 -1 -1 6 38.21 41.54 3.16 o
888 2 0 1 6 19.75 14.41 2.90 o
889 2 0 -1 6 19.73 16.26 2.29 o
890 2 1 1 6 7.92 5.00 2.12 <
891 2 1 -1 6 7.30 3.68 1.93 <
892 2 -5 2 6 5.34 12.36 1.53 o
893 2 -4 2 6 1.87 1.40 0.41 o
894 2 -4 -2 6 1.82 2.83 1.37 <
895 2 -3 2 6 61.78 107.93 4.49 o
896 2 -3 -2 6 60.95 99.26 4.09 o
897 2 -2 2 6 44.54 93.03 4.59 o
898 2 -2 -2 6 45.59 86.04 4.10 o
899 2 -1 2 6 1.52 65.32 40.87 <
900 2 -1 -2 6 1.57 0.91 0.65 <
901 2 0 2 6 23.10 17.84 3.47 o
902 2 0 -2 6 23.16 21.27 3.84 o
903 2 1 2 6 13.64 8.27 2.18 o
904 2 1 -2 6 14.01 12.93 3.16 o
905 2 -6 3 6 4.60 2.09 0.65 o
906 2 -5 3 6 5.34 6.54 0.85 o
907 2 -4 3 6 16.75 31.39 2.26 o
908 2 -3 3 6 11.78 23.81 3.85 o
909 2 -3 -3 6 12.31 17.16 1.70 o
910 2 -2 3 6 12.04 21.75 3.40 o
911 2 -2 -3 6 11.60 17.34 1.91 o
912 2 -1 3 6 28.30 32.90 4.53 o
913 2 -1 -3 6 27.97 34.15 4.66 o
914 2 0 3 6 0.50 3.62 1.84 <
915 2 0 -3 6 0.49 2.96 1.66 <
916 2 1 3 6 13.22 8.80 2.74 o
917 2 1 -3 6 13.11 9.73 2.91 o
918 2 -3 -4 6 31.76 53.52 3.30 o
919 2 -2 4 6 33.34 68.28 6.73 o
920 2 -2 -4 6 33.37 53.09 3.56 o
921 2 -1 4 6 1.36 3.03 1.80 <
922 2 -1 -4 6 1.37 3.19 1.57 <
923 2 0 4 6 35.69 25.70 4.03 o
924 2 0 -4 6 35.68 29.61 4.51 o
925 2 -3 -5 6 13.27 17.14 1.74 o
926 2 -2 5 6 16.66 34.32 4.86 o
927 2 -2 -5 6 17.21 28.15 4.35 o
928 2 -1 5 6 20.80 30.36 4.89 o
929 2 -1 -5 6 20.91 27.91 4.45 o
930 2 -5 0 7 5.14 8.23 1.68 o
931 2 -4 0 7 9.12 16.96 1.75 o
932 2 -3 0 7 0.09 0.55 0.42 <
933 2 -2 0 7 20.50 15.17 1.90 o
934 2 -1 0 7 9.05 6.37 1.40 o
935 2 0 0 7 8.97 3.14 1.25 <
936 2 -6 1 7 1.69 3.19 0.99 o
937 2 -5 1 7 4.98 5.95 1.25 o
938 2 -5 -1 7 4.75 5.91 1.62 o
939 2 -4 1 7 4.77 7.39 1.21 o
940 2 -4 -1 7 5.11 5.85 1.10 o
941 2 -3 1 7 12.08 18.49 1.96 o
942 2 -3 -1 7 12.01 16.00 1.73 o
943 2 -2 1 7 4.34 2.69 0.79 o
944 2 -2 -1 7 3.94 2.33 0.67 o
945 2 -1 1 7 7.47 2.92 0.95 o
946 2 -1 -1 7 8.11 3.69 1.06 o
947 2 0 1 7 6.82 4.11 1.81 <
948 2 0 -1 7 6.89 4.06 1.20 o
949 2 -5 2 7 5.91 7.88 1.19 o
950 2 -4 2 7 8.67 12.98 1.79 o
951 2 -4 -2 7 8.96 12.84 1.48 o
952 2 -3 2 7 0.89 1.16 0.58 <
953 2 -3 -2 7 0.87 1.54 0.64 <
954 2 -2 2 7 10.79 6.53 1.95 o
955 2 -2 -2 7 10.49 7.84 1.40 o
956 2 -1 2 7 15.04 9.91 2.53 o
957 2 -1 -2 7 14.62 10.26 1.72 o
958 2 0 2 7 1.68 0.66 0.47 <
959 2 0 -2 7 1.68 1.95 1.07 <
960 2 -5 3 7 2.07 2.22 0.60 o
961 2 -4 -3 7 10.91 14.94 1.63 o
962 2 -3 3 7 17.69 27.79 4.07 o
963 2 -3 -3 7 17.56 19.63 1.99 o
964 2 -2 3 7 18.04 17.20 3.55 o
965 2 -2 -3 7 17.83 13.05 1.82 o
966 2 -1 3 7 11.70 6.74 2.16 o
967 2 -1 -3 7 11.81 5.94 2.03 <
968 2 -4 -4 7 5.55 5.20 0.81 o
969 2 -3 4 7 0.09 -1.11 0.55 <
970 2 -3 -4 7 0.10 0.14 0.54 <
971 2 -2 4 7 17.63 14.36 3.23 o
972 2 -2 -4 7 18.01 11.42 1.72 o
973 2 -4 0 8 12.75 20.17 2.04 o
974 2 -3 0 8 18.89 23.35 2.48 o
975 2 -3 1 8 5.72 4.59 1.01 o
976 2 -3 -1 8 5.60 4.56 1.06 o
977 4 1 0 0 411.89 268.98 4.36 o
977 3 1 0 0 411.89 268.98 4.36 o
978 4 2 0 0 4.24 9.56 1.17 o
978 3 2 0 0 4.24 9.56 1.17 o
979 4 3 0 0 569.05 473.06 10.06 o
979 3 3 0 0 569.05 473.06 10.06 o
980 4 4 0 0 112.73 122.39 6.19 o
980 3 4 0 0 112.73 122.39 6.19 o
981 4 5 0 0 4.58 2.04 0.99 <
981 3 5 0 0 4.58 2.04 0.99 <
982 4 6 0 0 5.87 4.26 2.20 <
982 3 6 0 0 5.87 4.26 2.20 <
983 4 1 -1 0 1073.57 1070.68 14.03 o
983 3 1 1 0 1073.57 1070.68 14.03 o
984 4 1 1 0 1073.53 1082.61 14.02 o
984 3 1 -1 0 1073.53 1082.61 14.02 o
985 4 2 -1 0 121.04 88.84 5.33 o
985 3 2 1 0 121.04 88.84 5.33 o
986 4 2 1 0 121.26 93.01 5.30 o
986 3 2 -1 0 121.26 93.01 5.30 o
987 4 3 -1 0 0.69 0.92 0.74 <
987 3 3 1 0 0.69 0.92 0.74 <
988 4 3 1 0 0.69 0.76 0.73 <
988 3 3 -1 0 0.69 0.76 0.73 <
989 4 4 -1 0 173.37 183.49 10.78 o
989 3 4 1 0 173.37 183.49 10.78 o
990 4 4 1 0 173.37 194.77 11.13 o
990 3 4 -1 0 173.37 194.77 11.13 o
991 4 5 -1 0 32.41 38.46 5.71 o
991 3 5 1 0 32.41 38.46 5.71 o
992 4 5 1 0 32.44 43.02 5.83 o
992 3 5 -1 0 32.44 43.02 5.83 o
993 4 6 -1 0 0.25 0.01 0.18 <
993 3 6 1 0 0.25 0.01 0.18 <
994 4 6 1 0 0.25 1.30 1.27 <
994 3 6 -1 0 0.25 1.30 1.27 <
995 4 1 -2 0 15.46 8.71 1.51 o
995 3 1 2 0 15.46 8.71 1.51 o
996 4 1 2 0 15.37 9.25 1.49 o
996 3 1 -2 0 15.37 9.25 1.49 o
997 4 2 -2 0 131.93 111.89 6.31 o
997 3 2 2 0 131.93 111.89 6.31 o
998 4 2 2 0 131.85 112.35 6.43 o
998 3 2 -2 0 131.85 112.35 6.43 o
999 4 3 -2 0 246.94 254.49 11.56 o
999 3 3 2 0 246.94 254.49 11.56 o
1000 4 3 2 0 246.99 247.61 11.19 o
1000 3 3 -2 0 246.99 247.61 11.19 o
1001 4 4 -2 0 13.88 13.50 2.95 o
1001 3 4 2 0 13.88 13.50 2.95 o
1002 4 4 2 0 13.87 12.67 3.08 o
1002 3 4 -2 0 13.87 12.67 3.08 o
1003 4 5 -2 0 1.96 3.60 1.69 <
1003 3 5 2 0 1.96 3.60 1.69 <
1004 4 5 2 0 1.96 3.37 1.58 <
1004 3 5 -2 0 1.96 3.37 1.58 <
1005 4 6 -2 0 14.74 19.97 4.56 o
1005 3 6 2 0 14.74 19.97 4.56 o
1006 4 6 2 0 14.74 17.61 4.37 o
1006 3 6 -2 0 14.74 17.61 4.37 o
1007 4 1 -3 0 164.85 184.30 8.16 o
1007 3 1 3 0 164.85 184.30 8.16 o
1008 4 1 3 0 164.86 211.56 8.90 o
1008 3 1 -3 0 164.86 211.56 8.90 o
1009 4 2 -3 0 627.84 663.20 17.02 o
1009 3 2 3 0 627.84 663.20 17.02 o
1010 4 2 3 0 627.80 678.36 16.83 o
1010 3 2 -3 0 627.80 678.36 16.83 o
1011 4 3 -3 0 38.34 42.33 4.86 o
1011 3 3 3 0 38.34 42.33 4.86 o
1012 4 3 3 0 38.35 43.97 4.99 o
1012 3 3 -3 0 38.35 43.97 4.99 o
1013 4 4 -3 0 9.53 5.21 2.06 <
1013 3 4 3 0 9.53 5.21 2.06 <
1014 4 4 3 0 9.55 4.77 1.77 <
1014 3 4 -3 0 9.55 4.77 1.77 <
1015 4 5 -3 0 11.17 9.52 3.10 o
1015 3 5 3 0 11.17 9.52 3.10 o
1016 4 5 3 0 11.16 9.27 2.90 o
1016 3 5 -3 0 11.16 9.27 2.90 o
1017 4 6 -3 0 7.28 4.80 2.30 <
1017 3 6 3 0 7.28 4.80 2.30 <
1018 4 6 3 0 7.28 5.09 2.34 <
1018 3 6 -3 0 7.28 5.09 2.34 <
1019 4 1 -4 0 61.09 82.81 6.17 o
1019 3 1 4 0 61.09 82.81 6.17 o
1020 4 1 4 0 61.18 88.81 6.45 o
1020 3 1 -4 0 61.18 88.81 6.45 o
1021 4 2 -4 0 2.92 4.44 1.46 o
1021 3 2 4 0 2.92 4.44 1.46 o
1022 4 2 4 0 2.95 4.86 1.49 o
1022 3 2 -4 0 2.95 4.86 1.49 o
1023 4 3 -4 0 127.48 114.19 8.62 o
1023 3 3 4 0 127.48 114.19 8.62 o
1024 4 3 4 0 127.47 124.29 8.77 o
1024 3 3 -4 0 127.47 124.29 8.77 o
1025 4 4 -4 0 0.12 -0.24 0.51 <
1025 3 4 4 0 0.12 -0.24 0.51 <
1026 4 4 4 0 0.12 0.94 0.98 <
1026 3 4 -4 0 0.12 0.94 0.98 <
1027 4 5 -4 0 0.69 -0.27 0.69 <
1027 3 5 4 0 0.69 -0.27 0.69 <
1028 4 5 4 0 0.69 0.91 0.81 <
1028 3 5 -4 0 0.69 0.91 0.81 <
1029 4 2 -5 0 190.54 195.78 10.57 o
1029 3 2 5 0 190.54 195.78 10.57 o
1030 4 2 5 0 190.54 236.99 11.96 o
1030 3 2 -5 0 190.54 236.99 11.96 o
1031 4 3 -5 0 2.12 2.08 1.12 <
1031 3 3 5 0 2.12 2.08 1.12 <
1032 4 3 5 0 2.11 0.99 0.52 <
1032 3 3 -5 0 2.11 0.99 0.52 <
1033 4 4 -5 0 25.28 24.51 4.74 o
1033 3 4 5 0 25.28 24.51 4.74 o
1034 4 4 5 0 25.26 26.65 4.77 o
1034 3 4 -5 0 25.26 26.65 4.77 o
1035 4 5 -5 0 13.47 18.65 4.25 o
1035 3 5 5 0 13.47 18.65 4.25 o
1036 4 5 5 0 13.48 20.98 4.48 o
1036 3 5 -5 0 13.48 20.98 4.48 o
1037 4 2 -6 0 43.59 57.93 6.08 o
1037 3 2 6 0 43.59 57.93 6.08 o
1038 4 2 6 0 43.58 71.31 7.17 o
1038 3 2 -6 0 43.58 71.31 7.17 o
1039 4 3 -6 0 141.50 141.79 10.79 o
1039 3 3 6 0 141.50 141.79 10.79 o
1040 4 3 6 0 141.51 166.62 11.74 o
1040 3 3 -6 0 141.51 166.62 11.74 o
1041 4 4 -6 0 25.97 34.44 5.75 o
1041 3 4 6 0 25.97 34.44 5.75 o
1042 4 4 6 0 25.96 38.49 6.23 o
1042 3 4 -6 0 25.96 38.49 6.23 o
1043 4 2 -7 0 37.85 46.55 5.76 o
1043 3 2 7 0 37.85 46.55 5.76 o
1044 4 3 -7 0 4.28 2.21 1.78 <
1044 3 3 7 0 4.28 2.21 1.78 <
1045 4 3 7 0 4.28 2.41 1.97 <
1045 3 3 -7 0 4.28 2.41 1.97 <
1046 4 4 -7 0 56.38 77.19 9.35 o
1046 3 4 7 0 56.38 77.19 9.35 o
1047 4 4 7 0 56.38 81.75 9.62 o
1047 3 4 -7 0 56.38 81.75 9.62 o
1048 3 -6 0 1 0.22 0.09 0.17 <
1049 3 -5 0 1 36.48 32.32 3.32 o
1050 3 -4 0 1 4.66 6.34 1.20 o
1051 3 -3 0 1 1.05 0.72 0.40 <
1052 3 -2 0 1 92.63 86.06 2.88 o
1053 3 -6 1 1 4.37 2.76 1.17 <
1054 3 -6 -1 1 4.36 3.45 2.08 <
1055 3 -5 1 1 3.14 1.76 0.69 <
1056 3 -5 -1 1 3.18 0.77 0.43 <
1057 3 -4 1 1 61.08 57.30 3.83 o
1058 3 -4 -1 1 61.45 54.75 3.75 o
1059 3 -3 1 1 96.68 92.99 4.02 o
1060 3 -3 -1 1 99.84 90.72 4.03 o
1061 3 -2 1 1 322.83 288.77 5.50 o
1062 3 -2 -1 1 322.92 299.04 5.64 o
1063 3 0 1 1 621.88 626.41 8.53 o
1064 3 0 -1 1 621.96 591.77 8.18 o
1065 3 2 1 1 149.36 184.12 8.94 o
1066 3 2 -1 1 143.75 190.50 8.93 o
1067 3 3 1 1 103.11 112.83 8.06 o
1068 3 3 -1 1 104.16 113.83 8.27 o
1069 3 4 1 1 10.60 11.64 3.10 o
1070 3 4 -1 1 10.43 10.30 2.75 o
1071 3 5 1 1 8.88 5.10 2.24 <
1072 3 5 -1 1 8.83 7.49 2.73 <
1073 3 6 -1 1 1.15 1.26 0.55 <
1074 3 -6 2 1 2.46 1.58 0.98 <
1075 3 -6 -2 1 2.33 2.36 1.65 <
1076 3 -5 2 1 33.22 26.66 3.05 o
1077 3 -5 -2 1 32.45 29.64 4.65 o
1078 3 -4 2 1 6.64 4.40 1.14 o
1079 3 -4 -2 1 6.16 6.28 1.95 o
1080 3 -3 2 1 93.82 87.55 6.24 o
1081 3 -3 -2 1 89.67 92.09 6.34 o
1082 3 -2 2 1 437.11 390.85 11.41 o
1083 3 -2 -2 1 436.76 459.59 12.69 o
1084 3 0 2 1 1.80 0.14 0.23 <
1085 3 0 -2 1 2.08 0.05 0.14 <
1086 3 2 2 1 113.32 176.34 9.11 o
1087 3 2 -2 1 118.59 170.65 9.10 o
1088 3 3 2 1 0.05 -0.80 1.11 <
1089 3 3 -2 1 0.08 -0.18 0.53 <
1090 3 4 2 1 30.24 30.81 5.06 o
1091 3 4 -2 1 31.10 31.49 5.00 o
1092 3 5 2 1 3.76 5.47 2.74 <
1093 3 5 -2 1 3.99 2.06 1.30 <
1094 3 -6 3 1 6.13 5.89 2.47 <
1095 3 -6 -3 1 6.32 4.59 2.29 <
1096 3 -5 3 1 0.06 -0.57 0.83 <
1097 3 -5 -3 1 0.07 0.87 1.23 <
1098 3 -4 3 1 28.02 24.70 4.02 o
1099 3 -4 -3 1 26.33 23.35 3.99 o
1100 3 -3 3 1 87.65 86.10 6.81 o
1101 3 -3 -3 1 88.28 91.74 7.03 o
1102 3 -2 3 1 4.75 7.24 1.77 o
1103 3 -2 -3 1 4.76 6.84 1.73 o
1104 3 0 3 1 25.62 24.20 2.40 o
1105 3 0 -3 1 25.45 24.85 2.58 o
1106 3 2 3 1 152.19 268.98 11.96 o
1107 3 2 -3 1 152.34 274.36 11.67 o
1108 3 3 3 1 20.92 25.11 4.11 o
1109 3 3 -3 1 22.41 25.73 4.10 o
1110 3 4 3 1 1.58 2.29 1.53 <
1111 3 4 -3 1 1.72 0.93 0.78 <
1112 3 5 3 1 5.58 4.86 2.04 <
1113 3 5 -3 1 5.51 5.07 2.23 <
1114 3 -6 4 1 1.30 3.99 2.39 <
1115 3 -6 -4 1 1.36 1.13 0.45 <
1116 3 -5 4 1 13.34 14.82 3.73 o
1117 3 -5 -4 1 13.63 15.11 3.83 o
1118 3 -4 4 1 2.56 2.89 1.75 <
1119 3 -4 -4 1 2.84 2.85 1.64 <
1120 3 -3 4 1 46.59 47.63 5.31 o
1121 3 -3 -4 1 47.89 57.62 6.04 o
1122 3 -2 4 1 320.24 337.11 13.26 o
1123 3 0 4 1 3.37 5.21 1.41 o
1124 3 2 4 1 81.72 122.35 8.52 o
1125 3 2 -4 1 80.81 134.57 8.61 o
1126 3 3 4 1 5.18 3.74 1.41 <
1127 3 3 -4 1 5.25 4.09 1.48 <
1128 3 4 4 1 12.14 8.88 2.88 o
1129 3 4 -4 1 11.53 11.37 3.07 o
1130 3 5 4 1 8.11 7.16 2.63 <
1131 3 5 -4 1 8.06 6.65 2.74 <
1132 3 -5 5 1 0.84 2.22 1.87 <
1133 3 -5 -5 1 0.84 1.83 1.51 <
1134 3 -4 5 1 22.20 25.01 4.59 o
1135 3 -4 -5 1 23.51 25.66 4.76 o
1136 3 -3 5 1 85.53 82.23 7.62 o
1137 3 -3 -5 1 84.82 94.12 8.37 o
1138 3 0 5 1 106.51 145.06 8.11 o
1139 3 2 5 1 65.95 126.28 9.03 o
1140 3 2 -5 1 66.92 128.50 9.00 o
1141 3 3 5 1 27.94 31.80 5.03 o
1142 3 3 -5 1 26.26 34.90 5.02 o
1143 3 4 5 1 2.88 1.03 0.96 <
1144 3 4 -5 1 2.79 1.40 0.91 <
1145 3 -5 6 1 13.68 14.81 4.24 o
1146 3 -5 -6 1 13.77 13.48 3.86 o
1147 3 -4 6 1 3.65 2.01 1.26 <
1148 3 -4 -6 1 3.79 2.47 1.66 <
1149 3 -3 6 1 9.80 6.90 2.17 o
1150 3 -3 -6 1 11.00 7.50 2.56 <
1151 3 0 6 1 16.23 29.71 3.95 o
1152 3 2 6 1 21.74 30.89 4.55 o
1153 3 2 -6 1 19.95 33.37 4.79 o
1154 3 3 6 1 0.86 2.59 1.72 <
1155 3 3 -6 1 0.81 3.90 1.91 <
1156 3 4 6 1 22.77 29.68 5.36 o
1157 3 4 -6 1 22.63 67.46 10.95 o
1158 3 -4 7 1 22.77 18.68 4.38 o
1159 3 -4 -7 1 22.37 22.09 5.01 o
1160 3 2 7 1 27.17 35.44 5.30 o
1161 3 2 -7 1 27.77 39.59 5.40 o
1162 3 3 7 1 41.74 58.44 7.42 o
1163 3 3 -7 1 41.89 64.19 8.03 o
1164 3 2 8 1 7.51 14.33 3.70 o
1165 3 2 -8 1 8.46 12.92 3.45 o
1166 3 -7 0 2 3.38 2.27 0.91 <
1167 3 -6 0 2 0.02 0.51 0.63 <
1168 3 -5 0 2 2.00 1.06 0.62 <
1169 3 -4 0 2 57.76 44.60 3.02 o
1170 3 -3 0 2 1.59 0.86 0.26 o
1171 3 -2 0 2 2.51 4.55 0.94 o
1172 3 -7 1 2 0.34 -0.14 0.93 <
1173 3 -7 -1 2 0.34 0.39 0.79 <
1174 3 -6 1 2 4.84 2.98 1.17 <
1175 3 -6 -1 2 4.81 2.80 0.86 o
1176 3 -5 1 2 10.77 7.15 1.38 o
1177 3 -5 -1 2 10.21 8.88 1.71 o
1178 3 -4 1 2 3.08 0.93 0.43 <
1179 3 -4 -1 2 3.07 0.58 0.26 <
1180 3 -3 1 2 98.02 87.72 3.47 o
1181 3 -3 -1 2 94.77 102.73 3.84 o
1182 3 -6 2 2 0.17 -0.57 0.81 <
1183 3 -6 -2 2 0.19 0.98 0.99 <
1184 3 -5 2 2 4.92 5.02 1.17 o
1185 3 -5 -2 2 5.33 3.30 1.41 <
1186 3 -4 2 2 85.77 77.24 4.15 o
1187 3 -4 -2 2 85.65 82.56 6.89 o
1188 3 -3 2 2 90.44 87.74 3.69 o
1189 3 -3 -2 2 94.73 86.90 6.39 o
1190 3 0 2 2 203.71 155.14 6.09 o
1191 3 0 -2 2 203.87 160.32 6.31 o
1192 3 1 2 2 152.44 138.55 7.29 o
1193 3 1 -2 2 148.42 151.87 7.77 o
1194 3 2 2 2 193.58 192.57 10.15 o
1194 2 -2 -2 -2 193.58 192.57 10.15 o
1195 3 2 -2 2 193.64 196.00 10.22 o
1195 2 -2 2 -2 193.64 196.00 10.22 o
1196 3 3 2 2 23.94 29.31 4.56 o
1197 3 3 -2 2 23.67 32.40 4.82 o
1198 3 4 2 2 1.82 4.01 2.21 <
1199 3 4 -2 2 1.90 2.01 1.32 <
1200 3 5 2 2 5.33 6.25 2.87 <
1201 3 5 -2 2 5.08 5.25 2.40 <
1202 3 -6 3 2 4.82 3.00 1.11 <
1203 3 -6 -3 2 4.81 5.95 2.62 <
1204 3 -5 3 2 36.43 33.18 3.33 o
1205 3 -5 -3 2 35.92 36.28 5.35 o
1206 3 -4 3 2 0.63 -0.74 0.60 <
1207 3 -4 -3 2 0.63 0.11 0.16 <
1208 3 -3 3 2 88.99 89.04 7.22 o
1209 3 -3 -3 2 88.32 94.52 7.43 o
1210 3 -1 3 2 21.51 22.18 1.67 o
1211 3 -1 -3 2 21.05 20.50 1.81 o
1212 3 0 3 2 329.81 366.21 10.05 o
1213 3 0 -3 2 329.91 370.46 9.77 o
1214 3 1 3 2 225.44 206.25 9.37 o
1215 3 1 -3 2 225.39 222.56 9.69 o
1216 3 2 3 2 27.52 21.49 3.42 o
1216 2 -2 -3 -2 27.52 21.49 3.42 o
1217 3 2 -3 2 27.49 23.41 3.63 o
1217 2 -2 3 -2 27.49 23.41 3.63 o
1218 3 3 3 2 48.87 67.94 7.37 o
1219 3 3 -3 2 49.60 62.57 6.94 o
1220 3 4 3 2 14.08 36.08 6.01 o
1221 3 4 -3 2 14.04 24.53 4.85 o
1222 3 5 3 2 1.60 1.20 1.62 <
1223 3 5 -3 2 1.60 0.83 0.90 <
1224 3 -6 4 2 3.03 2.44 1.52 <
1225 3 -6 -4 2 3.03 2.50 1.64 <
1226 3 -5 4 2 1.96 3.12 1.71 <
1227 3 -5 -4 2 1.96 3.17 1.88 <
1228 3 -4 4 2 83.22 82.74 8.06 o
1229 3 -4 -4 2 83.20 96.22 8.65 o
1230 3 -1 4 2 272.99 306.54 8.13 o
1231 3 0 4 2 13.28 15.29 2.21 o
1232 3 0 -4 2 13.27 16.94 2.20 o
1233 3 1 4 2 41.66 42.39 4.37 o
1234 3 1 -4 2 42.59 43.79 4.34 o
1235 3 2 4 2 349.18 388.98 15.52 o
1235 2 -2 -4 -2 349.18 388.98 15.52 o
1236 3 2 -4 2 349.06 392.11 15.19 o
1236 2 -2 4 -2 349.06 392.11 15.19 o
1237 3 3 4 2 8.14 6.29 2.18 <
1238 3 3 -4 2 8.28 9.29 2.78 o
1239 3 4 4 2 2.41 2.78 1.12 <
1240 3 4 -4 2 2.38 3.70 1.86 <
1241 3 -6 5 2 3.86 3.78 2.18 <
1242 3 -6 -5 2 3.83 4.52 2.23 <
1243 3 -5 5 2 13.13 13.42 3.55 o
1244 3 -5 -5 2 13.90 16.24 4.17 o
1245 3 -4 5 2 0.04 0.36 0.54 <
1246 3 -4 -5 2 0.04 -0.96 0.92 <
1247 3 -1 5 2 37.43 39.68 3.24 o
1248 3 0 5 2 134.51 122.50 6.89 o
1249 3 0 -5 2 134.45 135.96 7.40 o
1250 3 1 5 2 102.84 102.35 7.35 o
1251 3 1 -5 2 102.17 110.86 7.32 o
1252 3 2 5 2 30.11 35.44 4.81 o
1252 2 -2 -5 -2 30.11 35.44 4.81 o
1253 3 2 -5 2 30.16 32.89 4.53 o
1253 2 -2 5 -2 30.16 32.89 4.53 o
1254 3 3 5 2 23.56 28.02 5.02 o
1255 3 3 -5 2 22.55 26.83 4.79 o
1256 3 4 5 2 9.99 14.49 3.81 o
1257 3 4 -5 2 9.94 16.87 4.18 o
1258 3 -5 6 2 3.29 3.65 2.22 <
1259 3 -5 -6 2 3.04 5.81 2.57 <
1260 3 -1 6 2 116.29 120.51 6.84 o
1261 3 0 6 2 51.21 50.84 4.70 o
1262 3 0 -6 2 51.49 53.23 4.98 o
1263 3 1 6 2 28.69 28.39 3.92 o
1264 3 1 -6 2 30.28 27.92 3.96 o
1265 3 2 6 2 69.15 69.44 7.21 o
1265 2 -2 -6 -2 69.15 69.44 7.21 o
1266 3 2 -6 2 69.33 68.48 6.81 o
1266 2 -2 6 -2 69.33 68.48 6.81 o
1267 3 3 6 2 14.79 19.69 4.23 o
1268 3 3 -6 2 15.04 18.92 3.91 o
1269 3 -1 7 2 0.60 0.55 0.79 <
1270 3 0 7 2 13.24 9.34 2.16 o
1271 3 1 7 2 17.71 11.45 2.54 o
1272 3 1 -7 2 17.32 13.79 2.78 o
1273 3 2 7 2 1.93 0.92 0.68 <
1273 2 -2 -7 -2 1.93 0.92 0.68 <
1274 3 2 -7 2 1.93 0.59 0.64 <
1274 2 -2 7 -2 1.93 0.59 0.64 <
1275 3 0 8 2 8.89 8.61 4.36 <
1276 3 1 8 2 10.78 7.42 2.11 o
1277 3 1 -8 2 10.02 10.73 2.52 o
1278 3 -7 0 3 0.63 0.69 0.64 <
1279 3 -6 0 3 9.84 0.09 1.75 <
1280 3 -5 0 3 1.79 0.69 0.45 <
1281 3 -4 0 3 3.92 6.06 1.08 o
1282 3 -3 0 3 276.17 245.08 8.50 o
1283 3 -7 1 3 2.35 2.35 0.96 <
1284 3 -7 -1 3 2.43 1.26 0.90 <
1285 3 -6 1 3 0.00 -0.28 0.79 <
1286 3 -6 -1 3 0.00 -0.45 0.39 <
1287 3 -5 1 3 9.50 8.81 1.44 o
1288 3 -5 -1 3 10.03 8.68 1.52 o
1289 3 -4 1 3 60.68 59.91 3.26 o
1290 3 -4 -1 3 60.33 61.35 3.44 o
1291 3 -3 -1 3 0.38 0.34 0.04 o
1292 3 -7 2 3 0.14 -0.62 0.82 <
1293 3 -7 -2 3 0.16 -0.30 0.67 <
1294 3 -6 2 3 10.18 9.34 1.70 o
1295 3 -6 -2 3 10.16 6.82 1.61 o
1296 3 -5 2 3 6.33 5.94 1.12 o
1297 3 -5 -2 3 5.88 5.36 1.27 o
1298 3 -4 2 3 6.98 5.54 1.03 o
1299 3 -4 -2 3 7.53 4.25 0.99 o
1300 3 0 -2 3 190.28 182.62 8.02 o
1301 3 1 -2 3 21.31 16.41 2.82 o
1302 3 -6 3 3 1.58 -0.44 0.58 <
1303 3 -6 -3 3 1.57 -0.37 1.09 <
1304 3 -5 3 3 34.02 35.35 3.13 o
1305 3 -5 -3 3 34.55 39.27 5.64 o
1306 3 -4 3 3 27.78 24.46 2.27 o
1307 3 -1 -3 3 236.04 231.19 6.73 o
1308 3 0 3 3 5.48 2.78 1.09 <
1309 3 0 -3 3 5.47 1.64 0.72 <
1310 3 1 3 3 61.85 52.82 5.38 o
1311 3 1 -3 3 59.67 56.72 5.48 o
1312 3 2 3 3 61.94 62.95 6.64 o
1313 3 2 -3 3 60.92 61.68 6.44 o
1314 3 3 3 3 23.16 21.93 4.28 o
1314 2 -3 -3 -3 23.16 21.93 4.28 o
1315 3 3 -3 3 23.23 19.67 4.16 o
1315 2 -3 3 -3 23.23 19.67 4.16 o
1316 3 4 3 3 9.57 6.83 2.80 <
1317 3 4 -3 3 9.59 10.87 3.52 o
1318 3 -6 4 3 15.07 11.18 2.06 o
1319 3 -6 -4 3 15.07 11.57 3.73 o
1320 3 -5 4 3 2.44 2.91 0.97 o
1321 3 -5 -4 3 2.51 1.76 1.25 <
1322 3 -4 4 3 3.32 1.03 0.45 <
1323 3 -2 4 3 81.57 79.68 3.15 o
1324 3 -1 4 3 41.40 33.39 3.09 o
1325 3 -1 -4 3 40.72 42.66 3.03 o
1326 3 0 4 3 138.05 110.67 6.76 o
1327 3 0 -4 3 137.82 125.01 6.93 o
1328 3 1 4 3 41.59 36.88 4.71 o
1329 3 1 -4 3 42.38 38.13 4.54 o
1330 3 2 4 3 0.46 0.20 0.47 <
1331 3 2 -4 3 0.38 0.42 0.71 <
1332 3 3 4 3 58.05 60.51 8.10 o
1332 2 -3 -4 -3 58.05 60.51 8.10 o
1333 3 3 -4 3 58.10 64.13 7.48 o
1333 2 -3 4 -3 58.10 64.13 7.48 o
1334 3 4 4 3 4.12 3.82 2.12 <
1335 3 4 -4 3 4.29 3.67 1.68 <
1336 3 -6 5 3 0.70 0.83 0.95 <
1337 3 -6 -5 3 0.70 2.74 2.31 <
1338 3 -5 5 3 14.79 12.83 3.65 o
1339 3 -3 5 3 1.20 0.11 0.10 <
1340 3 -2 5 3 66.96 71.34 3.70 o
1341 3 -1 5 3 104.68 95.79 5.71 o
1342 3 -1 -5 3 105.37 112.66 5.87 o
1343 3 0 5 3 0.91 1.08 0.73 <
1344 3 0 -5 3 0.92 2.28 1.08 <
1345 3 1 5 3 51.74 45.43 5.22 o
1346 3 1 -5 3 53.83 45.68 5.22 o
1347 3 2 5 3 41.45 47.38 5.82 o
1348 3 2 -5 3 42.70 43.67 5.60 o
1349 3 3 5 3 21.92 26.72 5.03 o
1349 2 -3 -5 -3 21.92 26.72 5.03 o
1350 3 3 -5 3 21.85 23.12 4.45 o
1350 2 -3 5 -3 21.85 23.12 4.45 o
1351 3 -2 6 3 23.08 24.35 2.43 o
1352 3 -1 6 3 32.54 25.78 3.24 o
1353 3 0 6 3 68.23 48.99 5.04 o
1354 3 0 -6 3 68.10 48.43 4.74 o
1355 3 1 6 3 16.85 12.10 2.93 o
1356 3 1 -6 3 16.64 12.90 2.79 o
1357 3 2 6 3 6.95 6.70 2.33 <
1358 3 2 -6 3 6.66 6.21 2.31 <
1359 3 -2 7 3 28.98 28.51 2.99 o
1360 3 -1 7 3 15.46 11.61 2.07 o
1361 3 0 7 3 22.17 15.93 3.01 o
1362 3 0 -7 3 22.16 14.36 2.83 o
1363 3 1 7 3 25.85 22.09 3.93 o
1364 3 1 -7 3 25.54 19.01 3.69 o
1365 3 2 7 3 8.46 6.02 2.28 <
1366 3 2 -7 3 8.14 6.90 2.35 <
1367 3 -2 8 3 9.58 10.91 1.89 o
1368 3 -1 8 3 11.50 11.23 2.22 o
1369 3 0 8 3 41.74 37.94 5.03 o
1370 3 -7 0 4 0.73 0.80 0.57 <
1371 3 -6 0 4 0.04 0.05 0.39 <
1372 3 -5 0 4 34.24 34.82 2.94 o
1373 3 -4 0 4 57.28 73.93 5.16 o
1374 3 -7 1 4 2.39 1.35 0.53 <
1375 3 -7 -1 4 2.32 2.41 1.14 <
1376 3 -6 1 4 5.29 5.95 1.23 o
1377 3 -6 -1 4 5.32 4.73 1.23 o
1378 3 -5 1 4 3.60 1.66 0.64 <
1379 3 -5 -1 4 3.55 1.86 0.79 <
1380 3 -4 -1 4 82.69 97.22 4.89 o
1381 3 -7 2 4 0.18 0.57 0.66 <
1382 3 -7 -2 4 0.16 0.58 0.50 <
1383 3 -6 2 4 0.15 0.34 0.42 <
1384 3 -6 -2 4 0.16 1.13 0.69 <
1385 3 -5 2 4 32.93 30.81 2.61 o
1386 3 -5 -2 4 33.73 23.85 2.96 o
1387 3 -4 -2 4 7.75 7.57 1.12 o
1388 3 -6 3 4 4.70 4.00 1.23 o
1389 3 -6 -3 4 4.71 5.10 1.74 <
1390 3 -5 3 4 0.08 0.78 0.40 <
1391 3 -2 -3 4 12.71 10.76 1.28 o
1392 3 -1 -3 4 57.89 48.67 3.96 o
1393 3 0 -3 4 3.56 2.17 1.05 <
1394 3 1 -3 4 12.30 6.88 1.94 o
1395 3 2 -3 4 9.62 5.85 2.13 <
1396 3 -6 4 4 2.94 2.73 1.10 <
1397 3 -5 4 4 14.80 8.73 1.15 o
1398 3 -2 -4 4 163.19 129.41 4.53 o
1399 3 -1 -4 4 45.51 41.89 3.67 o
1400 3 0 4 4 1.26 0.56 0.64 <
1401 3 0 -4 4 1.22 0.62 0.67 <
1402 3 1 4 4 11.50 8.25 2.61 o
1403 3 1 -4 4 11.87 8.20 2.41 o
1404 3 2 4 4 29.26 26.49 4.70 o
1405 3 2 -4 4 29.32 25.45 4.69 o
1406 3 3 4 4 0.08 -0.81 0.68 <
1407 3 3 -4 4 0.08 -1.28 1.49 <
1408 3 -6 5 4 4.77 2.49 0.87 <
1409 3 -5 5 4 0.91 0.44 0.25 <
1410 3 -2 5 4 15.59 12.76 1.68 o
1411 3 -2 -5 4 15.90 14.84 1.70 o
1412 3 -1 5 4 57.22 32.93 3.94 o
1413 3 -1 -5 4 55.07 46.06 3.97 o
1414 3 0 5 4 14.76 6.92 1.91 o
1415 3 0 -5 4 14.72 8.14 1.86 o
1416 3 1 5 4 8.55 1.64 0.40 o
1417 3 1 -5 4 8.79 2.10 1.25 <
1418 3 2 5 4 15.03 13.98 3.39 o
1419 3 2 -5 4 14.63 14.65 3.65 o
1420 3 -5 6 4 13.79 6.09 0.95 o
1421 3 -3 6 4 0.46 0.77 0.39 <
1422 3 -2 6 4 29.58 29.56 2.77 o
1423 3 -1 6 4 16.53 11.07 2.05 o
1424 3 -1 -6 4 16.74 13.76 2.26 o
1425 3 0 6 4 6.61 3.17 1.41 <
1426 3 0 -6 4 6.65 3.73 1.50 <
1427 3 1 6 4 44.27 36.11 5.34 o
1428 3 1 -6 4 44.83 38.31 5.42 o
1429 3 -4 7 4 27.76 14.27 1.75 o
1430 3 -3 7 4 46.11 48.23 3.46 o
1431 3 -2 7 4 0.92 0.25 0.24 <
1432 3 -1 7 4 23.60 22.57 3.22 o
1433 3 -1 -7 4 24.05 22.96 3.27 o
1434 3 0 7 4 95.67 76.01 7.13 o
1435 3 0 -7 4 95.89 81.58 7.12 o
1436 3 -7 0 5 3.42 3.27 0.99 o
1437 3 -6 0 5 0.38 0.44 0.53 <
1438 3 -5 0 5 2.13 1.33 0.71 <
1439 3 -7 1 5 0.41 0.55 0.68 <
1440 3 -7 -1 5 0.41 -0.14 0.62 <
1441 3 -6 1 5 3.84 4.10 1.51 <
1442 3 -6 -1 5 3.84 3.55 1.25 <
1443 3 -5 -1 5 17.33 23.81 2.81 o
1444 3 -6 2 5 2.70 2.52 1.15 <
1445 3 -6 -2 5 2.87 1.48 0.75 <
1446 3 -5 -2 5 0.83 1.94 0.67 <
1447 3 -4 -2 5 30.34 28.09 2.60 o
1448 3 -6 -3 5 6.43 4.75 1.18 o
1449 3 -5 -3 5 6.36 4.02 0.82 o
1450 3 -2 -4 5 0.26 -2.54 1.79 <
1451 3 -1 -4 5 12.26 10.39 2.03 o
1452 3 0 -4 5 1.38 -0.72 0.68 <
1453 3 1 -4 5 1.04 0.18 0.31 <
1454 3 2 -4 5 14.24 6.49 2.54 <
1455 3 -2 -5 5 43.76 53.40 3.67 o
1456 3 -1 -5 5 7.33 4.29 1.44 <
1457 3 0 -5 5 5.66 4.98 1.73 <
1458 3 1 -5 5 18.62 8.20 2.59 o
1459 3 -2 -6 5 8.94 12.66 2.15 o
1460 3 -1 6 5 46.77 31.41 4.31 o
1461 3 -1 -6 5 46.23 39.77 4.10 o
1462 3 0 6 5 32.91 22.32 3.91 o
1463 3 0 -6 5 33.04 21.32 3.48 o
1464 3 -2 7 5 8.62 9.04 1.79 o
1465 3 -6 0 6 2.76 2.61 1.04 <
1466 3 -6 -1 6 0.23 0.91 0.57 <
1467 3 -6 -2 6 7.14 11.34 1.97 o
1468 3 -5 -2 6 4.34 12.07 1.97 o
1469 3 -6 -3 6 3.96 2.96 0.77 o
1470 3 -5 -3 6 4.66 3.81 0.84 o
1471 3 -3 -4 6 27.29 34.85 2.87 o
1472 3 -2 -4 6 28.66 39.73 4.17 o
1473 3 -3 -5 6 11.40 13.33 1.53 o
1474 3 -2 -5 6 14.78 21.24 2.76 o
1475 3 -1 -5 6 17.97 23.75 3.74 o
1476 5 -1 0 -1 189.33 218.22 2.29 o
1476 4 1 0 1 189.33 218.22 2.29 o
1477 4 2 0 1 0.62 0.12 0.16 <
1478 4 3 0 1 24.39 39.06 2.21 o
1479 4 4 0 1 94.98 110.60 4.46 o
1480 4 5 0 1 2.22 1.97 1.06 <
1481 4 6 0 1 0.52 0.78 0.71 <
1482 4 -6 1 1 4.67 2.76 1.27 <
1483 4 -6 -1 1 4.67 2.71 1.27 <
1484 4 -5 1 1 3.36 1.44 0.74 <
1485 4 -5 -1 1 3.39 2.77 1.28 <
1486 4 -4 1 1 65.29 53.77 4.45 o
1487 4 -4 -1 1 65.69 53.17 4.55 o
1488 4 -3 1 1 103.35 90.35 5.01 o
1489 4 -3 -1 1 106.72 80.16 4.84 o
1490 4 -2 1 1 345.10 312.65 7.16 o
1491 4 -2 -1 1 345.19 315.81 7.41 o
1492 4 -1 1 1 546.73 546.74 6.59 o
1493 4 -1 -1 1 546.28 574.86 6.92 o
1494 5 -1 -1 -1 477.20 519.42 3.74 o
1494 4 1 1 1 477.20 519.42 3.74 o
1495 5 -1 1 -1 477.01 537.43 3.78 o
1495 4 1 -1 1 477.01 537.43 3.78 o
1496 4 2 1 1 159.66 204.59 4.34 o
1497 4 2 -1 1 153.66 210.30 4.40 o
1498 4 3 1 1 110.22 131.51 4.16 o
1499 4 3 -1 1 111.34 129.71 4.20 o
1500 4 4 1 1 11.33 10.68 1.35 o
1501 4 4 -1 1 11.15 11.56 1.45 o
1502 4 5 1 1 9.49 7.24 1.73 o
1503 4 5 -1 1 9.44 6.15 1.26 o
1504 4 6 1 1 1.10 2.04 1.14 <
1505 4 6 -1 1 1.23 1.19 0.66 <
1506 4 -6 2 1 2.63 3.67 1.65 <
1507 4 -6 -2 1 2.49 1.76 1.11 <
1508 4 -5 2 1 35.51 25.97 3.49 o
1509 4 -5 -2 1 34.69 25.27 3.52 o
1510 4 -4 2 1 7.09 3.57 1.18 o
1511 4 -4 -2 1 6.59 4.58 1.26 o
1512 4 -3 2 1 100.29 82.75 4.90 o
1513 4 -3 -2 1 95.85 80.30 4.89 o
1514 4 -2 2 1 467.25 476.64 8.95 o
1515 4 -2 -2 1 466.88 478.42 9.28 o
1516 4 -1 2 1 10.48 4.64 0.63 o
1517 4 -1 -2 1 9.02 5.65 0.70 o
1518 5 -1 -2 -1 1261.33 1514.10 11.38 o
1518 4 1 2 1 1261.33 1514.10 11.38 o
1519 5 -1 2 -1 1261.31 1445.26 11.09 o
1519 4 1 -2 1 1261.31 1445.26 11.09 o
1520 4 2 2 1 121.14 208.88 7.04 o
1521 4 2 -2 1 126.76 187.12 6.65 o
1522 4 3 2 1 0.05 0.11 0.14 <
1523 4 3 -2 1 0.08 0.59 0.35 <
1524 4 4 2 1 32.33 38.90 3.84 o
1525 4 4 -2 1 33.24 32.08 2.46 o
1526 4 5 2 1 4.02 4.08 1.59 <
1527 4 5 -2 1 4.27 3.60 1.04 o
1528 4 -6 3 1 6.56 4.19 1.69 <
1529 4 -6 -3 1 6.76 3.44 1.48 <
1530 4 -5 3 1 0.06 -0.12 0.46 <
1531 4 -5 -3 1 0.07 0.80 0.60 <
1532 4 -4 3 1 29.95 24.67 2.99 o
1533 4 -4 -3 1 28.14 27.29 3.36 o
1534 4 -3 3 1 93.70 95.65 5.15 o
1535 4 -3 -3 1 94.37 97.34 5.50 o
1536 4 -2 3 1 5.08 11.41 1.92 o
1537 4 -2 -3 1 5.09 7.47 1.11 o
1538 4 -1 3 1 84.46 80.44 3.16 o
1539 4 -1 -3 1 84.52 83.52 3.40 o
1540 5 -1 -3 -1 43.58 54.34 2.44 o
1540 4 1 3 1 43.58 54.34 2.44 o
1541 5 -1 3 -1 43.54 43.96 2.10 o
1541 4 1 -3 1 43.54 43.96 2.10 o
1542 4 2 3 1 162.68 283.52 8.58 o
1543 4 2 -3 1 162.85 284.76 8.90 o
1544 4 3 3 1 22.36 35.44 3.46 o
1545 4 3 -3 1 23.95 29.46 3.09 o
1546 4 4 3 1 1.68 0.64 0.15 o
1547 4 4 -3 1 1.83 2.03 1.14 <
1548 4 5 3 1 5.96 5.10 1.72 <
1549 4 5 -3 1 5.89 5.48 1.94 <
1550 4 -6 4 1 1.39 1.03 1.06 <
1551 4 -6 -4 1 1.45 0.47 0.18 <
1552 4 -5 4 1 14.26 12.31 2.53 o
1553 4 -5 -4 1 14.57 11.66 2.50 o
1554 4 -4 4 1 2.74 1.59 0.59 <
1555 4 -4 -4 1 3.03 2.18 1.20 <
1556 4 -3 4 1 49.80 53.81 4.13 o
1557 4 -3 -4 1 51.20 51.05 4.20 o
1558 4 -2 4 1 342.32 356.83 8.91 o
1559 4 -2 -4 1 342.57 336.35 8.81 o
1560 4 -1 4 1 33.40 40.90 2.54 o
1561 4 -1 -4 1 35.32 38.05 2.50 o
1562 4 2 4 1 87.36 146.62 6.81 o
1563 4 2 -4 1 86.38 143.26 6.72 o
1564 4 3 4 1 5.54 3.61 1.26 <
1565 4 3 -4 1 5.61 3.19 1.13 <
1566 4 4 4 1 12.97 10.09 2.09 o
1567 4 4 -4 1 12.33 10.22 2.22 o
1568 4 5 4 1 8.67 7.76 2.27 o
1569 4 5 -4 1 8.62 11.43 3.01 o
1570 4 -5 5 1 0.89 1.18 0.77 <
1571 4 -5 -5 1 0.89 1.30 0.82 <
1572 4 -4 5 1 23.74 28.04 3.38 o
1573 4 -4 -5 1 25.13 25.77 3.40 o
1574 4 -3 5 1 91.43 92.24 5.55 o
1575 4 -3 -5 1 90.67 90.29 5.61 o
1576 4 -2 5 1 33.41 39.81 2.98 o
1577 4 -2 -5 1 33.38 41.97 3.26 o
1578 4 -1 -5 1 72.33 99.71 4.84 o
1579 4 2 5 1 70.50 146.40 7.59 o
1580 4 2 -5 1 71.53 132.53 7.03 o
1581 4 3 5 1 29.87 36.85 3.87 o
1582 4 3 -5 1 28.07 35.73 3.90 o
1583 4 4 5 1 3.08 2.02 1.12 <
1584 4 4 -5 1 2.99 2.40 1.43 <
1585 4 -5 6 1 14.62 11.05 2.71 o
1586 4 -5 -6 1 14.72 12.80 3.04 o
1587 4 -4 6 1 3.90 2.40 1.04 <
1588 4 -4 -6 1 4.05 2.14 0.88 <
1589 4 -3 6 1 10.48 5.84 1.41 o
1590 4 -3 -6 1 11.76 7.68 1.70 o
1591 4 -2 6 1 78.03 83.84 4.99 o
1592 4 -2 -6 1 77.58 80.44 4.98 o
1593 4 -1 -6 1 22.08 35.95 3.02 o
1594 4 2 -6 1 21.33 34.79 3.72 o
1595 4 3 6 1 0.92 0.15 0.07 <
1596 4 3 -6 1 0.87 1.68 0.89 <
1597 4 4 6 1 24.34 35.73 4.29 o
1598 4 4 -6 1 24.19 32.06 4.18 o
1599 4 -4 7 1 24.34 18.95 2.94 o
1600 4 -4 -7 1 23.91 24.15 3.43 o
1601 4 -3 7 1 13.65 10.74 2.15 o
1602 4 -3 -7 1 13.32 10.10 2.13 o
1603 4 -2 -7 1 1.32 -0.30 0.79 <
1604 4 3 7 1 44.61 72.07 6.32 o
1605 4 3 -7 1 44.78 63.46 5.80 o
1606 4 -3 8 1 6.63 5.47 1.64 o
1607 4 -3 -8 1 6.21 5.91 1.79 o
1608 4 -2 -8 1 44.68 40.05 4.07 o
1609 4 1 0 2 1.00 0.93 0.26 o
1610 5 -2 0 -2 264.38 267.75 4.97 o
1610 4 2 0 2 264.38 267.75 4.97 o
1611 4 3 0 2 27.08 33.45 2.11 o
1612 4 4 0 2 1.40 0.58 0.43 <
1613 4 5 0 2 5.07 5.32 1.25 o
1614 4 1 1 2 71.50 69.86 2.12 o
1615 4 1 -1 2 75.82 64.04 1.98 o
1616 5 -2 -1 -2 52.13 57.44 2.30 o
1616 4 2 1 2 52.13 57.44 2.30 o
1617 5 -2 1 -2 52.06 54.52 2.18 o
1617 4 2 -1 2 52.06 54.52 2.18 o
1618 4 3 1 2 39.44 57.33 2.84 o
1619 4 3 -1 2 41.28 55.00 2.77 o
1620 4 4 1 2 12.71 21.49 1.95 o
1621 4 4 -1 2 12.96 22.17 2.02 o
1622 4 5 1 2 3.79 4.07 0.96 o
1623 4 5 -1 2 3.95 3.40 0.80 o
1624 4 -6 2 2 0.19 1.93 1.38 <
1625 4 -6 -2 2 0.20 -0.35 0.47 <
1626 4 -5 2 2 5.26 3.64 1.30 <
1627 4 -5 -2 2 5.70 3.52 1.34 <
1628 4 -4 2 2 91.68 71.84 5.28 o
1629 4 -4 -2 2 91.56 71.78 5.36 o
1630 4 -3 2 2 96.67 95.28 5.04 o
1631 4 -3 -2 2 101.26 81.54 4.81 o
1632 4 -2 2 2 66.10 53.76 3.14 o
1633 4 -2 -2 2 65.04 51.37 3.08 o
1634 4 -1 2 2 608.31 698.42 7.55 o
1635 4 -1 -2 2 608.30 639.97 7.36 o
1636 4 1 2 2 162.96 167.80 6.12 o
1637 4 1 -2 2 158.66 146.98 3.09 o
1638 5 -2 -2 -2 199.91 217.39 7.25 o
1638 4 2 2 2 199.91 217.39 7.25 o
1639 5 -2 2 -2 199.94 208.04 4.59 o
1639 4 2 -2 2 199.94 208.04 4.59 o
1640 4 3 2 2 25.59 40.53 3.63 o
1641 4 3 -2 2 25.30 37.13 2.29 o
1642 4 4 2 2 1.95 2.13 0.92 <
1643 4 4 -2 2 2.03 2.54 0.72 o
1644 4 5 2 2 5.70 5.31 1.56 o
1645 4 5 -2 2 5.43 5.24 1.15 o
1646 4 -6 3 2 5.15 4.10 1.65 <
1647 4 -6 -3 2 5.15 5.83 2.07 <
1648 4 -5 3 2 38.94 30.91 3.91 o
1649 4 -5 -3 2 38.40 33.49 4.12 o
1650 4 -4 3 2 0.67 0.57 0.59 <
1651 4 -4 -3 2 0.68 0.01 0.28 <
1652 4 -3 3 2 95.12 91.39 5.03 o
1653 4 -3 -3 2 94.41 89.49 5.18 o
1654 4 -2 3 2 331.67 338.92 7.46 o
1655 4 -2 -3 2 331.38 337.63 7.98 o
1656 4 -1 3 2 22.99 21.88 1.42 o
1657 4 -1 -3 2 22.50 23.14 1.58 o
1658 5 -2 -3 -2 28.41 27.49 2.76 o
1658 4 2 3 2 28.41 27.49 2.76 o
1659 5 -2 3 -2 28.39 24.23 1.66 o
1659 4 2 -3 2 28.39 24.23 1.66 o
1660 4 3 3 2 52.24 81.28 5.41 o
1661 4 3 -3 2 53.02 65.21 3.16 o
1662 4 4 3 2 15.05 21.57 3.26 o
1663 4 4 -3 2 15.01 20.18 2.03 o
1664 4 5 3 2 1.71 1.73 0.87 <
1665 4 5 -3 2 1.71 0.71 0.41 <
1666 4 -6 4 2 3.24 0.89 0.93 <
1667 4 -6 -4 2 3.24 1.64 0.47 o
1668 4 -5 4 2 2.10 3.10 1.22 <
1669 4 -5 -4 2 2.10 3.15 1.38 <
1670 4 -4 4 2 88.96 82.34 5.45 o
1671 4 -4 -4 2 88.94 84.46 5.90 o
1672 4 -3 4 2 51.46 51.28 3.69 o
1673 4 -3 -4 2 50.33 54.04 4.14 o
1674 4 -2 4 2 1.52 1.92 0.52 o
1675 4 -2 -4 2 2.10 1.17 0.52 <
1676 4 -1 4 2 291.81 315.19 6.66 o
1677 4 -1 -4 2 293.68 286.86 6.66 o
1678 4 0 -4 2 14.18 11.10 1.18 o
1679 5 -2 -4 -2 360.55 461.80 13.06 o
1679 4 2 4 2 360.55 461.80 13.06 o
1680 5 -2 4 -2 360.48 408.71 12.07 o
1680 4 2 -4 2 360.48 408.71 12.07 o
1681 4 3 4 2 8.70 10.41 1.90 o
1682 4 3 -4 2 8.85 12.51 2.30 o
1683 4 4 4 2 2.57 5.00 1.75 <
1684 4 4 -4 2 2.54 2.54 1.19 <
1685 4 -6 5 2 4.12 3.14 1.53 <
1686 4 -6 -5 2 4.09 0.90 0.39 <
1687 4 -5 5 2 14.04 11.32 2.28 o
1688 4 -5 -5 2 14.86 11.72 2.70 o
1689 4 -4 5 2 0.04 -0.03 0.19 <
1690 4 -4 -5 2 0.04 -1.28 1.11 <
1691 4 -3 5 2 87.50 82.88 5.01 o
1692 4 -3 -5 2 88.34 85.33 5.39 o
1693 4 -2 5 2 97.58 91.67 4.37 o
1694 4 -2 -5 2 97.57 95.32 4.78 o
1695 4 -1 -5 2 40.72 41.92 2.63 o
1696 5 -2 5 -2 31.13 37.86 3.88 o
1696 4 2 -5 2 31.13 37.86 3.88 o
1697 4 3 5 2 25.19 37.81 4.45 o
1698 4 3 -5 2 24.11 25.92 3.52 o
1699 4 4 5 2 10.68 20.94 3.36 o
1700 4 4 -5 2 10.63 18.40 3.22 o
1701 4 -5 6 2 3.52 1.97 1.18 <
1702 4 -5 -6 2 3.24 3.07 0.85 o
1703 4 -4 6 2 29.97 23.08 3.09 o
1704 4 -4 -6 2 29.90 20.37 3.11 o
1705 4 -3 6 2 14.01 6.22 1.43 o
1706 4 -3 -6 2 12.63 6.75 1.52 o
1707 4 -2 6 2 23.16 28.08 2.69 o
1708 4 -2 -6 2 23.30 26.85 2.60 o
1709 4 -1 -6 2 121.80 129.77 5.30 o
1710 4 3 6 2 15.81 24.19 3.66 o
1711 4 3 -6 2 16.07 20.99 3.29 o
1712 4 -4 7 2 0.30 0.96 0.45 <
1713 4 -4 -7 2 0.30 0.51 0.12 o
1714 4 -3 7 2 11.95 7.99 1.63 o
1715 4 -3 -7 2 12.29 8.17 1.64 o
1716 4 -2 -7 2 21.01 20.88 2.49 o
1717 4 -1 -7 2 0.73 -0.27 0.59 <
1718 4 -3 8 2 6.76 6.14 1.59 o
1719 4 -3 -8 2 7.37 3.92 1.34 <
1720 4 -2 -8 2 2.56 1.02 0.61 <
1721 4 -1 -8 2 42.45 33.32 3.12 o
1722 4 1 0 3 140.23 110.97 3.10 o
1723 4 2 0 3 2.27 1.63 0.34 o
1724 5 -3 0 -3 4.63 6.71 0.93 o
1724 4 3 0 3 4.63 6.71 0.93 o
1725 4 4 0 3 9.01 16.47 1.76 o
1726 4 1 1 3 110.94 101.59 3.35 o
1727 4 1 -1 3 110.14 92.16 2.83 o
1728 4 2 1 3 36.92 36.73 2.00 o
1729 4 2 -1 3 36.10 37.95 1.97 o
1730 5 -3 -1 -3 20.93 26.75 1.94 o
1730 4 3 1 3 20.93 26.75 1.94 o
1731 5 -3 1 -3 20.97 27.43 1.92 o
1731 4 3 -1 3 20.97 27.43 1.92 o
1732 4 4 1 3 4.89 5.29 0.96 o
1733 4 4 -1 3 4.61 4.13 0.81 o
1734 4 -4 2 3 7.47 3.61 1.08 o
1735 4 -3 2 3 125.94 110.63 5.46 o
1736 4 -2 2 3 121.25 88.21 4.03 o
1737 4 1 2 3 23.62 18.02 1.24 o
1738 4 1 -2 3 22.78 15.86 1.10 o
1739 4 2 2 3 17.71 17.17 1.40 o
1740 4 2 -2 3 18.35 15.63 1.24 o
1741 5 -3 -2 -3 112.53 144.51 4.79 o
1741 4 3 2 3 112.53 144.51 4.79 o
1742 5 -3 2 -3 112.46 148.26 4.66 o
1742 4 3 -2 3 112.46 148.26 4.66 o
1743 4 4 2 3 7.37 7.84 1.23 o
1744 4 4 -2 3 7.15 9.45 1.31 o
1745 4 -6 3 3 1.68 1.23 1.07 <
1746 4 -6 -3 3 1.68 -0.07 0.76 <
1747 4 -5 3 3 36.36 30.53 3.72 o
1748 4 -5 -3 3 36.93 30.44 4.02 o
1749 4 -4 3 3 29.69 20.58 2.80 o
1750 4 -4 -3 3 31.44 21.66 2.95 o
1751 4 -3 3 3 20.47 22.02 2.40 o
1752 4 -3 -3 3 20.54 20.35 2.42 o
1753 4 -2 3 3 156.58 158.77 5.19 o
1754 4 -2 -3 3 156.62 152.29 5.30 o
1755 4 -1 3 3 252.17 196.05 3.83 o
1756 4 2 3 3 66.22 75.10 5.33 o
1757 4 2 -3 3 65.12 63.14 2.81 o
1758 5 -3 -3 -3 23.93 27.11 3.25 o
1758 4 3 3 3 23.93 27.11 3.25 o
1759 5 -3 3 -3 23.97 24.15 1.91 o
1759 4 3 -3 3 23.97 24.15 1.91 o
1760 4 4 3 3 10.24 15.61 2.43 o
1761 4 4 -3 3 10.25 12.96 1.53 o
1762 4 -6 4 3 16.10 6.77 1.90 o
1763 4 -6 -4 3 16.11 9.59 2.40 o
1764 4 -5 4 3 2.61 2.48 0.96 <
1765 4 -5 -4 3 2.68 2.80 1.12 <
1766 4 -4 4 3 3.55 2.17 0.76 <
1767 4 -4 -4 3 3.20 1.36 0.60 <
1768 4 -3 4 3 66.01 55.27 3.73 o
1769 4 -3 -4 3 65.39 52.52 4.10 o
1770 4 -2 4 3 87.19 88.87 3.73 o
1771 4 -2 -4 3 88.18 83.75 3.97 o
1772 4 -1 4 3 44.26 36.85 1.80 o
1773 4 -1 -4 3 43.53 43.34 2.09 o
1774 4 2 -4 3 0.41 -0.24 0.40 <
1775 5 -3 -4 -3 59.95 89.61 6.64 o
1775 4 3 4 3 59.95 89.61 6.64 o
1776 5 -3 4 -3 59.99 70.42 3.45 o
1776 4 3 -4 3 59.99 70.42 3.45 o
1777 4 4 4 3 4.40 7.52 2.37 o
1778 4 4 -4 3 4.59 4.56 1.06 o
1779 4 -6 5 3 0.75 0.47 0.35 <
1780 4 -6 -5 3 0.75 0.64 0.82 <
1781 4 -5 5 3 15.81 11.27 2.23 o
1782 4 -5 -5 3 14.99 15.86 3.10 o
1783 4 -4 5 3 28.45 21.61 2.83 o
1784 4 -4 -5 3 27.00 22.30 3.13 o
1785 4 -3 5 3 1.29 0.97 0.29 o
1786 4 -3 -5 3 1.17 1.01 0.60 <
1787 4 -2 5 3 71.58 70.59 3.66 o
1788 4 -2 -5 3 70.64 70.58 4.07 o
1789 4 -1 -5 3 112.63 115.41 4.04 o
1790 4 0 -5 3 0.98 0.80 0.33 <
1791 5 -3 -5 -3 22.62 35.05 4.45 o
1791 4 3 5 3 22.62 35.05 4.45 o
1792 5 -3 5 -3 22.58 22.30 2.16 o
1792 4 3 -5 3 22.58 22.30 2.16 o
1793 4 -5 6 3 3.32 3.44 1.35 <
1794 4 -5 -6 3 3.62 3.11 1.51 <
1795 4 -4 6 3 3.42 2.13 0.59 o
1796 4 -4 -6 3 3.41 2.68 1.15 <
1797 4 -3 6 3 74.14 66.39 4.30 o
1798 4 -3 -6 3 74.28 62.41 4.78 o
1799 4 -2 6 3 24.67 22.51 2.17 o
1800 4 -2 -6 3 26.93 21.05 2.19 o
1801 4 -1 -6 3 33.05 30.64 2.28 o
1802 4 0 -6 3 72.80 50.87 2.70 o
1803 4 -4 7 3 23.57 21.71 3.11 o
1804 4 -4 -7 3 24.11 17.38 2.90 o
1805 4 -3 7 3 1.88 1.47 0.79 <
1806 4 -3 -7 3 1.90 1.65 0.89 <
1807 4 -2 -7 3 30.15 27.78 2.71 o
1808 4 -1 -7 3 17.02 15.06 1.69 o
1809 4 0 -7 3 23.69 15.84 1.63 o
1810 4 -2 -8 3 9.15 9.53 1.57 o
1811 4 -1 -8 3 13.20 13.90 1.85 o
1812 4 0 -8 3 44.81 44.83 3.01 o
1813 4 1 0 4 165.37 152.21 5.50 o
1814 4 2 0 4 1.67 2.64 0.52 o
1815 4 3 0 4 0.15 -0.10 0.21 <
1816 4 4 0 4 10.47 40.53 2.87 o
1817 4 1 1 4 30.46 25.56 1.90 o
1818 4 1 -1 4 29.38 22.09 2.35 o
1819 4 2 1 4 27.04 28.78 1.98 o
1820 4 2 -1 4 27.34 26.73 1.84 o
1821 4 3 1 4 10.39 15.16 1.57 o
1822 4 3 -1 4 10.50 14.77 1.49 o
1823 4 0 2 4 9.53 2.57 0.55 o
1824 4 1 2 4 63.04 57.00 2.48 o
1825 4 2 2 4 37.96 39.80 2.60 o
1826 4 2 -2 4 37.14 37.30 2.26 o
1827 4 3 2 4 0.70 1.11 0.32 o
1828 4 3 -2 4 0.72 0.44 0.35 <
1829 4 -5 3 4 0.09 0.56 0.58 <
1830 4 -4 3 4 4.24 2.37 1.01 <
1831 4 -3 3 4 23.05 17.89 2.12 o
1832 4 -2 3 4 13.88 10.32 1.33 o
1833 4 -1 3 4 59.80 43.03 1.80 o
1834 4 2 -3 4 10.28 8.92 1.06 o
1835 4 3 3 4 14.69 24.57 3.42 o
1836 4 3 -3 4 14.78 19.29 1.73 o
1837 4 -6 4 4 3.14 0.82 0.78 <
1838 4 -6 -4 4 3.16 3.92 1.62 <
1839 4 -5 4 4 15.82 11.73 2.46 o
1840 4 -5 -4 4 15.35 11.14 2.41 o
1841 4 -4 4 4 0.01 0.19 0.48 <
1842 4 -4 -4 4 0.04 0.32 0.47 <
1843 4 -3 4 4 4.72 1.96 2.45 <
1844 4 -2 4 4 174.99 162.92 4.81 o
1845 4 -1 4 4 49.19 22.42 1.22 o
1846 4 2 -4 4 31.35 21.96 1.52 o
1847 4 3 4 4 0.08 0.44 0.57 <
1848 4 3 -4 4 0.08 -0.88 0.66 <
1849 4 -6 5 4 5.10 2.79 1.60 <
1850 4 -6 -5 4 5.14 5.75 2.23 <
1851 4 -5 5 4 0.98 0.85 1.04 <
1852 4 -5 -5 4 0.98 1.49 1.10 <
1853 4 -4 5 4 11.83 7.13 1.58 o
1854 4 -4 -5 4 11.38 9.14 2.04 o
1855 4 -3 5 4 28.98 24.63 2.46 o
1856 4 -3 -5 4 30.85 21.18 2.64 o
1857 4 -2 5 4 16.66 14.94 1.37 o
1858 4 -2 -5 4 17.00 15.00 1.58 o
1859 4 -1 -5 4 58.86 44.32 2.08 o
1860 4 2 -5 4 15.64 10.56 0.97 o
1861 4 -5 6 4 14.74 10.71 2.24 o
1862 4 -5 -6 4 14.63 11.77 2.61 o
1863 4 -4 6 4 13.90 13.48 2.13 o
1864 4 -4 -6 4 13.82 11.74 2.43 o
1865 4 -3 6 4 0.50 1.12 0.56 <
1866 4 -3 -6 4 0.49 1.23 0.74 <
1867 4 -2 6 4 31.62 28.66 2.17 o
1868 4 -2 -6 4 32.28 31.47 2.45 o
1869 4 -1 -6 4 17.89 14.67 1.32 o
1870 4 -4 7 4 29.68 28.19 3.15 o
1871 4 -4 -7 4 29.68 26.87 3.57 o
1872 4 -3 7 4 49.29 41.15 3.36 o
1873 4 -3 -7 4 49.11 44.07 4.09 o
1874 4 -2 -7 4 1.01 1.39 0.87 <
1875 4 -1 -7 4 25.71 30.22 2.20 o
1876 4 0 -7 4 102.50 68.13 3.26 o
1877 4 1 0 5 4.31 3.02 0.91 o
1878 4 2 0 5 18.02 19.09 2.18 o
1879 4 3 0 5 15.08 18.51 1.83 o
1880 4 1 1 5 34.83 32.97 2.40 o
1881 4 2 1 5 3.04 4.02 1.05 o
1882 4 2 -1 5 3.37 2.33 1.04 <
1883 4 3 1 5 5.05 4.06 0.82 o
1884 4 3 -1 5 5.16 6.03 1.06 o
1885 4 0 2 5 34.05 23.64 1.69 o
1886 4 1 2 5 1.03 0.25 0.07 o
1887 4 2 2 5 9.56 10.11 1.43 o
1888 4 2 -2 5 9.66 7.74 1.77 o
1889 4 1 3 5 24.55 18.30 1.30 o
1890 4 2 3 5 16.07 12.05 1.35 o
1891 4 -6 4 5 1.51 -0.14 0.40 <
1892 4 -5 4 5 0.31 0.52 0.80 <
1893 4 -4 4 5 10.94 7.36 1.51 o
1894 4 -3 4 5 9.00 7.31 1.33 o
1895 4 -2 4 5 0.21 0.61 0.34 <
1896 4 -5 5 5 6.34 3.72 0.84 o
1897 4 -4 5 5 3.00 2.04 0.90 <
1898 4 -3 5 5 21.22 19.94 2.01 o
1899 4 -2 5 5 48.03 60.57 2.83 o
1900 4 -4 6 5 24.29 23.63 2.74 o
1901 4 -4 -6 5 24.25 21.12 3.09 o
1902 4 -3 6 5 19.52 21.27 2.29 o
1903 4 -3 -6 5 19.26 17.75 2.34 o
1904 4 -2 6 5 9.16 9.45 1.05 o
1905 4 -2 -7 5 9.43 8.60 1.27 o
1906 4 1 0 6 9.03 6.64 1.25 o
1907 4 1 1 6 7.27 4.20 0.99 o
1908 4 0 2 6 21.22 19.34 1.83 o
1909 4 1 2 6 12.53 16.65 1.69 o
1910 4 0 3 6 0.46 0.99 0.36 <
1911 4 1 3 6 12.14 8.84 1.03 o
1912 4 -3 4 6 28.97 39.34 2.95 o
1913 4 -2 4 6 30.62 36.96 2.21 o
1914 4 -4 5 6 12.83 19.85 2.57 o
1915 4 -3 5 6 12.75 18.68 1.92 o
1916 4 -2 5 6 15.30 15.68 1.22 o
1917 4 0 2 7 1.54 0.57 0.32 <
1918 6 3 1 0 0.74 0.80 0.32 <
1918 5 3 -1 0 0.74 0.80 0.32 <
1919 6 4 1 0 187.22 168.73 4.76 o
1919 5 4 -1 0 187.22 168.73 4.76 o
1920 6 5 1 0 35.00 48.58 2.85 o
1920 5 5 -1 0 35.00 48.58 2.85 o
1921 6 6 1 0 0.27 1.05 0.56 <
1921 5 6 -1 0 0.27 1.05 0.56 <
1922 6 4 2 0 14.99 15.41 1.18 o
1922 5 4 -2 0 14.99 15.41 1.18 o
1923 6 5 2 0 2.12 3.30 0.67 o
1923 5 5 -2 0 2.12 3.30 0.67 o
1924 6 6 2 0 15.92 32.34 2.31 o
1924 5 6 -2 0 15.92 32.34 2.31 o
1925 6 5 3 0 12.07 10.75 0.88 o
1925 5 5 -3 0 12.07 10.75 0.88 o
1926 6 6 3 0 7.86 6.82 0.83 o
1926 5 6 -3 0 7.86 6.82 0.83 o
1927 6 2 -4 0 3.19 4.46 0.61 o
1927 5 2 4 0 3.19 4.46 0.61 o
1928 6 3 -5 0 2.28 -1.55 0.39 <
1928 5 3 5 0 2.28 -1.55 0.39 <
1929 6 3 -6 0 152.81 144.20 4.27 o
1929 5 3 6 0 152.81 144.20 4.27 o
1930 6 3 -7 0 4.62 2.74 0.61 o
1930 5 3 7 0 4.62 2.74 0.61 o
1931 6 4 -7 0 60.88 48.50 2.00 o
1931 5 4 7 0 60.88 48.50 2.00 o
1932 5 0 0 1 200.77 146.29 2.34 o
1933 5 2 0 1 0.67 0.24 0.22 <
1934 5 3 0 1 26.60 39.82 1.91 o
1935 5 4 0 1 103.57 121.36 5.46 o
1936 5 5 0 1 2.42 3.85 0.88 o
1937 5 6 0 1 0.56 0.75 0.20 o
1938 5 -1 1 1 596.17 607.81 6.59 o
1939 5 -1 -1 1 595.68 641.32 6.77 o
1940 5 0 1 1 724.88 693.04 8.01 o
1941 5 0 -1 1 724.97 710.52 8.18 o
1942 5 2 1 1 174.10 211.24 3.86 o
1943 5 2 -1 1 167.56 231.79 4.11 o
1944 5 3 1 1 120.19 136.35 3.57 o
1945 5 3 -1 1 121.41 144.55 4.23 o
1946 5 4 1 1 12.35 13.58 1.91 o
1947 5 4 -1 1 12.16 14.94 1.48 o
1948 5 5 1 1 10.35 12.15 2.07 o
1949 5 5 -1 1 10.29 13.60 1.67 o
1950 5 6 -1 1 1.34 2.55 0.86 <
1951 5 -2 -2 1 509.10 480.43 5.81 o
1952 5 -1 2 1 11.43 4.46 0.62 o
1953 5 -1 -2 1 9.83 6.11 0.67 o
1954 5 0 2 1 2.10 -0.11 0.30 <
1955 5 0 -2 1 2.43 0.09 0.10 <
1956 5 2 2 1 132.09 182.28 3.76 o
1957 5 2 -2 1 138.23 194.75 7.02 o
1958 5 3 2 1 0.06 0.26 0.22 <
1959 5 3 -2 1 0.09 -0.23 0.04 <
1960 5 4 -2 1 36.25 44.87 2.47 o
1961 5 5 -2 1 4.66 5.56 1.02 o
1962 5 -6 -3 1 7.37 5.04 0.75 o
1963 5 -2 3 1 5.54 8.86 0.85 o
1964 5 -2 -3 1 5.55 7.66 0.78 o
1965 5 -1 3 1 92.10 92.62 3.50 o
1966 5 -1 -3 1 92.16 84.09 3.15 o
1967 5 0 3 1 29.86 28.34 2.25 o
1968 5 0 -3 1 29.66 30.09 2.32 o
1969 5 3 3 1 24.38 20.91 1.14 o
1970 5 5 -3 1 6.43 6.79 0.94 o
1971 5 -3 4 1 54.30 50.27 2.06 o
1972 5 -2 4 1 373.28 369.68 6.93 o
1973 5 -2 -4 1 373.55 315.89 6.34 o
1974 5 -1 4 1 36.42 41.70 2.53 o
1975 5 -1 -4 1 38.52 40.41 2.41 o
1976 5 0 4 1 3.93 5.29 1.22 o
1977 5 -3 5 1 99.70 102.10 3.55 o
1978 5 -2 5 1 36.43 44.99 2.67 o
1979 5 -1 5 1 78.99 103.57 4.69 o
1980 5 -4 6 1 4.25 2.78 0.53 o
1981 5 -3 6 1 11.43 10.70 1.12 o
1982 5 -2 6 1 85.09 94.08 4.34 o
1983 5 -1 6 1 25.35 36.53 2.94 o
1984 5 -4 7 1 26.54 27.69 1.94 o
1985 5 -3 7 1 14.89 13.15 1.41 o
1986 5 -2 7 1 1.45 0.96 0.56 <
1987 5 -3 8 1 7.23 8.28 1.29 o
1988 5 -2 8 1 48.73 43.91 3.61 o
1989 5 0 0 2 5.54 7.15 0.77 o
1990 5 1 0 2 1.09 0.96 0.31 o
1991 5 2 0 2 264.38 269.58 5.14 o
1991 4 -2 0 -2 264.38 269.58 5.14 o
1992 5 3 0 2 29.53 37.95 2.05 o
1993 5 4 0 2 1.53 0.27 0.21 <
1994 5 5 0 2 5.52 9.44 1.64 o
1995 5 -1 1 2 247.30 258.33 6.32 o
1996 5 -1 -1 2 244.99 267.67 6.44 o
1997 5 0 1 2 95.30 102.70 4.29 o
1998 5 0 -1 2 95.30 99.73 4.19 o
1999 5 1 1 2 77.97 72.80 2.55 o
2000 5 1 -1 2 82.68 64.99 2.43 o
2001 5 2 1 2 52.06 53.62 2.23 o
2001 4 -2 -1 -2 52.06 53.62 2.23 o
2002 5 2 -1 2 52.13 56.66 2.37 o
2002 4 -2 1 -2 52.13 56.66 2.37 o
2003 5 3 1 2 43.00 61.70 2.67 o
2004 5 3 -1 2 45.01 57.79 2.66 o
2005 5 4 1 2 13.86 24.85 1.82 o
2006 5 4 -1 2 14.13 26.05 1.98 o
2007 5 5 1 2 4.13 3.65 0.91 o
2008 5 5 -1 2 4.31 5.89 1.29 o
2009 5 -2 2 2 72.08 58.39 3.07 o
2010 5 -2 -2 2 70.92 60.85 3.07 o
2011 5 -1 2 2 663.32 759.56 11.40 o
2012 5 -1 -2 2 663.31 768.40 11.26 o
2013 5 0 2 2 237.45 196.25 6.21 o
2014 5 0 -2 2 237.63 190.19 5.99 o
2015 5 1 2 2 177.69 165.09 6.23 o
2016 5 1 -2 2 173.01 177.52 6.35 o
2017 5 2 2 2 199.94 210.91 4.72 o
2017 4 -2 -2 -2 199.94 210.91 4.72 o
2018 5 2 -2 2 199.91 206.53 7.25 o
2018 4 -2 2 -2 199.91 206.53 7.25 o
2019 5 3 2 2 27.91 38.78 2.17 o
2020 5 3 -2 2 27.59 40.19 2.28 o
2021 5 4 2 2 2.12 2.24 0.61 o
2022 5 4 -2 2 2.21 2.23 0.77 <
2023 5 5 2 2 6.21 7.03 1.80 o
2024 5 5 -2 2 5.92 7.92 1.31 o
2025 5 -4 -3 2 0.74 0.07 0.19 <
2026 5 -3 -3 2 102.94 96.64 3.73 o
2027 5 -2 3 2 361.66 380.23 8.04 o
2028 5 -2 -3 2 361.35 372.65 7.32 o
2029 5 -1 3 2 25.07 26.31 2.21 o
2030 5 -1 -3 2 24.53 25.95 2.09 o
2031 5 0 3 2 384.44 386.58 9.43 o
2032 5 0 -3 2 384.55 404.61 9.54 o
2033 5 1 3 2 262.78 271.77 8.66 o
2034 5 1 -3 2 262.72 250.02 7.77 o
2035 5 2 3 2 28.39 23.98 1.72 o
2035 4 -2 -3 -2 28.39 23.98 1.72 o
2036 5 2 -3 2 28.41 25.13 2.72 o
2036 4 -2 3 -2 28.41 25.13 2.72 o
2037 5 3 3 2 56.96 70.72 3.13 o
2038 5 3 -3 2 57.82 76.27 5.81 o
2039 5 4 3 2 16.41 24.67 1.92 o
2040 5 5 -3 2 1.86 1.21 0.23 o
2041 5 -6 -4 2 3.53 1.40 0.34 o
2042 5 -5 -4 2 2.29 1.54 0.35 o
2043 5 -4 -4 2 96.98 74.07 2.86 o
2044 5 -3 4 2 56.11 50.00 2.96 o
2045 5 -3 -4 2 54.88 52.31 2.70 o
2046 5 -2 4 2 1.65 3.12 0.77 o
2047 5 -2 -4 2 2.29 1.92 0.58 o
2048 5 -1 4 2 318.20 352.77 8.90 o
2049 5 -1 -4 2 320.24 335.14 8.43 o
2050 5 0 4 2 15.48 17.16 2.17 o
2051 5 0 -4 2 15.47 16.83 1.91 o
2052 5 1 4 2 48.56 48.07 3.81 o
2053 5 1 -4 2 49.64 46.91 3.72 o
2054 5 2 4 2 360.48 411.53 12.44 o
2054 4 -2 -4 -2 360.48 411.53 12.44 o
2055 5 2 -4 2 360.55 432.02 13.13 o
2055 4 -2 4 -2 360.55 432.02 13.13 o
2056 5 3 4 2 9.48 10.20 1.23 o
2057 5 4 4 2 2.81 2.27 0.42 o
2058 5 -5 -5 2 16.20 7.19 0.68 o
2059 5 -4 -5 2 0.05 -0.52 0.32 <
2060 5 -3 5 2 95.41 97.74 4.43 o
2061 5 -3 -5 2 96.33 84.03 3.52 o
2062 5 -2 5 2 106.40 106.64 4.85 o
2063 5 -2 -5 2 106.39 92.26 4.12 o
2064 5 -1 5 2 43.62 45.14 3.39 o
2065 5 -1 -5 2 44.40 43.35 3.10 o
2066 5 0 5 2 156.78 149.06 6.84 o
2067 5 0 -5 2 156.72 149.25 6.60 o
2068 5 1 5 2 119.87 126.00 6.80 o
2069 5 1 -5 2 119.09 127.68 6.86 o
2070 5 2 5 2 31.13 39.01 4.03 o
2070 4 -2 -5 -2 31.13 39.01 4.03 o
2071 5 4 5 2 11.65 13.26 1.07 o
2072 5 -4 6 2 32.68 28.14 2.15 o
2073 5 -3 6 2 15.28 8.51 1.29 o
2074 5 -3 -6 2 13.77 7.93 1.21 o
2075 5 -2 6 2 25.25 31.16 2.75 o
2076 5 -2 -6 2 25.41 27.63 2.55 o
2077 5 -1 6 2 135.55 143.18 6.75 o
2078 5 -1 -6 2 132.82 141.17 6.36 o
2079 5 0 6 2 59.69 60.18 4.60 o
2080 5 0 -6 2 60.01 57.59 4.40 o
2081 5 1 6 2 33.44 34.06 3.63 o
2082 5 -4 7 2 0.33 1.04 0.55 <
2083 5 -3 7 2 13.03 12.26 1.60 o
2084 5 -2 7 2 23.30 23.56 2.58 o
2085 5 -1 7 2 0.69 1.10 0.75 <
2086 5 0 7 2 15.44 11.43 2.16 o
2087 5 -3 8 2 7.37 8.73 1.52 o
2088 5 -2 8 2 2.91 0.67 0.70 <
2089 5 -1 8 2 45.32 38.32 3.87 o
2090 5 0 0 3 232.22 180.74 4.96 o
2091 5 1 0 3 152.90 130.63 4.10 o
2092 5 2 0 3 2.48 1.43 0.41 o
2093 5 3 0 3 4.63 6.63 0.95 o
2093 4 -3 0 -3 4.63 6.63 0.95 o
2094 5 4 0 3 9.82 14.47 1.42 o
2095 5 -1 1 3 83.64 62.46 3.93 o
2096 5 -1 -1 3 78.63 69.98 4.23 o
2097 5 0 1 3 60.80 50.00 3.85 o
2098 5 0 -1 3 60.74 49.24 3.75 o
2099 5 1 1 3 120.97 112.27 3.86 o
2100 5 1 -1 3 120.10 105.37 3.71 o
2101 5 2 1 3 40.26 38.78 2.32 o
2102 5 2 -1 3 39.36 41.39 2.40 o
2103 5 3 1 3 20.97 26.43 1.98 o
2103 4 -3 -1 -3 20.97 26.43 1.98 o
2104 5 3 -1 3 20.93 26.68 2.03 o
2104 4 -3 1 -3 20.93 26.68 2.03 o
2105 5 4 1 3 5.33 7.32 1.07 o
2106 5 4 -1 3 5.03 6.97 1.12 o
2107 5 -2 2 3 132.21 127.85 5.60 o
2108 5 -2 -2 3 126.42 140.09 5.64 o
2109 5 -1 2 3 173.52 182.50 6.98 o
2110 5 -1 -2 3 178.19 174.68 6.65 o
2111 5 0 2 3 222.15 222.28 8.29 o
2112 5 0 -2 3 221.79 211.05 7.55 o
2113 5 1 2 3 25.75 22.78 2.66 o
2114 5 1 -2 3 24.84 21.11 2.66 o
2115 5 2 2 3 19.31 18.65 1.63 o
2116 5 2 -2 3 20.01 17.86 2.48 o
2117 5 3 2 3 112.46 146.96 4.79 o
2117 4 -3 -2 -3 112.46 146.96 4.79 o
2118 5 3 -2 3 112.53 139.94 4.81 o
2118 4 -3 2 -3 112.53 139.94 4.81 o
2119 5 4 2 3 8.04 13.26 1.50 o
2120 5 4 -2 3 7.80 13.16 1.53 o
2121 5 -4 -3 3 34.29 23.65 2.40 o
2122 5 -3 -3 3 22.40 22.83 2.32 o
2123 5 -2 3 3 170.74 185.78 6.98 o
2124 5 -2 -3 3 170.78 184.81 6.68 o
2125 5 -1 3 3 274.97 283.52 8.91 o
2126 5 -1 -3 3 275.14 265.62 8.05 o
2127 5 0 3 3 6.38 1.95 0.82 <
2128 5 0 -3 3 6.38 2.10 0.81 <
2129 5 1 3 3 72.09 65.70 4.65 o
2130 5 1 -3 3 69.55 66.79 4.79 o
2131 5 2 3 3 72.20 72.37 3.32 o
2132 5 2 -3 3 71.01 75.47 5.14 o
2133 5 3 3 3 23.97 24.75 1.99 o
2133 4 -3 -3 -3 23.97 24.75 1.99 o
2134 5 3 -3 3 23.93 26.33 3.24 o
2134 4 -3 3 -3 23.93 26.33 3.24 o
2135 5 4 3 3 11.16 16.06 1.68 o
2136 5 4 -3 3 11.18 21.26 3.17 o
2137 5 -5 -4 3 2.93 1.67 0.48 o
2138 5 -4 -4 3 3.49 1.85 0.56 o
2139 5 -3 4 3 71.98 56.76 3.90 o
2140 5 -3 -4 3 71.30 63.90 3.67 o
2141 5 -2 4 3 95.07 104.67 5.41 o
2142 5 -2 -4 3 96.16 98.06 4.83 o
2143 5 -1 4 3 48.26 45.57 3.77 o
2144 5 -1 -4 3 47.46 45.81 3.62 o
2145 5 0 4 3 160.91 144.56 6.94 o
2146 5 0 -4 3 160.64 148.56 7.05 o
2147 5 1 4 3 48.47 49.60 4.29 o
2148 5 1 -4 3 49.40 47.95 4.10 o
2149 5 2 4 3 0.53 0.81 0.83 <
2150 5 2 -4 3 0.44 0.52 0.62 <
2151 5 3 4 3 59.99 70.12 3.54 o
2151 4 -3 -4 -3 59.99 70.12 3.54 o
2152 5 3 -4 3 59.95 84.43 6.51 o
2152 4 -3 4 -3 59.95 84.43 6.51 o
2153 5 4 4 3 4.80 5.29 1.17 o
2154 5 4 -4 3 5.00 7.35 2.18 o
2155 5 -6 -5 3 0.82 0.19 0.03 o
2156 5 -5 -5 3 16.35 14.62 1.54 o
2157 5 -4 5 3 31.03 24.68 2.41 o
2158 5 -4 -5 3 29.44 25.94 2.29 o
2159 5 -3 5 3 1.40 0.96 0.58 <
2160 5 -3 -5 3 1.28 1.09 0.37 <
2161 5 -2 5 3 78.05 82.69 5.02 o
2162 5 -2 -5 3 77.03 81.88 4.60 o
2163 5 -1 5 3 122.01 131.70 6.58 o
2164 5 -1 -5 3 122.82 122.19 6.15 o
2165 5 0 5 3 1.06 1.90 0.86 <
2166 5 0 -5 3 1.07 0.56 0.39 <
2167 5 1 5 3 60.30 55.40 4.90 o
2168 5 1 -5 3 62.75 54.17 4.59 o
2169 5 2 5 3 48.32 51.31 5.01 o
2170 5 2 -5 3 49.78 60.09 5.28 o
2171 5 3 5 3 22.58 23.77 2.28 o
2171 4 -3 -5 -3 22.58 23.77 2.28 o
2172 5 3 -5 3 22.62 35.29 4.45 o
2172 4 -3 5 -3 22.62 35.29 4.45 o
2173 5 -5 -6 3 3.95 2.64 0.61 o
2174 5 -4 6 3 3.73 3.47 1.11 o
2175 5 -4 -6 3 3.72 2.41 0.73 o
2176 5 -3 6 3 80.84 77.66 4.95 o
2177 5 -3 -6 3 81.00 69.90 4.09 o
2178 5 -2 6 3 26.90 28.09 3.13 o
2179 5 -2 -6 3 29.37 23.58 2.52 o
2180 5 -1 6 3 37.92 28.47 3.16 o
2181 5 -1 -6 3 36.04 30.58 3.18 o
2182 5 0 6 3 79.53 55.25 4.89 o
2183 5 0 -6 3 79.38 57.91 4.78 o
2184 5 1 6 3 19.64 130.31 9.39 o
2185 5 1 -6 3 19.40 163.56 10.23 o
2186 5 2 6 3 8.10 8.48 2.01 o
2187 5 2 -6 3 7.76 9.24 2.15 o
2188 5 -4 7 3 25.70 27.94 2.84 o
2189 5 -4 -7 3 26.29 24.40 2.23 o
2190 5 -3 7 3 2.06 1.66 0.80 <
2191 5 -3 -7 3 2.07 1.33 0.52 <
2192 5 -2 7 3 33.78 28.12 3.26 o
2193 5 -2 -7 3 32.87 30.14 3.18 o
2194 5 -1 7 3 18.03 14.64 2.49 o
2195 5 -1 -7 3 18.56 14.61 2.34 o
2196 5 0 7 3 25.84 16.57 2.76 o
2197 5 0 -7 3 25.83 15.25 2.56 o
2198 5 1 7 3 30.13 24.68 3.74 o
2199 5 1 -7 3 29.77 29.21 3.67 o
2200 5 -2 8 3 11.17 9.21 1.83 o
2201 5 -2 -8 3 9.98 11.97 2.16 o
2202 5 -1 8 3 13.40 11.87 2.34 o
2203 5 -1 -8 3 14.40 10.23 2.24 o
2204 5 0 8 3 48.66 46.02 4.95 o
2205 5 0 0 4 1.88 1.66 0.57 <
2206 5 1 0 4 180.32 156.50 5.24 o
2207 5 2 0 4 1.82 2.42 0.52 o
2208 5 3 0 4 0.17 -0.75 0.52 <
2209 5 4 0 4 11.42 39.86 2.91 o
2210 5 -1 1 4 118.62 105.74 5.92 o
2211 5 -1 -1 4 119.64 106.97 5.89 o
2212 5 0 1 4 252.10 209.05 8.52 o
2213 5 0 -1 4 252.32 207.26 8.38 o
2214 5 1 1 4 33.21 23.25 2.02 o
2215 5 1 -1 4 32.04 25.38 2.10 o
2216 5 2 1 4 29.49 27.16 2.23 o
2217 5 2 -1 4 29.81 23.65 2.09 o
2218 5 3 1 4 11.33 15.60 1.70 o
2219 5 3 -1 4 11.45 15.18 1.74 o
2220 5 -2 2 4 102.83 101.89 5.71 o
2221 5 -2 -2 4 102.93 105.34 5.70 o
2222 5 -1 2 4 25.04 21.37 2.78 o
2223 5 -1 -2 4 25.86 21.75 2.76 o
2224 5 0 2 4 10.39 6.51 1.49 o
2225 5 0 -2 4 10.43 6.28 1.60 o
2226 5 1 2 4 68.75 57.81 5.05 o
2227 5 1 -2 4 66.83 54.90 4.56 o
2228 5 2 2 4 41.40 42.11 2.81 o
2229 5 2 -2 4 40.50 45.67 4.34 o
2230 5 3 2 4 0.76 0.44 0.45 <
2231 5 3 -2 4 0.79 0.42 0.26 <
2232 5 -3 -3 4 23.35 26.03 2.82 o
2233 5 -2 3 4 15.13 13.79 2.08 o
2234 5 -2 -3 4 14.81 12.71 1.88 o
2235 5 -1 3 4 65.21 70.69 5.12 o
2236 5 -1 -3 4 67.48 65.54 4.77 o
2237 5 0 3 4 4.39 2.27 0.93 <
2238 5 0 -3 4 4.15 1.65 0.70 <
2239 5 1 3 4 14.34 14.10 2.35 o
2240 5 1 -3 4 14.33 11.50 2.21 o
2241 5 2 3 4 10.83 10.53 1.46 o
2242 5 2 -3 4 11.21 10.63 2.30 o
2243 5 3 3 4 16.02 19.67 1.93 o
2244 5 3 -3 4 16.12 21.38 3.08 o
2245 5 -5 -4 4 16.74 50.04 5.25 o
2246 5 -4 -4 4 0.05 0.70 0.52 <
2247 5 -3 4 4 5.14 4.04 1.15 o
2248 5 -3 -4 4 5.21 4.42 1.06 o
2249 5 -2 4 4 190.81 199.11 8.46 o
2250 5 -2 -4 4 190.22 194.26 7.84 o
2251 5 -1 4 4 53.64 50.94 4.59 o
2252 5 -1 -4 4 53.05 50.00 4.14 o
2253 5 0 4 4 1.47 -0.89 0.93 <
2254 5 0 -4 4 1.43 0.99 0.71 <
2255 5 1 4 4 13.40 15.39 2.82 o
2256 5 1 -4 4 13.84 12.36 2.49 o
2257 5 2 4 4 34.10 34.60 4.39 o
2258 5 2 -4 4 34.18 32.80 3.88 o
2259 5 3 4 4 0.09 0.55 0.63 <
2260 5 3 -4 4 0.09 0.17 0.45 <
2261 5 -5 -5 4 1.07 0.43 0.32 <
2262 5 -4 5 4 12.90 10.79 1.95 o
2263 5 -4 -5 4 12.41 10.30 1.68 o
2264 5 -3 5 4 31.60 29.16 3.24 o
2265 5 -3 -5 4 33.64 26.03 2.73 o
2266 5 -2 5 4 18.17 17.82 2.62 o
2267 5 -2 -5 4 18.54 15.55 2.12 o
2268 5 -1 5 4 66.70 59.92 5.08 o
2269 5 -1 -5 4 64.19 56.94 4.65 o
2270 5 0 5 4 17.20 8.98 2.01 o
2271 5 0 -5 4 17.16 10.15 2.25 o
2272 5 1 5 4 9.97 3.79 1.13 o
2273 5 1 -5 4 10.25 3.49 1.49 <
2274 5 2 5 4 17.52 14.34 2.82 o
2275 5 2 -5 4 17.05 18.23 3.14 o
2276 5 -5 -6 4 15.95 12.48 1.71 o
2277 5 -4 6 4 15.16 14.07 2.26 o
2278 5 -4 -6 4 15.07 11.82 1.80 o
2279 5 -3 6 4 0.54 0.43 0.26 <
2280 5 -3 -6 4 0.53 0.74 0.53 <
2281 5 -2 6 4 34.48 37.40 3.98 o
2282 5 -2 -6 4 35.20 31.52 3.34 o
2283 5 -1 6 4 19.27 17.09 2.71 o
2284 5 -1 -6 4 19.51 15.22 2.47 o
2285 5 0 6 4 7.70 1.97 0.98 <
2286 5 0 -6 4 7.76 3.91 1.18 o
2287 5 1 6 4 51.60 50.08 5.23 o
2288 5 1 -6 4 52.26 53.99 5.46 o
2289 5 -4 7 4 32.36 34.10 3.71 o
2290 5 -4 -7 4 32.37 30.96 3.05 o
2291 5 -3 7 4 53.75 53.19 4.88 o
2292 5 -3 -7 4 53.55 54.54 4.42 o
2293 5 -2 7 4 1.08 0.73 0.61 <
2294 5 -2 -7 4 1.10 1.83 0.89 <
2295 5 -1 7 4 27.51 25.15 3.65 o
2296 5 -1 -7 4 28.03 24.21 3.11 o
2297 5 0 7 4 111.52 92.59 7.27 o
2298 5 0 -7 4 111.78 102.25 7.91 o
2299 5 0 0 5 106.22 79.04 4.10 o
2300 5 1 0 5 4.70 2.00 0.64 o
2301 5 2 0 5 19.64 11.26 1.54 o
2302 5 3 0 5 16.44 17.90 2.14 o
2303 5 -1 1 5 32.92 26.74 3.32 o
2304 5 -1 -1 5 34.16 23.85 3.15 o
2305 5 0 1 5 53.41 69.92 5.58 o
2306 5 0 -1 5 53.42 43.07 4.42 o
2307 5 1 1 5 37.99 29.79 2.59 o
2308 5 1 -1 5 36.42 31.26 3.62 o
2309 5 2 1 5 3.31 1.60 0.60 <
2310 5 2 -1 5 3.67 1.43 0.59 <
2311 5 3 1 5 5.50 4.97 1.14 o
2312 5 3 -1 5 5.63 3.30 0.88 o
2313 5 -2 2 5 20.48 22.37 3.09 o
2314 5 -2 -2 5 19.82 23.93 3.15 o
2315 5 -1 2 5 66.73 54.95 4.99 o
2316 5 -1 -2 5 68.66 51.72 4.83 o
2317 5 0 2 5 37.13 27.22 3.79 o
2318 5 0 -2 5 37.28 28.04 3.61 o
2319 5 1 2 5 1.12 -0.18 0.65 <
2320 5 1 -2 5 1.07 0.17 0.36 <
2321 5 2 2 5 10.43 7.24 1.49 o
2322 5 2 -2 5 10.53 7.93 2.13 o
2323 5 -3 -3 5 55.92 64.03 4.96 o
2324 5 -2 3 5 75.19 92.91 6.34 o
2325 5 -2 -3 5 76.57 102.46 6.39 o
2326 5 -1 3 5 16.65 16.36 3.01 o
2327 5 -1 -3 5 16.62 13.07 2.48 o
2328 5 0 3 5 13.94 4.07 1.39 <
2329 5 0 -3 5 13.98 4.75 1.51 o
2330 5 1 3 5 26.77 18.95 3.34 o
2331 5 1 -3 5 27.32 15.73 2.98 o
2332 5 2 3 5 17.52 9.36 1.36 o
2333 5 2 -3 5 17.71 11.44 2.72 o
2334 5 -5 -4 5 0.33 -0.19 0.45 <
2335 5 -4 -4 5 12.61 10.36 1.98 o
2336 5 -3 4 5 9.81 10.66 2.10 o
2337 5 -3 -4 5 9.88 8.77 1.82 o
2338 5 -2 4 5 0.23 0.58 0.51 <
2339 5 -2 -4 5 0.31 0.25 0.50 <
2340 5 -1 4 5 15.10 12.92 2.36 o
2341 5 -1 -4 5 14.29 13.74 2.51 o
2342 5 0 4 5 1.69 1.69 1.19 <
2343 5 0 -4 5 1.61 1.19 0.69 <
2344 5 1 4 5 1.19 1.41 1.13 <
2345 5 1 -4 5 1.21 -1.34 1.14 <
2346 5 2 4 5 16.82 14.39 3.14 o
2347 5 2 -4 5 16.60 13.08 2.89 o
2348 5 -5 -5 5 7.09 8.23 1.80 o
2349 5 -4 5 5 3.27 1.60 1.13 <
2350 5 -4 -5 5 3.39 1.87 0.66 <
2351 5 -3 5 5 23.13 24.58 3.37 o
2352 5 -3 -5 5 24.30 20.45 2.70 o
2353 5 -2 5 5 52.37 75.23 6.08 o
2354 5 -2 -5 5 51.00 70.06 5.50 o
2355 5 -1 5 5 8.86 3.03 0.85 o
2356 5 -1 -5 5 8.55 7.35 2.04 o
2357 5 0 5 5 6.69 4.56 1.73 <
2358 5 0 -5 5 6.60 4.72 1.68 <
2359 5 1 5 5 21.74 18.58 3.37 o
2360 5 1 -5 5 21.70 18.17 3.33 o
2361 5 -4 6 5 26.48 28.96 3.70 o
2362 5 -4 -6 5 26.44 26.94 3.16 o
2363 5 -3 6 5 21.28 25.04 3.72 o
2364 5 -3 -6 5 21.00 26.07 3.30 o
2365 5 -2 6 5 9.99 14.00 2.71 o
2366 5 -2 -6 5 10.42 12.49 2.25 o
2367 5 -1 6 5 54.52 54.68 5.69 o
2368 5 -1 -6 5 53.89 53.47 5.15 o
2369 5 0 6 5 38.36 27.19 4.07 o
2370 5 0 -6 5 38.51 26.44 3.83 o
2371 5 -2 7 5 10.05 8.83 2.20 o
2372 5 -2 -7 5 10.28 8.80 1.82 o
2373 5 0 0 6 8.50 5.43 2.05 <
2374 5 1 0 6 9.85 4.95 1.21 o
2375 5 -1 1 6 36.76 33.99 4.70 o
2376 5 -1 -1 6 38.27 35.62 4.53 o
2377 5 0 1 6 19.78 12.31 2.67 o
2378 5 0 -1 6 19.76 9.25 2.31 o
2379 5 1 1 6 7.93 2.21 0.81 <
2380 5 1 -1 6 7.31 4.02 1.78 <
2381 5 -2 2 6 44.60 80.72 6.59 o
2382 5 -2 -2 6 45.65 70.57 6.14 o
2383 5 -1 2 6 1.53 2.18 1.28 <
2384 5 -1 -2 6 1.57 0.95 0.98 <
2385 5 0 2 6 23.14 15.67 3.32 o
2386 5 0 -2 6 23.19 15.66 3.20 o
2387 5 1 2 6 13.66 11.00 2.65 o
2388 5 1 -2 6 14.03 6.31 2.03 o
2389 5 -3 -3 6 12.33 16.21 2.88 o
2390 5 -2 3 6 12.05 18.23 3.05 o
2391 5 -2 -3 6 11.62 14.67 2.64 o
2392 5 -1 3 6 28.34 28.25 4.25 o
2393 5 -1 -3 6 28.01 27.81 4.09 o
2394 5 0 3 6 0.50 0.60 0.87 <
2395 5 0 -3 6 0.50 0.86 1.23 <
2396 5 1 3 6 13.24 6.45 1.82 o
2397 5 1 -3 6 13.13 9.36 2.55 o
2398 5 -4 -4 6 2.69 3.48 1.50 <
2399 5 -3 4 6 31.59 53.36 5.28 o
2400 5 -3 -4 6 31.81 49.11 4.87 o
2401 5 -2 4 6 33.38 50.58 5.25 o
2402 5 -2 -4 6 33.41 56.73 5.39 o
2403 5 -1 4 6 1.36 3.97 2.04 <
2404 5 -1 -4 6 1.37 2.14 1.22 <
2405 5 0 4 6 35.74 28.03 4.23 o
2406 5 0 -4 6 35.73 19.73 3.41 o
2407 5 -4 5 6 13.99 20.38 3.38 o
2408 5 -4 -5 6 14.07 20.03 3.12 o
2409 5 -3 5 6 13.90 20.27 3.22 o
2410 5 -3 -5 6 13.29 19.58 3.01 o
2411 5 -2 5 6 16.68 26.64 3.91 o
2412 5 -2 -5 6 17.23 20.70 3.27 o
2413 5 -1 5 6 20.83 33.06 4.55 o
2414 5 -1 -5 6 20.94 25.27 4.08 o
2415 5 0 0 7 8.98 1.71 1.41 <
2416 5 -1 -1 7 8.12 2.43 1.75 <
2417 5 0 1 7 6.83 4.87 2.03 <
2418 5 0 -1 7 6.90 3.02 1.60 <
2419 5 -2 -2 7 10.50 1.74 1.06 <
2420 5 -1 2 7 15.06 8.55 2.56 o
2421 5 -1 -2 7 14.64 7.38 2.19 o
2422 5 0 2 7 1.68 1.36 0.81 <
2423 5 0 -2 7 1.69 1.40 1.23 <
2424 5 -3 -3 7 17.58 12.54 2.63 o
2425 5 -2 3 7 18.07 11.62 2.61 o
2426 5 -2 -3 7 17.85 11.82 2.52 o
2427 5 -1 3 7 11.72 7.21 2.35 o
2428 5 -1 -3 7 11.82 7.20 2.19 o
2429 5 -4 -4 7 5.56 6.05 1.94 o
2430 5 -3 4 7 0.09 1.66 1.29 <
2431 5 -3 -4 7 0.10 -1.82 1.20 <
2432 5 -2 4 7 17.65 14.23 3.26 o
2433 5 -2 -4 7 18.03 9.95 2.67 o
2434 6 -6 0 1 0.23 -0.17 0.88 <
2435 6 -5 0 1 38.99 41.49 3.32 o
2436 6 -4 0 1 4.98 7.20 1.26 o
2437 6 -3 0 1 1.12 0.57 0.18 o
2438 6 -2 0 1 98.99 95.85 2.44 o
2439 6 -1 0 1 216.12 158.75 2.65 o
2440 6 -6 1 1 4.67 4.52 1.14 o
2441 6 -6 -1 1 4.66 3.02 1.17 <
2442 6 -5 1 1 3.36 2.50 0.54 o
2443 6 -4 1 1 65.28 68.53 3.25 o
2444 6 -4 -1 1 65.67 59.27 2.68 o
2445 6 -3 1 1 103.32 99.67 2.99 o
2446 6 -3 -1 1 106.69 96.73 2.98 o
2447 6 -2 1 1 345.00 323.68 4.69 o
2448 6 -2 -1 1 345.09 323.79 4.65 o
2449 6 -1 -1 1 546.13 562.41 8.14 o
2450 6 0 1 1 664.58 666.16 7.53 o
2451 6 0 -1 1 664.67 666.96 7.51 o
2452 6 -6 2 1 2.63 3.19 0.74 o
2453 6 -5 2 1 35.50 35.37 2.34 o
2454 6 -4 2 1 7.09 6.93 0.94 o
2455 6 -4 -2 1 6.59 6.35 0.83 o
2456 6 -3 2 1 100.26 91.49 5.16 o
2457 6 -3 -2 1 95.82 85.24 2.94 o
2458 6 -2 2 1 467.12 457.63 9.89 o
2459 6 -2 -2 1 466.75 446.94 10.18 o
2460 6 -1 2 1 10.48 4.16 0.88 o
2461 6 -1 -2 1 9.02 5.91 0.98 o
2462 6 0 2 1 1.93 0.09 0.16 <
2463 6 0 -2 1 2.23 0.09 0.17 <
2464 6 -6 3 1 6.55 6.94 1.03 o
2465 6 -4 -3 1 28.14 19.40 1.25 o
2466 6 -3 -3 1 94.34 64.80 2.68 o
2467 6 -2 3 1 5.07 7.88 1.53 o
2468 6 -2 -3 1 5.09 7.73 1.42 o
2469 6 -1 3 1 84.44 91.24 4.45 o
2470 6 -1 -3 1 84.50 95.72 4.63 o
2471 6 0 3 1 27.38 28.29 2.20 o
2472 6 0 -3 1 27.19 28.56 2.29 o
2473 6 5 3 1 5.96 2.99 0.70 o
2474 6 -1 -4 1 35.31 37.50 3.22 o
2475 6 0 4 1 3.60 7.06 1.41 o
2476 6 0 -4 1 3.49 7.63 1.51 o
2477 6 2 -4 1 86.36 127.06 3.73 o
2478 6 -4 -5 1 25.12 12.21 0.97 o
2479 6 0 -5 1 113.86 175.68 7.51 o
2480 6 2 -5 1 71.51 131.38 4.44 o
2481 6 0 -6 1 17.52 35.81 3.53 o
2482 6 2 -6 1 21.32 38.20 2.65 o
2483 6 3 -6 1 0.87 1.79 0.49 o
2484 6 2 -7 1 29.68 46.16 3.26 o
2485 6 3 -7 1 44.77 66.07 3.23 o
2486 6 -7 0 2 3.61 3.07 1.02 o
2487 6 -6 0 2 0.02 -0.45 0.45 <
2488 6 -5 0 2 2.14 1.26 0.56 <
2489 6 -4 0 2 61.72 51.56 2.54 o
2490 6 -3 0 2 1.70 0.94 0.42 <
2491 6 -2 0 2 2.68 4.43 0.68 o
2492 6 -7 1 2 0.37 0.25 0.39 <
2493 6 -7 -1 2 0.37 -0.43 0.58 <
2494 6 -6 1 2 5.18 4.39 1.05 o
2495 6 -6 -1 2 5.14 5.67 1.00 o
2496 6 -5 1 2 11.51 11.10 1.25 o
2497 6 -5 -1 2 10.91 11.37 1.30 o
2498 6 -4 1 2 3.29 0.85 0.36 <
2499 6 -4 -1 2 3.28 1.60 0.51 o
2500 6 -3 1 2 104.75 101.07 3.38 o
2501 6 -3 -1 2 101.28 104.05 3.35 o
2502 6 -2 1 2 63.47 49.66 3.27 o
2503 6 -2 -1 2 67.11 47.93 3.25 o
2504 6 -1 1 2 226.73 238.25 6.54 o
2505 6 -1 -1 2 224.61 241.52 6.77 o
2506 6 -6 2 2 0.19 0.77 0.52 <
2507 6 -6 -2 2 0.20 0.33 0.50 <
2508 6 -5 2 2 5.26 9.27 1.48 o
2509 6 -5 -2 2 5.69 5.11 0.90 o
2510 6 -4 2 2 91.66 77.67 3.44 o
2511 6 -4 -2 2 91.54 85.06 3.34 o
2512 6 -3 2 2 96.64 97.30 5.54 o
2513 6 -3 -2 2 101.23 91.53 3.35 o
2514 6 -2 2 2 66.08 60.42 3.92 o
2515 6 -2 -2 2 65.02 63.02 3.97 o
2516 6 -1 2 2 608.14 693.39 11.74 o
2517 6 -1 -2 2 608.13 694.77 11.88 o
2518 6 0 2 2 217.70 174.59 5.63 o
2519 6 0 -2 2 217.86 172.05 5.61 o
2520 6 1 2 2 162.91 132.20 4.93 o
2521 6 -6 -3 2 5.14 5.49 1.05 o
2522 6 -5 3 2 38.93 38.83 4.65 o
2523 6 -5 -3 2 38.39 40.86 2.75 o
2524 6 -4 3 2 0.67 0.18 0.38 <
2525 6 -4 -3 2 0.68 0.12 0.48 <
2526 6 -3 3 2 95.10 97.85 5.97 o
2527 6 -3 -3 2 94.38 96.07 6.03 o
2528 6 -2 3 2 331.57 350.73 10.18 o
2529 6 -2 -3 2 331.29 349.77 10.04 o
2530 6 -1 3 2 22.98 24.82 2.30 o
2531 6 -1 -3 2 22.49 25.60 2.40 o
2532 6 0 3 2 352.46 396.71 8.54 o
2533 6 0 -3 2 352.56 395.55 8.82 o
2534 6 1 3 2 240.92 227.51 6.23 o
2535 6 1 -3 2 240.87 230.25 6.48 o
2536 6 2 3 2 28.05 23.88 1.81 o
2536 1 -2 -3 -2 28.05 23.88 1.81 o
2537 6 -6 -4 2 3.24 1.77 0.43 o
2538 6 -5 -4 2 2.10 2.43 0.63 o
2539 6 -4 4 2 88.94 93.71 6.99 o
2540 6 -4 -4 2 88.91 98.66 7.14 o
2541 6 -3 4 2 51.44 56.91 4.83 o
2542 6 -3 -4 2 50.32 58.83 5.03 o
2543 6 -2 4 2 1.52 2.16 0.86 <
2544 6 -2 -4 2 2.10 1.74 0.72 <
2545 6 -1 4 2 291.73 344.25 9.73 o
2546 6 -1 -4 2 293.60 336.80 9.89 o
2547 6 0 4 2 14.20 19.67 2.03 o
2548 6 0 -4 2 14.18 17.23 1.95 o
2549 6 1 4 2 44.52 43.92 2.68 o
2550 6 1 -4 2 45.51 42.46 2.86 o
2551 6 2 4 2 355.93 367.70 7.04 o
2551 1 -2 -4 -2 355.93 367.70 7.04 o
2552 6 3 4 2 8.70 7.73 0.94 o
2553 6 4 4 2 2.57 1.86 0.48 o
2554 6 -5 -5 2 14.86 9.89 1.14 o
2555 6 -3 5 2 87.48 94.95 6.81 o
2556 6 -3 -5 2 88.31 95.58 6.98 o
2557 6 -2 5 2 97.55 103.74 6.38 o
2558 6 -2 -5 2 97.54 107.96 6.59 o
2559 6 -1 5 2 40.00 44.63 3.58 o
2560 6 -1 -5 2 40.71 45.19 3.76 o
2561 6 0 5 2 143.74 138.18 5.95 o
2562 6 0 -5 2 143.68 139.33 6.24 o
2563 6 1 5 2 109.90 111.79 4.81 o
2564 6 1 -5 2 109.19 118.21 5.23 o
2565 6 2 5 2 30.71 33.71 2.30 o
2565 1 -2 -5 -2 30.71 33.71 2.30 o
2566 6 2 -5 2 30.73 35.37 2.49 o
2566 1 -2 5 -2 30.73 35.37 2.49 o
2567 6 3 5 2 25.18 18.37 1.52 o
2568 6 -2 -6 2 23.30 32.28 3.84 o
2569 6 -1 6 2 124.27 137.27 7.05 o
2570 6 -1 -6 2 121.77 141.05 7.47 o
2571 6 0 6 2 54.73 55.29 4.20 o
2572 6 0 -6 2 55.02 60.00 4.37 o
2573 6 1 6 2 30.66 30.86 2.83 o
2574 6 1 -6 2 32.36 31.43 2.87 o
2575 6 2 6 2 70.55 60.85 3.55 o
2575 1 -2 -6 -2 70.55 60.85 3.55 o
2576 6 2 -6 2 70.62 82.32 4.11 o
2576 1 -2 6 -2 70.62 82.32 4.11 o
2577 6 -1 -7 2 0.73 0.70 0.96 <
2578 6 0 -7 2 14.14 8.00 1.85 o
2579 6 1 -7 2 18.51 15.94 2.10 o
2580 6 2 -7 2 1.97 0.69 0.38 <
2580 1 -2 7 -2 1.97 0.69 0.38 <
2581 6 -1 -8 2 42.43 41.38 4.49 o
2582 6 0 -8 2 9.47 6.95 1.75 o
2583 6 1 -8 2 10.70 14.57 2.33 o
2584 6 -7 0 3 0.67 0.64 0.52 <
2585 6 -6 0 3 10.52 8.90 1.38 o
2586 6 -5 0 3 1.91 1.71 0.58 <
2587 6 -4 0 3 4.19 6.42 0.94 o
2588 6 -3 0 3 295.13 276.85 6.37 o
2589 6 -2 0 3 0.76 0.21 0.36 <
2590 6 -7 1 3 2.51 2.24 0.82 <
2591 6 -7 -1 3 2.59 2.87 0.71 o
2592 6 -6 1 3 0.00 0.55 0.52 <
2593 6 -6 -1 3 0.00 0.69 0.51 <
2594 6 -5 1 3 10.15 11.72 1.42 o
2595 6 -5 -1 3 10.72 9.85 1.32 o
2596 6 -4 1 3 64.85 65.67 3.24 o
2597 6 -4 -1 3 64.47 60.78 3.14 o
2598 6 -3 1 3 0.40 0.70 0.73 <
2599 6 -3 -1 3 0.41 0.76 0.35 <
2600 6 -2 1 3 148.16 159.57 6.71 o
2601 6 -2 -1 3 153.96 142.92 6.60 o
2602 6 -1 1 3 76.69 59.89 3.95 o
2603 6 -7 2 3 0.15 0.49 0.87 <
2604 6 -7 -2 3 0.17 -0.38 0.58 <
2605 6 -6 2 3 10.88 10.84 1.57 o
2606 6 -6 -2 3 10.86 10.56 1.42 o
2607 6 -5 2 3 6.77 6.56 1.14 o
2608 6 -5 -2 3 6.29 8.69 1.28 o
2609 6 -4 2 3 7.46 5.90 1.47 o
2610 6 -4 -2 3 8.05 6.08 1.03 o
2611 6 -3 2 3 125.91 134.94 6.64 o
2612 6 -3 -2 3 126.65 132.09 6.59 o
2613 6 -2 2 3 121.21 119.38 5.93 o
2614 6 -2 -2 3 115.90 117.18 6.05 o
2615 6 -1 2 3 159.09 168.32 6.69 o
2616 6 -1 -2 3 163.37 161.97 6.86 o
2617 6 0 2 3 203.68 214.74 7.55 o
2618 6 -6 3 3 1.68 0.32 0.60 <
2619 6 -6 -3 3 1.68 0.46 0.56 <
2620 6 -5 3 3 36.35 42.56 4.71 o
2621 6 -5 -3 3 36.92 39.71 2.83 o
2622 6 -4 3 3 29.68 33.17 3.91 o
2623 6 -4 -3 3 31.43 28.57 3.57 o
2624 6 -3 3 3 20.47 25.37 3.22 o
2625 6 -3 -3 3 20.54 23.86 2.93 o
2626 6 -2 3 3 156.54 179.87 7.56 o
2627 6 -2 -3 3 156.58 178.41 7.74 o
2628 6 -1 3 3 252.10 241.36 8.36 o
2629 6 -1 -3 3 252.25 239.46 8.77 o
2630 6 0 3 3 5.85 2.61 0.84 o
2631 6 0 -3 3 5.84 2.58 0.92 <
2632 6 1 3 3 66.10 51.83 3.76 o
2633 6 -6 4 3 16.10 16.27 3.46 o
2634 6 -6 -4 3 16.11 13.67 1.78 o
2635 6 -5 4 3 2.61 2.37 0.71 o
2636 6 -5 -4 3 2.68 2.43 0.73 o
2637 6 -4 4 3 3.55 1.30 0.71 <
2638 6 -4 -4 3 3.20 1.88 1.22 <
2639 6 -3 4 3 66.00 69.07 5.48 o
2640 6 -3 -4 3 65.37 65.05 5.35 o
2641 6 -2 4 3 87.17 104.07 6.24 o
2642 6 -2 -4 3 88.16 96.47 6.03 o
2643 6 -1 -4 3 43.52 44.80 3.82 o
2644 6 0 4 3 147.52 137.26 6.14 o
2645 6 0 -4 3 147.28 133.28 6.40 o
2646 6 1 4 3 44.44 37.42 3.15 o
2647 6 1 -4 3 45.29 35.91 2.96 o
2648 6 2 4 3 0.49 0.01 0.42 <
2649 6 3 4 3 59.19 58.60 3.57 o
2649 1 -3 -4 -3 59.19 58.60 3.57 o
2650 6 -6 -5 3 0.75 1.28 0.56 <
2651 6 -5 5 3 15.80 15.04 3.01 o
2652 6 -5 -5 3 14.99 13.85 2.91 o
2653 6 -4 5 3 28.44 30.36 4.07 o
2654 6 -3 5 3 1.29 0.96 0.79 <
2655 6 -3 -5 3 1.17 -0.15 0.91 <
2656 6 -2 5 3 71.56 82.72 5.73 o
2657 6 -2 -5 3 70.62 84.54 5.92 o
2658 6 -1 5 3 111.86 119.14 6.64 o
2659 6 -1 -5 3 112.60 114.77 6.49 o
2660 6 0 5 3 0.97 1.75 0.88 <
2661 6 0 -5 3 0.98 1.21 0.86 <
2662 6 1 5 3 55.29 49.44 3.50 o
2663 6 1 -5 3 57.53 47.73 3.78 o
2664 6 2 5 3 44.30 42.78 3.00 o
2665 6 3 5 3 22.32 23.73 2.03 o
2665 1 -3 -5 -3 22.32 23.73 2.03 o
2666 6 -5 -6 3 3.62 3.93 1.66 <
2667 6 -4 6 3 3.42 0.45 1.41 <
2668 6 -4 -6 3 3.41 3.03 1.44 <
2669 6 -3 6 3 74.11 30.98 6.17 o
2670 6 -3 -6 3 74.26 68.89 6.17 o
2671 6 -2 6 3 24.66 27.94 3.41 o
2672 6 -2 -6 3 26.92 23.84 3.30 o
2673 6 -1 6 3 34.77 27.17 3.12 o
2674 6 -1 -6 3 33.04 32.49 3.56 o
2675 6 0 6 3 72.91 52.37 4.14 o
2676 6 0 -6 3 72.78 53.81 4.51 o
2677 6 1 -6 3 17.78 14.60 2.16 o
2678 6 2 6 3 7.43 7.60 1.34 o
2679 6 -4 -7 3 24.10 24.35 4.45 o
2680 6 -3 7 3 1.88 1029.48 30.59 o
2681 6 -2 7 3 30.97 5.46 3.93 <
2682 6 -2 -7 3 30.14 28.45 3.85 o
2683 6 -1 7 3 16.53 13.51 2.32 o
2684 6 -1 -7 3 17.02 12.38 2.29 o
2685 6 0 7 3 23.69 13.55 2.20 o
2686 6 0 -7 3 23.68 15.43 2.53 o
2687 6 1 7 3 27.63 21.43 2.54 o
2688 6 1 -7 3 27.29 27.26 2.90 o
2689 6 2 7 3 9.04 22.10 3.48 o
2690 6 2 -7 3 8.70 21.54 4.93 o
2691 6 -2 -8 3 9.15 7.78 2.20 o
2692 6 -1 8 3 12.29 8.18 1.79 o
2693 6 -1 -8 3 13.20 10.00 2.59 o
2694 6 0 8 3 44.61 38.56 4.15 o
2695 6 0 -8 3 44.80 39.02 4.24 o
2696 6 -7 0 4 0.78 0.92 0.53 <
2697 6 -6 0 4 0.04 0.31 0.62 <
2698 6 -5 0 4 36.59 38.20 2.87 o
2699 6 -4 0 4 61.21 69.24 3.76 o
2700 6 -3 0 4 26.17 32.28 2.48 o
2701 6 -7 1 4 2.55 2.16 0.78 <
2702 6 -7 -1 4 2.48 2.51 0.89 <
2703 6 -6 1 4 5.66 4.41 0.97 o
2704 6 -6 -1 4 5.68 4.96 1.03 o
2705 6 -5 1 4 3.84 1.17 0.51 <
2706 6 -5 -1 4 3.79 1.19 0.57 <
2707 6 -4 1 4 88.26 103.27 6.28 o
2708 6 -4 -1 4 88.36 91.50 4.28 o
2709 6 -3 1 4 120.39 116.46 6.64 o
2710 6 -3 -1 4 119.29 121.32 6.75 o
2711 6 -2 1 4 25.62 26.16 3.22 o
2712 6 -2 -1 4 24.83 27.99 3.38 o
2713 6 -7 2 4 0.19 1.24 0.78 <
2714 6 -7 -2 4 0.17 0.44 0.75 <
2715 6 -6 -2 4 0.17 0.28 0.66 <
2716 6 -5 2 4 35.19 36.01 4.19 o
2717 6 -5 -2 4 36.04 31.43 2.63 o
2718 6 -4 2 4 8.28 8.82 1.93 o
2719 6 -4 -2 4 8.28 8.53 1.93 o
2720 6 -3 2 4 0.07 -0.45 0.54 <
2721 6 -3 -2 4 0.06 -0.65 0.60 <
2722 6 -2 2 4 94.28 101.21 6.16 o
2723 6 -2 -2 4 94.37 101.26 6.17 o
2724 6 -1 2 4 22.96 18.90 2.66 o
2725 6 -6 3 4 5.03 6.46 1.72 o
2726 6 -6 -3 4 5.03 4.03 1.08 o
2727 6 -5 3 4 0.09 -1.81 1.33 <
2728 6 -5 -3 4 0.08 -0.62 0.69 <
2729 6 -4 3 4 4.24 3.26 1.42 <
2730 6 -4 -3 4 4.49 1.40 0.53 <
2731 6 -3 3 4 23.05 22.26 3.19 o
2732 6 -3 -3 4 21.41 24.33 3.24 o
2733 6 -2 3 4 13.88 12.47 2.23 o
2734 6 -2 -3 4 13.58 13.13 2.42 o
2735 6 -1 3 4 59.78 58.48 4.70 o
2736 6 -1 -3 4 61.86 58.15 4.85 o
2737 6 0 3 4 4.03 2.98 0.87 o
2738 6 -6 4 4 3.14 4.01 1.89 <
2739 6 -6 -4 4 3.16 2.67 0.84 o
2740 6 -5 4 4 15.82 19.61 3.53 o
2741 6 -5 -4 4 15.35 16.30 3.06 o
2742 6 -4 4 4 0.01 0.28 0.81 <
2743 6 -4 -4 4 0.04 -0.68 0.80 <
2744 6 -3 4 4 4.72 5.46 2.04 <
2745 6 -3 -4 4 4.78 4.43 1.61 <
2746 6 -2 4 4 174.94 195.96 8.93 o
2747 6 -2 -4 4 174.40 188.58 9.02 o
2748 6 -1 4 4 49.18 43.32 4.18 o
2749 6 -1 -4 4 48.63 44.95 4.41 o
2750 6 0 4 4 1.34 0.43 0.61 <
2751 6 0 -4 4 1.31 -0.18 0.43 <
2752 6 1 4 4 12.28 12.67 1.99 o
2753 6 2 4 4 31.26 27.33 2.86 o
2754 6 -6 5 4 5.10 2.97 1.72 <
2755 6 -6 -5 4 5.14 5.08 2.17 <
2756 6 -5 5 4 0.98 0.75 0.62 <
2757 6 -5 -5 4 0.98 0.85 1.00 <
2758 6 -4 5 4 11.82 1.84 2.63 <
2759 6 -4 -5 4 11.38 11.53 2.62 o
2760 6 -3 5 4 28.97 5.35 4.00 <
2761 6 -3 -5 4 30.84 27.60 3.74 o
2762 6 -2 5 4 16.66 18.42 2.90 o
2763 6 -2 -5 4 17.00 17.06 2.93 o
2764 6 -1 5 4 61.15 47.38 4.38 o
2765 6 -1 -5 4 58.85 54.72 5.05 o
2766 6 0 5 4 15.77 7.71 1.69 o
2767 6 0 -5 4 15.73 6.43 1.78 o
2768 6 1 5 4 9.14 3.56 1.05 o
2769 6 2 5 4 16.07 13.31 1.84 o
2770 6 -5 6 4 14.73 1.29 3.19 <
2771 6 -5 -6 4 14.63 13.23 3.06 o
2772 6 -4 6 4 13.90 1.78 3.18 <
2773 6 -4 -6 4 13.81 16.80 3.66 o
2774 6 -3 6 4 0.50 0.15 0.84 <
2775 6 -3 -6 4 0.49 0.03 0.94 <
2776 6 -2 -6 4 32.27 35.03 4.32 o
2777 6 -1 6 4 17.67 14.64 2.57 o
2778 6 -1 -6 4 17.89 11.57 2.32 o
2779 6 0 6 4 7.06 3.59 1.22 <
2780 6 0 -6 4 7.11 4.17 1.54 <
2781 6 1 -6 4 47.91 44.15 4.18 o
2782 6 -4 7 4 29.67 5.91 5.04 <
2783 6 -4 -7 4 29.68 36.81 5.34 o
2784 6 -3 7 4 49.28 10.53 5.61 <
2785 6 -3 -7 4 49.10 58.82 6.15 o
2786 6 -2 7 4 0.99 -0.21 0.75 <
2787 6 -2 -7 4 1.01 2.11 1.47 <
2788 6 -1 7 4 25.22 22.82 3.29 o
2789 6 -1 -7 4 25.70 24.70 3.60 o
2790 6 0 7 4 102.24 82.32 6.07 o
2791 6 0 -7 4 102.48 90.99 6.84 o
2792 6 -7 0 5 3.65 4.35 2.00 <
2793 6 -6 0 5 0.40 0.00 0.57 <
2794 6 -5 0 5 2.28 0.45 0.53 <
2795 6 -4 0 5 101.99 114.40 5.29 o
2796 6 -7 1 5 0.44 2.71 1.27 <
2797 6 -7 -1 5 0.44 0.83 0.67 <
2798 6 -6 1 5 4.11 3.31 1.01 o
2799 6 -6 -1 5 4.11 2.95 0.91 o
2800 6 -5 1 5 18.06 16.80 3.00 o
2801 6 -5 -1 5 18.52 20.28 2.26 o
2802 6 -4 1 5 11.85 10.21 2.04 o
2803 6 -4 -1 5 12.05 13.12 3.71 o
2804 6 -3 1 5 41.58 48.76 4.94 o
2805 6 -3 -1 5 39.73 48.93 4.98 o
2806 6 -6 2 5 2.89 3.33 1.71 <
2807 6 -6 -2 5 3.06 2.03 0.72 <
2808 6 -5 2 5 0.91 2.68 1.40 <
2809 6 -5 -2 5 0.89 0.17 0.95 <
2810 6 -4 2 5 33.43 34.03 4.10 o
2811 6 -4 -2 5 32.43 34.46 4.34 o
2812 6 -3 2 5 23.71 36.75 4.27 o
2813 6 -3 -2 5 24.02 38.72 4.53 o
2814 6 -2 2 5 18.77 25.32 3.56 o
2815 6 -2 -2 5 18.17 24.53 3.66 o
2816 6 -6 3 5 7.08 4.05 1.53 <
2817 6 -6 -3 5 6.87 4.34 1.12 o
2818 6 -5 -3 5 6.80 3.92 1.12 o
2819 6 -4 3 5 1.97 1.86 0.94 <
2820 6 -4 -3 5 1.80 1.27 0.95 <
2821 6 -3 3 5 51.97 61.35 5.41 o
2822 6 -3 -3 5 51.27 61.43 5.73 o
2823 6 -2 3 5 68.93 104.31 6.97 o
2824 6 -2 -3 5 70.20 100.80 7.08 o
2825 6 -1 3 5 15.26 15.84 3.16 o
2826 6 -6 -4 5 1.46 0.20 1.38 <
2827 6 -5 4 5 0.31 1.19 1.33 <
2828 6 -5 -4 5 0.30 0.74 1.02 <
2829 6 -4 -4 5 11.56 12.20 2.82 o
2830 6 -3 4 5 9.00 1.69 2.48 <
2831 6 -3 -4 5 9.06 7.93 2.27 o
2832 6 -2 4 5 0.21 0.47 0.58 <
2833 6 -2 -4 5 0.28 0.27 0.58 <
2834 6 -1 4 5 13.84 10.32 2.27 o
2835 6 -1 -4 5 13.10 11.81 2.49 o
2836 6 0 4 5 1.55 1.17 0.91 <
2837 6 1 4 5 1.09 -0.15 0.64 <
2838 6 -5 -5 5 6.50 8.02 2.48 o
2839 6 -4 5 5 3.00 0.96 1.34 <
2840 6 -4 -5 5 3.11 2.19 1.28 <
2841 6 -3 -5 5 22.28 22.95 3.75 o
2842 6 -2 5 5 48.01 33.59 6.19 o
2843 6 -2 -5 5 46.76 70.08 6.46 o
2844 6 -1 5 5 8.12 1.15 1.96 <
2845 6 -1 -5 5 7.84 5.67 2.17 <
2846 6 0 5 5 6.13 5.23 1.55 o
2847 6 0 -5 5 6.05 4.13 1.55 <
2848 6 1 5 5 19.93 11.38 2.19 o
2849 6 -4 -6 5 24.24 33.48 4.93 o
2850 6 -3 6 5 19.51 6.96 4.81 <
2851 6 -3 -6 5 19.25 31.98 4.80 o
2852 6 -2 6 5 9.16 5.15 2.86 <
2853 6 -2 -6 5 9.55 10.33 2.55 o
2854 6 -1 6 5 49.98 50.01 5.02 o
2855 6 -1 -6 5 49.40 49.83 5.42 o
2856 6 0 6 5 35.17 24.96 3.40 o
2857 6 0 -6 5 35.31 27.24 3.73 o
2858 6 -2 7 5 9.22 0.96 2.48 <
2859 6 -2 -7 5 9.42 7.87 2.20 o
2860 6 -6 0 6 2.95 0.27 0.80 <
2861 6 -5 0 6 2.50 3.03 1.37 <
2862 6 -6 1 6 0.21 -0.22 0.94 <
2863 6 -6 -1 6 0.25 0.56 0.70 <
2864 6 -5 1 6 9.14 10.61 2.79 o
2865 6 -5 -1 6 9.17 8.20 2.59 o
2866 6 -4 1 6 14.30 25.64 3.92 o
2867 6 -4 -1 6 14.02 28.99 4.41 o
2868 6 -6 2 6 7.68 10.40 2.57 o
2869 6 -6 -2 6 7.63 12.09 2.96 o
2870 6 -5 2 6 4.90 5.29 1.89 <
2871 6 -5 -2 6 4.64 5.91 2.07 <
2872 6 -4 2 6 1.71 1.73 1.12 <
2873 6 -4 -2 6 1.67 2.02 1.33 <
2874 6 -3 2 6 56.73 40.48 7.16 o
2875 6 -3 -2 6 55.96 85.91 7.51 o
2876 6 -6 -3 6 4.23 4.99 2.11 <
2877 6 -5 3 6 4.90 5.48 2.08 <
2878 6 -5 -3 6 4.98 5.10 1.98 <
2879 6 -4 3 6 15.38 23.76 3.89 o
2880 6 -4 -3 6 15.45 21.57 3.94 o
2881 6 -3 3 6 10.82 5.44 3.22 <
2882 6 -3 -3 6 11.31 14.26 3.21 o
2883 6 -2 3 6 11.05 5.19 2.85 <
2884 6 -5 4 6 9.48 13.54 3.13 o
2885 6 -5 -4 6 9.61 15.32 3.78 o
2886 6 -4 4 6 2.43 0.75 1.56 <
2887 6 -4 -4 6 2.47 4.46 1.83 <
2888 6 -3 4 6 28.97 9.92 5.61 <
2889 6 -3 -4 6 29.16 48.62 5.67 o
2890 6 -2 4 6 30.61 17.53 5.31 o
2891 6 -2 -4 6 30.63 47.68 5.51 o
2892 6 -1 4 6 1.25 0.43 0.86 <
2893 6 -4 5 6 12.82 2.13 4.13 <
2894 6 -4 -5 6 12.90 25.08 4.25 o
2895 6 -3 5 6 12.74 3.94 3.47 <
2896 6 -3 -5 6 12.19 24.12 4.14 o
2897 6 -2 5 6 15.29 7.50 3.80 <
2898 6 -2 -5 6 15.80 25.09 4.15 o
2899 6 -1 5 6 19.09 3.95 3.31 <
2900 6 -1 -5 6 19.20 24.20 4.06 o
2901 6 -6 0 7 0.59 1.00 1.13 <
2902 6 -6 1 7 1.55 -0.62 1.26 <
2903 6 -6 -1 7 1.40 1.25 1.26 <
2904 6 -5 1 7 4.57 3.42 1.87 <
2905 6 -5 2 7 5.43 5.61 1.90 <
2906 6 -5 -2 7 5.70 3.80 1.71 <
2907 6 -4 2 7 7.96 1.08 2.42 <
2908 6 -4 -2 7 8.22 8.38 2.53 o
2909 6 -5 3 7 1.90 0.06 1.05 <
2910 6 -5 -3 7 1.89 1.82 1.35 <
2911 6 -4 3 7 10.05 0.59 2.51 <
2912 6 -4 -3 7 10.01 9.18 2.74 o
2913 6 -3 3 7 16.24 2.07 3.23 <
2914 6 -4 4 7 5.32 3.91 1.76 <
2915 6 -4 -4 7 5.09 5.80 2.23 <
2916 6 -3 4 7 0.08 0.31 1.23 <
2917 6 -3 -4 7 0.09 1.26 1.38 <
2918 6 -2 4 7 16.18 2.24 2.21 <
