#------------------------------------------------------------------------------
#$Date: 2019-11-17 15:32:33 +0200 (Sun, 17 Nov 2019) $
#$Revision: 230902 $
#$URL: file:///home/coder/svn-repositories/cod/cif/7/23/14/7231408.cif $
#------------------------------------------------------------------------------
#
# This file is available in the Crystallography Open Database (COD),
# http://www.crystallography.net/
#
# All data on this site have been placed in the public domain by the
# contributors.
#
data_7231408
loop_
_publ_author_name
'Collings, Ines E.'
'Manna, Rudra Sekhar'
'Tsirlin, Alexander A.'
'Bykov, Maxim'
'Bykova, Elena'
'Hanfland, Michael'
'Gegenwart, Philipp'
'van Smaalen, Sander'
'Dubrovinsky, Leonid'
'Dubrovinskaia, Natalia'
_publ_section_title
;
 Pressure dependence of spin canting in ammonium metal formate
 antiferromagnets.
;
_journal_issue                   37
_journal_name_full               'Physical chemistry chemical physics : PCCP'
_journal_page_first              24465
_journal_page_last               24476
_journal_paper_doi               10.1039/c8cp03761b
_journal_volume                  20
_journal_year                    2018
_chemical_formula_moiety         'C3 H3 Mn O6, N H4'
_chemical_formula_sum            'C3 H7 Mn N O6'
_chemical_formula_weight         208
_space_group_IT_number           4
_space_group_name_Hall           'P 2yb'
_space_group_name_H-M_alt        'P 1 21 1'
_symmetry_cell_setting           monoclinic
_symmetry_Int_Tables_number      4
_symmetry_space_group_name_Hall  'P 2yb'
_symmetry_space_group_name_H-M   'P 1 21 1'
_audit_creation_method           'Jana2006 Version : 25/10/2015'
_audit_update_record
;
2018-08-09 deposited with the CCDC.
2018-08-22 downloaded from the CCDC.
;
_cell_angle_alpha                90
_cell_angle_beta                 115.64(8)
_cell_angle_gamma                90
_cell_formula_units_Z            2
_cell_length_a                   6.443(3)
_cell_length_b                   8.496(2)
_cell_length_c                   7.372(5)
_cell_measurement_reflns_used    162
_cell_measurement_temperature    293
_cell_measurement_theta_max      13.79
_cell_measurement_theta_min      1.77
_cell_volume                     363.8(4)
_computing_cell_refinement       'CrysAlisPro 1.171.38.46 (Rigaku OD, 2015)'
_computing_data_collection       'CrysAlisPro 1.171.38.46 (Rigaku OD, 2015)'
_computing_data_reduction        'CrysAlisPro 1.171.38.46 (Rigaku OD, 2015)'
_diffrn_ambient_pressure         '1.09 GPa'
_diffrn_ambient_temperature      293
_diffrn_detector                 'CCD plate'
_diffrn_measured_fraction_theta_full 0.96
_diffrn_measured_fraction_theta_max 0.92
_diffrn_measurement_device       'ID15B beamline, ESRF'
_diffrn_measurement_device_type
'esperanto-CrysAlisPro-abstract goniometer imported esperanto images'
_diffrn_measurement_method       '\w scans'
_diffrn_measurement_specimen_support 'diamond-anvil cell'
_diffrn_radiation_monochromator  synchrotron
_diffrn_radiation_probe          x-ray
_diffrn_radiation_source         synchrotron
_diffrn_radiation_type           synchrotron
_diffrn_radiation_wavelength     0.41111
_diffrn_reflns_av_R_equivalents  0.0282
_diffrn_reflns_av_unetI/netI     0.0497
_diffrn_reflns_limit_h_max       8
_diffrn_reflns_limit_h_min       -8
_diffrn_reflns_limit_k_max       9
_diffrn_reflns_limit_k_min       -9
_diffrn_reflns_limit_l_max       9
_diffrn_reflns_limit_l_min       -9
_diffrn_reflns_number            3707
_diffrn_reflns_theta_full        7.17
_diffrn_reflns_theta_max         14.91
_diffrn_reflns_theta_min         1.77
_diffrn_source                   synchrotron
_exptl_absorpt_coefficient_mu    0.385
_exptl_absorpt_correction_T_max  1
_exptl_absorpt_correction_T_min  0.856
_exptl_absorpt_correction_type   multi-scan
_exptl_absorpt_process_details
;
CrysAlisPro 1.171.38.46 (Rigaku Oxford Diffraction, 2015)
Empirical absorption correction using spherical harmonics,
 implemented in SCALE3 ABSPACK scaling algorithm.
;
_exptl_crystal_colour            colourless
_exptl_crystal_density_diffrn    1.899
_exptl_crystal_description       block
_exptl_crystal_F_000             202
_exptl_crystal_size_max          0.130
_exptl_crystal_size_mid          0.110
_exptl_crystal_size_min          0.050
_refine_ls_abs_structure_details
'  937 of Friedel pairs used in the refinement'
_refine_ls_extinction_method     none
_refine_ls_goodness_of_fit_gt    3.65
_refine_ls_goodness_of_fit_ref   3.20
_refine_ls_hydrogen_treatment    constr
_refine_ls_number_constraints    13
_refine_ls_number_parameters     104
_refine_ls_number_reflns         3707
_refine_ls_number_restraints     0
_refine_ls_R_factor_all          0.1206
_refine_ls_R_factor_gt           0.0964
_refine_ls_shift/su_max          0.0145
_refine_ls_shift/su_mean         0.0028
_refine_ls_structure_factor_coef F
_refine_ls_weighting_details     w=1/(\s^2^(F)+0.0001F^2^)
_refine_ls_weighting_scheme      sigma
_refine_ls_wR_factor_gt          0.1167
_refine_ls_wR_factor_ref         0.1235
_reflns_number_gt                2557
_reflns_number_total             3707
_reflns_threshold_expression     I>3\s(I)
_cod_data_source_file            c8cp03761b2.cif
_cod_data_source_block           AMnF_c1_p08
_cod_depositor_comments
;
The following automatic conversions were performed:

'_diffrn_radiation_probe' value 'X-ray' changed to 'x-ray' according
to
/home/data/users/saulius/crontab/automatic-downloads/rss-feeds/RSC/lib/dictionaries/cif_core.dic
dictionary named 'cif_core.dic' version 2.4.2 from 2011-04-26.

Automatic conversion script
Id: cif_fix_values 4973 2017-02-22 13:04:09Z antanas 

 Adding full bibliography for 7231402--7231432.cif.
;
_cod_original_formula_sum        'C3 H7 Mn1 N1 O6'
_cod_database_code               7231408
loop_
_space_group_symop_id
_space_group_symop_operation_xyz
1 x,y,z
2 -x,y+1/2,-z
loop_
_atom_site_label
_atom_site_type_symbol
_atom_site_fract_x
_atom_site_fract_y
_atom_site_fract_z
_atom_site_adp_type
_atom_site_U_iso_or_equiv
_atom_site_site_symmetry_multiplicity
_atom_site_occupancy
_atom_site_calc_flag
Mn1 Mn 0.6626(3) 0.25 0.32476(18) Uani 0.0569(6) 2 1 d
O1 O 0.8754(14) 0.0991(11) 0.5689(10) Uani 0.074(4) 2 1 d
O2 O 0.3593(14) 0.1199(10) 0.2923(11) Uani 0.068(4) 2 1 d
O3 O 0.7010(14) 0.0988(12) 0.1026(10) Uani 0.071(4) 2 1 d
O4 O 0.9315(13) 0.3788(10) 0.2912(12) Uani 0.069(4) 2 1 d
O5 O 0.6867(15) 0.4002(11) 0.5693(11) Uani 0.073(4) 2 1 d
O6 O 0.4038(13) 0.4019(11) 0.1049(10) Uani 0.070(4) 2 1 d
C1 C 0.928(2) -0.0383(17) 0.568(2) Uani 0.083(7) 2 1 d
C2 C 0.3583(19) 0.0443(15) 0.4287(16) Uani 0.072(6) 2 1 d
C3 C 0.560(2) 0.0045(18) -0.001(2) Uani 0.079(7) 2 1 d
N1 N -0.0257(14) 0.2495(17) -0.0546(10) Uani 0.063(4) 2 1 d
H1c1 H 0.851156 -0.091101 0.440856 Uiso 0.0994 2 1 d
H1c2 H 0.396488 0.100417 0.552066 Uiso 0.0867 2 1 d
H1c3 H 0.410023 0.008525 -0.003516 Uiso 0.0946 2 1 d
loop_
_atom_site_aniso_label
_atom_site_aniso_type_symbol
_atom_site_aniso_U_11
_atom_site_aniso_U_22
_atom_site_aniso_U_33
_atom_site_aniso_U_12
_atom_site_aniso_U_13
_atom_site_aniso_U_23
Mn1 Mn 0.0797(10) 0.0250(7) 0.0583(8) 0.0008(9) 0.0226(7) 0.0007(9)
O1 O 0.093(7) 0.041(6) 0.071(5) 0.016(4) 0.019(4) -0.012(3)
O2 O 0.094(6) 0.040(5) 0.078(5) 0.004(4) 0.043(4) 0.023(4)
O3 O 0.097(7) 0.048(6) 0.068(5) -0.019(4) 0.037(5) -0.015(4)
O4 O 0.078(6) 0.036(5) 0.086(5) -0.018(4) 0.031(5) -0.024(4)
O5 O 0.097(7) 0.039(6) 0.072(5) 0.000(4) 0.027(5) -0.011(4)
O6 O 0.066(5) 0.058(6) 0.064(5) 0.003(4) 0.009(4) 0.022(4)
C1 C 0.077(9) 0.046(9) 0.110(11) 0.015(6) 0.026(8) 0.002(7)
C2 C 0.091(10) 0.055(9) 0.053(6) -0.012(6) 0.014(6) -0.003(5)
C3 C 0.098(12) 0.050(9) 0.081(7) -0.020(7) 0.032(8) -0.037(6)
N1 N 0.066(5) 0.055(5) 0.072(4) -0.009(7) 0.032(4) 0.004(8)
loop_
_atom_type_symbol
_atom_type_scat_dispersion_real
_atom_type_scat_dispersion_imag
_atom_type_scat_source
C -0.0001 0.0005 'International Tables Vol C tables 4.2.6.8 and 6.1.1.1'
H 0.0000 0.0000 'International Tables Vol C tables 4.2.6.8 and 6.1.1.1'
Mn 0.1790 0.2615 'International Tables Vol C tables 4.2.6.8 and 6.1.1.1'
N 0.0006 0.0010 'International Tables Vol C tables 4.2.6.8 and 6.1.1.1'
O 0.0018 0.0018 'International Tables Vol C tables 4.2.6.8 and 6.1.1.1'
loop_
_geom_angle_atom_site_label_1
_geom_angle_atom_site_label_2
_geom_angle_atom_site_label_3
_geom_angle_site_symmetry_1
_geom_angle_site_symmetry_3
_geom_angle
O1 Mn1 O2 . . 90.4(3)
O1 Mn1 O3 . . 92.2(3)
O1 Mn1 O4 . . 98.4(3)
O1 Mn1 O5 . . 82.2(3)
O1 Mn1 O6 . . 169.2(4)
O2 Mn1 O3 . . 90.4(3)
O2 Mn1 O4 . . 168.3(3)
O2 Mn1 O5 . . 97.4(4)
O2 Mn1 O6 . . 81.8(3)
O3 Mn1 O4 . . 81.6(4)
O3 Mn1 O5 . . 170.4(3)
O3 Mn1 O6 . . 95.1(3)
O4 Mn1 O5 . . 91.4(4)
O4 Mn1 O6 . . 90.5(3)
O5 Mn1 O6 . . 91.5(3)
Mn1 O1 C1 . . 130.2(8)
Mn1 O2 C2 . . 121.0(7)
Mn1 O3 C3 . . 124.7(11)
Mn1 O4 C1 . 2_756 121.2(10)
Mn1 O5 C2 . 2_656 130.6(7)
Mn1 O6 C3 . 2_655 125.9(9)
O1 C1 O4 . 2_746 129.5(12)
O1 C1 H1c1 . . 115.27
O4 C1 H1c1 2_746 . 115.27
O2 C2 O5 . 2_646 128.1(11)
O2 C2 H1c2 . . 115.93
O5 C2 H1c2 2_646 . 115.93
O3 C3 O6 . 2_645 124.5(16)
O3 C3 H1c3 . . 117.77
O6 C3 H1c3 2_645 . 117.77
loop_
_geom_bond_atom_site_label_1
_geom_bond_atom_site_label_2
_geom_bond_site_symmetry_2
_geom_bond_distance
Mn1 O1 . 2.151(8)
Mn1 O2 . 2.166(9)
Mn1 O3 . 2.178(10)
Mn1 O4 . 2.152(10)
Mn1 O5 . 2.159(9)
Mn1 O6 . 2.175(8)
O1 C1 . 1.216(17)
O2 C2 . 1.195(15)
O3 C3 . 1.203(16)
O4 C1 2_756 1.257(14)
O5 C2 2_656 1.259(16)
O6 C3 2_655 1.25(2)
C1 H1c1 . 0.96
C2 H1c2 . 0.96
C3 H1c3 . 0.96
loop_
_twin_individual_id
_twin_individual_mass_fraction_refined
_twin_individual_twin_matrix_11
_twin_individual_twin_matrix_12
_twin_individual_twin_matrix_13
_twin_individual_twin_matrix_21
_twin_individual_twin_matrix_22
_twin_individual_twin_matrix_23
_twin_individual_twin_matrix_31
_twin_individual_twin_matrix_32
_twin_individual_twin_matrix_33
1 0.164(4) 1 0 0 0 1 0 0 0 1
2 0.1495(18) 1 0 0 0 -1 0 0.7564 0 -1
3 0.1361(18) -0.0843 0 -1.0991 0 1 0 0.8396 0 -0.9157
4 0.1408(19) -0.9157 0 1.0991 0 -1 0 0.147 0 0.9157
5 0.2158(19) -0.9157 0 1.0991 0 1 0 -0.8396 0 -0.0843
6 0.1935(18) -0.0843 0 -1.0991 0 -1 0 -0.9034 0 0.0843
loop_
_twin_refln_datum_id
_twin_refln_individual_id
_twin_refln_index_h
_twin_refln_index_k
_twin_refln_index_l
_twin_refln_f_squared_calc
_twin_refln_f_squared_meas
_twin_refln_f_squared_sigma
_twin_refln_include_status
1 1 0 -9 3 0.34 0.72 0.46 <
2 2 3 9 -4 8.28 3.99 0.79 o
2 1 0 -9 4 8.28 3.99 0.79 o
3 1 0 -8 3 39.73 47.83 2.40 o
4 2 3 8 -4 1.22 0.84 0.42 <
4 1 0 -8 4 1.22 0.84 0.42 <
5 1 0 -7 2 3.28 2.04 0.45 o
6 1 0 -7 3 12.98 14.18 1.20 o
7 1 0 -6 2 11.67 14.57 1.19 o
8 1 0 -6 3 18.75 20.15 1.37 o
9 1 0 -5 2 68.95 76.18 2.71 o
10 1 0 -5 3 0.11 -0.08 0.10 <
11 1 0 -4 2 4.36 6.70 0.66 o
12 1 0 -3 1 10.44 10.00 0.73 o
13 1 0 -3 2 333.02 376.81 4.70 o
14 1 0 2 -2 162.92 170.98 3.08 o
15 1 0 3 -2 332.90 378.08 4.75 o
16 1 0 3 -3 1.86 0.66 0.16 o
17 1 0 4 -2 4.29 5.72 0.64 o
18 1 0 4 -3 86.51 92.11 2.71 o
19 2 -3 -4 4 4.20 3.29 0.60 o
19 1 0 4 -4 4.20 3.29 0.60 o
20 1 0 5 -3 0.09 0.26 0.39 <
21 2 -3 -5 4 13.16 15.46 1.26 o
21 1 0 5 -4 13.16 15.46 1.26 o
22 1 0 5 -5 10.63 8.92 1.10 o
23 2 -3 -6 4 8.65 12.43 1.12 o
23 1 0 6 -4 8.65 12.43 1.12 o
24 1 0 6 -5 11.94 15.52 1.27 o
25 1 0 6 -6 0.52 -0.35 0.32 <
26 2 -3 -7 4 75.38 91.55 3.30 o
26 1 0 7 -4 75.38 91.55 3.30 o
27 1 0 7 -5 7.98 13.18 1.12 o
28 1 0 7 -6 1.00 1.60 0.63 <
29 2 2 9 -4 5.07 4.82 1.05 o
29 1 -1 -9 4 5.07 4.82 1.05 o
30 1 -1 -9 3 15.26 16.58 1.84 o
31 1 1 -9 2 15.05 18.75 1.51 o
32 1 1 -9 3 5.71 4.12 0.58 o
33 1 -1 -8 5 5.99 4.17 0.84 o
34 2 2 8 -4 15.48 18.55 1.80 o
34 1 -1 -8 4 15.48 18.55 1.80 o
35 1 -1 -8 3 8.13 10.34 1.22 o
36 1 1 -8 2 8.95 10.98 0.99 o
37 1 -1 -7 5 2.42 1.88 0.60 o
38 2 2 7 -4 24.73 28.49 2.18 o
38 1 -1 -7 4 24.73 28.49 2.18 o
39 1 -1 -7 3 4.88 5.11 0.98 o
40 1 1 -7 2 5.91 5.55 0.63 o
41 2 2 6 -4 38.12 39.19 2.53 o
41 1 -1 -6 4 38.12 39.19 2.53 o
42 1 -1 -6 3 19.54 20.76 1.69 o
43 1 -1 -6 2 59.83 77.31 3.35 o
44 1 1 -6 2 20.26 18.28 1.00 o
45 2 2 5 -4 42.19 49.73 2.70 o
45 1 -1 -5 4 42.19 49.73 2.70 o
46 1 -1 -5 3 59.46 68.94 3.13 o
47 1 -1 -5 2 32.75 39.19 2.17 o
48 1 -1 -4 3 28.23 35.08 2.09 o
49 1 -1 -4 2 246.80 277.88 5.52 o
50 1 -1 -3 3 161.33 168.55 4.37 o
51 1 -1 -3 2 21.17 25.16 1.56 o
52 1 -1 -3 1 80.49 86.43 2.71 o
53 1 -1 -2 2 544.46 628.89 7.41 o
54 1 -1 -2 1 9.08 9.11 0.78 o
55 1 -1 -1 2 233.18 250.09 4.47 o
56 1 -1 -1 1 347.19 374.28 4.74 o
57 1 -1 0 1 110.27 80.76 2.00 o
58 1 1 0 -1 110.27 80.99 2.05 o
59 2 -1 0 0 227.15 153.68 2.46 o
59 1 -1 0 0 227.15 153.68 2.46 o
60 1 1 1 -2 234.08 251.01 4.45 o
61 1 1 1 -1 347.74 377.57 4.68 o
62 1 1 2 -3 137.51 144.30 4.00 o
63 1 1 2 -2 545.13 631.57 7.29 o
64 1 1 2 -1 10.31 11.04 0.82 o
65 2 -2 -3 4 48.91 47.56 2.61 o
65 1 1 3 -4 48.91 47.56 2.61 o
66 1 1 3 -3 161.25 172.42 4.37 o
67 1 1 3 -2 21.38 25.09 1.50 o
68 1 1 4 -5 8.86 9.78 1.26 o
69 2 -2 -4 4 117.51 145.78 4.47 o
69 1 1 4 -4 117.51 145.78 4.47 o
70 1 1 4 -3 28.66 35.31 2.05 o
71 1 1 4 -2 245.11 274.45 5.38 o
72 1 -1 4 -3 26.52 30.66 1.36 o
73 1 1 5 -6 12.12 11.60 1.57 o
74 1 1 5 -5 6.03 3.73 0.86 o
75 2 -2 -5 4 43.12 52.98 2.64 o
75 1 1 5 -4 43.12 52.98 2.64 o
76 1 1 5 -3 59.01 71.73 3.00 o
77 1 -1 5 -3 34.90 26.07 1.17 o
78 2 -4 -5 4 12.33 7.78 0.78 o
78 1 -1 5 -4 12.33 7.78 0.78 o
79 1 1 6 -6 1.76 1.03 0.38 <
80 1 1 6 -5 35.85 46.45 2.54 o
81 2 -2 -6 4 38.71 50.20 2.64 o
81 1 1 6 -4 38.71 50.20 2.64 o
82 2 -4 -6 4 41.99 38.98 1.63 o
82 1 -1 6 -4 41.99 38.98 1.63 o
83 1 -1 6 -5 1.67 1.26 0.37 o
84 1 1 7 -6 1.93 1.47 0.65 <
85 1 1 7 -5 2.33 1.07 0.36 <
86 2 -2 -7 4 24.73 28.67 1.99 o
86 1 1 7 -4 24.73 28.67 1.99 o
87 1 -1 7 -5 2.08 0.94 0.20 o
88 1 1 8 -5 5.85 4.62 0.84 o
89 2 1 9 -4 4.50 3.33 0.90 o
89 1 -2 -9 4 4.50 3.33 0.90 o
90 1 -2 -8 6 1.03 2.32 1.01 <
91 1 -2 -8 5 2.10 2.43 0.79 o
92 2 1 8 -4 15.33 19.63 2.05 o
92 1 -2 -8 4 15.33 19.63 2.05 o
93 1 -2 -8 3 6.49 7.29 1.38 o
94 1 -2 -7 6 4.08 4.83 1.16 o
95 1 -2 -7 5 6.05 4.77 1.06 o
96 2 1 7 -4 22.71 28.37 2.40 o
96 1 -2 -7 4 22.71 28.37 2.40 o
97 1 -2 -7 3 16.42 16.44 1.91 o
98 1 -2 -6 5 10.47 10.27 1.41 o
99 2 1 6 -4 40.38 45.73 3.06 o
99 1 -2 -6 4 40.38 45.73 3.06 o
100 1 -2 -6 3 12.70 13.65 1.53 o
101 1 -2 -5 5 26.27 31.51 2.52 o
102 2 1 5 -4 41.54 48.26 3.14 o
102 1 -2 -5 4 41.54 48.26 3.14 o
103 1 -2 -5 3 57.38 66.23 3.52 o
104 1 -2 -5 2 63.30 74.67 3.61 o
105 2 1 4 -4 123.36 142.63 5.08 o
105 1 -2 -4 4 123.36 142.63 5.08 o
106 1 -2 -4 3 49.68 50.87 2.93 o
107 1 -2 -4 2 2.96 3.22 0.66 o
108 2 1 3 -4 45.09 41.60 2.79 o
108 1 -2 -3 4 45.09 41.60 2.79 o
109 1 -2 -3 3 109.30 133.16 4.63 o
110 1 -2 -3 2 235.62 256.29 6.00 o
111 2 2 3 0 455.74 464.87 4.43 o
111 1 2 -3 0 455.74 464.87 4.43 o
112 1 -2 -2 3 73.98 82.08 3.41 o
113 1 -2 -2 2 34.01 31.34 2.03 o
114 1 -2 -2 1 242.32 256.10 5.45 o
115 1 2 -2 -1 242.32 255.83 4.28 o
116 2 2 2 0 73.07 66.70 1.79 o
116 1 2 -2 0 73.07 66.70 1.79 o
117 1 -2 -1 3 108.78 109.04 3.96 o
118 1 -2 -1 2 35.17 32.95 2.01 o
119 1 2 -1 -1 501.63 459.43 5.84 o
120 1 -2 -1 1 501.63 456.99 6.74 o
121 2 2 1 0 76.79 67.60 2.02 o
121 1 2 -1 0 76.79 67.60 2.02 o
122 1 2 0 -2 4.01 1.59 0.41 o
123 1 -2 0 2 4.01 1.14 0.38 <
124 1 2 0 -1 134.48 146.55 3.54 o
125 1 -2 0 1 134.48 152.49 3.66 o
126 2 -2 0 0 9.78 4.86 0.60 o
126 1 -2 0 0 9.78 4.86 0.60 o
127 1 2 1 -3 106.00 100.81 3.83 o
128 1 2 1 -2 32.82 28.89 1.90 o
129 1 2 1 -1 501.60 450.79 6.64 o
130 1 -2 1 1 501.60 461.56 5.87 o
131 2 -2 -1 0 77.04 67.15 2.05 o
131 1 -2 1 0 77.04 67.15 2.05 o
132 2 -1 -2 4 65.83 68.26 3.53 o
132 1 2 2 -4 65.83 68.26 3.53 o
133 1 2 2 -3 76.20 83.06 3.35 o
134 1 2 2 -2 35.40 32.71 2.04 o
135 1 2 2 -1 242.04 250.99 5.18 o
136 2 -2 -2 0 72.94 69.00 1.85 o
136 1 -2 2 0 72.94 69.00 1.85 o
137 1 2 3 -5 25.99 32.48 2.55 o
138 2 -1 -3 4 46.17 44.63 2.77 o
138 1 2 3 -4 46.17 44.63 2.77 o
139 1 2 3 -3 109.94 135.87 4.44 o
140 1 2 3 -2 235.78 263.26 6.03 o
141 1 2 4 -6 14.78 18.57 2.00 o
142 1 2 4 -5 0.32 0.38 0.37 <
143 2 -1 -4 4 123.30 149.37 5.13 o
143 1 2 4 -4 123.30 149.37 5.13 o
144 1 2 4 -3 48.83 55.49 2.95 o
145 1 2 4 -2 2.57 3.16 0.65 o
146 1 2 5 -6 12.39 6.11 1.13 o
147 1 2 5 -5 26.74 31.12 2.53 o
148 2 -1 -5 4 40.68 52.38 3.03 o
148 1 2 5 -4 40.68 52.38 3.03 o
149 1 2 5 -3 57.64 66.20 3.32 o
150 1 2 6 -7 2.58 2.30 0.84 <
151 1 2 6 -6 2.82 1.30 0.18 o
152 1 2 6 -5 10.18 10.02 1.51 o
153 2 -1 -6 4 39.73 50.22 3.02 o
153 1 2 6 -4 39.73 50.22 3.02 o
154 1 2 7 -6 4.06 2.69 0.67 o
155 1 2 7 -5 5.81 4.13 0.94 o
156 2 -1 -7 4 22.72 41.29 2.72 o
156 1 2 7 -4 22.72 41.29 2.72 o
157 1 2 8 -6 0.96 1.67 0.58 <
158 1 2 8 -5 2.21 2.73 0.78 o
159 2 0 9 -4 8.26 4.39 1.41 o
159 1 -3 -9 4 8.26 4.39 1.41 o
160 1 -3 -8 5 3.86 3.81 1.09 o
161 2 0 8 -4 1.38 1.47 0.71 <
161 1 -3 -8 4 1.38 1.47 0.71 <
162 1 -3 -7 6 1.86 0.26 0.50 <
163 1 -3 -7 5 4.00 2.85 0.99 <
164 2 0 7 -4 72.82 100.25 5.32 o
164 1 -3 -7 4 72.82 100.25 5.32 o
165 1 -3 -7 3 1.85 0.88 0.69 <
166 1 -3 -6 6 3.38 2.54 0.89 <
167 1 -3 -6 5 7.48 7.44 1.50 o
168 2 0 6 -4 8.03 8.07 1.41 o
168 1 -3 -6 4 8.03 8.07 1.41 o
169 1 -3 -6 3 42.36 51.95 3.64 o
170 2 3 6 0 82.61 62.95 2.11 o
170 1 3 -6 0 82.61 62.95 2.11 o
171 1 -3 -5 6 2.47 1.59 0.56 <
172 1 -3 -5 5 12.86 12.01 1.61 o
173 2 0 5 -4 14.05 18.16 2.10 o
173 1 -3 -5 4 14.05 18.16 2.10 o
174 1 -3 -5 3 0.71 0.94 0.62 <
175 2 3 5 0 1.88 1.04 0.19 o
175 1 3 -5 0 1.88 1.04 0.19 o
176 1 -3 -4 5 1.17 1.51 0.88 <
177 2 0 4 -4 4.59 4.02 0.88 o
177 1 -3 -4 4 4.59 4.02 0.88 o
178 1 -3 -4 3 21.41 26.15 2.42 o
179 1 -3 -4 2 16.92 22.49 2.09 o
180 1 3 -4 -1 15.66 14.69 1.26 o
181 2 3 4 0 45.21 44.65 1.64 o
181 1 3 -4 0 45.21 44.65 1.64 o
182 1 -3 -3 5 38.09 39.90 3.10 o
183 2 0 3 -4 3.28 2.02 0.72 <
183 1 -3 -3 4 3.28 2.02 0.72 <
184 1 -3 -3 3 20.28 21.05 2.07 o
185 1 -3 -3 2 38.59 47.34 2.90 o
186 1 3 -3 -1 40.03 41.33 2.07 o
187 2 3 3 0 38.21 46.09 1.81 o
187 1 3 -3 0 38.21 46.09 1.81 o
188 2 0 2 -4 4.21 1.44 0.73 <
188 1 -3 -2 4 4.21 1.44 0.73 <
189 1 -3 -2 3 74.31 81.66 3.81 o
190 1 -3 -2 2 52.66 57.53 3.05 o
191 1 3 -2 -2 52.66 46.94 2.55 o
192 1 -3 -2 1 50.99 56.10 2.96 o
193 1 3 -2 -1 50.99 50.25 2.29 o
194 2 3 2 0 150.93 178.87 3.91 o
194 1 3 -2 0 150.93 178.87 3.91 o
195 2 0 1 -4 212.38 151.11 5.84 o
195 1 -3 -1 4 212.38 151.11 5.84 o
196 1 -3 -1 3 3.71 3.20 0.74 o
197 1 -3 -1 2 105.73 106.93 4.11 o
198 1 3 -1 -2 105.73 105.68 3.84 o
199 1 3 -1 -1 109.17 105.21 3.46 o
200 1 -3 -1 1 109.17 106.22 3.91 o
201 1 3 0 -3 297.33 273.37 6.73 o
202 1 -3 0 3 297.33 278.23 6.80 o
203 1 3 0 -2 2.19 1.42 0.46 o
204 1 -3 0 2 2.19 1.47 0.49 o
205 1 3 0 -1 2.25 1.15 0.38 o
206 1 -3 0 1 2.25 1.57 0.43 o
207 2 0 -1 4 213.20 156.29 5.94 o
207 1 3 1 -4 213.20 156.29 5.94 o
208 1 3 1 -3 3.79 2.39 0.67 o
209 1 -3 1 2 107.13 108.84 3.86 o
210 1 3 1 -2 107.13 111.43 4.12 o
211 1 3 1 -1 107.53 108.13 3.82 o
212 1 -3 1 1 107.53 105.74 3.44 o
213 2 -3 -1 0 8.39 8.84 0.99 o
213 1 -3 1 0 8.39 8.84 0.99 o
214 1 3 2 -5 10.24 13.97 1.81 o
215 2 0 -2 4 4.30 2.96 0.86 o
215 1 3 2 -4 4.30 2.96 0.86 o
216 1 3 2 -3 74.32 80.37 3.74 o
217 1 3 2 -2 50.78 56.50 3.03 o
218 1 -3 2 1 52.86 52.79 2.34 o
219 2 -3 -2 0 150.94 180.02 3.93 o
219 1 -3 2 0 150.94 180.02 3.93 o
220 1 3 3 -6 2.67 0.93 0.44 <
221 1 3 3 -5 38.22 36.80 2.88 o
222 2 0 -3 4 3.66 2.88 0.79 o
222 1 3 3 -4 3.66 2.88 0.79 o
223 1 3 3 -3 20.19 23.03 2.10 o
224 1 3 3 -2 38.87 46.09 2.82 o
225 2 -3 -3 0 38.22 41.36 1.78 o
225 1 -3 3 0 38.22 41.36 1.78 o
226 1 -3 3 -1 2.74 2.17 0.38 o
227 1 3 4 -6 13.10 8.48 1.43 o
228 1 3 4 -5 1.10 0.05 0.19 <
229 2 0 -4 4 4.58 4.53 1.03 o
229 1 3 4 -4 4.58 4.53 1.03 o
230 1 3 4 -3 21.50 26.29 2.32 o
231 1 3 4 -2 17.29 20.16 1.89 o
232 1 -3 4 -1 6.64 3.57 0.42 o
233 1 -3 4 -2 0.75 0.35 0.13 <
234 1 3 5 -7 1.19 1.82 0.81 <
235 1 3 5 -6 2.56 3.04 1.05 <
236 1 3 5 -5 12.43 9.57 1.46 o
237 2 0 -5 4 13.27 17.14 1.90 o
237 1 3 5 -4 13.27 17.14 1.90 o
238 1 3 5 -3 0.71 0.88 0.41 <
239 1 3 6 -7 0.37 -0.37 0.64 <
240 1 3 6 -6 3.26 2.52 0.83 o
241 1 3 6 -5 7.61 7.07 1.34 o
242 2 0 -6 4 8.01 13.90 1.56 o
242 1 3 6 -4 8.01 13.90 1.56 o
243 1 3 7 -6 1.85 -0.10 0.62 <
244 1 3 7 -5 3.96 2.56 0.75 o
245 2 0 -7 4 73.16 142.30 5.67 o
245 1 3 7 -4 73.16 142.30 5.67 o
246 1 3 8 -5 3.83 2.35 0.74 o
247 1 -4 -8 5 6.10 1.41 0.43 o
248 2 -1 8 -4 9.21 5.83 1.69 o
248 1 -4 -8 4 9.21 5.83 1.69 o
249 2 4 8 0 4.77 1.94 0.30 o
249 1 4 -8 0 4.77 1.94 0.30 o
250 1 -4 -7 6 0.88 0.11 0.75 <
251 1 -4 -7 5 0.61 0.05 0.24 <
252 2 -1 7 -4 19.52 26.47 3.09 o
252 1 -4 -7 4 19.52 26.47 3.09 o
253 2 4 7 0 37.06 31.84 1.32 o
253 1 4 -7 0 37.06 31.84 1.32 o
254 6 -6 6 5 1.87 3.12 0.98 o
254 1 -4 -6 7 1.87 3.12 0.98 o
255 1 -4 -6 6 0.21 1.49 0.88 <
256 1 -4 -6 5 9.60 10.78 1.92 o
257 2 -1 6 -4 39.21 42.05 3.74 o
257 1 -4 -6 4 39.21 42.05 3.74 o
258 1 -4 -6 3 2.34 0.49 0.49 <
259 1 4 -6 -1 2.27 0.91 0.31 <
260 2 4 6 0 13.19 13.13 0.88 o
260 1 4 -6 0 13.19 13.13 0.88 o
261 6 -6 5 5 5.66 8.18 1.70 o
261 1 -4 -5 7 5.66 8.18 1.70 o
262 1 -4 -5 6 4.51 8.15 1.64 o
263 1 -4 -5 5 2.43 2.32 0.81 <
264 2 -1 5 -4 12.40 7.80 1.55 o
264 1 -4 -5 4 12.40 7.80 1.55 o
265 1 -4 -5 3 10.86 14.08 2.07 o
266 1 4 -5 -1 12.47 12.24 1.15 o
267 2 4 5 0 12.28 16.87 1.08 o
267 1 4 -5 0 12.28 16.87 1.08 o
268 1 -4 -4 6 2.16 1.93 0.92 <
269 1 -4 -4 5 8.53 7.48 1.47 o
270 2 -1 4 -4 7.73 6.08 1.27 o
270 1 -4 -4 4 7.73 6.08 1.27 o
271 1 -4 -4 3 1.89 0.82 0.45 <
272 1 4 -4 -2 47.01 41.71 2.71 o
273 1 4 -4 -1 1.45 0.66 0.36 <
274 2 4 4 0 0.15 0.57 0.26 <
274 1 4 -4 0 0.15 0.57 0.26 <
275 1 -4 -3 6 6.25 8.55 1.62 o
276 1 -4 -3 5 1.36 1.01 0.46 <
277 2 -1 3 -4 13.73 8.46 1.52 o
277 1 -4 -3 4 13.73 8.46 1.52 o
278 1 -4 -3 3 15.64 20.68 2.30 o
279 1 -4 -3 2 1.75 0.48 0.33 <
280 1 4 -3 -2 1.75 0.62 0.36 <
281 1 4 -3 -1 19.62 21.20 1.65 o
282 1 -4 -2 5 17.39 14.19 1.95 o
283 2 -1 2 -4 27.50 8.81 1.60 o
283 1 -4 -2 4 27.50 8.81 1.60 o
284 1 -4 -2 3 20.46 19.35 2.11 o
285 1 4 -2 -3 20.46 18.58 1.99 o
286 1 4 -2 -2 93.86 96.58 3.97 o
287 1 -4 -2 2 93.86 104.25 4.70 o
288 1 4 -2 -1 22.03 21.98 1.74 o
289 1 -4 -1 5 5.41 4.34 1.01 o
290 2 -1 1 -4 72.28 63.64 4.00 o
290 1 -4 -1 4 72.28 63.64 4.00 o
291 1 -4 -1 3 32.01 35.69 2.78 o
292 1 4 -1 -3 32.01 29.66 2.39 o
293 1 -4 -1 2 3.14 0.62 0.48 <
294 1 4 -1 -2 3.14 0.38 0.28 <
295 1 -4 -1 1 33.67 38.26 2.74 o
296 1 4 -1 -1 33.67 34.91 2.34 o
297 2 -1 0 -4 141.83 86.94 4.60 o
297 1 -4 0 4 141.83 86.94 4.60 o
298 2 1 0 4 141.83 85.82 4.55 o
298 1 4 0 -4 141.83 85.82 4.55 o
299 1 4 0 -3 0.71 0.89 0.42 <
300 1 -4 0 3 0.71 0.74 0.40 <
301 1 4 0 -2 12.89 9.24 1.29 o
302 1 -4 0 2 12.89 9.09 1.28 o
303 1 4 0 -1 0.49 0.35 0.08 o
304 1 -4 0 1 0.49 0.76 0.40 <
305 1 4 1 -5 5.39 4.19 1.15 o
306 2 1 -1 4 71.36 61.14 3.91 o
306 1 4 1 -4 71.36 61.14 3.91 o
307 1 -4 1 3 31.84 33.51 2.59 o
308 1 4 1 -3 31.84 33.74 2.72 o
309 1 -4 1 2 3.14 0.37 0.35 <
310 1 4 1 -2 3.14 0.63 0.33 <
311 1 4 1 -1 33.87 38.56 2.57 o
312 1 -4 1 1 33.87 33.03 2.30 o
313 2 -4 -1 0 118.39 148.39 4.90 o
313 1 -4 1 0 118.39 148.39 4.90 o
314 1 4 2 -6 2.03 1.75 0.86 <
315 1 4 2 -5 17.65 11.91 1.71 o
316 2 1 -2 4 26.87 11.58 1.76 o
316 1 4 2 -4 26.87 11.58 1.76 o
317 1 4 2 -3 19.77 18.65 2.11 o
318 1 4 2 -2 93.80 110.80 4.64 o
319 1 -4 2 2 93.80 98.24 4.01 o
320 1 -4 2 1 22.75 23.41 1.80 o
321 2 -4 -2 0 2.18 3.84 0.69 o
321 1 -4 2 0 2.18 3.84 0.69 o
322 1 4 3 -6 6.15 7.79 1.49 o
323 1 4 3 -5 1.42 1.31 0.71 <
324 2 1 -3 4 13.54 8.91 1.58 o
324 1 4 3 -4 13.54 8.91 1.58 o
325 1 4 3 -3 15.34 22.12 2.27 o
326 1 4 3 -2 1.75 0.40 0.33 <
327 1 -4 3 1 20.04 21.52 1.68 o
328 2 -4 -3 0 11.23 12.49 1.19 o
328 1 -4 3 0 11.23 12.49 1.19 o
329 1 -4 3 -1 1.65 1.52 0.45 o
330 6 6 -4 -5 2.33 2.26 0.80 <
330 1 4 4 -7 2.33 2.26 0.80 <
331 1 4 4 -6 2.12 2.12 0.95 <
332 1 4 4 -5 8.22 6.76 1.45 o
333 2 1 -4 4 7.90 9.59 1.54 o
333 1 4 4 -4 7.90 9.59 1.54 o
334 1 4 4 -3 2.10 1.37 0.67 <
335 2 -4 -4 0 0.15 0.15 0.21 <
335 1 -4 4 0 0.15 0.15 0.21 <
336 1 -4 4 -1 9.86 8.62 0.89 o
337 1 -4 4 -2 2.71 2.51 0.56 o
338 1 4 5 -8 0.12 1.44 0.78 <
339 6 6 -5 -5 5.83 6.44 1.57 o
339 1 4 5 -7 5.83 6.44 1.57 o
340 1 4 5 -6 4.61 6.81 1.46 o
341 1 4 5 -5 2.40 3.21 1.11 <
342 2 1 -5 4 12.78 10.48 1.66 o
342 1 4 5 -4 12.78 10.48 1.66 o
343 1 4 5 -3 11.49 14.36 2.05 o
344 1 -4 5 -2 6.49 7.40 0.68 o
345 1 -4 5 -3 3.02 1.30 0.42 o
346 6 6 -6 -5 1.81 1.70 0.72 <
346 1 4 6 -7 1.81 1.70 0.72 <
347 1 4 6 -6 0.24 0.17 0.35 <
348 1 4 6 -5 9.78 11.66 1.91 o
349 2 1 -6 4 39.47 57.47 4.07 o
349 1 4 6 -4 39.47 57.47 4.07 o
350 1 4 7 -6 0.86 0.56 0.33 <
351 1 4 7 -5 0.60 0.62 0.58 <
352 1 4 8 -5 6.16 3.25 1.16 <
353 1 5 -8 -1 2.58 0.85 0.33 <
354 1 -5 -7 5 1.22 1.69 0.73 <
355 2 -2 7 -4 5.68 1.80 0.52 o
355 1 -5 -7 4 5.68 1.80 0.52 o
356 1 5 -7 -1 0.16 0.75 0.46 <
357 6 -5 6 6 0.65 2.85 1.27 <
357 1 -5 -6 6 0.65 2.85 1.27 <
358 1 -5 -6 5 1.30 2.95 1.42 <
359 2 -2 6 -4 11.82 8.43 1.85 o
359 1 -5 -6 4 11.82 8.43 1.85 o
360 1 5 -6 -2 1.51 1.32 0.52 <
361 1 5 -6 -1 7.51 6.22 0.83 o
362 1 -5 -5 7 0.67 1.47 0.74 <
363 6 -5 5 6 7.19 10.64 1.91 o
363 1 -5 -5 6 7.19 10.64 1.91 o
364 1 -5 -5 5 3.68 5.60 1.31 o
365 2 -2 5 -4 9.79 4.63 1.18 o
365 1 -5 -5 4 9.79 4.63 1.18 o
366 1 -5 -5 3 11.49 16.74 2.39 o
367 1 5 -5 -2 12.07 14.90 1.63 o
368 1 5 -5 -1 0.52 0.70 0.42 <
369 1 -5 -4 7 3.66 5.00 1.52 o
370 6 -5 4 6 10.64 20.32 2.77 o
370 1 -5 -4 6 10.64 20.32 2.77 o
371 1 -5 -4 5 0.09 1.02 0.71 <
372 2 -2 4 -4 32.46 29.04 3.02 o
372 1 -5 -4 4 32.46 29.04 3.02 o
373 1 5 -4 -3 2.11 1.72 0.48 o
374 1 -5 -4 3 2.11 3.02 0.94 o
375 1 5 -4 -2 2.90 2.58 0.76 o
376 1 5 -4 -1 18.12 23.82 1.89 o
377 1 -5 -3 7 1.21 0.89 0.44 <
378 6 -5 3 6 8.49 14.68 2.42 o
378 1 -5 -3 6 8.49 14.68 2.42 o
379 1 -5 -3 5 6.37 6.39 1.44 o
380 2 -2 3 -4 9.63 2.69 0.80 o
380 1 -5 -3 4 9.63 2.69 0.80 o
381 1 5 -3 -3 22.23 26.21 2.46 o
382 1 -5 -3 3 22.23 29.23 3.07 o
383 1 -5 -3 2 20.83 26.57 2.77 o
384 1 5 -3 -2 20.83 23.59 2.15 o
385 1 5 -3 -1 0.02 -0.01 0.14 <
386 6 -5 2 6 7.30 18.59 2.52 o
386 1 -5 -2 6 7.30 18.59 2.52 o
387 1 -5 -2 5 0.29 1.53 0.98 <
388 2 -2 2 -4 27.96 22.83 2.66 o
388 1 -5 -2 4 27.96 22.83 2.66 o
389 2 2 2 4 27.96 21.48 2.63 o
389 1 5 -2 -4 27.96 21.48 2.63 o
390 1 5 -2 -3 1.28 2.38 0.81 <
391 1 -5 -2 3 1.28 2.27 0.93 <
392 1 5 -2 -2 1.46 1.17 0.44 <
393 1 -5 -2 2 1.46 2.02 0.75 <
394 1 5 -2 -1 16.18 20.16 1.84 o
395 6 -5 1 6 9.22 14.21 2.23 o
395 1 -5 -1 6 9.22 14.21 2.23 o
396 1 -5 -1 5 2.87 6.65 1.37 o
397 2 -2 1 -4 18.34 7.32 1.40 o
397 1 -5 -1 4 18.34 7.32 1.40 o
398 2 2 1 4 18.34 4.02 1.38 <
398 1 5 -1 -4 18.34 4.02 1.38 <
399 1 5 -1 -3 4.77 4.67 1.09 o
400 1 -5 -1 3 4.77 5.23 1.27 o
401 1 -5 -1 2 4.59 4.29 1.04 o
402 1 5 -1 -2 4.59 4.39 1.02 o
403 1 -5 -1 1 0.68 -0.12 0.46 <
404 1 5 -1 -1 0.68 -0.08 0.18 <
405 1 -5 0 5 2.17 1.47 0.66 <
406 1 5 0 -5 2.17 1.48 0.57 <
407 2 2 0 4 15.94 19.14 2.20 o
407 1 5 0 -4 15.94 19.14 2.20 o
408 2 -2 0 -4 15.94 18.57 2.27 o
408 1 -5 0 4 15.94 18.57 2.27 o
409 1 5 0 -3 0.07 0.87 0.65 <
410 1 -5 0 3 0.07 0.21 0.15 <
411 1 -5 0 2 0.00 0.12 0.15 <
412 1 5 0 -2 0.00 0.34 0.51 <
413 1 5 0 -1 18.65 25.77 2.27 o
414 1 -5 0 1 18.65 22.56 2.22 o
415 6 5 -1 -6 9.22 7.65 1.72 o
415 1 5 1 -6 9.22 7.65 1.72 o
416 1 5 1 -5 2.74 5.54 1.44 o
417 2 -2 -1 -4 18.42 3.84 1.10 o
417 1 -5 1 4 18.42 3.84 1.10 o
418 2 2 -1 4 18.42 5.74 1.23 o
418 1 5 1 -4 18.42 5.74 1.23 o
419 1 -5 1 3 4.49 3.82 0.91 o
420 1 5 1 -3 4.49 3.76 0.91 o
421 1 -5 1 2 4.85 3.87 0.89 o
422 1 5 1 -2 4.85 4.52 1.02 o
423 1 -5 1 1 0.68 -0.21 0.42 <
424 2 -5 -1 0 8.88 16.92 1.83 o
424 1 -5 1 0 8.88 16.92 1.83 o
425 6 5 -2 -6 7.29 12.37 2.12 o
425 1 5 2 -6 7.29 12.37 2.12 o
426 1 5 2 -5 0.32 0.04 0.84 <
427 2 2 -2 4 27.36 25.82 2.74 o
427 1 5 2 -4 27.36 25.82 2.74 o
428 1 5 2 -3 1.34 1.08 0.43 <
429 1 -5 2 3 1.34 1.60 0.63 <
430 1 5 2 -2 1.40 1.86 0.77 <
431 1 -5 2 2 1.40 1.27 0.51 <
432 1 -5 2 1 16.68 19.45 1.80 o
433 2 -5 -2 0 0.74 0.90 0.42 <
433 1 -5 2 0 0.74 0.90 0.42 <
434 1 5 3 -7 1.21 1.58 0.85 <
435 6 5 -3 -6 8.49 10.61 2.04 o
435 1 5 3 -6 8.49 10.61 2.04 o
436 1 5 3 -5 6.51 6.74 1.45 o
437 2 2 -3 4 9.94 3.17 1.22 <
437 1 5 3 -4 9.94 3.17 1.22 <
438 1 5 3 -3 21.99 31.53 2.99 o
439 1 -5 3 2 21.09 22.55 2.26 o
440 1 -5 3 1 0.02 -0.35 0.05 <
441 2 -5 -3 0 13.12 20.77 1.72 o
441 1 -5 3 0 13.12 20.77 1.72 o
442 1 -5 3 -1 4.27 5.15 0.90 o
443 1 5 4 -8 0.05 -0.90 0.86 <
444 1 5 4 -7 3.71 4.93 1.41 o
445 6 5 -4 -6 10.64 11.78 1.95 o
445 1 5 4 -6 10.64 11.78 1.95 o
446 1 5 4 -5 0.07 2.15 1.03 <
447 2 2 -4 4 32.85 35.80 3.43 o
447 1 5 4 -4 32.85 35.80 3.43 o
448 1 5 4 -3 2.17 3.50 1.02 o
449 1 -5 4 1 17.73 20.04 1.91 o
450 2 -5 -4 0 0.11 0.44 0.29 <
450 1 -5 4 0 0.11 0.44 0.29 <
451 1 -5 4 -1 5.91 4.53 0.77 o
452 1 -5 4 -2 4.90 6.64 0.94 o
453 1 5 5 -7 0.66 -0.68 0.21 <
454 6 5 -5 -6 7.19 5.32 1.40 o
454 1 5 5 -6 7.19 5.32 1.40 o
455 1 5 5 -5 3.63 10.95 1.97 o
456 2 2 -5 4 9.55 12.00 1.91 o
456 1 5 5 -4 9.55 12.00 1.91 o
457 1 -5 5 -1 4.37 4.17 0.62 o
458 1 -5 5 -2 0.62 0.05 0.13 <
459 6 5 -6 -6 0.65 3.70 1.15 o
459 1 5 6 -6 0.65 3.70 1.15 o
460 1 5 6 -5 1.28 0.75 0.66 <
461 2 2 -6 4 11.87 9.09 1.61 o
461 1 5 6 -4 11.87 9.09 1.61 o
462 1 5 7 -5 1.26 2.86 1.23 <
463 1 6 -6 -2 0.52 0.23 0.10 <
464 1 6 -6 -1 0.84 1.13 0.51 <
465 6 -4 5 7 5.88 3.98 0.95 o
465 1 -6 -5 5 5.88 3.98 0.95 o
466 2 -3 5 -4 3.47 3.81 1.50 <
466 1 -6 -5 4 3.47 3.81 1.50 <
467 1 6 -5 -3 0.11 0.46 0.46 <
468 1 6 -5 -2 1.96 1.84 0.69 <
469 1 6 -5 -1 2.49 1.96 0.62 o
470 1 -6 -4 6 2.01 4.41 1.73 <
471 6 -4 4 7 2.59 3.51 1.15 o
471 1 -6 -4 5 2.59 3.51 1.15 o
472 2 -3 4 -4 1.53 1.89 0.93 <
472 1 -6 -4 4 1.53 1.89 0.93 <
473 1 6 -4 -3 5.47 4.98 1.16 o
474 1 -6 -4 3 5.47 6.62 1.59 o
475 1 6 -4 -2 1.99 1.77 0.60 <
476 1 6 -4 -1 0.27 1.50 1.10 <
477 1 -6 -3 7 0.94 2.52 0.91 <
478 1 -6 -3 6 1.64 0.33 0.41 <
479 6 -4 3 7 7.78 6.56 1.54 o
479 1 -6 -3 5 7.78 6.56 1.54 o
480 2 3 3 4 9.41 4.17 1.26 o
480 1 6 -3 -4 9.41 4.17 1.26 o
481 2 -3 3 -4 9.41 3.92 1.10 o
481 1 -6 -3 4 9.41 3.92 1.10 o
482 1 -6 -3 3 0.09 -0.75 0.76 <
483 1 6 -3 -3 0.09 0.67 0.55 <
484 1 6 -3 -2 1.32 2.21 0.73 o
485 1 6 -3 -1 3.90 3.60 0.84 o
486 1 -6 -2 7 0.02 -1.00 0.90 <
487 1 -6 -2 6 3.69 5.17 1.67 o
488 6 -4 2 7 4.13 5.29 1.59 o
488 1 -6 -2 5 4.13 5.29 1.59 o
489 6 4 2 -7 4.13 3.35 1.06 o
489 1 6 -2 -5 4.13 3.35 1.06 o
490 2 3 2 4 1.19 0.18 0.10 <
490 1 6 -2 -4 1.19 0.18 0.10 <
491 2 -3 2 -4 1.19 1.17 0.63 <
491 1 -6 -2 4 1.19 1.17 0.63 <
492 1 -6 -2 3 5.80 6.60 1.44 o
493 1 6 -2 -3 5.80 4.86 1.09 o
494 1 -6 -2 2 0.41 0.86 0.26 o
495 1 6 -2 -2 0.41 0.97 0.45 <
496 1 6 -2 -1 0.99 1.92 0.71 <
497 1 -6 -1 6 0.31 0.58 0.41 <
498 6 -4 1 7 9.14 7.21 1.72 o
498 1 -6 -1 5 9.14 7.21 1.72 o
499 6 4 1 -7 9.14 7.81 1.60 o
499 1 6 -1 -5 9.14 7.81 1.60 o
500 2 3 1 4 8.72 7.56 1.36 o
500 1 6 -1 -4 8.72 7.56 1.36 o
501 2 -3 1 -4 8.72 6.77 1.48 o
501 1 -6 -1 4 8.72 6.77 1.48 o
502 1 6 -1 -3 0.02 0.49 0.38 <
503 1 -6 -1 3 0.02 -0.93 0.76 <
504 1 6 -1 -2 4.03 4.82 1.05 o
505 1 -6 -1 2 4.03 6.08 1.50 o
506 1 -6 0 6 1.29 2.43 1.25 <
507 1 6 0 -6 1.29 1.22 0.75 <
508 6 4 0 -7 5.73 4.80 1.18 o
508 1 6 0 -5 5.73 4.80 1.18 o
509 6 -4 0 7 5.73 4.88 1.24 o
509 1 -6 0 5 5.73 4.88 1.24 o
510 2 -3 0 -4 0.79 0.32 0.49 <
510 1 -6 0 4 0.79 0.32 0.49 <
511 2 3 0 4 0.79 1.16 0.74 <
511 1 6 0 -4 0.79 1.16 0.74 <
512 1 -6 0 3 7.62 8.81 1.79 o
513 1 6 0 -3 7.62 9.19 1.60 o
514 1 -6 0 2 0.04 0.11 0.24 <
515 1 6 0 -2 0.04 0.59 0.42 <
516 1 -6 0 1 0.76 0.99 0.42 <
517 1 6 1 -6 0.30 -0.88 0.50 <
518 6 -4 -1 7 9.45 7.32 1.62 o
518 1 -6 1 5 9.45 7.32 1.62 o
519 6 4 -1 -7 9.45 7.23 1.67 o
519 1 6 1 -5 9.45 7.23 1.67 o
520 2 3 -1 4 8.67 7.31 1.61 o
520 1 6 1 -4 8.67 7.31 1.61 o
521 2 -3 -1 -4 8.67 4.81 1.38 o
521 1 -6 1 4 8.67 4.81 1.38 o
522 1 6 1 -3 0.02 -0.54 0.25 <
523 1 -6 1 3 0.02 0.45 0.39 <
524 1 6 1 -2 3.99 5.73 1.25 o
525 1 -6 1 2 3.99 4.40 1.12 o
526 1 -6 1 1 3.21 4.18 1.11 o
527 1 6 2 -7 0.02 0.44 0.59 <
528 1 6 2 -6 3.79 4.99 1.40 o
529 6 4 -2 -7 4.15 1.77 0.70 <
529 1 6 2 -5 4.15 1.77 0.70 <
530 2 -3 -2 -4 1.22 -0.09 0.65 <
530 1 -6 2 4 1.22 -0.09 0.65 <
531 2 3 -2 4 1.22 0.02 0.53 <
531 1 6 2 -4 1.22 0.02 0.53 <
532 1 -6 2 3 5.81 5.82 1.19 o
533 1 6 2 -3 5.81 7.95 1.58 o
534 1 -6 2 2 0.36 0.60 0.47 <
535 1 -6 2 1 1.06 2.30 0.83 <
536 2 -6 -2 0 9.38 19.48 2.05 o
536 1 -6 2 0 9.38 19.48 2.05 o
537 1 6 3 -7 0.95 -0.23 0.73 <
538 1 6 3 -6 1.64 1.00 0.83 <
539 6 4 -3 -7 7.88 6.25 1.58 o
539 1 6 3 -5 7.88 6.25 1.58 o
540 2 3 -3 4 9.49 3.27 1.03 o
540 1 6 3 -4 9.49 3.27 1.03 o
541 1 -6 3 3 0.09 0.01 0.49 <
542 1 6 3 -3 0.09 -0.69 0.46 <
543 1 -6 3 2 1.39 1.66 0.69 <
544 1 -6 3 1 3.82 3.41 0.75 o
545 2 -6 -3 0 3.87 2.52 0.69 o
545 1 -6 3 0 3.87 2.52 0.69 o
546 1 -6 3 -1 1.67 2.00 0.59 o
547 1 6 4 -6 1.97 4.18 1.30 o
548 6 4 -4 -7 2.52 2.84 1.09 <
548 1 6 4 -5 2.52 2.84 1.09 <
549 2 3 -4 4 1.54 0.63 0.21 o
549 1 6 4 -4 1.54 0.63 0.21 o
550 1 6 4 -3 5.46 6.62 1.46 o
551 1 -6 4 2 1.97 1.90 0.78 <
552 1 -6 4 1 0.28 -0.03 0.11 <
553 2 -6 -4 0 4.83 5.57 0.94 o
553 1 -6 4 0 4.83 5.57 0.94 o
554 1 -6 4 -1 0.05 -0.63 0.45 <
555 1 6 5 -6 0.04 0.46 0.69 <
556 6 4 -5 -7 5.71 4.13 1.23 o
556 1 6 5 -5 5.71 4.13 1.23 o
557 2 3 -5 4 3.43 4.62 1.47 o
557 1 6 5 -4 3.43 4.62 1.47 o
558 2 -6 -5 0 0.12 -0.12 0.26 <
558 1 -6 5 0 0.12 -0.12 0.26 <
559 6 3 5 -8 1.21 0.96 0.56 <
559 4 -7 5 4 1.21 0.96 0.56 <
559 2 4 5 4 1.21 0.96 0.56 <
559 1 7 -5 -4 1.21 0.96 0.56 <
560 1 7 -5 -3 0.13 -0.64 0.68 <
561 6 3 4 -8 2.02 1.09 0.58 <
561 4 -7 4 4 2.02 1.09 0.58 <
561 2 4 4 4 2.02 1.09 0.58 <
561 1 7 -4 -4 2.02 1.09 0.58 <
562 1 7 -4 -3 0.16 -0.19 0.29 <
563 1 7 -4 -2 0.77 0.32 0.24 <
564 1 7 -3 -5 0.10 -0.67 0.47 <
565 6 -3 3 8 3.46 3.77 1.24 o
565 4 7 3 -4 3.46 3.77 1.24 o
565 2 -4 3 -4 3.46 3.77 1.24 o
565 1 -7 -3 4 3.46 3.77 1.24 o
566 6 3 3 -8 3.46 4.46 1.21 o
566 4 -7 3 4 3.46 4.46 1.21 o
566 2 4 3 4 3.46 4.46 1.21 o
566 1 7 -3 -4 3.46 4.46 1.21 o
567 1 7 -3 -3 0.70 0.76 0.21 o
568 1 -7 -3 3 0.70 0.88 0.54 <
569 1 7 -3 -2 0.27 -0.80 0.76 <
570 1 7 -2 -5 1.36 2.38 0.99 <
571 1 -7 -2 5 1.36 1.57 0.69 <
572 6 -3 2 8 4.49 3.32 1.09 o
572 4 7 2 -4 4.49 3.32 1.09 o
572 2 -4 2 -4 4.49 3.32 1.09 o
572 1 -7 -2 4 4.49 3.32 1.09 o
573 6 3 2 -8 4.49 3.87 1.24 o
573 4 -7 2 4 4.49 3.87 1.24 o
573 2 4 2 4 4.49 3.87 1.24 o
573 1 7 -2 -4 4.49 3.87 1.24 o
574 1 -7 -2 3 0.08 -0.71 0.95 <
575 1 7 -2 -3 0.08 -0.05 0.35 <
576 1 7 -2 -2 1.80 2.14 0.78 <
577 1 7 -1 -6 0.46 1.37 0.76 <
578 1 -7 -1 6 0.46 0.56 0.49 <
579 1 -7 -1 5 0.35 0.18 0.22 <
580 1 7 -1 -5 0.35 -0.20 0.78 <
581 6 3 1 -8 6.07 4.96 1.38 o
581 4 -7 1 4 6.07 4.96 1.38 o
581 2 4 1 4 6.07 4.96 1.38 o
581 1 7 -1 -4 6.07 4.96 1.38 o
582 6 -3 1 8 6.07 6.73 1.65 o
582 4 7 1 -4 6.07 6.73 1.65 o
582 2 -4 1 -4 6.07 6.73 1.65 o
582 1 -7 -1 4 6.07 6.73 1.65 o
583 1 -7 -1 3 1.31 1.33 0.52 <
584 1 7 -1 -3 1.31 1.77 0.78 <
585 1 -7 -1 2 0.40 0.08 0.29 <
586 1 7 -1 -2 0.40 0.10 0.27 <
587 1 -7 0 6 0.00 0.89 0.88 <
588 1 7 0 -6 0.00 0.75 0.69 <
589 1 -7 0 5 2.30 1.56 0.76 <
590 1 7 0 -5 2.30 2.35 0.92 <
591 6 -3 0 8 15.00 21.06 2.74 o
591 4 7 0 -4 15.00 21.06 2.74 o
591 2 -4 0 -4 15.00 21.06 2.74 o
591 1 -7 0 4 15.00 21.06 2.74 o
592 6 3 0 -8 15.00 21.46 2.81 o
592 4 -7 0 4 15.00 21.46 2.81 o
592 2 4 0 4 15.00 21.46 2.81 o
592 1 7 0 -4 15.00 21.46 2.81 o
593 1 7 0 -3 0.56 0.20 0.44 <
594 1 -7 0 3 0.56 2.33 0.98 <
595 1 -7 0 2 2.13 2.86 1.02 <
596 1 7 0 -2 2.13 3.05 0.92 o
597 1 -7 1 6 0.45 1.07 0.98 <
598 1 7 1 -6 0.45 1.34 1.03 <
599 1 7 1 -5 0.35 0.47 0.51 <
600 1 -7 1 5 0.35 -0.73 0.81 <
601 6 -3 -1 8 6.02 5.06 1.41 o
601 4 7 -1 -4 6.02 5.06 1.41 o
601 2 -4 -1 -4 6.02 5.06 1.41 o
601 1 -7 1 4 6.02 5.06 1.41 o
602 6 3 -1 -8 6.02 6.57 1.69 o
602 4 -7 -1 4 6.02 6.57 1.69 o
602 2 4 -1 4 6.02 6.57 1.69 o
602 1 7 1 -4 6.02 6.57 1.69 o
603 1 7 1 -3 1.29 2.41 1.00 <
604 1 -7 1 3 1.29 1.33 0.54 <
605 1 -7 1 2 0.40 0.93 0.60 <
606 1 -7 1 1 0.58 1.88 0.91 <
607 1 -7 2 5 1.37 1.32 0.59 <
608 1 7 2 -5 1.37 0.74 0.44 <
609 6 -3 -2 8 4.27 3.66 1.39 <
609 4 7 -2 -4 4.27 3.66 1.39 <
609 2 -4 -2 -4 4.27 3.66 1.39 <
609 1 -7 2 4 4.27 3.66 1.39 <
610 6 3 -2 -8 4.27 4.54 1.32 o
610 4 -7 -2 4 4.27 4.54 1.32 o
610 2 4 -2 4 4.27 4.54 1.32 o
610 1 7 2 -4 4.27 4.54 1.32 o
611 1 7 2 -3 0.07 0.06 0.42 <
612 1 -7 2 3 0.07 -0.88 0.57 <
613 1 -7 2 2 1.78 1.65 0.40 o
614 1 -7 2 1 0.21 0.07 0.18 <
615 2 -7 -2 0 0.29 0.57 0.46 <
615 1 -7 2 0 0.29 0.57 0.46 <
616 1 7 3 -5 0.10 -1.02 0.83 <
617 6 -3 -3 8 3.48 2.36 1.04 <
617 4 7 -3 -4 3.48 2.36 1.04 <
617 2 -4 -3 -4 3.48 2.36 1.04 <
617 1 -7 3 4 3.48 2.36 1.04 <
618 6 3 -3 -8 3.48 3.93 1.11 o
618 4 -7 -3 4 3.48 3.93 1.11 o
618 2 4 -3 4 3.48 3.93 1.11 o
618 1 7 3 -4 3.48 3.93 1.11 o
619 1 -7 3 3 0.71 -0.30 0.61 <
620 1 7 3 -3 0.71 2.15 0.93 <
621 1 -7 3 2 0.27 0.39 0.40 <
622 1 -7 3 1 0.30 1.17 0.50 <
623 1 -7 4 2 0.79 0.60 0.58 <
624 1 -7 4 1 0.02 0.57 0.46 <
625 2 5 1 4 0.79 0.58 0.56 <
625 1 8 -1 -4 0.79 0.58 0.56 <
626 2 5 0 4 1.53 0.34 0.14 <
626 1 8 0 -4 1.53 0.34 0.14 <
627 2 -5 0 -4 1.53 0.54 0.49 <
627 1 -8 0 4 1.53 0.54 0.49 <
628 1 8 0 -3 0.01 0.28 0.22 <
629 1 -8 0 3 0.01 1.41 0.68 <
630 2 -5 -1 -4 0.80 -0.74 0.85 <
630 1 -8 1 4 0.80 -0.74 0.85 <
631 2 0 -8 -5 5.82 6.53 1.23 o
632 2 0 -7 -4 73.01 74.46 3.90 o
632 1 -3 7 4 73.01 74.46 3.90 o
633 2 0 -7 -5 7.23 13.50 1.87 o
634 2 0 -7 -6 0.92 1.13 0.82 <
635 2 0 -6 -4 8.00 11.31 1.55 o
635 1 -3 6 4 8.00 11.31 1.55 o
636 2 0 -6 -5 10.78 16.48 2.15 o
637 2 0 -6 -6 0.41 0.78 0.82 <
638 2 0 -5 -3 0.10 0.21 0.15 <
639 2 0 -5 -4 13.24 9.09 1.65 o
639 1 -3 5 4 13.24 9.09 1.65 o
640 2 0 -5 -5 9.68 10.39 1.77 o
641 2 0 -5 -6 1.82 1.39 0.81 <
642 2 0 -5 -7 1.25 2.05 1.29 <
643 2 0 -4 -2 3.97 6.47 0.88 o
644 2 0 -4 -3 78.43 90.19 4.23 o
645 2 0 -4 -4 4.56 1.77 0.81 <
645 1 -3 4 4 4.56 1.77 0.81 <
646 2 0 -4 -5 0.42 0.40 0.45 <
647 2 0 -4 -6 16.53 20.66 2.98 o
648 2 0 -4 -7 0.60 0.44 0.65 <
649 2 0 -3 -2 303.18 389.68 7.36 o
650 2 0 -3 -3 1.70 0.44 0.29 <
651 2 0 -3 -4 3.68 1.33 0.69 <
651 1 -3 3 4 3.68 1.33 0.69 <
652 2 0 -3 -5 10.73 9.67 1.76 o
653 2 0 -3 -6 0.01 0.28 0.56 <
654 2 0 -3 -7 7.25 5.64 1.74 o
655 2 0 -2 -1 2.19 0.02 0.10 <
656 2 0 -2 -2 148.13 149.09 4.43 o
657 2 0 -2 -3 141.00 150.61 5.55 o
658 2 0 -2 -4 4.29 5.15 1.16 o
658 1 -3 2 4 4.29 5.15 1.16 o
659 2 0 -2 -5 23.02 27.31 2.96 o
660 2 0 -2 -6 15.50 16.78 2.62 o
661 2 0 -2 -7 2.34 2.63 1.29 <
662 2 0 -1 -1 503.22 510.82 5.82 o
663 2 0 -1 -2 83.63 82.48 3.24 o
664 2 0 -1 -3 34.32 30.67 2.46 o
665 2 0 -1 -4 212.27 156.70 6.43 o
665 1 -3 1 4 212.27 156.70 6.43 o
666 2 0 -1 -5 29.67 32.83 3.28 o
667 2 0 0 1 133.57 99.08 2.41 o
668 2 0 0 -1 133.57 97.65 2.41 o
669 2 0 0 -2 6.41 6.92 1.01 o
670 2 0 0 2 6.41 8.27 1.05 o
671 2 0 1 1 503.23 505.00 5.89 o
672 2 0 1 2 83.39 88.58 3.21 o
673 2 0 1 3 34.35 31.71 2.53 o
674 2 0 1 4 211.46 168.15 6.80 o
674 1 3 -1 -4 211.46 168.15 6.80 o
675 2 0 1 5 29.77 34.06 3.39 o
676 2 0 2 1 2.22 0.02 0.05 <
677 2 0 2 2 148.32 152.94 4.62 o
678 2 0 2 3 140.92 150.67 5.38 o
679 2 0 2 4 4.19 4.23 1.02 o
679 1 3 -2 -4 4.19 4.23 1.02 o
680 2 0 2 5 23.04 23.78 2.84 o
681 2 0 2 6 15.54 17.17 2.68 o
682 2 0 3 1 9.38 9.21 0.85 o
683 2 0 3 2 303.08 393.44 7.99 o
684 2 0 3 3 1.70 1.00 0.53 <
685 2 0 3 4 3.29 1.88 0.75 <
685 1 3 -3 -4 3.29 1.88 0.75 <
686 2 0 3 5 10.64 9.80 1.86 o
687 2 0 3 6 0.03 -0.15 0.39 <
688 2 0 3 7 7.26 7.09 1.95 o
689 2 0 4 2 3.91 6.47 1.04 o
690 2 0 4 3 78.76 86.96 4.66 o
691 2 0 4 4 4.58 1.38 0.79 <
691 1 3 -4 -4 4.58 1.38 0.79 <
692 2 0 4 5 0.31 0.03 0.18 <
693 2 0 4 6 16.45 18.79 2.83 o
694 2 0 4 7 0.59 2.03 1.39 <
695 2 0 5 2 62.84 82.16 3.79 o
696 2 0 5 3 0.08 -0.04 0.29 <
697 2 0 5 4 14.02 10.70 2.08 o
697 1 3 -5 -4 14.02 10.70 2.08 o
698 2 0 5 5 9.68 9.21 1.73 o
699 2 0 5 6 1.82 2.09 0.93 <
700 2 0 5 7 1.25 1.28 0.74 <
701 2 0 6 3 16.87 19.51 2.21 o
702 2 0 6 4 8.01 8.57 1.62 o
702 1 3 -6 -4 8.01 8.57 1.62 o
703 2 0 6 5 10.87 15.80 2.47 o
704 2 0 6 6 0.48 0.95 0.76 <
705 2 0 7 3 11.83 13.06 1.86 o
706 2 0 7 4 72.68 81.55 5.31 o
706 1 3 -7 -4 72.68 81.55 5.31 o
707 2 0 7 5 7.27 10.62 1.99 o
708 2 0 7 6 0.91 0.61 0.82 <
709 2 0 8 4 1.38 0.77 0.79 <
709 1 3 -8 -4 1.38 0.77 0.79 <
710 2 0 8 5 5.80 5.67 1.56 o
711 2 0 9 4 8.25 2.01 1.12 <
711 1 3 -9 -4 8.25 2.01 1.12 <
712 2 1 -8 -5 5.45 5.19 1.02 o
713 2 1 -7 -6 1.70 0.95 0.39 <
714 2 1 -7 -5 2.20 1.29 0.59 <
715 2 1 -7 -4 22.71 23.05 1.98 o
715 1 -2 7 4 22.71 23.05 1.98 o
716 2 -1 -7 -5 1.93 2.11 0.85 <
717 2 1 -6 -7 1.58 2.28 1.24 <
718 2 1 -6 -6 1.54 1.54 0.87 <
719 2 1 -6 -5 32.27 43.43 3.42 o
720 2 1 -6 -4 39.70 31.13 2.56 o
720 1 -2 6 4 39.70 31.13 2.56 o
721 2 1 -6 -3 17.79 15.30 1.34 o
722 2 -1 -6 -4 39.34 51.75 3.72 o
722 1 -4 6 4 39.34 51.75 3.72 o
723 2 -1 -6 -5 1.60 1.41 0.79 <
724 2 -1 -6 -6 1.21 1.85 0.91 <
725 2 1 -5 -7 2.20 4.68 1.69 <
726 2 1 -5 -6 11.00 13.98 2.27 o
727 2 1 -5 -5 5.33 2.48 0.86 <
728 2 1 -5 -4 40.64 43.08 2.97 o
728 1 -2 5 4 40.64 43.08 2.97 o
729 2 1 -5 -3 54.13 66.19 3.07 o
730 2 -1 -5 -3 32.62 42.12 3.06 o
731 2 -1 -5 -4 12.72 5.69 1.33 o
731 1 -4 5 4 12.72 5.69 1.33 o
732 2 -1 -5 -5 12.39 16.06 2.42 o
733 2 -1 -5 -6 2.68 2.20 1.24 <
734 2 1 -4 -8 0.97 0.65 0.63 <
735 2 1 -4 -7 6.69 5.66 1.67 o
736 2 1 -4 -6 2.17 1.52 0.68 <
737 2 1 -4 -5 7.85 7.97 1.46 o
738 2 1 -4 -4 123.16 113.92 5.22 o
738 1 -2 4 4 123.16 113.92 5.22 o
739 2 1 -4 -3 25.70 33.00 2.23 o
740 2 1 -4 -2 224.68 261.28 4.94 o
741 2 -1 -4 -2 29.01 31.68 2.09 o
742 2 -1 -4 -3 24.45 34.46 2.79 o
743 2 -1 -4 -4 7.88 11.71 1.81 o
743 1 -4 4 4 7.88 11.71 1.81 o
744 2 -1 -4 -5 2.86 2.20 1.10 <
745 2 -1 -4 -6 6.94 6.50 1.65 o
746 2 1 -3 -6 9.44 13.29 2.31 o
747 2 1 -3 -5 8.00 8.49 1.51 o
748 2 1 -3 -4 46.11 43.25 3.06 o
748 1 -2 3 4 46.11 43.25 3.06 o
749 2 1 -3 -3 146.88 153.74 4.83 o
750 2 1 -3 -2 19.27 23.71 1.45 o
751 2 -1 -3 -2 150.29 155.24 5.25 o
752 2 -1 -3 -3 42.15 49.01 3.42 o
753 2 -1 -3 -4 13.48 10.60 1.78 o
753 1 -4 3 4 13.48 10.60 1.78 o
754 2 -1 -3 -5 11.51 14.28 2.34 o
755 2 -1 -3 -6 8.02 5.96 1.76 o
756 2 1 -2 -5 27.13 23.13 2.61 o
757 2 1 -2 -4 65.76 45.93 3.37 o
757 1 -2 2 4 65.76 45.93 3.37 o
758 2 1 -2 -3 127.68 127.27 4.32 o
759 2 1 -2 -2 495.67 556.57 6.96 o
760 3 1 2 1 965.31 920.51 9.39 o
760 2 -1 -2 -1 965.31 920.51 9.39 o
761 2 -1 -2 -2 128.83 131.31 4.97 o
762 2 -1 -2 -3 6.81 6.52 1.25 o
763 2 -1 -2 -4 26.73 25.80 2.91 o
763 1 -4 2 4 26.73 25.80 2.91 o
764 2 -1 -2 -5 0.15 0.10 0.29 <
765 2 -1 -2 -6 5.74 5.45 1.58 o
766 2 -1 -2 -7 3.13 3.48 1.60 <
767 3 1 1 1 408.81 406.95 6.87 o
767 2 -1 -1 -1 408.81 406.95 6.87 o
768 3 -1 1 -1 408.81 414.54 5.82 o
768 2 1 -1 1 408.81 414.54 5.82 o
769 2 -1 -1 -2 43.31 31.58 2.48 o
770 2 1 -1 2 43.31 30.51 2.17 o
771 2 -1 -1 -3 92.26 86.00 4.37 o
772 2 1 -1 3 92.26 83.81 4.31 o
773 2 -1 -1 -4 70.87 27.89 2.99 o
773 1 -4 1 4 70.87 27.89 2.99 o
774 2 -1 -1 -5 10.58 12.88 2.18 o
775 2 -1 -1 -6 2.43 2.85 1.16 <
776 2 -1 -1 -7 0.44 0.76 0.70 <
777 3 1 0 1 22.92 17.54 1.56 o
777 2 -1 0 -1 22.92 17.54 1.56 o
778 3 -1 0 -1 22.92 29.58 1.78 o
778 2 1 0 1 22.92 29.58 1.78 o
779 2 -1 0 -2 3.24 3.01 0.75 o
780 2 1 0 2 3.24 2.51 0.62 o
781 2 1 0 3 86.95 80.59 4.11 o
782 2 -1 0 -3 86.95 83.93 4.38 o
783 2 -1 0 -4 140.94 112.02 5.95 o
783 1 -4 0 4 140.94 112.02 5.95 o
784 2 1 0 4 140.94 105.98 5.61 o
784 1 4 0 -4 140.94 105.98 5.61 o
785 2 -1 0 -5 5.63 4.67 1.28 o
786 2 1 0 5 5.63 6.62 1.66 o
787 3 -1 -1 -1 408.74 407.55 7.13 o
787 2 1 1 1 408.74 407.55 7.13 o
788 3 1 -1 1 408.74 412.40 5.87 o
788 2 -1 1 -1 408.74 412.40 5.87 o
789 2 1 1 2 40.71 28.44 2.36 o
790 2 -1 1 -2 40.71 30.94 2.24 o
791 2 -1 1 -3 92.58 79.10 4.13 o
792 2 1 1 3 92.58 86.05 4.27 o
793 2 1 1 4 71.79 25.26 2.89 o
793 1 4 -1 -4 71.79 25.26 2.89 o
794 2 -1 1 -4 71.79 23.90 2.73 o
794 1 -4 -1 4 71.79 23.90 2.73 o
795 2 1 1 5 10.89 13.93 2.24 o
796 2 1 1 6 2.53 2.62 1.20 <
797 2 -1 2 3 125.19 123.51 4.56 o
798 2 -1 2 2 496.29 556.47 7.29 o
799 3 -1 -2 -1 965.28 920.77 10.30 o
799 2 1 2 1 965.28 920.77 10.30 o
800 2 1 2 2 131.39 137.77 5.40 o
801 2 1 2 3 7.31 7.18 1.38 o
802 2 1 2 4 27.36 26.45 2.76 o
802 1 4 -2 -4 27.36 26.45 2.76 o
803 2 1 2 5 0.17 0.30 0.38 <
804 2 1 2 6 5.65 4.36 1.51 <
805 2 -1 3 5 8.03 7.85 1.60 o
806 2 -1 3 4 45.04 40.88 3.20 o
806 1 2 -3 -4 45.04 40.88 3.20 o
807 2 -1 3 3 146.80 146.54 4.91 o
808 2 -1 3 2 19.46 23.53 1.56 o
809 2 -1 3 1 72.33 90.05 2.15 o
810 2 1 3 2 150.68 159.24 5.88 o
811 2 1 3 3 43.46 53.33 3.91 o
812 2 1 3 4 13.67 11.70 2.13 o
812 1 4 -3 -4 13.67 11.70 2.13 o
813 2 1 3 5 11.42 13.49 2.34 o
814 2 1 3 6 8.14 7.17 1.75 o
815 2 -1 4 7 6.67 6.75 1.95 o
816 2 -1 4 6 2.11 2.17 0.95 <
817 2 -1 4 5 8.07 8.40 1.58 o
818 2 -1 4 4 123.22 110.16 5.39 o
818 1 2 -4 -4 123.22 110.16 5.39 o
819 2 -1 4 3 26.09 30.55 2.31 o
820 2 -1 4 2 223.15 263.60 5.66 o
821 2 1 4 2 28.54 35.45 2.71 o
822 2 1 4 3 24.15 35.59 3.34 o
823 2 1 4 4 7.70 10.08 2.01 o
823 1 4 -4 -4 7.70 10.08 2.01 o
824 2 1 4 5 2.92 2.59 1.13 <
825 2 1 4 6 6.98 7.35 2.00 o
826 2 -1 5 7 2.29 2.60 1.23 <
827 2 -1 5 6 11.04 10.91 1.97 o
828 2 -1 5 5 5.49 2.48 0.74 o
829 2 -1 5 4 41.50 39.99 3.05 o
829 1 2 -5 -4 41.50 39.99 3.05 o
830 2 -1 5 3 53.72 65.71 3.47 o
831 2 -1 5 2 29.59 35.20 2.14 o
832 2 1 5 2 57.57 63.51 3.74 o
833 2 1 5 3 31.77 39.88 3.53 o
834 2 1 5 4 12.35 6.63 1.74 o
834 1 4 -5 -4 12.35 6.63 1.74 o
835 2 1 5 5 12.36 16.62 2.74 o
836 2 1 5 6 2.59 2.68 1.19 <
837 2 -1 6 7 1.53 1.85 1.10 <
838 2 -1 6 6 1.60 1.19 0.77 <
839 2 -1 6 5 32.63 35.58 3.40 o
840 2 -1 6 4 40.34 36.52 3.23 o
840 1 2 -6 -4 40.34 36.52 3.23 o
841 2 -1 6 3 18.59 16.22 1.80 o
842 2 -1 6 2 55.75 69.55 3.15 o
843 2 1 6 3 10.15 11.78 1.86 o
844 2 1 6 4 39.07 48.92 4.36 o
844 1 4 -6 -4 39.07 48.92 4.36 o
845 2 1 6 5 1.52 0.95 0.60 <
846 2 1 6 6 1.23 1.28 0.33 o
847 2 -1 7 6 1.76 1.30 0.93 <
848 2 -1 7 5 2.12 1.76 0.97 <
849 2 -1 7 4 22.69 24.82 2.62 o
849 1 2 -7 -4 22.69 24.82 2.62 o
850 2 -1 7 3 4.61 3.76 0.93 o
851 2 -1 7 2 1.25 0.18 0.21 <
852 2 1 7 4 19.47 8.55 2.34 o
852 1 4 -7 -4 19.47 8.55 2.34 o
853 2 1 7 5 1.90 1.13 0.64 <
854 2 -1 8 5 5.32 3.40 1.06 o
855 2 -1 8 4 15.32 13.88 2.08 o
855 1 2 -8 -4 15.32 13.88 2.08 o
856 2 -1 8 3 7.14 7.36 1.21 o
857 2 1 8 4 9.19 4.98 1.59 o
857 1 4 -8 -4 9.19 4.98 1.59 o
858 2 -1 9 4 4.50 3.26 1.09 <
858 1 2 -9 -4 4.50 3.26 1.09 <
859 2 -1 9 3 13.84 14.67 1.87 o
860 2 2 -8 -6 0.94 0.76 0.58 <
861 2 2 -8 -5 1.91 3.05 0.71 o
862 2 2 -7 -6 3.72 5.05 1.38 o
863 2 2 -7 -5 5.51 5.26 1.03 o
864 2 2 -7 -4 24.74 14.96 1.33 o
864 1 -1 7 4 24.74 14.96 1.33 o
865 2 2 -6 -7 2.33 0.97 0.52 <
866 2 2 -6 -6 2.51 1.94 0.73 <
867 2 2 -6 -5 9.53 9.85 1.50 o
868 2 2 -6 -4 38.74 35.74 2.35 o
868 1 -1 6 4 38.74 35.74 2.35 o
869 2 -2 -6 -4 11.83 5.10 1.16 o
869 1 -5 6 4 11.83 5.10 1.16 o
870 2 -2 -6 -5 3.06 2.78 1.04 <
871 2 2 -5 -8 1.67 0.83 0.57 <
872 2 2 -5 -7 2.48 0.95 0.77 <
873 2 2 -5 -6 11.48 10.54 1.76 o
874 2 2 -5 -5 23.92 26.06 2.54 o
875 2 2 -5 -4 43.16 35.42 2.54 o
875 1 -1 5 4 43.16 35.42 2.54 o
876 2 2 -5 -3 52.24 56.08 2.43 o
877 2 -2 -5 -3 23.77 30.10 2.62 o
878 2 -2 -5 -4 9.50 16.21 2.27 o
878 1 -5 5 4 9.50 16.21 2.27 o
879 2 -2 -5 -5 3.78 2.31 1.07 <
880 2 2 -4 -6 13.43 14.51 2.27 o
881 2 2 -4 -5 0.32 0.48 0.27 <
882 2 2 -4 -4 117.65 113.73 4.63 o
882 1 -1 4 4 117.65 113.73 4.63 o
883 2 2 -4 -3 45.23 46.72 2.30 o
884 2 2 -4 -2 2.69 2.75 0.40 o
885 2 -2 -4 -3 0.24 0.06 0.30 <
886 2 -2 -4 -4 32.66 23.52 2.85 o
886 1 -5 4 4 32.66 23.52 2.85 o
887 2 -2 -4 -5 7.88 7.83 1.72 o
888 2 2 -3 -4 48.97 31.89 2.55 o
888 1 -1 3 4 48.97 31.89 2.55 o
889 2 2 -3 -3 99.50 103.84 3.41 o
890 2 2 -3 -2 214.50 210.51 3.46 o
891 3 2 3 2 6.48 5.05 1.03 o
891 2 -2 -3 -2 6.48 5.05 1.03 o
892 2 -2 -3 -3 25.32 32.51 2.96 o
893 2 -2 -3 -4 9.89 10.32 1.90 o
893 1 -5 3 4 9.89 10.32 1.90 o
894 2 -2 -3 -5 3.94 3.32 1.20 <
895 2 -2 -3 -6 1.86 1.08 0.82 <
896 2 2 -2 1 73.54 65.78 2.73 o
897 2 -2 -2 -1 73.54 71.22 2.94 o
898 3 2 2 2 114.38 104.06 4.71 o
898 2 -2 -2 -2 114.38 104.06 4.71 o
899 3 -2 2 -2 114.38 108.56 4.57 o
899 2 2 -2 2 114.38 108.56 4.57 o
900 2 -2 -2 -3 19.50 20.37 2.39 o
901 2 2 -2 3 19.50 18.32 2.12 o
902 2 -2 -2 -4 27.19 23.40 2.97 o
902 1 -5 2 4 27.19 23.40 2.97 o
903 2 -2 -2 -5 4.99 4.50 1.24 o
904 2 -2 -2 -6 0.63 0.19 0.67 <
905 2 2 -1 1 106.66 95.04 3.57 o
906 2 -2 -1 -1 106.66 100.96 3.87 o
907 3 2 1 2 21.95 18.28 2.03 o
907 2 -2 -1 -2 21.95 18.28 2.03 o
908 3 -2 1 -2 21.95 17.20 1.75 o
908 2 2 -1 2 21.95 17.20 1.75 o
909 2 -2 -1 -3 19.28 16.48 2.19 o
910 2 2 -1 3 19.28 15.22 1.96 o
911 2 2 -1 4 18.30 16.82 2.41 o
911 1 5 1 -4 18.30 16.82 2.41 o
912 2 -2 -1 -4 18.30 19.30 2.76 o
912 1 -5 1 4 18.30 19.30 2.76 o
913 2 2 -1 5 3.66 1.86 0.89 <
914 2 -2 -1 -5 3.66 1.71 1.08 <
915 2 -2 -1 -6 4.49 4.14 1.57 <
916 2 2 0 1 6.73 5.33 0.96 o
917 2 -2 0 -1 6.73 4.94 0.88 o
918 3 2 0 2 136.09 104.12 4.66 o
918 2 -2 0 -2 136.09 104.12 4.66 o
919 3 -2 0 -2 136.09 111.28 4.79 o
919 2 2 0 2 136.09 111.28 4.79 o
920 2 -2 0 -3 1.64 1.85 0.83 <
921 2 2 0 3 1.64 1.74 0.63 <
922 2 -2 0 -4 15.85 2.04 0.87 <
922 1 -5 0 4 15.85 2.04 0.87 <
923 2 2 0 4 15.85 1.88 0.81 <
923 1 5 0 -4 15.85 1.88 0.81 <
924 2 2 0 5 8.11 4.97 1.36 o
925 2 -2 0 -5 8.11 5.43 1.47 o
926 2 -2 0 -6 0.52 0.34 0.54 <
927 2 2 0 6 0.52 -0.22 0.52 <
928 2 -2 1 -1 109.75 100.79 3.70 o
929 2 2 1 1 109.75 100.06 4.11 o
930 3 2 -1 2 21.94 17.87 1.87 o
930 2 -2 1 -2 21.94 17.87 1.87 o
931 3 -2 -1 -2 21.94 16.98 1.99 o
931 2 2 1 2 21.94 16.98 1.99 o
932 2 2 1 3 19.94 18.68 2.35 o
933 2 -2 1 -3 19.94 18.44 2.28 o
934 2 2 1 4 18.22 17.39 2.47 o
934 1 5 -1 -4 18.22 17.39 2.47 o
935 2 -2 1 -4 18.22 16.85 2.43 o
935 1 -5 -1 4 18.22 16.85 2.43 o
936 2 2 1 5 3.51 0.70 0.29 <
937 2 -2 1 -5 3.51 0.33 0.53 <
938 2 2 1 6 4.28 4.57 1.62 <
939 2 -2 1 -6 4.28 3.51 1.42 <
940 2 2 2 1 71.47 66.59 3.31 o
941 2 -2 2 -1 71.47 66.66 2.94 o
942 3 -2 -2 -2 114.37 115.69 5.42 o
942 2 2 2 2 114.37 115.69 5.42 o
943 3 2 -2 2 114.37 108.38 4.68 o
943 2 -2 2 -2 114.37 108.38 4.68 o
944 2 -2 2 -3 19.00 18.48 2.22 o
945 2 2 2 3 19.00 17.16 2.44 o
946 2 2 2 4 27.79 23.53 3.20 o
946 1 5 -2 -4 27.79 23.53 3.20 o
947 2 -2 2 -4 27.79 18.81 2.70 o
947 1 -5 -2 4 27.79 18.81 2.70 o
948 2 2 2 5 4.81 5.67 1.74 o
949 2 2 2 6 0.65 -0.08 0.59 <
950 2 -2 3 -1 105.09 111.59 3.68 o
951 3 -2 -3 -2 6.48 4.75 1.22 o
951 2 2 3 2 6.48 4.75 1.22 o
952 3 2 -3 2 6.48 4.22 0.90 o
952 2 -2 3 -2 6.48 4.22 0.90 o
953 2 2 3 3 25.52 30.19 3.22 o
954 2 2 3 4 9.58 9.26 2.02 o
954 1 5 -3 -4 9.58 9.26 2.02 o
955 2 2 3 5 3.91 2.90 1.25 <
956 2 2 3 6 1.92 3.20 1.39 <
957 2 -2 4 3 44.45 43.69 2.52 o
958 2 -2 4 2 2.34 2.34 0.43 o
959 3 -2 -4 -2 182.32 195.88 7.30 o
959 2 2 4 2 182.32 195.88 7.30 o
960 2 2 4 3 0.26 0.00 0.42 <
961 2 2 4 4 32.27 24.68 3.42 o
961 1 5 -4 -4 32.27 24.68 3.42 o
962 2 2 4 5 8.02 9.64 2.49 o
963 2 -2 5 5 24.35 24.87 2.66 o
964 2 -2 5 4 42.23 34.59 2.71 o
964 1 1 -5 -4 42.23 34.59 2.71 o
965 2 -2 5 3 52.47 52.17 2.70 o
966 2 -2 5 2 58.08 62.92 2.32 o
967 2 2 5 3 23.27 28.82 3.30 o
968 2 2 5 4 9.75 11.27 2.38 o
968 1 5 -5 -4 9.75 11.27 2.38 o
969 2 2 5 5 3.88 2.26 1.23 <
970 2 -2 6 6 2.56 1.44 0.45 o
971 2 -2 6 5 9.27 8.75 1.62 o
972 2 -2 6 4 38.15 32.02 2.57 o
972 1 1 -6 -4 38.15 32.02 2.57 o
973 2 -2 6 3 10.90 11.49 1.26 o
974 2 -2 6 2 17.60 21.28 1.51 o
975 2 2 6 4 11.78 3.97 1.34 <
975 1 5 -6 -4 11.78 3.97 1.34 <
976 2 2 6 5 3.01 2.76 1.35 <
977 2 -2 7 6 3.70 2.41 0.96 <
978 2 -2 7 5 5.29 4.67 1.17 o
979 2 -2 7 4 24.75 20.65 2.07 o
979 1 1 -7 -4 24.75 20.65 2.07 o
980 2 -2 7 3 14.82 14.37 1.48 o
981 2 -2 7 2 8.48 12.93 1.24 o
982 2 2 7 4 5.66 3.51 1.14 o
982 1 5 -7 -4 5.66 3.51 1.14 o
983 2 -2 8 6 0.88 1.54 1.02 <
984 2 -2 8 5 2.01 1.52 0.67 <
985 2 -2 8 4 15.48 15.91 1.81 o
985 1 1 -8 -4 15.48 15.91 1.81 o
986 2 -2 8 3 6.44 8.47 1.23 o
987 2 -2 8 2 0.56 0.40 0.23 <
988 2 -2 9 4 5.08 4.60 1.15 o
988 1 1 -9 -4 5.08 4.60 1.15 o
989 2 -2 9 3 6.58 6.28 1.05 o
990 2 3 -8 -5 3.51 3.50 0.68 o
991 2 3 -7 -6 1.69 0.56 0.17 o
992 2 3 -7 -5 3.64 3.46 0.76 o
993 2 3 -7 -4 75.54 48.80 2.12 o
993 1 0 7 4 75.54 48.80 2.12 o
994 2 3 -6 -7 0.34 1.17 0.98 <
995 2 3 -6 -6 3.08 1.80 0.78 <
996 2 3 -6 -5 6.81 6.18 1.03 o
997 2 3 -6 -4 8.67 5.05 0.82 o
997 1 0 6 4 8.67 5.05 0.82 o
998 2 3 -5 -7 1.17 0.26 0.49 <
999 2 3 -5 -6 2.24 1.83 0.79 <
1000 2 3 -5 -5 11.71 8.57 1.32 o
1001 2 3 -5 -4 13.19 11.76 1.23 o
1001 1 0 5 4 13.19 11.76 1.23 o
1002 2 3 -5 -3 0.65 0.62 0.26 <
1003 2 -3 -5 -4 3.41 2.65 1.08 <
1003 1 -6 5 4 3.41 2.65 1.08 <
1004 2 3 -4 -4 4.21 2.87 0.62 o
1004 1 0 4 4 4.21 2.87 0.62 o
1005 2 3 -4 -3 19.49 18.81 1.23 o
1006 2 -3 -4 -3 13.35 27.28 2.85 o
1007 2 -3 -4 -4 1.53 0.89 0.65 <
1007 1 -6 4 4 1.53 0.89 0.65 <
1008 2 3 -3 1 2.78 1.67 0.51 o
1009 2 -3 -3 -2 36.06 39.67 2.95 o
1010 2 3 -3 2 36.06 28.61 2.60 o
1011 2 -3 -3 -3 2.47 2.57 0.90 <
1012 2 -3 -3 -4 9.44 12.70 2.15 o
1012 1 -6 3 4 9.44 12.70 2.15 o
1013 2 -3 -3 -5 1.24 2.80 1.26 <
1014 2 3 -2 1 0.19 0.24 0.26 <
1015 2 -3 -2 -2 12.62 16.37 1.97 o
1016 2 3 -2 2 12.62 10.87 1.53 o
1017 2 -3 -2 -3 32.51 66.52 4.56 o
1018 2 3 -2 3 32.51 52.50 3.93 o
1019 2 3 -2 4 1.22 1.06 0.73 <
1019 1 6 2 -4 1.22 1.06 0.73 <
1020 2 -3 -2 -4 1.22 0.56 0.72 <
1020 1 -6 2 4 1.22 0.56 0.72 <
1021 2 3 -2 5 2.82 2.56 1.33 <
1022 2 -3 -2 -5 2.82 2.29 1.19 <
1023 2 -3 -1 -1 87.54 89.99 3.69 o
1024 2 3 -1 1 87.54 77.21 3.96 o
1025 2 -3 -1 -2 36.36 48.04 3.40 o
1026 2 3 -1 2 36.36 40.86 3.11 o
1027 2 3 -1 3 8.01 12.00 1.93 o
1028 2 -3 -1 -3 8.01 14.40 2.19 o
1029 2 -3 -1 -4 8.61 9.27 1.89 o
1029 1 -6 1 4 8.61 9.27 1.89 o
1030 2 3 -1 4 8.61 7.57 1.75 o
1030 1 6 1 -4 8.61 7.57 1.75 o
1031 2 -3 -1 -5 2.65 2.85 1.15 <
1032 2 3 -1 5 2.65 2.61 1.26 <
1033 2 3 0 1 19.27 23.17 2.23 o
1034 2 -3 0 -1 19.27 26.32 2.17 o
1035 2 -3 0 -2 25.60 31.26 2.80 o
1036 2 3 0 2 25.60 28.48 2.80 o
1037 2 -3 0 -3 1.59 4.21 1.15 o
1038 2 3 0 3 1.59 5.39 1.37 o
1039 2 3 0 4 0.78 0.29 0.38 <
1039 1 6 0 -4 0.78 0.29 0.38 <
1040 2 -3 0 -4 0.78 0.48 0.64 <
1040 1 -6 0 4 0.78 0.48 0.64 <
1041 2 3 0 5 5.32 5.84 1.55 o
1042 2 -3 0 -5 5.32 6.22 1.82 o
1043 2 3 1 1 86.56 84.82 4.32 o
1044 2 -3 1 -1 86.56 87.88 3.96 o
1045 2 -3 1 -2 35.09 44.88 3.35 o
1046 2 3 1 2 35.09 42.19 3.59 o
1047 2 -3 1 -3 8.17 11.89 2.02 o
1048 2 3 1 3 8.17 13.35 2.17 o
1049 2 -3 1 -4 8.67 11.09 2.27 o
1049 1 -6 -1 4 8.67 11.09 2.27 o
1050 2 3 1 4 8.67 10.44 2.15 o
1050 1 6 -1 -4 8.67 10.44 2.15 o
1051 2 -3 1 -5 2.68 2.18 1.01 <
1052 2 3 1 5 2.68 2.06 1.19 <
1053 2 -3 2 -1 0.14 -0.15 0.19 <
1054 2 -3 2 -2 12.88 13.60 1.81 o
1055 2 3 2 2 12.88 14.70 2.17 o
1056 2 3 2 3 32.24 62.88 4.97 o
1057 2 -3 2 -3 32.24 60.37 4.38 o
1058 2 -3 2 -4 1.18 0.43 0.21 <
1058 1 -6 -2 4 1.18 0.43 0.21 <
1059 2 3 2 4 1.18 0.87 0.77 <
1059 1 6 -2 -4 1.18 0.87 0.77 <
1060 2 -3 2 -5 2.71 2.39 1.38 <
1061 2 3 2 5 2.71 1.99 1.13 <
1062 2 -3 2 -6 1.00 2.20 1.39 <
1063 2 -3 3 -1 2.49 1.90 0.60 o
1064 2 3 3 2 35.89 36.15 3.37 o
1065 2 -3 3 -2 35.89 32.36 2.86 o
1066 2 -3 3 -3 2.54 1.60 0.77 <
1067 2 3 3 3 2.54 1.70 0.78 <
1068 2 3 3 4 9.36 8.57 1.99 o
1068 1 6 -3 -4 9.36 8.57 1.99 o
1069 2 -3 3 -4 9.36 9.29 2.15 o
1069 1 -6 -3 4 9.36 9.29 2.15 o
1070 2 3 3 5 1.23 0.62 0.64 <
1071 2 -3 3 -5 1.23 1.28 0.62 <
1072 2 -3 4 -1 6.05 3.81 0.83 o
1073 2 -3 4 -2 0.68 0.96 0.63 <
1074 2 -3 4 -3 13.36 29.40 3.62 o
1075 2 3 4 3 13.36 27.14 3.47 o
1076 2 3 4 4 1.52 0.00 0.67 <
1076 1 6 -4 -4 1.52 0.00 0.67 <
1077 2 -3 5 -1 12.76 11.63 1.46 o
1078 2 -3 5 -2 15.56 10.22 1.57 o
1079 2 3 5 3 3.73 3.54 1.34 <
1080 2 3 5 4 3.45 0.38 0.40 <
1080 1 6 -5 -4 3.45 0.38 0.40 <
1081 2 -3 7 3 1.71 0.65 0.32 <
1082 2 -3 8 5 3.48 1.78 0.65 <
1083 2 -3 8 4 1.22 1.04 0.60 <
1083 1 0 -8 -4 1.22 1.04 0.60 <
1084 2 -3 8 3 19.22 17.92 1.40 o
1085 2 -3 8 2 5.29 5.94 0.67 o
1086 2 -3 9 4 8.29 3.12 0.74 o
1086 1 0 -9 -4 8.29 3.12 0.74 o
1087 2 -3 9 3 0.32 0.12 0.18 <
1088 2 -3 9 2 11.16 12.59 1.10 o
1089 2 4 -7 -6 0.80 1.09 0.45 <
1090 2 4 -7 -5 0.56 0.24 0.16 <
1091 3 6 6 -5 1.57 0.75 0.52 <
1091 2 4 -6 -7 1.57 0.75 0.52 <
1092 2 4 -6 -6 0.19 0.32 0.52 <
1093 2 4 -6 -5 8.74 11.47 1.28 o
1094 2 4 -6 -4 42.13 9.82 0.99 o
1094 1 1 6 4 42.13 9.82 0.99 o
1095 2 4 -5 -5 2.21 1.48 0.52 <
1096 2 4 -5 -4 12.38 4.91 0.73 o
1096 1 1 5 4 12.38 4.91 0.73 o
1097 2 4 -4 -1 1.32 0.91 0.26 o
1098 2 4 -4 1 8.66 7.67 1.25 o
1099 2 4 -3 -1 17.87 21.89 1.49 o
1100 2 4 -3 1 1.56 0.96 0.42 <
1101 2 4 -3 2 7.50 4.90 1.10 o
1102 2 4 -3 3 4.97 3.08 1.06 <
1103 2 -4 -3 -3 4.97 6.88 1.43 o
1104 2 -4 -3 -4 1.30 0.86 0.71 <
1104 1 -7 3 4 1.30 0.86 0.71 <
1105 2 4 -3 4 1.30 1.09 0.66 <
1105 1 7 3 -4 1.30 1.09 0.66 <
1106 2 4 -2 1 16.68 14.42 1.79 o
1107 2 -4 -2 -2 2.04 3.07 0.85 o
1108 2 4 -2 2 2.04 1.08 0.57 <
1109 2 -4 -2 -3 2.84 4.34 1.25 o
1110 2 4 -2 3 2.84 3.31 1.19 <
1111 2 4 -2 4 1.69 1.95 0.85 <
1111 1 7 2 -4 1.69 1.95 0.85 <
1112 2 -4 -2 -4 1.69 2.44 1.05 <
1112 1 -7 2 4 1.69 2.44 1.05 <
1113 2 4 -2 5 0.04 0.94 0.74 <
1114 2 4 -1 1 5.59 3.44 0.90 o
1115 2 -4 -1 -2 5.63 8.56 1.53 o
1116 2 4 -1 2 5.63 5.99 1.36 o
1117 2 -4 -1 -3 5.19 5.65 1.45 o
1118 2 4 -1 3 5.19 2.81 0.91 o
1119 2 -4 -1 -4 2.20 1.61 0.82 <
1119 1 -7 1 4 2.20 1.61 0.82 <
1120 2 4 -1 4 2.20 1.62 0.93 <
1120 1 7 1 -4 2.20 1.62 0.93 <
1121 2 4 -1 5 1.61 3.69 1.59 <
1122 2 4 0 1 49.54 56.64 3.89 o
1123 2 -4 0 -1 49.54 63.21 3.29 o
1124 2 4 0 2 0.29 0.49 0.42 <
1125 2 -4 0 -2 0.29 -0.12 0.32 <
1126 2 -4 0 -3 3.87 4.64 1.14 o
1127 2 4 0 3 3.87 3.97 1.37 <
1128 2 -4 0 -4 8.15 15.68 2.71 o
1128 1 -7 0 4 8.15 15.68 2.71 o
1129 2 4 0 4 8.15 11.99 2.39 o
1129 1 7 0 -4 8.15 11.99 2.39 o
1130 2 -4 0 -5 0.25 1.34 1.01 <
1131 2 -4 1 -1 5.61 6.08 1.05 o
1132 2 4 1 1 5.61 3.35 0.95 o
1133 2 -4 1 -2 5.46 7.19 1.33 o
1134 2 4 1 2 5.46 5.60 1.45 o
1135 2 4 1 3 5.36 5.78 1.65 o
1136 2 -4 1 -3 5.36 7.42 1.67 o
1137 2 -4 1 -4 2.20 0.74 0.52 <
1137 1 -7 -1 4 2.20 0.74 0.52 <
1138 2 4 1 4 2.20 -1.39 0.84 <
1138 1 7 -1 -4 2.20 -1.39 0.84 <
1139 2 -4 1 -5 1.62 2.79 1.45 <
1140 2 -4 2 -1 16.34 17.70 1.76 o
1141 2 -4 2 -2 2.05 1.79 0.77 <
1142 2 4 2 2 2.05 0.87 0.56 <
1143 2 -4 2 -3 2.92 1.80 0.80 <
1144 2 4 2 3 2.92 1.66 0.91 <
1145 2 4 2 4 1.80 3.30 1.44 <
1145 1 7 -2 -4 1.80 3.30 1.44 <
1146 2 -4 2 -4 1.80 2.56 1.44 <
1146 1 -7 -2 4 1.80 2.56 1.44 <
1147 2 -4 2 -5 0.04 1.58 1.35 <
1148 2 -4 3 -1 1.50 1.15 0.50 <
1149 2 -4 3 -2 7.64 5.62 1.34 o
1150 2 4 3 3 5.05 3.90 1.33 <
1151 2 -4 3 -3 5.05 4.23 1.29 o
1152 2 4 3 4 1.29 3.37 1.42 <
1152 1 7 -3 -4 1.29 3.37 1.42 <
1153 2 -4 3 -4 1.29 0.15 0.56 <
1153 1 -7 -3 4 1.29 0.15 0.56 <
1154 2 -4 4 -1 8.98 8.94 1.34 o
1155 2 -4 4 -2 2.47 1.91 0.71 <
1156 2 -4 4 -3 2.48 1.09 0.74 <
1157 2 4 4 3 2.48 1.33 1.15 <
1158 2 -4 4 -4 0.70 1.05 0.78 <
1158 1 -7 -4 4 0.70 1.05 0.78 <
1159 2 -4 5 -1 2.53 1.71 0.56 o
1160 2 -4 5 -2 5.91 6.69 1.26 o
1161 2 -4 5 -3 2.75 2.84 1.10 <
1162 2 -4 5 -4 0.25 0.28 0.54 <
1162 1 -7 -5 4 0.25 0.28 0.54 <
1163 2 -4 6 -1 12.63 12.88 1.51 o
1164 2 -4 6 -2 0.11 -0.10 0.31 <
1165 2 -4 6 -3 0.93 0.36 0.50 <
1166 2 -4 7 -1 0.44 0.11 0.14 <
1167 2 -4 7 -2 0.59 -0.03 0.41 <
1168 2 -4 8 -1 4.82 2.21 0.59 o
1169 3 5 7 -6 2.44 0.55 0.18 o
1169 2 5 -7 -6 2.44 0.55 0.18 o
1170 2 5 -7 -5 1.11 1.07 0.34 o
1171 2 5 -6 -5 1.18 0.56 0.21 <
1172 2 5 -4 -2 2.64 1.97 0.49 o
1173 2 5 -4 -1 16.50 20.95 1.65 o
1174 2 5 -4 1 5.33 2.07 0.65 o
1175 2 5 -4 2 4.51 2.58 0.82 o
1176 2 5 -4 3 0.14 0.00 0.41 <
1177 2 5 -3 -1 0.02 -0.29 0.26 <
1178 2 5 -3 1 3.90 3.47 0.88 o
1179 2 5 -3 2 1.35 0.67 0.43 <
1180 2 5 -3 3 0.62 0.41 0.49 <
1181 2 5 -2 1 4.17 3.67 1.11 o
1182 2 5 -2 2 3.59 3.32 1.14 <
1183 2 5 -2 3 0.51 -1.12 0.67 <
1184 2 -5 -2 -3 0.51 0.48 0.33 <
1185 2 5 -1 1 4.52 3.97 1.18 o
1186 2 -5 -1 -2 1.85 1.50 0.63 <
1187 2 5 -1 2 1.85 0.38 0.36 <
1188 2 -5 -1 -3 1.48 1.45 0.88 <
1189 2 5 -1 3 1.48 1.45 0.94 <
1190 2 5 0 1 0.45 -0.22 0.43 <
1191 2 -5 0 -2 1.12 0.48 0.26 <
1192 2 5 0 2 1.12 0.94 0.75 <
1193 2 -5 0 -3 0.12 0.18 0.46 <
1194 2 5 0 3 0.12 -0.14 0.39 <
1195 2 -5 0 -4 1.53 0.38 0.64 <
1195 1 -8 0 4 1.53 0.38 0.64 <
1196 2 5 0 4 1.53 0.25 0.42 <
1196 1 8 0 -4 1.53 0.25 0.42 <
1197 2 -5 1 -1 4.51 8.15 1.16 o
1198 2 -5 1 -2 1.80 1.63 0.78 <
1199 2 5 1 2 1.80 1.23 0.76 <
1200 2 5 1 3 1.53 1.28 0.84 <
1201 2 -5 1 -3 1.53 1.36 0.96 <
1202 2 -5 2 -1 4.05 6.63 1.07 o
1203 2 -5 2 -2 3.68 5.21 1.29 o
1204 2 5 2 2 3.68 3.67 1.32 <
1205 2 5 2 3 0.52 -0.41 0.67 <
1206 2 -5 2 -3 0.52 -0.22 0.55 <
1207 2 -5 3 -1 3.88 8.16 1.25 o
1208 2 -5 3 -2 1.36 0.65 0.49 <
1209 2 -5 3 -3 0.64 1.42 0.84 <
1210 2 -5 4 -1 5.38 5.90 1.01 o
1211 2 -5 4 -2 4.46 5.37 1.31 o
1212 2 -5 4 -3 0.13 1.33 0.77 <
1213 2 -5 5 -1 3.97 4.29 0.78 o
1214 2 -5 5 -2 0.56 0.39 0.53 <
1215 2 -5 6 -1 0.28 0.30 0.16 <
1216 2 -5 6 -2 0.85 1.08 0.67 <
1217 2 -5 7 -1 1.39 0.75 0.32 <
1218 2 6 -5 -3 0.10 0.13 0.14 <
1219 2 6 -5 -2 1.78 2.46 0.55 o
1220 2 6 -5 -1 2.27 1.74 0.55 o
1221 2 6 -4 -2 1.81 1.71 0.56 o
1222 2 6 -4 -1 0.24 0.55 0.29 <
1223 2 6 -4 1 0.04 0.00 0.39 <
1224 2 6 -3 -1 3.55 3.58 0.91 o
1225 2 6 -3 1 1.52 2.55 1.01 <
1226 2 6 -3 2 0.85 1.20 0.86 <
1227 2 6 -2 1 0.00 -0.04 0.22 <
1228 2 6 -2 2 0.35 0.49 0.56 <
1229 2 6 -1 1 0.73 0.97 0.73 <
1230 2 6 -1 2 0.53 -0.56 0.64 <
1231 2 6 0 1 0.62 0.34 0.76 <
1232 2 6 0 2 0.97 0.00 0.30 <
1233 2 -6 1 -2 0.53 2.46 1.24 <
1234 2 6 1 2 0.53 1.15 0.82 <
1235 2 -6 2 -2 0.35 0.61 0.36 <
1236 2 -6 3 -2 0.85 1.01 0.40 <
1237 2 -6 4 -1 0.05 0.18 0.15 <
1238 2 7 -5 -3 0.12 0.19 0.29 <
1239 2 7 -4 -2 0.70 1.40 0.63 <
1240 2 7 -4 -1 0.02 0.48 0.50 <
1241 2 7 -3 -1 0.27 1.72 0.85 <
1242 4 3 8 -4 1.14 0.07 0.09 <
1242 3 0 -8 4 1.14 0.07 0.09 <
1243 4 3 7 -4 65.22 30.09 1.09 o
1243 3 0 -7 4 65.22 30.09 1.09 o
1244 4 3 6 -4 7.24 3.81 0.29 o
1244 3 0 -6 4 7.24 3.81 0.29 o
1245 3 0 -5 3 0.09 -0.01 0.11 <
1246 4 3 5 -4 11.47 5.20 0.43 o
1246 3 0 -5 4 11.47 5.20 0.43 o
1247 3 0 -4 3 71.42 58.51 1.92 o
1248 4 3 4 -4 3.92 1.01 0.23 o
1248 3 0 -4 4 3.92 1.01 0.23 o
1249 3 0 -3 3 1.55 1.07 0.23 o
1250 3 0 1 -2 75.94 81.24 2.58 o
1251 3 0 1 -3 31.28 34.26 1.60 o
1252 4 -3 -1 4 188.03 165.01 5.49 o
1252 3 0 1 -4 188.03 165.01 5.49 o
1253 3 0 2 -3 128.32 174.30 5.14 o
1254 4 -3 -2 4 3.80 4.57 0.56 o
1254 3 0 2 -4 3.80 4.57 0.56 o
1255 3 0 2 -5 20.98 30.22 1.81 o
1256 3 0 2 -6 14.15 22.02 1.67 o
1257 3 0 3 -3 1.54 1.29 0.26 o
1258 4 -3 -3 4 2.88 2.03 0.43 o
1258 3 0 3 -4 2.88 2.03 0.43 o
1259 3 0 3 -5 9.68 12.65 1.07 o
1260 3 0 3 -6 0.02 -0.22 0.43 <
1261 3 0 3 -7 6.61 10.28 1.23 o
1262 3 0 4 -5 0.28 0.52 0.31 <
1263 3 0 4 -6 14.98 26.17 1.63 o
1264 3 0 4 -7 0.54 0.92 0.57 <
1265 3 0 5 -6 1.66 4.75 0.84 o
1266 3 0 5 -7 1.14 3.98 0.88 o
1267 3 -1 -7 3 4.05 2.48 0.30 o
1268 4 4 7 -4 16.84 5.03 0.65 o
1268 3 1 -7 4 16.84 5.03 0.65 o
1269 3 1 -7 5 1.76 0.56 0.24 <
1270 4 4 6 -4 35.56 30.13 1.55 o
1270 3 1 -6 4 35.56 30.13 1.55 o
1271 3 1 -6 5 1.45 0.92 0.32 <
1272 3 1 -6 6 1.10 0.83 0.26 o
1273 3 -1 -5 2 27.15 27.43 1.23 o
1274 3 1 -5 3 29.71 28.62 1.47 o
1275 4 4 5 -4 11.23 4.67 0.67 o
1275 3 1 -5 4 11.23 4.67 0.67 o
1276 3 1 -5 5 11.28 11.52 0.91 o
1277 3 1 -5 6 2.44 1.92 0.39 o
1278 3 -1 -4 1 19.62 18.70 1.05 o
1279 3 1 -4 3 22.26 30.36 1.63 o
1280 4 4 4 -4 7.17 9.83 0.91 o
1280 3 1 -4 4 7.17 9.83 0.91 o
1281 3 1 -4 5 2.60 2.35 0.52 o
1282 3 -1 -3 1 66.73 75.54 2.51 o
1283 4 -1 3 0 132.43 170.20 5.25 o
1283 3 -1 -3 0 132.43 170.20 5.25 o
1284 3 1 -3 2 136.86 158.96 4.91 o
1285 3 1 -3 3 38.39 46.02 2.13 o
1286 4 4 3 -4 12.03 10.30 1.05 o
1286 3 1 -3 4 12.03 10.30 1.05 o
1287 3 1 -3 5 10.48 11.63 1.07 o
1288 3 -1 -2 1 7.53 7.90 0.49 o
1289 4 -1 2 0 19.62 17.26 1.00 o
1289 3 -1 -2 0 19.62 17.26 1.00 o
1290 3 -1 -2 -1 965.28 1137.35 29.48 o
1290 2 1 2 1 965.28 1137.35 29.48 o
1291 3 -1 -2 -2 117.31 137.48 5.02 o
1292 3 1 -2 2 117.31 135.45 4.41 o
1293 3 1 -2 3 6.20 6.42 0.73 o
1294 4 4 2 -4 24.24 28.81 1.79 o
1294 3 1 -2 4 24.24 28.81 1.79 o
1295 3 1 -2 5 0.13 -0.23 0.41 <
1296 4 -1 1 0 594.48 676.96 17.44 o
1296 3 -1 -1 0 594.48 676.96 17.44 o
1297 3 1 -1 1 408.74 433.72 11.55 o
1297 2 -1 1 -1 408.74 433.72 11.55 o
1298 3 -1 -1 -1 408.74 432.74 11.83 o
1298 2 1 1 1 408.74 432.74 11.83 o
1299 3 -1 -1 -2 39.44 34.23 1.88 o
1300 3 1 -1 2 39.44 36.15 1.77 o
1301 3 -1 -1 -3 84.01 88.26 3.77 o
1302 3 1 -1 3 84.01 88.33 3.48 o
1303 4 4 1 -4 61.55 29.32 1.99 o
1303 3 1 -1 4 61.55 29.32 1.99 o
1304 4 -4 1 4 61.55 32.50 2.31 o
1304 3 -1 -1 -4 61.55 32.50 2.31 o
1305 4 1 0 0 200.57 142.23 4.11 o
1305 3 1 0 0 200.57 142.23 4.11 o
1306 4 -1 0 0 200.57 140.42 4.08 o
1306 3 -1 0 0 200.57 140.42 4.08 o
1307 3 -1 0 -1 22.92 32.51 1.48 o
1307 2 1 0 1 22.92 32.51 1.48 o
1308 3 1 0 1 22.92 21.68 1.36 o
1308 2 -1 0 -1 22.92 21.68 1.36 o
1309 3 1 0 2 2.95 3.36 0.50 o
1310 3 -1 0 -2 2.95 3.30 0.52 o
1311 3 -1 0 -3 79.18 85.35 3.56 o
1312 3 1 0 3 79.18 87.45 3.46 o
1313 4 4 0 -4 126.49 119.68 4.62 o
1313 3 1 0 4 126.49 119.68 4.62 o
1314 4 -4 0 4 126.49 122.66 4.86 o
1314 3 -1 0 -4 126.49 122.66 4.86 o
1315 3 -1 0 -5 5.13 8.24 1.14 o
1316 4 1 -1 0 594.50 678.55 17.46 o
1316 3 1 1 0 594.50 678.55 17.46 o
1317 3 1 1 1 408.81 436.36 11.78 o
1317 2 -1 -1 -1 408.81 436.36 11.78 o
1318 3 -1 1 -1 408.81 433.11 11.53 o
1318 2 1 -1 1 408.81 433.11 11.53 o
1319 3 1 1 2 37.08 30.50 1.75 o
1320 3 -1 1 -2 37.08 34.73 1.70 o
1321 3 -1 1 -3 84.31 95.40 3.65 o
1322 3 1 1 3 84.31 92.18 3.69 o
1323 4 -4 -1 4 62.37 32.66 2.24 o
1323 3 -1 1 -4 62.37 32.66 2.24 o
1324 3 -1 1 -5 9.91 17.83 1.68 o
1325 3 -1 1 -6 2.30 3.60 0.85 o
1326 3 -1 1 -7 0.41 0.57 0.58 <
1327 3 1 2 -1 8.55 8.57 0.53 o
1328 4 1 -2 0 19.66 17.29 0.97 o
1328 3 1 2 0 19.66 17.29 0.97 o
1329 3 1 2 1 965.31 1143.72 29.33 o
1329 2 -1 -2 -1 965.31 1143.72 29.33 o
1330 3 -1 2 -2 119.65 137.01 4.38 o
1331 3 -1 2 -3 6.66 7.41 0.80 o
1332 4 -4 -2 4 24.82 31.80 2.00 o
1332 3 -1 2 -4 24.82 31.80 2.00 o
1333 3 -1 2 -5 0.16 0.58 0.52 <
1334 3 -1 2 -6 5.15 6.73 1.13 o
1335 3 -1 2 -7 2.94 3.27 0.96 o
1336 3 1 3 -5 7.32 8.92 0.74 o
1337 4 -2 -3 4 40.86 37.50 1.49 o
1337 3 1 3 -4 40.86 37.50 1.49 o
1338 3 -1 3 -3 39.57 47.84 2.17 o
1339 4 -4 -3 4 12.19 9.89 1.02 o
1339 3 -1 3 -4 12.19 9.89 1.02 o
1340 3 -1 3 -5 10.40 15.84 1.44 o
1341 3 -1 3 -6 7.42 11.84 1.37 o
1342 3 -1 3 -7 0.94 0.91 0.76 <
1343 3 1 4 -8 0.93 1.62 0.66 <
1344 3 1 4 -7 6.08 13.71 1.21 o
1345 3 1 4 -6 1.92 2.25 0.46 o
1346 3 1 4 -5 7.35 11.61 0.77 o
1347 3 -1 4 -5 2.66 2.45 0.60 o
1348 3 -1 4 -6 6.35 12.04 1.27 o
1349 3 -1 4 -7 0.72 1.78 0.77 <
1350 3 1 5 -7 2.09 3.88 0.66 o
1351 3 1 5 -6 10.05 22.87 1.24 o
1352 3 -1 5 -6 2.36 3.87 0.76 o
1353 3 -2 -9 3 6.10 4.28 0.46 o
1354 3 -2 -8 3 5.38 6.17 0.55 o
1355 3 -2 -8 2 0.55 0.31 0.24 <
1356 3 -2 -7 3 13.61 13.55 0.86 o
1357 3 -2 -7 2 7.78 10.64 0.87 o
1358 3 -2 -7 1 0.22 0.26 0.29 <
1359 3 -2 -6 3 10.53 11.26 0.69 o
1360 3 -2 -6 2 16.16 21.75 1.30 o
1361 3 -2 -6 1 49.06 49.71 2.49 o
1362 4 -2 6 0 37.69 42.64 2.41 o
1362 3 -2 -6 0 37.69 42.64 2.41 o
1363 4 5 6 -4 10.35 2.83 0.66 o
1363 3 2 -6 4 10.35 2.83 0.66 o
1364 3 2 -6 5 2.78 1.67 0.59 <
1365 3 -2 -5 2 52.48 61.13 2.49 o
1366 3 -2 -5 1 40.49 49.56 2.42 o
1367 4 -2 5 0 120.94 138.90 5.15 o
1367 3 -2 -5 0 120.94 138.90 5.15 o
1368 3 -2 -5 -1 53.47 63.50 3.38 o
1369 3 2 -5 3 21.65 22.30 1.58 o
1370 4 5 5 -4 8.64 10.99 1.16 o
1370 3 2 -5 4 8.64 10.99 1.16 o
1371 3 2 -5 5 3.45 3.47 0.92 o
1372 3 2 -5 6 2.27 1.44 0.54 <
1373 3 -2 -4 2 2.45 4.20 0.50 o
1374 3 -2 -4 1 236.18 278.08 8.23 o
1375 4 -2 4 0 6.01 8.22 0.94 o
1375 3 -2 -4 0 6.01 8.22 0.94 o
1376 3 -2 -4 -1 43.64 47.88 2.75 o
1377 3 -2 -4 -2 182.32 252.59 8.97 o
1377 2 2 4 2 182.32 252.59 8.97 o
1378 3 2 -4 3 0.22 -0.15 0.34 <
1379 4 5 4 -4 28.92 21.81 1.79 o
1379 3 2 -4 4 28.92 21.81 1.79 o
1380 3 2 -4 5 7.18 5.61 0.89 o
1381 3 2 -4 6 0.27 0.39 0.48 <
1382 3 -2 -3 2 195.33 241.64 6.77 o
1383 3 -2 -3 1 3.74 4.24 0.56 o
1384 4 -2 3 0 402.39 441.65 12.61 o
1384 3 -2 -3 0 402.39 441.65 12.61 o
1385 3 -2 -3 -1 96.39 116.88 4.71 o
1386 3 -2 -3 -2 6.48 6.26 1.13 o
1386 2 2 3 2 6.48 6.26 1.13 o
1387 3 2 -3 2 6.48 5.07 0.73 o
1387 2 -2 3 -2 6.48 5.07 0.73 o
1388 3 2 -3 3 23.06 29.26 2.00 o
1389 3 -2 -3 -3 23.06 32.71 2.57 o
1390 4 5 3 -4 8.99 8.41 1.05 o
1390 3 2 -3 4 8.99 8.41 1.05 o
1391 3 2 -3 5 3.59 3.99 0.80 o
1392 3 2 -3 6 1.69 2.47 0.72 o
1393 3 -2 -2 1 200.89 236.02 6.92 o
1394 4 -2 2 0 64.44 56.64 2.57 o
1394 3 -2 -2 0 64.44 56.64 2.57 o
1395 3 -2 -2 -1 66.96 65.26 3.06 o
1396 3 -2 -2 -2 114.37 115.76 4.84 o
1396 2 2 2 2 114.37 115.76 4.84 o
1397 3 2 -2 2 114.37 115.76 4.50 o
1397 2 -2 2 -2 114.37 115.76 4.50 o
1398 3 2 -2 3 17.75 19.47 1.61 o
1399 3 -2 -2 -3 17.75 17.03 1.63 o
1400 4 5 2 -4 23.99 23.87 1.89 o
1400 3 2 -2 4 23.99 23.87 1.89 o
1401 4 -5 2 4 23.99 24.13 2.24 o
1401 3 -2 -2 -4 23.99 24.13 2.24 o
1402 3 2 -2 5 4.54 4.92 0.94 o
1403 3 -2 -2 -5 4.54 5.32 1.23 o
1404 3 2 -2 6 0.58 1.25 0.71 <
1405 4 -2 1 0 67.95 57.69 2.52 o
1405 3 -2 -1 0 67.95 57.69 2.52 o
1406 3 -2 -1 -1 97.13 87.53 3.67 o
1407 3 2 -1 1 97.13 92.05 3.58 o
1408 3 -2 -1 -2 21.94 20.63 1.66 o
1408 2 2 1 2 21.94 20.63 1.66 o
1409 3 2 -1 2 21.94 21.58 1.68 o
1409 2 -2 1 -2 21.94 21.58 1.68 o
1410 3 -2 -1 -3 17.56 18.86 1.74 o
1411 3 2 -1 3 17.56 16.62 1.48 o
1412 4 5 1 -4 16.63 22.43 1.88 o
1412 3 2 -1 4 16.63 22.43 1.88 o
1413 4 -5 1 4 16.63 19.11 1.90 o
1413 3 -2 -1 -4 16.63 19.11 1.90 o
1414 3 2 -1 5 3.33 1.65 0.62 <
1415 3 -2 -1 -5 3.33 2.15 0.84 <
1416 3 2 -1 6 4.08 6.22 1.11 o
1417 3 -2 -1 -6 4.08 4.60 1.19 o
1418 4 -2 0 0 8.63 4.11 0.58 o
1418 3 -2 0 0 8.63 4.11 0.58 o
1419 4 2 0 0 8.63 4.30 0.62 o
1419 3 2 0 0 8.63 4.30 0.62 o
1420 3 -2 0 -1 6.13 4.04 0.61 o
1421 3 2 0 1 6.13 3.80 0.67 o
1422 3 -2 0 -2 136.09 126.28 4.79 o
1422 2 2 0 2 136.09 126.28 4.79 o
1423 3 2 0 2 136.09 129.00 4.87 o
1423 2 -2 0 -2 136.09 129.00 4.87 o
1424 3 -2 0 -3 1.50 2.32 0.66 o
1425 3 2 0 3 1.50 2.02 0.58 o
1426 4 -5 0 4 13.65 4.29 1.01 o
1426 3 -2 0 -4 13.65 4.29 1.01 o
1427 4 5 0 -4 13.65 3.10 0.84 o
1427 3 2 0 4 13.65 3.10 0.84 o
1428 3 -2 0 -5 7.38 6.32 1.11 o
1429 3 2 0 5 7.38 7.96 1.17 o
1430 3 -2 0 -6 0.47 0.66 0.67 <
1431 3 -2 0 -7 1.33 2.45 1.12 <
1432 3 2 1 -1 415.84 484.56 13.13 o
1433 4 2 -1 0 67.87 59.23 2.64 o
1433 3 2 1 0 67.87 59.23 2.64 o
1434 3 -2 1 -1 99.94 99.83 3.60 o
1435 3 2 1 1 99.94 86.87 3.87 o
1436 3 2 1 2 21.95 22.32 1.67 o
1436 2 -2 -1 -2 21.95 22.32 1.67 o
1437 3 -2 1 -2 21.95 21.99 1.55 o
1437 2 2 -1 2 21.95 21.99 1.55 o
1438 3 2 1 3 18.16 19.00 1.72 o
1439 3 -2 1 -3 18.16 19.99 1.66 o
1440 4 5 -1 -4 16.56 18.15 1.70 o
1440 3 2 1 4 16.56 18.15 1.70 o
1441 4 -5 -1 4 16.56 20.77 1.79 o
1441 3 -2 1 -4 16.56 20.77 1.79 o
1442 3 -2 1 -5 3.19 1.46 0.72 <
1443 3 2 1 5 3.19 2.24 0.73 o
1444 3 -2 1 -6 3.89 5.59 1.24 o
1445 3 -2 1 -7 0.85 0.95 0.75 <
1446 3 2 2 -1 200.66 235.46 6.97 o
1447 4 2 -2 0 64.49 59.41 2.72 o
1447 3 2 2 0 64.49 59.41 2.72 o
1448 3 2 2 1 65.08 63.53 2.97 o
1449 3 2 2 2 114.38 122.17 4.71 o
1449 2 -2 -2 -2 114.38 122.17 4.71 o
1450 3 -2 2 -2 114.38 106.56 4.20 o
1450 2 2 -2 2 114.38 106.56 4.20 o
1451 3 2 2 3 17.31 16.64 1.56 o
1452 3 -2 2 -3 17.31 19.56 1.51 o
1453 4 -5 -2 4 24.51 24.97 1.99 o
1453 3 -2 2 -4 24.51 24.97 1.99 o
1454 4 5 -2 -4 24.51 25.23 2.09 o
1454 3 2 2 4 24.51 25.23 2.09 o
1455 3 -2 2 -5 4.38 4.20 0.97 o
1456 3 -2 2 -6 0.59 1.03 0.78 <
1457 3 2 3 -2 195.47 243.57 6.91 o
1458 3 2 3 -1 3.74 4.43 0.55 o
1459 4 2 -3 0 402.40 441.43 12.54 o
1459 3 2 3 0 402.40 441.43 12.54 o
1460 3 2 3 1 95.70 109.91 4.40 o
1461 3 2 3 2 6.48 5.93 0.87 o
1461 2 -2 -3 -2 6.48 5.93 0.87 o
1462 3 -2 3 -3 23.24 28.95 1.91 o
1463 3 2 3 3 23.24 29.00 2.12 o
1464 4 -5 -3 4 8.71 7.56 1.06 o
1464 3 -2 3 -4 8.71 7.56 1.06 o
1465 3 -2 3 -5 3.56 3.96 0.87 o
1466 3 -2 3 -6 1.75 2.76 0.86 o
1467 3 2 4 -3 40.48 41.47 1.62 o
1468 3 2 4 -2 2.13 3.06 0.42 o
1469 3 2 4 -1 236.32 275.51 8.08 o
1470 4 2 -4 0 5.99 7.19 0.81 o
1470 3 2 4 0 5.99 7.19 0.81 o
1471 3 2 4 1 44.25 42.36 2.43 o
1472 3 -2 4 -5 7.31 9.25 1.28 o
1473 3 -2 4 -6 0.26 0.25 0.53 <
1474 3 2 5 -8 1.48 2.83 0.64 o
1475 3 2 5 -7 2.19 1.70 0.42 o
1476 3 -3 -9 3 0.29 0.43 0.37 <
1477 3 -3 -9 2 9.97 8.50 0.90 o
1478 3 -3 -9 1 11.44 7.28 0.91 o
1479 3 -3 -8 3 17.63 15.77 1.12 o
1480 3 -3 -8 2 5.05 5.33 0.79 o
1481 3 -3 -8 1 5.72 4.40 0.79 o
1482 4 -3 8 0 38.03 34.78 2.38 o
1482 3 -3 -8 0 38.03 34.78 2.38 o
1483 3 -3 -7 3 1.54 0.45 0.25 <
1484 3 -3 -7 2 9.91 6.70 0.91 o
1485 3 -3 -7 1 7.63 6.00 0.88 o
1486 4 -3 7 0 2.32 1.78 0.64 <
1486 3 -3 -7 0 2.32 1.78 0.64 <
1487 3 -3 -7 -1 23.38 28.65 2.41 o
1488 3 -3 -6 3 35.12 40.51 1.93 o
1489 3 -3 -6 2 6.85 5.95 0.76 o
1490 3 -3 -6 1 8.42 6.15 0.88 o
1491 4 -3 6 0 72.94 93.50 4.55 o
1491 3 -3 -6 0 72.94 93.50 4.55 o
1492 3 -3 -6 -1 1.22 -0.18 0.59 <
1493 3 -3 -6 -2 7.02 5.86 1.34 o
1494 4 6 6 -4 0.76 0.38 0.50 <
1494 3 3 -6 4 0.76 0.38 0.50 <
1495 3 -3 -5 2 32.38 39.90 2.11 o
1496 3 -3 -5 1 32.94 43.52 2.50 o
1497 4 -3 5 0 1.66 1.00 0.43 <
1497 3 -3 -5 0 1.66 1.00 0.43 <
1498 3 -3 -5 -1 10.91 10.38 1.47 o
1499 3 -3 -5 -2 13.77 11.97 1.65 o
1500 3 -3 -5 -3 3.50 5.40 1.37 o
1501 4 6 5 -4 2.99 2.51 0.85 <
1501 3 3 -5 4 2.99 2.51 0.85 <
1502 3 3 -5 5 0.93 0.91 0.64 <
1503 3 -3 -4 2 14.03 17.38 1.34 o
1504 3 -3 -4 1 12.98 16.41 1.43 o
1505 4 -3 4 0 39.91 46.43 2.77 o
1505 3 -3 -4 0 39.91 46.43 2.77 o
1506 3 -3 -4 -1 5.55 4.47 0.97 o
1507 3 -3 -4 -2 0.56 0.46 0.56 <
1508 3 3 -4 3 12.16 33.08 2.78 o
1509 3 -3 -4 -3 12.16 36.24 3.13 o
1510 4 6 4 -4 1.32 0.24 0.51 <
1510 3 3 -4 4 1.32 0.24 0.51 <
1511 4 -6 4 4 1.32 -0.34 0.97 <
1511 3 -3 -4 -4 1.32 -0.34 0.97 <
1512 3 3 -4 5 1.05 1.59 0.81 <
1513 3 -3 -3 1 33.18 39.28 2.21 o
1514 4 -3 3 0 33.75 36.70 2.30 o
1514 3 -3 -3 0 33.75 36.70 2.30 o
1515 3 -3 -3 -1 2.53 1.58 0.56 <
1516 3 -3 -3 -2 32.84 34.41 2.61 o
1517 3 3 -3 2 32.84 33.30 2.38 o
1518 3 3 -3 3 2.24 2.01 0.69 <
1519 3 -3 -3 -3 2.24 2.43 0.75 o
1520 4 -6 3 4 8.54 13.75 2.05 o
1520 3 -3 -3 -4 8.54 13.75 2.05 o
1521 4 6 3 -4 8.54 12.60 1.68 o
1521 3 3 -3 4 8.54 12.60 1.68 o
1522 3 3 -3 5 1.12 2.14 0.91 <
1523 3 -3 -3 -5 1.12 1.38 0.92 <
1524 3 -3 -2 1 42.27 46.19 2.41 o
1525 4 -3 2 0 133.27 145.57 5.36 o
1525 3 -3 -2 0 133.27 145.57 5.36 o
1526 3 -3 -2 -1 0.17 -0.33 0.44 <
1527 3 3 -2 2 11.50 10.74 1.36 o
1528 3 -3 -2 -2 11.50 11.11 1.41 o
1529 3 -3 -2 -3 29.61 67.90 4.10 o
1530 3 3 -2 3 29.61 71.86 3.86 o
1531 4 -6 2 4 1.08 0.59 0.79 <
1531 3 -3 -2 -4 1.08 0.59 0.79 <
1532 4 6 2 -4 1.08 2.01 0.90 <
1532 3 3 -2 4 1.08 2.01 0.90 <
1533 3 -3 -2 -5 2.57 2.47 1.12 <
1534 3 3 -2 5 2.57 1.26 0.69 <
1535 3 3 -2 6 0.93 1.69 0.74 <
1536 4 -3 1 0 7.41 7.29 0.93 o
1536 3 -3 -1 0 7.41 7.29 0.93 o
1537 3 3 -1 1 79.71 75.97 3.71 o
1538 3 -3 -1 -1 79.71 79.53 3.67 o
1539 3 -3 -1 -2 33.11 37.38 2.54 o
1540 3 3 -1 2 33.11 40.43 2.71 o
1541 3 3 -1 3 7.29 14.02 1.66 o
1542 3 -3 -1 -3 7.29 14.80 1.69 o
1543 4 6 1 -4 7.66 10.22 1.53 o
1543 3 3 -1 4 7.66 10.22 1.53 o
1544 4 -6 1 4 7.66 9.81 1.54 o
1544 3 -3 -1 -4 7.66 9.81 1.54 o
1545 3 3 -1 5 2.41 3.23 1.00 o
1546 3 -3 -1 -5 2.41 1.60 0.88 <
1547 3 -3 -1 -6 0.82 0.21 0.88 <
1548 3 3 -1 6 0.82 0.76 0.71 <
1549 4 -3 0 0 527.37 490.38 14.02 o
1549 3 -3 0 0 527.37 490.38 14.02 o
1550 4 3 0 0 527.37 486.22 14.21 o
1550 3 3 0 0 527.37 486.22 14.21 o
1551 3 -3 0 -1 17.55 23.09 1.73 o
1552 3 3 0 1 17.55 20.21 1.73 o
1553 3 -3 0 -2 23.31 27.05 2.03 o
1554 3 3 0 2 23.31 27.69 2.26 o
1555 3 3 0 3 1.45 4.29 0.87 o
1556 3 -3 0 -3 1.45 5.66 1.01 o
1557 4 -6 0 4 0.71 -0.17 0.80 <
1557 3 -3 0 -4 0.71 -0.17 0.80 <
1558 4 6 0 -4 0.71 -0.42 0.67 <
1558 3 3 0 4 0.71 -0.42 0.67 <
1559 3 -3 0 -5 4.85 4.34 1.07 o
1560 3 3 0 5 4.85 8.08 1.42 o
1561 3 3 0 6 0.78 0.51 0.61 <
1562 3 -3 0 -6 0.78 2.21 1.01 <
1563 4 3 -1 0 7.42 6.63 0.95 o
1563 3 3 1 0 7.42 6.63 0.95 o
1564 3 -3 1 -1 78.82 81.39 3.57 o
1565 3 3 1 1 78.82 75.06 3.76 o
1566 3 3 1 2 31.96 36.34 2.56 o
1567 3 -3 1 -2 31.96 37.80 2.43 o
1568 3 -3 1 -3 7.44 15.14 1.62 o
1569 3 3 1 3 7.44 17.53 1.82 o
1570 4 6 -1 -4 7.72 11.37 1.59 o
1570 3 3 1 4 7.72 11.37 1.59 o
1571 4 -6 -1 4 7.72 10.81 1.50 o
1571 3 -3 1 -4 7.72 10.81 1.50 o
1572 3 3 1 5 2.44 1.87 0.89 <
1573 3 -3 1 -5 2.44 2.45 0.82 <
1574 3 -3 1 -6 0.82 1.07 0.93 <
1575 3 3 1 6 0.82 0.32 0.77 <
1576 3 3 2 -1 43.82 46.36 2.51 o
1577 4 3 -2 0 133.27 137.87 5.44 o
1577 3 3 2 0 133.27 137.87 5.44 o
1578 3 3 2 1 0.13 0.52 0.45 <
1579 3 -3 2 -2 11.73 13.73 1.35 o
1580 3 3 2 2 11.73 10.15 1.33 o
1581 3 3 2 3 29.36 82.04 4.24 o
1582 3 -3 2 -3 29.36 65.78 3.57 o
1583 4 -6 -2 4 1.05 1.25 0.68 <
1583 3 -3 2 -4 1.05 1.25 0.68 <
1584 4 6 -2 -4 1.05 0.28 0.53 <
1584 3 3 2 4 1.05 0.28 0.53 <
1585 3 3 2 5 2.47 3.31 1.11 <
1586 3 -3 2 -5 2.47 3.73 1.10 o
1587 3 -3 2 -6 0.91 -0.41 0.76 <
1588 3 3 3 -2 32.23 42.87 2.21 o
1589 3 3 3 -1 32.94 38.00 2.25 o
1590 4 3 -3 0 33.74 30.78 2.30 o
1590 3 3 3 0 33.74 30.78 2.30 o
1591 3 3 3 1 2.27 1.20 0.42 <
1592 3 3 3 2 32.69 33.43 2.48 o
1593 3 3 3 3 2.31 2.93 0.83 o
1594 4 -6 -3 4 8.47 13.32 1.59 o
1594 3 -3 3 -4 8.47 13.32 1.59 o
1595 4 6 -3 -4 8.47 12.55 1.69 o
1595 3 3 3 4 8.47 12.55 1.69 o
1596 3 -3 3 -5 1.12 1.62 0.81 <
1597 4 0 -4 4 3.81 5.48 0.78 o
1597 3 3 4 -4 3.81 5.48 0.78 o
1598 3 3 4 -3 17.82 21.58 1.36 o
1599 3 3 4 -2 14.33 20.93 1.48 o
1600 3 3 4 -1 12.70 17.45 1.48 o
1601 4 3 -4 0 39.92 46.33 2.74 o
1601 3 3 4 0 39.92 46.33 2.74 o
1602 3 3 4 1 5.51 3.02 0.75 o
1603 3 3 4 2 0.62 0.78 0.60 <
1604 3 3 4 3 12.17 36.48 2.77 o
1605 4 6 -4 -4 1.31 0.43 0.60 <
1605 3 3 4 4 1.31 0.43 0.60 <
1606 3 3 5 -5 10.30 12.05 0.83 o
1607 4 0 -5 4 11.24 13.00 0.95 o
1607 3 3 5 -4 11.24 13.00 0.95 o
1608 3 3 5 -3 0.59 0.47 0.27 <
1609 3 3 5 -2 32.19 39.10 2.18 o
1610 3 3 5 -1 33.34 42.14 2.41 o
1611 4 3 -5 0 1.66 1.64 0.62 <
1611 3 3 5 0 1.66 1.64 0.62 <
1612 3 3 5 1 11.62 13.38 1.46 o
1613 3 3 5 2 14.17 9.73 1.26 o
1614 3 3 6 -5 6.31 3.59 0.33 o
1615 4 0 -6 4 7.47 6.28 0.67 o
1615 3 3 6 -4 7.47 6.28 0.67 o
1616 3 3 6 -3 35.21 38.37 1.94 o
1617 3 3 6 -2 7.40 7.11 0.84 o
1618 3 3 6 -1 7.83 5.66 0.81 o
1619 4 3 -6 0 72.94 85.72 4.05 o
1619 3 3 6 0 72.94 85.72 4.05 o
1620 3 -4 -9 3 2.63 0.98 0.37 <
1621 3 -4 -9 2 0.02 0.22 0.41 <
1622 3 -4 -9 1 3.52 1.16 0.52 <
1623 3 -4 -8 3 1.06 0.66 0.40 <
1624 3 -4 -8 2 8.83 8.13 1.12 o
1625 3 -4 -8 1 1.73 1.25 0.73 <
1626 4 -4 8 0 4.22 1.70 0.63 <
1626 3 -4 -8 0 4.22 1.70 0.63 <
1627 3 -4 -8 -1 4.42 2.19 0.94 <
1628 3 -4 -7 3 10.31 10.23 1.02 o
1629 3 -4 -7 2 0.23 -0.36 0.45 <
1630 3 -4 -7 1 10.07 10.03 1.39 o
1631 4 -4 7 0 32.72 44.71 3.20 o
1631 3 -4 -7 0 32.72 44.71 3.20 o
1632 3 -4 -7 -1 0.39 -0.61 0.94 <
1633 3 -4 -7 -2 0.56 0.73 1.00 <
1634 3 -4 -6 3 1.94 1.08 0.39 <
1635 3 -4 -6 2 8.56 7.74 1.11 o
1636 3 -4 -6 1 1.88 1.45 0.64 <
1637 4 -4 6 0 11.66 13.92 1.78 o
1637 3 -4 -6 0 11.66 13.92 1.78 o
1638 3 -4 -6 -1 11.62 12.71 1.84 o
1639 3 -4 -6 -2 0.12 0.54 0.95 <
1640 3 -4 -5 2 1.14 0.23 0.45 <
1641 3 -4 -5 1 10.34 10.19 1.29 o
1642 4 -4 5 0 10.82 12.87 1.61 o
1642 3 -4 -5 0 10.82 12.87 1.61 o
1643 3 -4 -5 -1 2.28 1.67 0.78 <
1644 3 -4 -5 -2 5.44 4.39 1.10 o
1645 3 -4 -5 -3 2.59 3.28 1.25 <
1646 4 7 5 -4 0.20 -0.06 0.73 <
1646 3 4 -5 4 0.20 -0.06 0.73 <
1647 3 -4 -4 2 38.97 48.08 2.76 o
1648 3 -4 -4 1 1.21 0.87 0.46 <
1649 4 -4 4 0 0.13 0.09 0.43 <
1649 3 -4 -4 0 0.13 0.09 0.43 <
1650 3 -4 -4 -1 7.89 6.49 1.20 o
1651 3 -4 -4 -2 2.20 1.42 0.86 <
1652 3 -4 -4 -3 2.30 1.43 0.88 <
1653 4 7 4 -4 0.67 2.58 1.00 <
1653 3 4 -4 4 0.67 2.58 1.00 <
1654 3 -4 -3 1 16.27 18.49 1.65 o
1655 4 -4 3 0 9.91 9.40 1.22 o
1655 3 -4 -3 0 9.91 9.40 1.22 o
1656 3 -4 -3 -1 1.42 0.57 0.43 <
1657 3 -4 -3 -2 6.83 4.44 1.15 o
1658 3 -4 -3 -3 4.52 4.49 1.30 o
1659 3 4 -3 3 4.52 2.12 0.84 <
1660 4 7 3 -4 1.15 0.76 0.66 <
1660 3 4 -3 4 1.15 0.76 0.66 <
1661 4 -7 3 4 1.15 2.93 1.13 <
1661 3 -4 -3 -4 1.15 2.93 1.13 <
1662 3 -4 -2 1 18.26 19.59 1.70 o
1663 4 -4 2 0 1.93 2.80 0.75 o
1663 3 -4 -2 0 1.93 2.80 0.75 o
1664 3 -4 -2 -1 15.19 14.53 1.64 o
1665 3 -4 -2 -2 1.86 0.76 0.60 <
1666 3 4 -2 2 1.86 1.50 0.75 <
1667 3 4 -2 3 2.59 1.84 0.85 <
1668 3 -4 -2 -3 2.59 2.89 1.08 <
1669 4 7 2 -4 1.53 3.47 0.99 o
1669 3 4 -2 4 1.53 3.47 0.99 o
1670 4 -7 2 4 1.53 2.36 1.12 <
1670 3 -4 -2 -4 1.53 2.36 1.12 <
1671 3 4 -2 5 0.04 0.72 0.85 <
1672 4 -4 1 0 104.51 123.35 5.16 o
1672 3 -4 -1 0 104.51 123.35 5.16 o
1673 3 -4 -1 -1 5.09 2.79 0.78 o
1674 3 4 -1 1 5.09 2.68 0.85 o
1675 3 -4 -1 -2 5.13 4.23 0.92 o
1676 3 4 -1 2 5.13 4.72 1.12 o
1677 3 4 -1 3 4.73 3.27 1.01 o
1678 3 -4 -1 -3 4.73 4.60 1.13 o
1679 4 7 1 -4 1.93 1.83 0.89 <
1679 3 4 -1 4 1.93 1.83 0.89 <
1680 4 -7 1 4 1.93 -0.18 0.99 <
1680 3 -4 -1 -4 1.93 -0.18 0.99 <
1681 3 4 -1 5 1.47 2.26 0.99 <
1682 3 -4 0 -1 45.11 53.35 3.08 o
1683 3 4 0 1 45.11 47.32 3.27 o
1684 3 4 0 2 0.27 0.02 0.56 <
1685 3 -4 0 -2 0.27 -0.73 0.58 <
1686 3 -4 0 -3 3.52 3.28 0.74 o
1687 3 4 0 3 3.52 3.54 1.08 o
1688 4 7 0 -4 7.39 20.63 2.32 o
1688 3 4 0 4 7.39 20.63 2.32 o
1689 4 -7 0 4 7.39 15.76 1.96 o
1689 3 -4 0 -4 7.39 15.76 1.96 o
1690 3 4 0 5 0.22 0.91 0.73 <
1691 3 -4 0 -5 0.22 2.46 0.94 <
1692 4 4 -1 0 104.49 119.12 5.29 o
1692 3 4 1 0 104.49 119.12 5.29 o
1693 3 4 1 1 5.11 3.29 0.92 o
1694 3 -4 1 -2 4.97 5.39 1.03 o
1695 3 4 1 2 4.97 5.92 1.25 o
1696 3 4 1 3 4.88 2.95 0.97 o
1697 3 -4 1 -3 4.88 4.42 1.10 o
1698 4 -7 -1 4 1.93 2.00 0.99 <
1698 3 -4 1 -4 1.93 2.00 0.99 <
1699 4 7 -1 -4 1.93 0.83 0.75 <
1699 3 4 1 4 1.93 0.83 0.75 <
1700 3 -4 1 -5 1.48 3.13 1.12 <
1701 3 4 2 -1 18.86 20.35 1.84 o
1702 4 4 -2 0 1.93 2.17 0.71 o
1702 3 4 2 0 1.93 2.17 0.71 o
1703 3 4 2 1 14.88 13.57 1.70 o
1704 3 4 2 2 1.87 3.27 1.06 o
1705 3 -4 2 -3 2.66 1.15 0.48 <
1706 3 4 2 3 2.66 1.69 0.74 <
1707 4 -7 -2 4 1.64 2.06 0.88 <
1707 3 -4 2 -4 1.64 2.06 0.88 <
1708 4 7 -2 -4 1.64 3.42 1.11 o
1708 3 4 2 4 1.64 3.42 1.11 o
1709 3 -4 2 -5 0.03 2.87 1.08 <
1710 3 4 3 -2 1.45 1.02 0.51 <
1711 3 4 3 -1 16.62 18.89 1.81 o
1712 4 4 -3 0 9.90 9.21 1.34 o
1712 3 4 3 0 9.90 9.21 1.34 o
1713 3 4 3 1 1.36 0.52 0.52 <
1714 3 4 3 2 6.95 3.39 0.91 o
1715 3 4 3 3 4.60 3.84 1.03 o
1716 4 -7 -3 4 1.14 0.09 0.59 <
1716 3 -4 3 -4 1.14 0.09 0.59 <
1717 4 7 -3 -4 1.14 2.12 1.02 <
1717 3 4 3 4 1.14 2.12 1.02 <
1718 3 4 4 -3 1.74 1.12 0.45 <
1719 3 4 4 -2 39.07 47.98 2.85 o
1720 3 4 4 -1 1.06 0.92 0.52 <
1721 4 4 -4 0 0.14 1.05 0.62 <
1721 3 4 4 0 0.14 1.05 0.62 <
1722 3 4 4 1 8.18 6.79 1.26 o
1723 3 4 4 2 2.24 2.05 0.79 <
1724 3 4 4 3 2.26 2.87 1.15 <
1725 3 4 5 -5 1.99 3.39 0.90 o
1726 4 1 -5 4 11.27 6.72 0.94 o
1726 3 4 5 -4 11.27 6.72 0.94 o
1727 3 4 5 -3 9.53 8.58 1.08 o
1728 3 4 5 -2 1.14 1.16 0.52 <
1729 3 4 5 -1 9.72 8.16 1.22 o
1730 4 4 -5 0 10.83 13.53 1.59 o
1730 3 4 5 0 10.83 13.53 1.59 o
1731 3 4 5 1 2.31 1.39 0.69 <
1732 3 4 5 2 5.38 6.35 1.35 o
1733 3 4 5 3 2.51 3.18 1.06 <
1734 3 4 6 -6 0.20 1.14 0.54 <
1735 3 4 6 -5 8.11 10.46 0.97 o
1736 4 1 -6 4 36.64 24.21 1.89 o
1736 3 4 6 -4 36.64 24.21 1.89 o
1737 3 4 6 -3 2.06 0.87 0.47 <
1738 3 4 6 -2 8.47 6.78 1.03 o
1739 3 4 6 -1 1.73 1.62 0.65 <
1740 4 4 -6 0 11.65 13.20 1.61 o
1740 3 4 6 0 11.65 13.20 1.61 o
1741 3 4 6 1 11.50 13.15 1.65 o
1742 3 4 6 2 0.10 0.51 0.68 <
1743 3 4 7 -6 0.71 -0.18 0.26 <
1744 3 4 7 -5 0.50 0.64 0.39 <
1745 4 1 -7 4 16.50 20.39 1.43 o
1745 3 4 7 -4 16.50 20.39 1.43 o
1746 3 4 7 -3 10.09 12.66 1.27 o
1747 3 4 7 -2 0.23 0.36 0.45 <
1748 3 4 7 -1 10.31 11.88 1.41 o
1749 4 4 -7 0 32.72 45.62 3.12 o
1749 3 4 7 0 32.72 45.62 3.12 o
1750 3 4 7 1 0.40 -0.76 0.83 <
1751 3 -5 -8 3 0.11 0.13 0.48 <
1752 3 -5 -8 2 0.23 0.12 0.65 <
1753 3 -5 -8 1 2.14 1.55 0.85 <
1754 3 -5 -7 3 0.77 0.34 0.41 <
1755 3 -5 -7 2 0.66 0.28 0.53 <
1756 3 -5 -7 1 0.13 0.17 0.70 <
1757 4 -5 7 0 2.88 3.16 1.07 <
1757 3 -5 -7 0 2.88 3.16 1.07 <
1758 3 -5 -6 3 2.02 2.17 0.69 o
1759 3 -5 -6 2 1.25 2.19 0.82 <
1760 3 -5 -6 1 6.23 7.30 1.45 o
1761 4 -5 6 0 2.53 2.36 1.04 <
1761 3 -5 -6 0 2.53 2.36 1.04 <
1762 3 -5 -6 -1 0.22 -0.07 0.75 <
1763 3 -5 -5 2 10.01 14.84 1.70 o
1764 3 -5 -5 1 0.43 0.23 0.51 <
1765 4 -5 5 0 8.55 8.55 1.57 o
1765 3 -5 -5 0 8.55 8.55 1.57 o
1766 3 -5 -5 -1 3.59 3.40 1.17 <
1767 3 -5 -4 2 2.40 2.46 0.78 o
1768 3 -5 -4 1 15.02 15.84 1.83 o
1769 4 -5 4 0 0.10 1.37 0.84 <
1769 3 -5 -4 0 0.10 1.37 0.84 <
1770 3 -5 -4 -1 4.85 3.64 1.08 o
1771 3 -5 -4 -2 4.11 2.16 0.73 <
1772 3 -5 -3 1 0.02 0.36 0.54 <
1773 4 -5 3 0 11.59 15.44 1.80 o
1773 3 -5 -3 0 11.59 15.44 1.80 o
1774 3 -5 -3 -1 3.55 4.28 1.08 o
1775 3 -5 -3 -2 1.23 0.74 0.77 <
1776 3 5 -3 3 0.56 1.08 1.02 <
1777 4 -5 2 0 0.65 0.35 0.48 <
1777 3 -5 -2 0 0.65 0.35 0.48 <
1778 3 -5 -2 -1 3.79 3.73 1.00 o
1779 3 -5 -2 -2 3.27 3.50 1.21 <
1780 3 5 -2 3 0.46 2.06 1.25 <
1781 3 -5 -2 -3 0.46 -0.76 0.92 <
1782 4 -5 1 0 7.84 10.43 1.36 o
1782 3 -5 -1 0 7.84 10.43 1.36 o
1783 3 -5 -1 -1 4.11 3.32 1.02 o
1784 3 -5 -1 -2 1.68 1.45 0.88 <
1785 3 5 -1 2 1.68 1.08 0.84 <
1786 3 5 -1 3 1.35 -0.50 1.14 <
1787 3 -5 -1 -3 1.35 0.90 0.72 <
1788 3 -5 0 -1 0.41 0.55 0.56 <
1789 3 5 0 1 0.41 0.23 0.69 <
1790 3 5 0 2 1.02 0.43 0.65 <
1791 3 -5 0 -2 1.02 0.39 0.73 <
1792 3 -5 0 -3 0.11 0.41 0.68 <
1793 3 5 0 3 0.11 -1.15 1.06 <
1794 4 5 -1 0 7.83 9.13 1.44 o
1794 3 5 1 0 7.83 9.13 1.44 o
1795 3 5 1 1 4.10 3.76 1.17 o
1796 3 -5 1 -2 1.64 1.08 0.69 <
1797 3 5 1 2 1.64 -0.21 0.92 <
1798 3 5 1 3 1.40 0.07 0.81 <
1799 3 -5 1 -3 1.40 0.73 0.72 <
1800 3 5 2 -1 13.83 15.62 1.88 o
1801 4 5 -2 0 0.65 0.54 0.69 <
1801 3 5 2 0 0.65 0.54 0.69 <
1802 3 5 2 1 3.69 2.26 0.86 <
1803 3 5 2 2 3.35 3.83 1.27 o
1804 3 5 2 3 0.48 0.37 0.92 <
1805 3 5 3 -2 17.48 28.67 2.54 o
1806 3 5 3 -1 0.02 0.02 0.50 <
1807 4 5 -3 0 11.60 14.11 1.78 o
1807 3 5 3 0 11.60 14.11 1.78 o
1808 3 5 3 1 3.54 3.41 1.04 o
1809 3 5 3 2 1.23 -0.39 0.82 <
1810 3 5 4 -3 1.80 2.45 0.81 o
1811 3 5 4 -2 2.35 2.02 0.80 <
1812 3 5 4 -1 14.70 15.79 1.85 o
1813 4 5 -4 0 0.10 0.25 0.60 <
1813 3 5 4 0 0.10 0.25 0.60 <
1814 3 5 4 1 4.90 1.95 0.88 <
1815 3 5 4 2 4.07 3.44 1.12 o
1816 4 2 -5 4 8.96 3.42 1.22 <
1816 3 5 5 -4 8.96 3.42 1.22 <
1817 3 5 5 -3 9.76 16.79 1.72 o
1818 3 5 5 -2 9.77 10.81 1.61 o
1819 3 5 5 -1 0.43 0.40 0.62 <
1820 4 5 -5 0 8.55 7.43 1.39 o
1820 3 5 5 0 8.55 7.43 1.39 o
1821 3 5 5 1 3.62 4.94 1.33 o
1822 3 5 6 -5 1.06 0.07 0.65 <
1823 4 2 -6 4 10.28 7.18 1.21 o
1823 3 5 6 -4 10.28 7.18 1.21 o
1824 3 5 6 -3 1.93 1.00 0.68 <
1825 3 5 6 -2 1.35 0.14 0.61 <
1826 3 5 6 -1 6.27 4.58 1.17 o
1827 4 5 -6 0 2.53 2.99 1.22 <
1827 3 5 6 0 2.53 2.99 1.22 <
1828 3 5 6 1 0.26 0.22 0.67 <
1829 3 5 7 -5 1.04 0.80 0.58 <
1830 4 2 -7 4 5.32 1.48 0.84 <
1830 3 5 7 -4 5.32 1.48 0.84 <
1831 3 5 7 -3 0.71 1.03 0.78 <
1832 3 5 7 -2 0.73 0.05 0.62 <
1833 3 5 7 -1 0.13 0.99 0.83 <
1834 4 5 -7 0 2.88 2.10 0.79 <
1834 3 5 7 0 2.88 2.10 0.79 <
1835 3 5 7 1 1.26 0.99 0.90 <
1836 4 2 -8 4 2.10 2.51 0.80 o
1836 3 5 8 -4 2.10 2.51 0.80 o
1837 3 5 8 -3 0.14 -0.58 0.70 <
1838 3 5 8 -2 0.19 -0.16 0.67 <
1839 3 5 8 -1 2.17 0.41 0.72 <
1840 3 -6 -7 3 0.08 0.16 0.49 <
1841 3 -6 -6 2 0.43 0.08 0.65 <
1842 3 -6 -6 1 0.69 0.15 0.67 <
1843 3 -6 -5 2 1.62 2.58 0.88 <
1844 3 -6 -5 1 2.07 1.14 0.94 <
1845 4 -6 5 0 0.10 0.39 0.76 <
1845 3 -6 -5 0 0.10 0.39 0.76 <
1846 3 -6 -4 1 0.22 0.45 0.68 <
1847 4 -6 4 0 4.26 1.54 0.64 <
1847 3 -6 -4 0 4.26 1.54 0.64 <
1848 3 -6 -3 1 3.23 4.26 1.14 o
1849 4 -6 3 0 3.42 3.44 1.11 o
1849 3 -6 -3 0 3.42 3.44 1.11 o
1850 4 -6 2 0 8.29 7.96 1.33 o
1850 3 -6 -2 0 8.29 7.96 1.33 o
1851 3 -6 -2 -1 0.00 -0.56 0.86 <
1852 3 -6 -1 -1 0.67 -0.16 0.81 <
1853 3 6 -1 2 0.48 1.08 1.08 <
1854 3 6 1 1 0.61 -0.77 1.09 <
1855 4 6 -2 0 8.29 11.49 1.97 o
1855 3 6 2 0 8.29 11.49 1.97 o
1856 3 6 2 1 0.00 -0.07 0.83 <
1857 3 6 3 -1 3.17 2.62 1.07 <
1858 4 6 -3 0 3.42 0.80 0.75 <
1858 3 6 3 0 3.42 0.80 0.75 <
1859 3 6 3 1 1.39 1.29 1.01 <
1860 3 6 4 -2 1.63 0.08 0.78 <
1861 3 6 4 -1 0.23 -0.31 0.82 <
1862 4 6 -4 0 4.26 4.95 1.43 o
1862 3 6 4 0 4.26 4.95 1.43 o
1863 3 6 5 -3 0.09 -0.61 1.02 <
1864 3 6 5 -2 1.58 0.59 0.71 <
1865 3 6 5 -1 2.15 2.11 1.06 <
1866 4 6 -5 0 0.10 1.32 0.93 <
1866 3 6 5 0 0.10 1.32 0.93 <
1867 3 6 6 -5 1.57 3.76 1.74 <
1867 2 4 -6 -7 1.57 3.76 1.74 <
1868 4 3 -6 4 0.77 0.18 0.84 <
1868 3 6 6 -4 0.77 0.18 0.84 <
1869 3 6 6 -3 2.03 3.04 1.14 <
1870 3 6 6 -2 0.47 0.65 0.76 <
1871 3 6 6 -1 0.65 1.22 0.90 <
1872 3 6 7 -3 0.08 0.16 0.79 <
1873 3 7 4 -2 0.65 1.51 1.41 <
1874 3 7 5 -3 0.11 1.30 1.34 <
1875 4 0 -7 5 6.81 11.50 1.07 o
1876 4 0 -7 6 0.87 -0.35 0.39 <
1877 4 0 -6 4 7.45 8.70 0.87 o
1877 3 3 6 -4 7.45 8.70 0.87 o
1878 4 0 -6 5 10.16 12.14 1.09 o
1879 4 0 -6 6 0.39 0.25 0.10 <
1880 4 0 -5 3 0.09 0.16 0.11 <
1881 4 0 -5 4 11.21 8.66 1.01 o
1881 3 3 5 -4 11.21 8.66 1.01 o
1882 4 0 -5 5 9.12 10.46 1.09 o
1883 4 0 -4 3 73.90 84.62 2.62 o
1884 4 0 -3 2 285.67 345.04 4.49 o
1885 4 0 3 -1 8.84 7.53 0.66 o
1886 4 0 4 -2 3.68 5.96 0.63 o
1887 4 0 5 -2 59.21 69.71 2.64 o
1888 4 0 6 -2 9.98 11.48 1.09 o
1889 4 0 6 -3 15.89 17.88 1.20 o
1890 4 0 7 -2 2.78 2.39 0.54 o
1891 4 0 7 -3 11.15 12.64 1.14 o
1892 4 0 8 -3 34.08 43.66 2.33 o
1893 4 0 9 -3 0.30 -0.38 0.44 <
1894 4 1 -7 4 16.46 4.86 1.02 o
1894 3 4 7 -4 16.46 4.86 1.02 o
1895 4 1 -7 5 1.82 1.50 0.62 <
1896 4 -1 -6 6 1.45 1.03 0.31 o
1897 4 1 -6 3 9.75 12.67 1.23 o
1898 4 1 -6 4 36.51 43.14 2.68 o
1898 3 4 6 -4 36.51 43.14 2.68 o
1899 4 1 -6 5 1.50 1.10 0.33 o
1900 4 -1 -5 5 5.02 2.51 0.36 o
1901 4 1 -5 2 53.82 65.86 2.89 o
1902 4 1 -5 3 30.74 35.87 2.25 o
1903 4 1 -5 4 11.22 5.16 0.90 o
1903 3 4 5 -4 11.22 5.16 0.90 o
1904 5 -1 4 -1 508.08 602.06 8.38 o
1904 4 1 -4 1 508.08 602.06 8.38 o
1905 4 1 -4 2 27.33 30.27 1.99 o
1906 4 1 -4 3 23.03 27.26 2.14 o
1907 5 -1 3 -1 45.37 51.74 2.32 o
1907 4 1 -3 1 45.37 51.74 2.32 o
1908 4 1 -3 2 141.61 147.17 4.29 o
1909 5 -1 2 -1 1205.40 1315.08 11.73 o
1909 4 1 -2 1 1205.40 1315.08 11.73 o
1910 4 -1 0 1 94.59 61.05 1.79 o
1911 4 1 0 -1 94.59 61.08 1.76 o
1912 5 1 -2 1 1205.53 1321.16 10.96 o
1912 4 -1 2 -1 1205.53 1321.16 10.96 o
1913 5 1 -3 1 45.47 51.16 2.39 o
1913 4 -1 3 -1 45.47 51.16 2.39 o
1914 4 -1 3 -2 141.98 141.69 3.82 o
1915 5 1 -4 1 507.62 605.94 9.01 o
1915 4 -1 4 -1 507.62 605.94 9.01 o
1916 4 -1 4 -2 26.89 31.96 1.93 o
1917 5 1 -5 1 78.73 79.90 3.34 o
1917 4 -1 5 -1 78.73 79.90 3.34 o
1918 4 -1 5 -2 54.25 63.22 2.96 o
1919 5 1 -6 1 146.71 160.68 5.09 o
1919 4 -1 6 -1 146.71 160.68 5.09 o
1920 4 -1 6 -2 16.61 17.16 1.60 o
1921 4 -1 6 -3 9.57 10.70 1.27 o
1922 4 1 7 -3 4.34 3.53 0.60 o
1923 4 -1 7 -2 4.76 4.02 0.90 o
1924 4 -1 7 -3 19.35 19.70 1.77 o
1925 4 1 8 -3 6.73 8.00 0.94 o
1926 4 -1 8 -2 7.98 10.77 1.47 o
1927 4 -1 8 -3 6.79 5.31 1.01 o
1928 4 -1 9 -2 13.08 18.16 1.91 o
1929 4 -1 9 -3 5.06 5.19 0.90 o
1930 4 2 -8 3 3.07 1.45 0.48 o
1931 4 2 -8 4 2.10 0.69 0.04 o
1931 3 5 8 -4 2.10 0.69 0.04 o
1932 5 -2 7 -2 6.84 5.68 1.07 o
1932 4 2 -7 2 6.84 5.68 1.07 o
1933 4 2 -7 3 6.06 5.69 1.11 o
1934 4 2 -7 4 5.30 1.98 0.47 o
1934 3 5 7 -4 5.30 1.98 0.47 o
1935 4 2 -6 1 11.38 11.84 1.58 o
1936 5 -2 6 -2 62.86 66.96 3.59 o
1936 4 2 -6 2 62.86 66.96 3.59 o
1937 4 2 -6 3 10.06 11.27 1.53 o
1938 4 2 -6 4 10.24 3.20 0.93 o
1938 3 5 6 -4 10.24 3.20 0.93 o
1939 4 2 -6 5 2.88 1.46 0.47 o
1940 4 2 -5 1 55.33 58.24 3.33 o
1941 5 -2 5 -2 20.44 21.85 2.22 o
1941 4 2 -5 2 20.44 21.85 2.22 o
1942 4 2 -5 3 22.40 29.22 2.61 o
1943 4 2 -5 4 8.92 9.21 1.52 o
1943 3 5 5 -4 8.92 9.21 1.52 o
1944 4 2 -4 1 45.15 45.32 2.99 o
1945 5 -2 4 -2 227.59 258.88 7.71 o
1945 4 2 -4 2 227.59 258.88 7.71 o
1946 4 2 -4 3 0.22 0.16 0.06 <
1947 4 -2 -3 4 40.90 27.23 1.53 o
1947 3 1 3 -4 40.90 27.23 1.53 o
1948 4 -2 -3 3 93.76 106.50 2.17 o
1949 4 2 -3 -1 3.87 3.40 0.70 o
1950 4 2 -3 1 99.73 117.40 4.74 o
1951 5 -2 3 -2 8.10 7.33 1.31 o
1951 4 2 -3 2 8.10 7.33 1.31 o
1952 4 -2 -2 3 63.46 74.67 2.29 o
1953 4 -2 -2 2 29.17 28.86 1.35 o
1954 4 2 -2 -1 207.87 223.27 5.47 o
1955 4 2 -2 1 69.29 66.47 3.49 o
1956 4 -2 -1 2 30.17 30.60 1.65 o
1957 4 -2 -1 1 430.31 416.68 6.14 o
1958 4 2 -1 -1 430.31 417.88 7.33 o
1959 4 -2 0 2 3.44 1.82 0.47 o
1960 4 2 0 -2 3.44 2.19 0.47 o
1961 4 2 0 -1 115.36 108.29 3.83 o
1962 4 -2 0 1 115.36 130.65 3.70 o
1963 4 2 1 -2 28.15 26.88 1.51 o
1964 4 2 1 -1 430.28 421.26 6.53 o
1965 4 -2 1 1 430.28 418.27 7.39 o
1966 4 2 2 -2 30.37 32.39 1.62 o
1967 4 -2 2 1 207.63 221.53 5.72 o
1968 4 -2 2 -1 67.34 60.75 3.23 o
1969 4 2 3 -2 202.26 197.10 3.83 o
1970 4 -2 3 1 3.87 3.92 0.77 o
1971 4 -2 3 -1 99.02 108.65 4.45 o
1972 4 -2 4 -1 45.79 44.03 2.91 o
1973 5 2 -4 2 227.82 253.82 6.93 o
1973 4 -2 4 -2 227.82 253.82 6.93 o
1974 4 -2 5 -1 54.96 60.43 3.68 o
1975 5 2 -5 2 20.38 22.12 2.12 o
1975 4 -2 5 -2 20.38 22.12 2.12 o
1976 4 -2 6 -1 12.14 11.18 1.52 o
1977 5 2 -6 2 62.57 70.49 3.92 o
1977 4 -2 6 -2 62.57 70.49 3.92 o
1978 4 -2 6 -3 10.34 10.43 1.41 o
1979 4 -2 7 -1 14.46 13.85 1.78 o
1980 5 2 -7 2 6.89 6.43 1.19 o
1980 4 -2 7 -2 6.89 6.43 1.19 o
1981 4 -2 7 -3 6.30 4.32 0.95 o
1982 4 -2 8 -1 7.35 7.03 1.34 o
1983 5 2 -8 2 23.28 30.10 2.69 o
1983 4 -2 8 -2 23.28 30.10 2.69 o
1984 4 -2 8 -3 2.94 1.70 0.54 o
1985 5 2 -9 2 0.88 0.26 0.45 <
1985 4 -2 9 -2 0.88 0.26 0.45 <
1986 4 3 -8 2 4.08 3.58 1.22 <
1987 4 3 -8 3 3.70 8.17 1.61 o
1988 4 3 -7 1 24.19 33.49 3.04 o
1989 4 3 -7 2 3.32 2.95 0.95 o
1990 4 3 -7 3 1.40 2.31 0.67 o
1991 4 3 -6 1 1.27 0.82 0.41 <
1992 4 3 -6 2 7.27 6.42 1.36 o
1993 4 3 -6 3 2.95 7.70 1.57 o
1994 4 3 -6 4 0.76 -0.64 0.82 <
1994 3 6 6 -4 0.76 -0.64 0.82 <
1995 4 -3 -5 7 1.10 1.06 0.41 <
1996 4 3 -5 1 11.29 12.60 1.74 o
1997 4 3 -5 2 14.25 10.85 1.71 o
1998 4 3 -5 3 3.62 7.79 1.69 o
1999 4 -3 -4 6 11.24 11.17 1.17 o
2000 4 -3 -4 5 1.01 0.70 0.27 <
2001 4 3 -4 -1 13.43 18.95 2.10 o
2002 4 3 -4 1 5.75 3.24 1.07 o
2003 4 3 -4 2 0.58 1.11 0.60 <
2004 4 3 -4 3 12.58 31.10 3.06 o
2005 4 -3 -3 5 32.67 37.37 2.14 o
2006 4 -3 -3 4 2.87 2.63 0.50 o
2006 3 0 3 -4 2.87 2.63 0.50 o
2007 4 -3 -3 3 17.39 20.07 1.36 o
2008 4 3 -3 -2 33.10 40.34 2.96 o
2009 4 3 -3 -1 34.33 38.16 2.82 o
2010 4 3 -3 1 2.62 2.45 0.84 <
2011 4 3 -3 2 33.98 31.57 2.95 o
2012 4 -3 -2 4 3.81 1.33 0.50 <
2012 3 0 2 -4 3.81 1.33 0.50 <
2013 4 -3 -2 3 63.75 71.32 2.83 o
2014 4 -3 -2 2 45.17 49.12 2.44 o
2015 4 3 -2 -2 45.17 48.60 3.07 o
2016 4 3 -2 -1 43.74 44.44 3.13 o
2017 4 3 -2 1 0.18 0.06 0.35 <
2018 4 -3 -1 4 188.85 152.20 4.85 o
2018 3 0 1 -4 188.85 152.20 4.85 o
2019 4 -3 -1 3 3.18 3.32 0.66 o
2020 4 -3 -1 2 90.70 90.51 3.64 o
2021 4 3 -1 -2 90.70 97.97 4.15 o
2022 4 -3 -1 1 93.64 96.22 3.80 o
2023 4 3 -1 -1 93.64 87.50 4.22 o
2024 4 3 0 -3 255.06 254.57 6.31 o
2025 4 -3 0 3 255.06 255.64 6.61 o
2026 4 -3 0 2 1.88 1.42 0.44 o
2027 4 3 0 -2 1.88 1.40 0.44 o
2028 4 3 0 -1 1.93 1.46 0.58 <
2029 4 -3 0 1 1.93 1.31 0.53 <
2030 4 3 1 -3 3.25 3.23 0.67 o
2031 4 -3 1 3 3.25 2.78 0.80 o
2032 4 3 1 -2 91.89 96.75 3.94 o
2033 4 -3 1 2 91.89 99.31 4.35 o
2034 4 3 1 -1 92.24 92.66 4.06 o
2035 4 -3 1 1 92.24 81.87 3.93 o
2036 4 3 2 -3 63.76 70.50 2.99 o
2037 4 -3 2 2 43.56 47.35 3.21 o
2038 4 3 2 -2 43.56 43.12 2.46 o
2039 4 -3 2 1 45.35 51.90 3.40 o
2040 4 -3 2 -1 0.13 -0.26 0.26 <
2041 4 3 3 -3 17.32 17.59 1.44 o
2042 4 -3 3 2 33.35 37.91 2.91 o
2043 4 3 3 -2 33.35 38.08 2.27 o
2044 4 -3 3 1 34.09 38.16 2.97 o
2045 4 -3 3 -1 2.35 2.18 0.80 <
2046 4 3 4 -4 3.93 2.63 0.44 o
2046 3 0 -4 4 3.93 2.63 0.44 o
2047 4 3 4 -3 18.44 20.21 1.52 o
2048 4 -3 4 1 13.14 18.82 2.21 o
2049 4 -3 4 -1 5.70 3.81 1.04 o
2050 4 -3 4 -2 0.64 0.75 0.47 <
2051 4 3 5 -4 11.49 7.68 0.66 o
2051 3 0 -5 4 11.49 7.68 0.66 o
2052 4 3 5 -3 0.61 0.50 0.24 <
2053 4 -3 5 1 34.50 44.89 3.50 o
2054 4 -3 5 -1 12.02 13.25 1.83 o
2055 4 -3 5 -2 14.66 11.86 1.65 o
2056 4 3 6 -4 7.26 1.58 0.31 o
2056 3 0 -6 4 7.26 1.58 0.31 o
2057 4 -3 6 -1 1.30 4.64 1.63 <
2058 4 -3 6 -2 7.13 6.03 1.22 o
2059 4 3 7 -4 65.35 21.64 1.13 o
2059 3 0 -7 4 65.35 21.64 1.13 o
2060 4 -3 7 -1 23.86 30.83 3.22 o
2061 4 -3 7 -2 3.37 3.21 1.05 o
2062 4 -3 7 -3 1.43 1.60 0.31 o
2063 4 3 8 -4 1.15 0.22 0.12 <
2063 3 0 -8 4 1.15 0.22 0.12 <
2064 4 -3 8 -1 0.94 0.47 0.38 <
2065 4 -3 8 -2 4.09 2.75 0.85 o
2066 4 -3 8 -3 3.63 10.02 1.76 o
2067 4 -3 9 -1 3.23 2.02 0.93 <
2068 4 4 -8 1 4.58 2.98 1.21 <
2069 4 4 -7 1 0.40 0.07 0.43 <
2070 4 4 -7 2 0.57 0.19 0.64 <
2071 4 4 -6 -1 1.95 1.91 0.72 <
2072 4 4 -6 1 12.02 11.74 1.95 o
2073 4 4 -6 2 0.12 0.40 0.52 <
2074 4 4 -6 3 0.88 0.68 0.26 <
2075 4 -4 -5 8 0.10 1.46 0.57 <
2076 5 -6 5 5 5.58 5.32 0.79 o
2076 4 -4 -5 7 5.58 5.32 0.79 o
2077 4 -4 -5 6 3.87 9.60 1.01 o
2078 4 4 -5 -1 10.69 12.96 1.93 o
2079 4 4 -5 1 2.36 1.24 0.79 <
2080 4 4 -5 2 5.62 6.30 1.52 o
2081 4 4 -5 3 2.68 2.35 0.99 <
2082 5 -6 4 5 2.05 2.61 0.79 o
2082 4 -4 -4 7 2.05 2.61 0.79 o
2083 4 -4 -4 6 1.85 1.94 0.51 o
2084 4 -4 -4 5 7.32 9.10 1.04 o
2085 4 4 -4 -2 40.32 53.82 3.99 o
2086 4 4 -4 -1 1.25 1.31 0.73 <
2087 4 4 -4 1 8.16 6.29 1.42 o
2088 4 4 -4 2 2.28 2.56 1.04 <
2089 4 -4 -3 6 5.36 11.35 1.51 o
2090 4 -4 -3 5 1.17 1.45 0.57 <
2091 4 -4 -3 4 12.25 4.35 0.79 o
2091 3 -1 3 -4 12.25 4.35 0.79 o
2092 4 -4 -3 3 13.41 20.57 1.77 o
2093 4 4 -3 -2 1.50 1.21 0.55 <
2094 4 4 -3 -1 16.83 18.24 2.38 o
2095 4 4 -3 1 1.47 0.49 0.13 o
2096 4 4 -3 2 7.07 3.42 0.96 o
2097 4 -4 -2 5 14.92 14.57 1.69 o
2098 4 -4 -2 4 24.94 6.09 1.12 o
2098 3 -1 2 -4 24.94 6.09 1.12 o
2099 4 4 -2 -3 17.55 21.68 2.36 o
2100 4 -4 -2 3 17.55 19.04 1.81 o
2101 4 4 -2 -2 80.52 91.69 4.90 o
2102 4 -4 -2 2 80.52 84.11 3.96 o
2103 4 4 -2 -1 18.89 17.45 2.28 o
2104 4 4 -2 1 15.72 11.23 1.89 o
2105 4 -4 -1 5 4.64 3.98 1.01 o
2106 4 -4 -1 4 62.79 63.76 3.66 o
2106 3 -1 1 -4 62.79 63.76 3.66 o
2107 4 4 -1 -3 27.46 31.16 2.73 o
2108 4 -4 -1 3 27.46 30.39 2.36 o
2109 4 4 -1 -2 2.69 0.44 0.42 <
2110 4 -4 -1 2 2.69 0.12 0.19 <
2111 4 4 -1 -1 28.88 29.95 3.10 o
2112 4 -4 -1 1 28.88 27.00 2.34 o
2113 4 4 0 -4 127.29 67.23 3.84 o
2113 3 1 0 4 127.29 67.23 3.84 o
2114 4 -4 0 4 127.29 68.85 4.06 o
2114 3 -1 0 -4 127.29 68.85 4.06 o
2115 4 -4 0 3 0.61 0.62 0.47 <
2116 4 4 0 -3 0.61 0.61 0.45 <
2117 4 4 0 -2 11.06 8.29 1.52 o
2118 4 -4 0 2 11.06 8.91 1.40 o
2119 4 -4 0 1 0.42 -0.20 0.31 <
2120 4 4 0 -1 0.42 0.04 0.34 <
2121 4 -4 1 4 61.98 65.14 4.09 o
2121 3 -1 -1 -4 61.98 65.14 4.09 o
2122 4 4 1 -4 61.98 68.37 3.62 o
2122 3 1 -1 4 61.98 68.37 3.62 o
2123 4 -4 1 3 27.31 30.24 2.81 o
2124 4 4 1 -3 27.31 30.46 2.53 o
2125 4 -4 1 2 2.69 0.48 0.48 <
2126 4 4 1 -2 2.69 0.08 0.27 <
2127 4 -4 1 1 29.06 28.05 2.65 o
2128 4 4 1 -1 29.06 28.73 2.81 o
2129 4 4 2 -4 24.36 3.40 0.83 o
2129 3 1 -2 4 24.36 3.40 0.83 o
2130 4 -4 2 3 16.96 18.52 2.30 o
2131 4 4 2 -3 16.96 20.95 2.06 o
2132 4 4 2 -2 80.46 85.56 4.44 o
2133 4 -4 2 2 80.46 94.10 5.44 o
2134 4 -4 2 1 19.52 18.28 2.28 o
2135 4 -4 2 -1 15.39 14.25 1.91 o
2136 4 4 3 -4 12.08 2.90 0.76 o
2136 3 1 -3 4 12.08 2.90 0.76 o
2137 4 -4 3 3 13.16 16.43 2.32 o
2138 4 4 3 -3 13.16 19.57 1.97 o
2139 4 4 3 -2 1.50 0.48 0.27 <
2140 4 -4 3 2 1.50 0.62 0.18 o
2141 4 -4 3 1 17.19 17.85 2.42 o
2142 4 -4 3 -1 1.41 1.20 0.71 <
2143 4 4 4 -4 7.19 0.39 0.17 <
2143 3 1 -4 4 7.19 0.39 0.17 <
2144 4 4 4 -3 1.81 0.50 0.32 <
2145 4 -4 4 2 40.43 51.34 4.05 o
2146 4 -4 4 1 1.09 0.64 0.65 <
2147 4 -4 4 -1 8.46 8.28 1.54 o
2148 4 4 5 -4 11.27 5.27 0.98 o
2148 3 1 -5 4 11.27 5.27 0.98 o
2149 4 4 5 -3 9.86 10.10 1.42 o
2150 4 -4 5 2 1.18 -0.03 0.50 <
2151 4 -4 5 1 10.05 8.93 1.72 o
2152 4 -4 5 -1 2.39 2.67 1.03 <
2153 4 -4 5 -2 5.57 5.63 1.50 o
2154 4 4 6 -4 35.68 10.90 1.21 o
2154 3 1 -6 4 35.68 10.90 1.21 o
2155 4 -4 6 1 1.79 1.55 0.77 <
2156 4 -4 6 -1 11.90 12.53 2.04 o
2157 4 -4 6 -2 0.10 0.82 0.28 <
2158 4 4 7 -4 16.88 13.32 1.32 o
2158 3 1 -7 4 16.88 13.32 1.32 o
2159 4 -4 7 1 10.67 12.56 2.09 o
2160 4 -4 7 -1 0.41 0.75 0.67 <
2161 4 -4 7 -2 0.55 1.24 0.88 <
2162 4 -4 8 -1 4.54 3.97 1.35 <
2163 4 5 -7 -1 0.13 1.57 1.02 <
2164 4 5 -7 1 1.32 0.23 0.32 <
2165 4 5 -6 -2 1.29 1.34 0.60 <
2166 4 5 -6 -1 6.44 5.85 1.41 o
2167 4 5 -6 1 0.23 0.55 0.60 <
2168 4 5 -6 2 0.82 0.06 0.53 <
2169 4 -5 -5 7 0.58 -0.19 0.04 <
2170 5 -5 5 6 7.17 10.63 1.23 o
2170 4 -5 -5 6 7.17 10.63 1.23 o
2171 4 5 -5 -2 10.36 15.47 2.28 o
2172 4 5 -5 -1 0.44 0.26 0.48 <
2173 4 5 -5 1 3.71 3.60 1.08 o
2174 4 5 -5 2 0.52 0.94 0.88 <
2175 4 -5 -4 8 0.04 0.84 0.50 <
2176 4 -5 -4 7 3.14 4.27 1.09 o
2177 5 -5 4 6 10.60 12.95 1.60 o
2177 4 -5 -4 6 10.60 12.95 1.60 o
2178 4 -5 -4 5 0.08 0.86 0.49 <
2179 4 5 -4 -3 1.81 2.91 0.98 <
2180 4 5 -4 -2 2.48 1.71 0.82 <
2181 4 5 -4 -1 15.55 19.34 2.81 o
2182 4 5 -4 1 5.02 4.04 1.50 <
2183 4 5 -4 2 4.25 3.62 1.42 <
2184 4 -5 -3 7 1.04 1.09 0.48 <
2185 5 -5 3 6 8.46 13.18 1.77 o
2185 4 -5 -3 6 8.46 13.18 1.77 o
2186 4 -5 -3 5 5.47 10.12 1.53 o
2187 4 -5 -3 4 8.76 0.01 0.17 <
2187 3 -2 3 -4 8.76 0.01 0.17 <
2188 4 5 -3 -3 19.07 31.52 3.29 o
2189 4 5 -3 -2 17.87 24.59 2.89 o
2190 4 5 -3 -1 0.02 0.65 0.63 <
2191 4 5 -3 1 3.68 3.16 1.14 <
2192 5 -5 2 6 7.30 13.68 1.84 o
2192 4 -5 -2 6 7.30 13.68 1.84 o
2193 4 -5 -2 5 0.25 0.89 0.24 o
2194 4 5 -2 -4 24.67 21.51 2.80 o
2194 3 2 2 4 24.67 21.51 2.80 o
2195 4 -5 -2 4 24.67 16.39 2.09 o
2195 3 -2 2 -4 24.67 16.39 2.09 o
2196 4 5 -2 -3 1.10 1.42 0.53 <
2197 4 -5 -2 3 1.10 1.59 0.63 <
2198 4 5 -2 -2 1.25 0.84 0.66 <
2199 4 5 -2 -1 13.88 12.50 2.12 o
2200 5 -5 1 6 9.20 9.98 1.82 o
2200 4 -5 -1 6 9.20 9.98 1.82 o
2201 4 -5 -1 5 2.46 7.69 1.51 o
2202 4 5 -1 -4 16.67 1.90 1.06 <
2202 3 2 1 4 16.67 1.90 1.06 <
2203 4 -5 -1 4 16.67 1.08 0.73 <
2203 3 -2 1 -4 16.67 1.08 0.73 <
2204 4 -5 -1 3 4.09 4.82 1.07 o
2205 4 5 -1 -3 4.09 4.47 1.20 o
2206 4 -5 -1 2 3.94 5.43 1.23 o
2207 4 5 -1 -2 3.94 3.31 1.08 o
2208 4 5 -1 -1 0.58 0.39 0.69 <
2209 4 -5 0 5 1.86 2.19 0.93 <
2210 4 -5 0 4 13.73 21.71 2.61 o
2210 3 -2 0 -4 13.73 21.71 2.61 o
2211 4 5 0 -4 13.73 20.18 2.29 o
2211 3 2 0 4 13.73 20.18 2.29 o
2212 4 -5 0 3 0.06 7.10 2.79 <
2213 4 5 0 -3 0.06 8.81 3.24 <
2214 4 5 0 -2 0.00 0.17 0.30 <
2215 4 -5 0 2 0.00 0.27 0.45 <
2216 4 5 0 -1 15.99 15.50 2.27 o
2217 4 -5 0 1 15.99 20.92 2.39 o
2218 4 5 1 -5 2.35 6.93 1.36 o
2219 4 -5 1 4 16.74 1.99 0.80 <
2219 3 -2 -1 -4 16.74 1.99 0.80 <
2220 4 5 1 -4 16.74 2.01 0.88 <
2220 3 2 -1 4 16.74 2.01 0.88 <
2221 4 5 1 -3 3.85 4.55 1.11 o
2222 4 -5 1 3 3.85 3.67 1.15 o
2223 4 -5 1 2 4.16 3.22 1.00 o
2224 4 5 1 -2 4.16 3.17 0.83 o
2225 4 -5 1 1 0.59 0.40 0.63 <
2226 4 5 2 -5 0.27 0.78 0.41 <
2227 4 5 2 -4 24.14 17.81 2.24 o
2227 3 2 -2 4 24.14 17.81 2.24 o
2228 4 -5 2 4 24.14 17.93 2.78 o
2228 3 -2 -2 -4 24.14 17.93 2.78 o
2229 4 5 2 -3 1.15 2.03 0.94 <
2230 4 -5 2 3 1.15 1.36 0.66 <
2231 4 5 2 -2 1.20 0.69 0.53 <
2232 4 -5 2 2 1.20 0.89 0.40 <
2233 4 -5 2 1 14.31 14.43 2.22 o
2234 4 5 3 -5 5.58 10.92 1.52 o
2235 4 5 3 -4 9.04 0.60 0.52 <
2235 3 2 -3 4 9.04 0.60 0.52 <
2236 4 5 3 -3 18.86 26.71 3.02 o
2237 4 -5 3 3 18.86 30.28 3.32 o
2238 4 -5 3 2 18.09 21.43 2.95 o
2239 4 -5 3 1 0.02 0.33 0.47 <
2240 4 -5 3 -1 3.66 5.04 1.45 o
2241 4 5 4 -5 0.06 0.52 0.16 o
2242 4 5 4 -4 29.08 20.13 2.20 o
2242 3 2 -4 4 29.08 20.13 2.20 o
2243 4 5 4 -3 1.86 5.96 1.82 o
2244 4 -5 4 3 1.86 3.10 1.18 <
2245 4 -5 4 2 2.43 2.70 1.05 <
2246 4 -5 4 1 15.21 14.87 2.30 o
2247 4 -5 4 -1 5.07 4.63 1.32 o
2248 4 5 5 -5 3.11 5.66 1.04 o
2249 4 5 5 -4 8.68 0.42 0.10 o
2249 3 2 -5 4 8.68 0.42 0.10 o
2250 4 -5 5 2 10.11 12.87 2.32 o
2251 4 -5 5 1 0.45 0.49 0.74 <
2252 4 -5 5 -1 3.74 2.84 1.02 <
2253 4 -5 5 -2 0.53 0.42 0.34 <
2254 4 5 6 -5 1.10 0.46 0.33 <
2255 4 5 6 -4 10.39 6.14 1.26 o
2255 3 2 -6 4 10.39 6.14 1.26 o
2256 4 -5 6 2 1.39 1.39 0.75 <
2257 4 -5 6 1 6.48 6.42 1.66 o
2258 4 -5 6 -1 0.26 -0.70 0.59 <
2259 4 -5 6 -2 0.80 1.03 0.81 <
2260 4 5 7 -5 1.08 0.88 0.32 <
2261 4 -5 7 1 0.14 0.14 0.62 <
2262 4 -5 7 -1 1.31 1.74 1.08 <
2263 4 -5 8 1 2.25 2.49 1.01 <
2264 4 6 -6 -2 0.45 0.49 0.86 <
2265 4 6 -6 -1 0.72 0.67 0.37 <
2266 4 6 -5 -3 0.09 -1.77 1.11 <
2267 4 6 -5 -2 1.68 2.05 0.80 <
2268 4 6 -5 -1 2.14 1.54 0.65 <
2269 4 -6 -4 7 0.05 -0.93 0.55 <
2270 4 -6 -4 6 1.72 1.38 0.51 <
2271 5 -4 4 7 2.80 2.11 0.78 <
2271 4 -6 -4 5 2.80 2.11 0.78 <
2272 4 6 -4 -4 1.32 1.60 0.71 <
2272 3 3 4 4 1.32 1.60 0.71 <
2273 4 6 -4 -3 4.69 4.53 1.49 o
2274 4 6 -4 -2 1.70 1.45 0.83 <
2275 4 6 -4 -1 0.23 0.84 0.74 <
2276 4 6 -4 1 0.04 2.04 1.42 <
2277 4 -6 -3 7 0.81 6.91 1.74 o
2278 4 -6 -3 6 1.41 1.00 0.56 <
2279 5 -4 3 7 7.91 8.63 1.56 o
2279 4 -6 -3 5 7.91 8.63 1.56 o
2280 4 6 -3 -4 8.51 2.77 1.13 <
2280 3 3 3 4 8.51 2.77 1.13 <
2281 4 -6 -3 4 8.51 1.72 0.79 <
2281 3 -3 3 -4 8.51 1.72 0.79 <
2282 4 6 -3 -3 0.08 0.78 0.63 <
2283 4 6 -3 -2 1.13 0.54 0.19 <
2284 4 6 -3 -1 3.34 1.44 0.93 <
2285 4 6 -3 1 1.44 0.39 0.82 <
2286 4 -6 -2 7 0.02 -0.20 0.41 <
2287 4 -6 -2 6 3.17 4.14 1.23 o
2288 5 -4 2 7 4.30 3.01 1.10 <
2288 4 -6 -2 5 4.30 3.01 1.10 <
2289 4 -6 -2 4 1.06 0.93 0.54 <
2289 3 -3 2 -4 1.06 0.93 0.54 <
2290 4 6 -2 -4 1.06 0.33 0.57 <
2290 3 3 2 4 1.06 0.33 0.57 <
2291 4 -6 -2 3 4.97 8.52 1.59 o
2292 4 6 -2 -3 4.97 5.38 1.44 o
2293 4 6 -2 -2 0.35 0.76 0.78 <
2294 4 6 -2 -1 0.85 0.53 0.30 <
2295 4 -6 -1 6 0.27 0.62 0.65 <
2296 5 4 1 -7 9.42 7.49 1.72 o
2296 4 6 -1 -5 9.42 7.49 1.72 o
2297 5 -4 1 7 9.42 9.77 2.00 o
2297 4 -6 -1 5 9.42 9.77 2.00 o
2298 4 6 -1 -4 7.76 4.73 1.26 o
2298 3 3 1 4 7.76 4.73 1.26 o
2299 4 -6 -1 4 7.76 3.27 0.92 o
2299 3 -3 1 -4 7.76 3.27 0.92 o
2300 4 6 -1 -3 0.02 0.11 0.48 <
2301 4 -6 -1 3 0.02 0.09 0.08 <
2302 4 -6 -1 2 3.46 4.85 1.14 o
2303 4 6 -1 -2 3.46 3.28 1.15 <
2304 4 6 -1 -1 2.86 1.21 0.99 <
2305 4 -6 0 6 1.11 1.56 0.81 <
2306 5 -4 0 7 6.26 7.74 1.80 o
2306 4 -6 0 5 6.26 7.74 1.80 o
2307 5 4 0 -7 6.26 6.55 1.55 o
2307 4 6 0 -5 6.26 6.55 1.55 o
2308 4 6 0 -4 0.71 0.26 0.48 <
2308 3 3 0 4 0.71 0.26 0.48 <
2309 4 -6 0 4 0.71 -0.74 0.90 <
2309 3 -3 0 -4 0.71 -0.74 0.90 <
2310 4 -6 0 3 6.54 7.50 1.60 o
2311 4 6 0 -3 6.54 4.79 1.40 o
2312 4 6 0 -2 0.03 -0.27 0.56 <
2313 4 -6 0 2 0.03 0.25 0.30 <
2314 4 -6 0 1 0.66 0.75 0.52 <
2315 4 6 0 -1 0.66 0.02 0.16 <
2316 5 -4 -1 7 9.74 12.66 2.37 o
2316 4 -6 1 5 9.74 12.66 2.37 o
2317 5 4 -1 -7 9.74 10.83 1.89 o
2317 4 6 1 -5 9.74 10.83 1.89 o
2318 4 6 1 -4 7.71 4.41 1.18 o
2318 3 3 -1 4 7.71 4.41 1.18 o
2319 4 -6 1 4 7.71 4.98 1.48 o
2319 3 -3 -1 -4 7.71 4.98 1.48 o
2320 4 6 1 -3 0.02 0.57 0.63 <
2321 4 -6 1 3 0.02 0.89 0.94 <
2322 4 -6 1 2 3.43 4.19 1.36 o
2323 4 6 1 -2 3.43 3.61 1.28 <
2324 4 -6 1 1 2.76 2.93 1.16 <
2325 4 6 2 -6 3.25 4.97 1.15 o
2326 5 -4 -2 7 4.34 4.14 1.13 o
2326 4 -6 2 5 4.34 4.14 1.13 o
2327 5 4 -2 -7 4.34 3.04 1.10 <
2327 4 6 2 -5 4.34 3.04 1.10 <
2328 4 -6 2 4 1.09 0.94 0.81 <
2328 3 -3 -2 -4 1.09 0.94 0.81 <
2329 4 6 2 -4 1.09 0.67 0.32 <
2329 3 3 -2 4 1.09 0.67 0.32 <
2330 4 6 2 -3 4.98 6.40 1.58 o
2331 4 -6 2 3 4.98 8.25 1.87 o
2332 4 -6 2 2 0.31 1.64 0.97 <
2333 4 6 2 -2 0.31 0.02 0.35 <
2334 4 -6 2 1 0.91 1.38 0.90 <
2335 4 6 3 -6 1.40 1.78 0.86 <
2336 5 4 -3 -7 8.02 9.69 1.69 o
2336 4 6 3 -5 8.02 9.69 1.69 o
2337 4 -6 3 4 8.59 2.32 1.11 <
2337 3 -3 -3 -4 8.59 2.32 1.11 <
2338 4 6 3 -4 8.59 1.60 0.71 <
2338 3 3 -3 4 8.59 1.60 0.71 <
2339 4 6 3 -3 0.08 0.16 0.18 <
2340 4 -6 3 3 0.08 1.10 1.13 <
2341 4 -6 3 2 1.19 2.25 1.15 <
2342 4 -6 3 1 3.28 3.32 1.43 <
2343 4 6 4 -6 1.69 2.51 1.04 <
2344 5 4 -4 -7 2.71 2.74 1.03 <
2344 4 6 4 -5 2.71 2.74 1.03 <
2345 4 6 4 -4 1.33 0.32 0.31 <
2345 3 3 -4 4 1.33 0.32 0.31 <
2346 4 -6 4 4 1.33 3.69 1.47 <
2346 3 -3 -4 -4 1.33 3.69 1.47 <
2347 4 -6 4 3 4.68 6.30 1.71 o
2348 4 -6 4 2 1.69 2.24 1.18 <
2349 4 -6 4 1 0.24 0.86 0.75 <
2350 4 -6 4 -1 0.04 -0.38 0.26 <
2351 4 6 5 -6 0.03 -0.14 0.43 <
2352 5 4 -5 -7 5.75 3.00 0.95 o
2352 4 6 5 -5 5.75 3.00 0.95 o
2353 4 6 5 -4 3.01 1.62 0.85 <
2353 3 3 -5 4 3.01 1.62 0.85 <
2354 4 -6 5 3 0.09 0.59 0.63 <
2355 4 -6 5 2 1.64 1.37 0.43 o
2356 4 -6 5 1 2.23 0.79 0.28 <
2357 5 4 -6 -7 2.09 1.73 0.69 <
2357 4 6 6 -5 2.09 1.73 0.69 <
2358 4 -6 6 3 2.10 3.37 1.37 <
2359 4 -6 6 2 0.49 1.63 1.14 <
2360 4 -6 6 1 0.68 1.54 1.13 <
2361 4 -7 -4 6 0.00 -0.06 0.32 <
2362 4 -7 -3 6 0.17 0.40 0.37 <
2363 4 -7 -3 5 0.09 -0.29 0.54 <
2364 4 7 -3 -5 0.09 -0.67 0.49 <
2365 5 -3 3 8 3.58 3.48 1.36 <
2365 4 -7 -3 4 3.58 3.48 1.36 <
2365 3 -4 3 -4 3.58 3.48 1.36 <
2365 1 7 3 -4 3.58 3.48 1.36 <
2366 5 3 3 -8 3.58 3.10 1.21 <
2366 4 7 -3 -4 3.58 3.10 1.21 <
2366 3 4 3 4 3.58 3.10 1.21 <
2366 1 -7 3 4 3.58 3.10 1.21 <
2367 4 7 -3 -3 0.60 0.07 0.70 <
2368 4 7 -3 -2 0.23 0.46 0.58 <
2369 4 -7 -2 7 0.14 0.62 0.70 <
2370 4 -7 -2 6 0.08 0.89 0.68 <
2371 4 -7 -2 5 1.16 1.06 0.68 <
2372 4 7 -2 -5 1.16 2.19 0.85 <
2373 5 3 2 -8 4.64 3.26 1.23 <
2373 4 7 -2 -4 4.64 3.26 1.23 <
2373 3 4 2 4 4.64 3.26 1.23 <
2373 1 -7 2 4 4.64 3.26 1.23 <
2374 5 -3 2 8 4.64 4.54 1.43 o
2374 4 -7 -2 4 4.64 4.54 1.43 o
2374 3 -4 2 -4 4.64 4.54 1.43 o
2374 1 7 2 -4 4.64 4.54 1.43 o
2375 4 -7 -2 3 0.07 0.39 0.44 <
2376 4 7 -2 -3 0.07 0.32 0.24 <
2377 4 7 -2 -2 1.55 0.78 1.11 <
2378 4 -7 -1 7 0.62 0.19 0.89 <
2379 4 -7 -1 6 0.39 0.75 0.87 <
2380 4 -7 -1 5 0.30 0.43 0.28 <
2381 4 7 -1 -5 0.30 1.16 0.83 <
2382 5 -3 1 8 6.31 3.91 1.18 o
2382 4 -7 -1 4 6.31 3.91 1.18 o
2382 3 -4 1 -4 6.31 3.91 1.18 o
2382 1 7 1 -4 6.31 3.91 1.18 o
2383 5 3 1 -8 6.31 8.26 1.91 o
2383 4 7 -1 -4 6.31 8.26 1.91 o
2383 3 4 1 4 6.31 8.26 1.91 o
2383 1 -7 1 4 6.31 8.26 1.91 o
2384 4 7 -1 -3 1.12 -0.55 1.22 <
2385 4 -7 -1 3 1.12 1.16 0.67 <
2386 4 7 -1 -2 0.35 -0.19 0.86 <
2387 4 7 -1 -1 0.49 1.07 0.66 <
2388 4 -7 0 7 0.21 2.32 1.43 <
2389 4 -7 0 6 0.00 0.03 0.77 <
2390 4 7 0 -6 0.00 -0.79 0.61 <
2391 4 7 0 -5 1.98 3.84 1.29 <
2392 4 -7 0 5 1.98 2.74 1.14 <
2393 5 3 0 -8 15.05 19.02 2.95 o
2393 4 7 0 -4 15.05 19.02 2.95 o
2393 3 4 0 4 15.05 19.02 2.95 o
2393 1 -7 0 4 15.05 19.02 2.95 o
2394 5 -3 0 8 15.05 14.81 2.52 o
2394 4 -7 0 4 15.05 14.81 2.52 o
2394 3 -4 0 -4 15.05 14.81 2.52 o
2394 1 7 0 -4 15.05 14.81 2.52 o
2395 4 -7 0 3 0.48 1.92 0.89 <
2396 4 7 0 -3 0.48 0.63 0.49 <
2397 4 7 0 -2 1.83 1.65 0.64 <
2398 4 -7 0 2 1.83 3.60 1.25 <
2399 4 -7 1 6 0.38 0.08 0.30 <
2400 4 7 1 -6 0.38 1.65 1.02 <
2401 4 7 1 -5 0.30 0.35 0.45 <
2402 4 -7 1 5 0.30 0.03 0.74 <
2403 5 3 -1 -8 6.24 7.35 1.73 o
2403 4 7 1 -4 6.24 7.35 1.73 o
2403 3 4 -1 4 6.24 7.35 1.73 o
2403 1 -7 -1 4 6.24 7.35 1.73 o
2404 5 -3 -1 8 6.24 5.82 1.57 o
2404 4 -7 1 4 6.24 5.82 1.57 o
2404 3 -4 -1 -4 6.24 5.82 1.57 o
2404 1 7 -1 -4 6.24 5.82 1.57 o
2405 4 7 1 -3 1.11 2.43 1.21 <
2406 4 -7 1 3 1.11 1.35 0.45 o
2407 4 -7 1 2 0.35 1.28 0.91 <
2408 4 7 1 -2 0.35 -0.76 1.17 <
2409 4 7 2 -6 0.08 -0.13 0.35 <
2410 4 -7 2 5 1.18 1.17 0.24 o
2411 4 7 2 -5 1.18 1.15 0.77 <
2412 5 3 -2 -8 4.42 5.47 1.70 o
2412 4 7 2 -4 4.42 5.47 1.70 o
2412 3 4 -2 4 4.42 5.47 1.70 o
2412 1 -7 -2 4 4.42 5.47 1.70 o
2413 5 -3 -2 8 4.42 1.86 0.31 o
2413 4 -7 2 4 4.42 1.86 0.31 o
2413 3 -4 -2 -4 4.42 1.86 0.31 o
2413 1 7 -2 -4 4.42 1.86 0.31 o
2414 4 7 2 -3 0.06 -0.45 1.13 <
2415 4 -7 2 3 0.06 0.74 0.91 <
2416 4 -7 2 2 1.53 1.27 0.86 <
2417 4 7 3 -6 0.17 0.90 0.77 <
2418 4 7 3 -5 0.09 -0.87 0.67 <
2419 4 -7 3 5 0.09 -0.16 0.23 <
2420 5 3 -3 -8 3.61 2.92 1.55 <
2420 4 7 3 -4 3.61 2.92 1.55 <
2420 3 4 -3 4 3.61 2.92 1.55 <
2420 1 -7 -3 4 3.61 2.92 1.55 <
2421 5 -3 -3 8 3.61 3.51 1.53 <
2421 4 -7 3 4 3.61 3.51 1.53 <
2421 3 -4 -3 -4 3.61 3.51 1.53 <
2421 1 7 -3 -4 3.61 3.51 1.53 <
2422 4 -7 3 3 0.61 1.42 0.98 <
2423 4 7 3 -3 0.61 0.36 0.68 <
2424 4 7 4 -6 0.00 -1.27 0.96 <
2425 4 7 4 -5 0.56 0.64 0.57 <
2426 5 3 -4 -8 2.20 1.94 1.28 <
2426 4 7 4 -4 2.20 1.94 1.28 <
2426 3 4 -4 4 2.20 1.94 1.28 <
2426 1 -7 -4 4 2.20 1.94 1.28 <
2427 5 3 -5 -8 1.27 0.86 0.69 <
2427 4 7 5 -4 1.27 0.86 0.69 <
2427 3 4 -5 4 1.27 0.86 0.69 <
2427 1 -7 -5 4 1.27 0.86 0.69 <
2428 4 8 1 -4 0.73 0.44 0.59 <
2428 3 5 -1 4 0.73 0.44 0.59 <
2429 6 3 8 -4 1.58 0.22 0.36 <
2429 5 0 -8 4 1.58 0.22 0.36 <
2430 5 0 -8 5 8.40 7.35 1.11 o
2431 5 0 -7 3 17.07 17.16 1.56 o
2432 6 3 7 -4 99.04 115.69 4.55 o
2432 5 0 -7 4 99.04 115.69 4.55 o
2433 5 0 -7 5 10.44 21.81 1.99 o
2434 5 0 -7 6 1.33 1.52 0.56 <
2435 5 0 -6 3 24.64 28.93 1.89 o
2436 6 3 6 -4 11.35 12.81 1.41 o
2436 5 0 -6 4 11.35 12.81 1.41 o
2437 5 0 -6 5 15.56 24.83 2.07 o
2438 5 0 -6 6 0.59 0.59 0.40 <
2439 5 0 -5 2 90.62 107.66 3.32 o
2440 5 0 -5 3 0.15 -0.02 0.09 <
2441 6 3 5 -4 16.16 14.20 1.41 o
2441 5 0 -5 4 16.16 14.20 1.41 o
2442 5 0 -5 5 13.97 16.48 1.63 o
2443 5 0 -5 6 2.62 6.85 1.85 o
2444 5 0 -4 2 5.73 8.95 0.84 o
2445 5 0 -4 3 113.23 124.56 3.73 o
2446 6 3 4 -4 5.41 1.46 0.57 <
2446 5 0 -4 4 5.41 1.46 0.57 <
2447 5 0 -4 5 0.61 0.24 0.24 <
2448 5 0 -4 6 23.87 36.37 2.51 o
2449 5 0 -4 7 0.86 1.99 0.91 <
2450 5 0 -3 2 437.72 503.60 7.20 o
2451 5 0 -3 3 2.45 1.54 0.37 o
2452 6 3 3 -4 4.64 3.06 0.66 o
2452 5 0 -3 4 4.64 3.06 0.66 o
2453 5 0 -3 5 15.48 18.18 1.57 o
2454 5 0 -3 6 0.02 0.24 0.41 <
2455 5 0 -3 7 10.46 17.65 1.84 o
2456 5 0 -2 1 3.17 -0.02 0.06 <
2457 5 0 -2 2 213.86 207.66 3.90 o
2458 5 0 -2 3 203.57 237.02 4.83 o
2459 6 3 2 -4 6.05 6.75 0.86 o
2459 5 0 -2 4 6.05 6.75 0.86 o
2460 5 0 -2 5 33.23 44.73 2.53 o
2461 5 0 -2 6 22.38 35.97 2.50 o
2462 5 0 -2 7 3.38 8.62 1.35 o
2463 5 0 -1 1 726.53 640.72 6.71 o
2464 5 0 -1 2 120.75 131.32 2.84 o
2465 5 0 -1 3 49.55 55.36 2.07 o
2466 6 3 1 -4 283.49 278.28 5.80 o
2466 5 0 -1 4 283.49 278.28 5.80 o
2467 5 0 -1 5 42.84 55.87 2.75 o
2468 5 0 -1 6 9.53 12.20 1.38 o
2469 5 0 -1 7 3.88 12.34 1.59 o
2470 5 0 0 -1 192.84 126.45 2.01 o
2471 5 0 0 1 192.84 129.26 1.99 o
2472 5 0 0 -2 9.26 12.43 0.79 o
2473 5 0 0 2 9.26 12.50 0.76 o
2474 5 0 0 -3 258.28 237.75 4.56 o
2475 5 0 0 3 258.28 237.01 4.45 o
2476 6 -3 0 4 35.86 32.58 2.01 o
2476 5 0 0 -4 35.86 32.58 2.01 o
2477 6 3 0 -4 35.86 35.25 1.94 o
2477 5 0 0 4 35.86 35.25 1.94 o
2478 5 0 0 -5 45.67 53.30 2.72 o
2479 5 0 0 5 45.67 61.74 2.81 o
2480 5 0 0 -6 0.81 1.26 0.57 <
2481 5 0 1 -1 726.54 668.03 7.00 o
2482 5 0 1 -2 120.40 134.04 2.87 o
2483 5 0 1 -3 49.60 54.43 2.14 o
2484 6 -3 -1 4 282.56 273.73 5.98 o
2484 5 0 1 -4 282.56 273.73 5.98 o
2485 5 0 1 -5 42.99 49.62 2.81 o
2486 5 0 1 -6 9.51 10.34 1.51 o
2487 5 0 1 -7 3.87 5.43 1.29 o
2488 5 0 2 -1 3.20 -0.06 0.08 <
2489 5 0 2 -2 214.13 205.59 3.87 o
2490 5 0 2 -3 203.45 238.27 4.88 o
2491 6 -3 -2 4 5.94 6.08 0.87 o
2491 5 0 2 -4 5.94 6.08 0.87 o
2492 5 0 2 -5 33.26 38.58 2.49 o
2493 5 0 2 -6 22.43 29.33 2.48 o
2494 5 0 2 -7 3.39 5.04 1.22 o
2495 5 0 3 -2 437.57 519.23 7.21 o
2496 5 0 3 -3 2.45 1.44 0.41 o
2497 6 -3 -3 4 4.16 2.63 0.63 o
2497 5 0 3 -4 4.16 2.63 0.63 o
2498 5 0 3 -5 15.35 15.45 1.59 o
2499 5 0 3 -6 0.04 -0.27 0.21 <
2500 5 0 3 -7 10.48 9.42 1.37 o
2501 5 0 4 -2 5.64 7.36 0.78 o
2502 5 0 4 -3 113.71 125.25 3.61 o
2503 6 -3 -4 4 5.44 1.11 0.40 <
2503 5 0 4 -4 5.44 1.11 0.40 <
2504 5 0 4 -5 0.44 0.07 0.15 <
2505 5 0 4 -6 23.75 31.94 2.56 o
2506 5 0 4 -7 0.85 2.16 0.80 <
2507 5 0 5 -3 0.12 0.31 0.21 <
2508 6 -3 -5 4 17.08 12.09 1.26 o
2508 5 0 5 -4 17.08 12.09 1.26 o
2509 5 0 5 -5 13.97 16.49 1.58 o
2510 5 0 5 -6 2.63 2.41 0.59 o
2511 6 -3 -6 4 11.35 11.92 1.25 o
2511 5 0 6 -4 11.35 11.92 1.25 o
2512 5 0 6 -5 15.69 21.64 1.82 o
2513 5 0 6 -6 0.69 2.07 0.74 <
2514 5 0 7 -5 10.50 17.22 1.79 o
2515 5 0 7 -6 1.32 1.41 0.53 <
2516 5 1 -9 3 7.50 5.29 0.74 o
2517 5 1 -8 2 11.77 15.43 1.31 o
2518 5 1 -8 3 10.05 7.15 1.04 o
2519 6 4 8 -4 12.26 7.76 1.22 o
2519 5 1 -8 4 12.26 7.76 1.22 o
2520 5 -1 -7 6 2.46 2.18 0.63 o
2521 5 -1 -7 5 3.18 1.70 0.59 <
2522 5 1 -7 2 7.77 8.48 0.96 o
2523 5 1 -7 3 29.88 32.53 2.10 o
2524 6 4 7 -4 23.70 12.93 1.49 o
2524 5 1 -7 4 23.70 12.93 1.49 o
2525 5 1 -7 5 2.78 3.22 0.64 o
2526 5 -1 -6 6 2.22 2.27 0.73 o
2527 5 -1 -6 5 46.59 66.30 3.45 o
2528 5 1 -6 1 146.71 174.63 3.93 o
2528 4 -1 6 -1 146.71 174.63 3.93 o
2529 5 1 -6 2 26.63 26.46 1.60 o
2530 5 1 -6 3 14.94 20.08 1.57 o
2531 6 4 6 -4 55.49 71.13 3.35 o
2531 5 1 -6 4 55.49 71.13 3.35 o
2532 5 1 -6 5 2.30 3.34 0.84 o
2533 5 1 -6 6 1.75 2.42 0.80 o
2534 5 -1 -5 7 3.18 4.70 1.05 o
2535 5 -1 -5 6 15.88 22.29 2.08 o
2536 5 -1 -5 5 7.70 3.74 0.79 o
2537 6 2 5 -4 55.22 63.24 3.04 o
2537 5 -1 -5 4 55.22 63.24 3.04 o
2538 5 1 -5 1 78.73 84.45 2.43 o
2538 4 -1 5 -1 78.73 84.45 2.43 o
2539 5 1 -5 2 82.47 101.51 3.05 o
2540 5 1 -5 3 47.10 57.86 2.53 o
2541 6 4 5 -4 16.57 10.67 1.28 o
2541 5 1 -5 4 16.57 10.67 1.28 o
2542 5 1 -5 5 17.89 27.68 2.14 o
2543 5 1 -5 6 3.88 6.43 1.14 o
2544 5 -1 -4 7 9.65 13.23 1.66 o
2545 5 -1 -4 6 3.13 3.04 0.77 o
2546 5 -1 -4 5 11.33 15.84 1.59 o
2547 6 2 4 -4 152.54 163.32 5.05 o
2547 5 -1 -4 4 152.54 163.32 5.05 o
2548 5 -1 -4 3 37.10 44.15 2.26 o
2549 6 1 4 0 49.71 47.77 1.45 o
2549 5 1 -4 0 49.71 47.77 1.45 o
2550 5 1 -4 1 507.62 635.80 7.93 o
2550 4 -1 4 -1 507.62 635.80 7.93 o
2551 5 1 -4 2 41.88 50.28 2.02 o
2552 5 1 -4 3 35.29 52.08 2.30 o
2553 6 4 4 -4 11.37 18.79 1.48 o
2553 5 1 -4 4 11.37 18.79 1.48 o
2554 5 1 -4 5 4.12 3.35 0.85 o
2555 5 1 -4 6 10.02 16.84 1.81 o
2556 5 -1 -3 7 9.49 14.27 1.64 o
2557 5 -1 -3 6 13.63 20.86 1.86 o
2558 5 -1 -3 5 11.54 12.06 1.34 o
2559 6 2 3 -4 65.80 74.29 3.19 o
2559 5 -1 -3 4 65.80 74.29 3.19 o
2560 5 -1 -3 3 212.05 239.16 5.22 o
2561 6 1 3 0 195.62 189.27 2.87 o
2561 5 1 -3 0 195.62 189.27 2.87 o
2562 5 1 -3 1 45.47 50.72 1.64 o
2562 4 -1 3 -1 45.47 50.72 1.64 o
2563 5 1 -3 2 216.99 219.73 4.36 o
2564 5 1 -3 3 60.86 69.04 2.68 o
2565 6 4 3 -4 18.22 18.66 1.54 o
2565 5 1 -3 4 18.22 18.66 1.54 o
2566 5 1 -3 5 16.62 28.85 2.12 o
2567 5 1 -3 6 11.59 20.23 1.93 o
2568 5 -1 -2 7 5.16 10.13 1.38 o
2569 5 -1 -2 6 0.93 0.64 0.34 <
2570 5 -1 -2 5 39.18 38.34 2.25 o
2571 5 1 -2 -5 39.18 34.09 2.00 o
2572 6 2 2 -4 79.75 64.87 2.87 o
2572 5 -1 -2 4 79.75 64.87 2.87 o
2573 6 -2 2 4 79.75 73.48 2.57 o
2573 5 1 -2 -4 79.75 73.48 2.57 o
2574 5 -1 -2 3 184.34 192.34 4.30 o
2575 5 1 -2 -3 184.34 184.66 3.53 o
2576 5 1 -2 -2 715.63 756.07 7.65 o
2577 5 1 -2 1 1205.53 1300.44 12.70 o
2577 4 -1 2 -1 1205.53 1300.44 12.70 o
2578 5 1 -2 2 185.99 188.02 3.78 o
2579 5 1 -2 3 9.83 8.76 0.96 o
2580 6 4 2 -4 38.06 40.95 2.27 o
2580 5 1 -2 4 38.06 40.95 2.27 o
2581 5 1 -2 5 0.21 0.27 0.15 <
2582 5 1 -2 6 8.29 14.48 1.70 o
2583 5 -1 -1 8 0.62 2.12 0.63 o
2584 5 1 -1 -8 0.62 1.70 0.88 <
2585 5 1 -1 -7 4.81 3.87 0.97 o
2586 5 -1 -1 7 4.81 6.84 1.21 o
2587 5 1 -1 -6 16.78 21.45 1.84 o
2588 5 -1 -1 6 16.78 23.60 1.87 o
2589 5 -1 -1 5 19.90 18.38 1.53 o
2590 5 1 -1 -5 19.90 18.58 1.47 o
2591 6 -2 1 4 135.73 143.82 3.68 o
2591 5 1 -1 -4 135.73 143.82 3.68 o
2592 6 2 1 -4 135.73 140.60 3.90 o
2592 5 -1 -1 4 135.73 140.60 3.90 o
2593 5 1 -1 -3 50.70 43.12 1.63 o
2594 5 -1 -1 3 50.70 42.32 1.84 o
2595 5 -1 -1 2 306.49 293.68 4.68 o
2596 5 1 -1 -2 306.49 294.40 3.97 o
2597 5 -1 0 8 3.40 2.25 0.68 o
2598 5 1 0 -8 3.40 2.30 0.86 <
2599 5 -1 0 7 6.56 7.40 1.18 o
2600 5 1 0 -7 6.56 4.91 1.04 o
2601 5 1 0 -6 5.76 9.73 1.16 o
2602 5 -1 0 6 5.76 11.04 1.14 o
2603 5 1 0 -5 126.32 155.79 4.57 o
2604 5 -1 0 5 126.32 163.31 4.46 o
2605 6 2 0 -4 202.54 186.33 4.29 o
2605 5 -1 0 4 202.54 186.33 4.29 o
2606 6 -2 0 4 202.54 190.51 4.51 o
2606 5 1 0 -4 202.54 190.51 4.51 o
2607 5 1 0 -3 3.58 5.30 0.58 o
2608 5 -1 0 3 3.58 5.35 0.60 o
2609 5 1 0 -2 15.79 18.99 0.95 o
2610 5 -1 0 2 15.79 19.44 0.90 o
2611 5 1 1 -8 0.63 -0.49 0.50 <
2612 5 -1 1 7 4.60 6.09 0.95 o
2613 5 1 1 -7 4.60 2.28 0.84 <
2614 5 1 1 -6 16.29 20.89 1.86 o
2615 5 -1 1 6 16.29 23.44 1.84 o
2616 5 -1 1 5 19.44 21.43 1.48 o
2617 5 1 1 -5 19.44 18.82 1.57 o
2618 6 -2 -1 4 135.03 147.24 4.00 o
2618 5 1 1 -4 135.03 147.24 4.00 o
2619 6 2 -1 -4 135.03 137.54 3.50 o
2619 5 -1 1 4 135.03 137.54 3.50 o
2620 5 -1 1 3 53.99 48.05 1.68 o
2621 5 1 1 -3 53.99 47.96 1.95 o
2622 5 1 1 -2 307.67 293.99 4.56 o
2623 5 -1 1 2 307.67 296.22 3.84 o
2624 5 -1 1 -2 58.78 42.07 1.75 o
2625 5 -1 1 -3 133.66 115.26 3.49 o
2626 5 1 2 -8 2.85 2.76 0.65 o
2627 5 1 2 -7 5.28 6.80 1.32 o
2628 5 1 2 -6 0.86 0.87 0.46 <
2629 5 1 2 -5 38.00 36.09 2.33 o
2630 6 -2 -2 4 78.41 72.19 2.98 o
2630 5 1 2 -4 78.41 72.19 2.98 o
2631 5 1 2 -3 180.74 180.70 4.18 o
2632 5 -1 2 -1 1205.40 1301.48 12.76 o
2632 4 1 -2 1 1205.40 1301.48 12.76 o
2633 5 -1 2 -2 189.69 193.92 3.88 o
2634 5 -1 2 -3 10.56 10.74 1.05 o
2635 6 -4 -2 4 39.01 39.10 2.33 o
2635 5 -1 2 -4 39.01 39.10 2.33 o
2636 5 -1 2 -5 0.25 0.19 0.23 <
2637 5 -1 2 -6 8.16 10.98 1.58 o
2638 5 1 3 -7 9.35 10.19 1.34 o
2639 5 1 3 -6 13.70 24.33 2.12 o
2640 5 1 3 -5 11.60 12.55 1.31 o
2641 6 -2 -3 4 64.24 78.30 3.10 o
2641 5 1 3 -4 64.24 78.30 3.10 o
2642 5 1 3 -3 211.95 238.71 5.10 o
2643 5 -1 3 -1 45.37 53.35 1.61 o
2643 4 1 -3 1 45.37 53.35 1.61 o
2644 5 -1 3 -2 217.55 229.66 4.43 o
2645 5 -1 3 -3 62.74 70.40 2.71 o
2646 6 -4 -3 4 18.43 17.20 1.55 o
2646 5 -1 3 -4 18.43 17.20 1.55 o
2647 5 -1 3 -5 16.48 21.06 1.90 o
2648 5 -1 3 -6 11.76 16.30 1.80 o
2649 5 1 4 -7 9.63 11.60 1.80 o
2650 5 1 4 -6 3.05 2.39 0.72 o
2651 5 1 4 -5 11.65 12.15 1.32 o
2652 6 -2 -4 4 152.75 149.01 4.68 o
2652 5 1 4 -4 152.75 149.01 4.68 o
2653 5 -1 4 -1 508.08 640.39 8.01 o
2653 4 1 -4 1 508.08 640.39 8.01 o
2654 5 -1 4 -2 41.21 46.51 2.01 o
2655 5 -1 4 -3 34.86 51.38 2.38 o
2656 6 -4 -4 4 11.11 17.04 1.47 o
2656 5 -1 4 -4 11.11 17.04 1.47 o
2657 5 -1 4 -5 4.22 4.30 0.92 o
2658 5 -1 4 -6 10.08 14.45 1.66 o
2659 5 1 5 -7 3.31 3.15 0.89 o
2660 5 1 5 -6 15.93 23.97 2.17 o
2661 5 1 5 -5 7.92 5.39 0.92 o
2662 6 -2 -5 4 56.44 59.92 2.95 o
2662 5 1 5 -4 56.44 59.92 2.95 o
2663 5 -1 5 -2 83.12 99.38 3.05 o
2664 5 -1 5 -3 45.88 55.76 2.52 o
2665 6 -4 -5 4 16.08 8.73 1.03 o
2665 5 -1 5 -4 16.08 8.73 1.03 o
2666 5 -1 5 -5 17.84 22.66 1.90 o
2667 5 -1 5 -6 3.74 2.20 0.34 o
2668 5 1 6 -6 2.32 1.44 0.44 o
2669 5 1 6 -5 47.12 64.67 3.34 o
2670 5 -1 6 -3 14.66 16.15 1.36 o
2671 6 -4 -6 4 55.10 66.08 3.18 o
2671 5 -1 6 -4 55.10 66.08 3.18 o
2672 5 -1 6 -5 2.20 1.87 0.65 <
2673 5 -1 6 -6 1.78 3.43 1.02 o
2674 5 1 7 -6 2.54 1.32 0.48 <
2675 5 -1 7 -3 29.65 27.95 1.94 o
2676 6 -4 -7 4 23.76 7.94 1.03 o
2676 5 -1 7 -4 23.76 7.94 1.03 o
2677 5 -1 7 -5 2.74 1.82 0.44 o
2678 6 -4 -8 4 12.48 4.79 0.96 o
2678 5 -1 8 -4 12.48 4.79 0.96 o
2679 5 2 -9 1 8.52 8.84 0.85 o
2680 5 2 -9 2 0.88 0.56 0.38 <
2680 4 -2 9 -2 0.88 0.56 0.38 <
2681 6 2 8 0 1.97 1.12 0.29 o
2681 5 2 -8 0 1.97 1.12 0.29 o
2682 5 2 -8 1 12.15 13.24 1.07 o
2683 5 2 -8 2 23.28 30.98 1.86 o
2683 4 -2 8 -2 23.28 30.98 1.86 o
2684 5 2 -8 3 4.71 3.08 0.67 o
2685 6 5 8 -4 3.04 0.66 0.21 o
2685 5 2 -8 4 3.04 0.66 0.21 o
2686 6 2 7 0 22.71 35.96 1.49 o
2686 5 2 -7 0 22.71 35.96 1.49 o
2687 5 2 -7 1 21.83 23.69 1.39 o
2688 5 2 -7 2 6.89 6.79 0.82 o
2688 4 -2 7 -2 6.89 6.79 0.82 o
2689 5 2 -7 3 9.29 9.07 1.02 o
2690 6 5 7 -4 8.08 8.53 1.25 o
2690 5 2 -7 4 8.08 8.53 1.25 o
2691 5 2 -6 -1 77.78 73.69 1.79 o
2692 6 2 6 0 55.68 68.46 1.90 o
2692 5 2 -6 0 55.68 68.46 1.90 o
2693 5 2 -6 1 17.44 20.09 1.14 o
2694 5 2 -6 2 62.57 70.62 2.59 o
2694 4 -2 6 -2 62.57 70.62 2.59 o
2695 5 2 -6 3 15.41 18.66 1.47 o
2696 6 5 6 -4 14.96 8.76 1.14 o
2696 5 2 -6 4 14.96 8.76 1.14 o
2697 5 2 -6 5 4.41 4.21 0.88 o
2698 5 -2 -5 7 3.58 2.12 0.49 o
2699 5 -2 -5 6 16.57 16.20 1.90 o
2700 5 2 -5 -1 64.19 55.29 1.35 o
2701 6 2 5 0 178.79 196.64 3.28 o
2701 5 2 -5 0 178.79 196.64 3.28 o
2702 5 2 -5 1 84.77 86.28 2.40 o
2703 5 2 -5 2 20.38 24.25 1.49 o
2703 4 -2 5 -2 20.38 24.25 1.49 o
2704 5 2 -5 3 34.32 46.14 2.31 o
2705 6 5 5 -4 13.64 20.30 1.74 o
2705 5 2 -5 4 13.64 20.30 1.74 o
2706 5 2 -5 5 5.46 2.69 0.66 o
2707 5 2 -5 6 3.60 4.44 1.05 o
2708 5 -2 -4 7 8.16 9.80 1.49 o
2709 5 -2 -4 6 19.39 23.11 2.09 o
2710 5 2 -4 -6 19.39 21.06 1.63 o
2711 5 -2 -4 5 0.47 0.02 0.23 <
2712 5 2 -4 -5 0.47 0.48 0.26 <
2713 6 -1 4 4 161.59 168.74 3.51 o
2713 5 2 -4 -4 161.59 168.74 3.51 o
2714 5 2 -4 -3 65.30 57.90 1.65 o
2715 6 2 4 0 8.83 11.30 0.61 o
2715 5 2 -4 0 8.83 11.30 0.61 o
2716 5 2 -4 1 69.18 68.75 2.08 o
2717 5 2 -4 2 227.82 244.11 4.94 o
2717 4 -2 4 -2 227.82 244.11 4.94 o
2718 5 2 -4 3 0.34 0.53 0.30 <
2719 6 5 4 -4 43.00 40.85 2.57 o
2719 5 2 -4 4 43.00 40.85 2.57 o
2720 5 2 -4 5 11.38 15.16 1.81 o
2721 5 2 -3 -8 3.22 3.16 0.84 o
2722 5 -2 -3 7 7.03 5.41 1.47 o
2723 5 2 -3 -7 7.03 5.18 0.93 o
2724 5 -2 -3 6 9.97 10.82 1.46 o
2725 5 2 -3 -6 9.97 11.48 1.20 o
2726 5 -2 -3 5 34.36 43.31 2.73 o
2727 5 2 -3 -5 34.36 41.92 2.08 o
2728 6 -1 3 4 58.44 60.22 2.07 o
2728 5 2 -3 -4 58.44 60.22 2.07 o
2729 5 2 -3 -3 143.66 160.87 2.89 o
2730 5 2 -2 -8 0.89 1.65 0.55 <
2731 5 -2 -2 8 0.89 0.99 0.42 <
2732 5 2 -2 -7 7.03 5.91 0.97 o
2733 5 -2 -2 7 7.03 7.01 1.26 o
2734 5 -2 -2 6 22.47 24.73 2.12 o
2735 5 2 -2 -6 22.47 27.01 1.94 o
2736 5 -2 -2 5 23.28 25.55 1.94 o
2737 5 2 -2 -5 23.28 25.71 1.68 o
2738 6 1 2 -4 85.07 85.13 3.20 o
2738 5 -2 -2 4 85.07 85.13 3.20 o
2739 6 -1 2 4 85.07 87.13 2.57 o
2739 5 2 -2 -4 85.07 87.13 2.57 o
2740 5 2 -2 -3 97.23 94.73 2.25 o
2741 5 2 -1 -8 4.18 4.80 1.05 o
2742 5 -2 -1 8 4.18 6.70 1.28 o
2743 5 2 -1 -7 3.67 1.69 0.32 o
2744 5 -2 -1 7 3.67 2.05 0.75 <
2745 5 2 -1 -6 23.13 20.43 1.77 o
2746 5 -2 -1 6 23.13 22.95 1.87 o
2747 5 2 -1 -5 21.70 27.71 1.77 o
2748 5 -2 -1 5 21.70 25.96 1.89 o
2749 6 1 1 -4 123.60 114.26 3.52 o
2749 5 -2 -1 4 123.60 114.26 3.52 o
2750 6 -1 1 4 123.60 117.84 3.16 o
2750 5 2 -1 -4 123.60 117.84 3.16 o
2751 5 2 -1 -3 142.98 129.21 2.92 o
2752 5 -2 -1 3 142.98 126.51 3.28 o
2753 5 -2 0 8 0.67 4.82 1.05 o
2754 5 2 0 -8 0.67 5.10 1.07 o
2755 5 2 0 -7 9.00 9.49 1.40 o
2756 5 -2 0 7 9.00 10.25 1.31 o
2757 5 2 0 -6 0.27 0.92 0.41 <
2758 5 -2 0 6 0.27 1.18 0.47 <
2759 5 2 0 -5 4.58 3.82 0.68 o
2760 5 -2 0 5 4.58 3.19 0.49 o
2761 6 -1 0 4 202.13 182.83 4.33 o
2761 5 2 0 -4 202.13 182.83 4.33 o
2762 6 1 0 -4 202.13 182.40 4.15 o
2762 5 -2 0 4 202.13 182.40 4.15 o
2763 5 -2 0 3 4.90 6.40 0.66 o
2764 5 2 0 -3 4.90 4.69 0.59 o
2765 5 2 1 -8 4.41 6.57 1.37 o
2766 5 -2 1 8 4.41 8.11 1.32 o
2767 5 2 1 -7 3.84 3.71 0.93 o
2768 5 -2 1 7 3.84 2.68 0.66 o
2769 5 2 1 -6 23.20 25.31 2.02 o
2770 5 -2 1 6 23.20 29.14 1.95 o
2771 5 2 1 -5 20.88 24.86 1.86 o
2772 5 -2 1 5 20.88 23.96 1.61 o
2773 6 -1 -1 4 124.25 107.94 3.44 o
2773 5 2 1 -4 124.25 107.94 3.44 o
2774 6 1 -1 -4 124.25 121.81 3.09 o
2774 5 -2 1 4 124.25 121.81 3.09 o
2775 5 -2 1 3 139.32 131.49 2.76 o
2776 5 -2 1 2 43.13 31.28 1.10 o
2777 5 2 2 -8 0.87 1.14 0.52 <
2778 5 -2 2 7 7.26 8.66 1.12 o
2779 5 2 2 -7 7.26 6.59 1.24 o
2780 5 2 2 -6 22.27 27.85 2.19 o
2781 5 -2 2 6 22.27 28.95 1.90 o
2782 5 2 2 -5 23.92 27.67 1.93 o
2783 5 -2 2 5 23.92 26.30 1.61 o
2784 6 -1 -2 4 86.36 86.07 3.24 o
2784 5 2 2 -4 86.36 86.07 3.24 o
2785 6 1 -2 -4 86.36 87.33 2.55 o
2785 5 -2 2 4 86.36 87.33 2.55 o
2786 5 -2 2 3 100.16 99.61 2.18 o
2787 5 -2 2 2 46.53 40.15 0.96 o
2788 5 2 3 -8 3.19 3.02 0.76 o
2789 5 2 3 -7 7.08 4.53 1.15 o
2790 5 2 3 -6 10.36 10.40 1.21 o
2791 5 2 3 -5 34.17 42.13 2.59 o
2792 6 -2 -3 0 594.69 629.55 6.74 o
2792 5 -2 3 0 594.69 629.55 6.74 o
2793 5 -2 3 -1 151.73 165.32 3.36 o
2794 5 -2 3 -2 8.10 7.21 0.85 o
2794 4 2 -3 2 8.10 7.21 0.85 o
2795 5 -2 3 -3 36.85 39.63 2.23 o
2796 6 -5 -3 4 13.77 10.07 1.35 o
2796 5 -2 3 -4 13.77 10.07 1.35 o
2797 5 -2 3 -5 5.65 5.99 1.11 o
2798 5 2 4 -7 8.04 11.16 1.65 o
2799 5 2 4 -6 19.43 27.41 2.22 o
2800 5 2 4 -5 0.42 0.20 0.19 <
2801 6 -2 -4 0 8.90 9.56 0.62 o
2801 5 -2 4 0 8.90 9.56 0.62 o
2802 5 -2 4 -1 70.16 73.04 2.14 o
2803 5 -2 4 -2 227.59 242.75 4.98 o
2803 4 2 -4 2 227.59 242.75 4.98 o
2804 5 -2 4 -3 0.38 0.39 0.21 <
2805 6 -5 -4 4 42.51 39.54 2.50 o
2805 5 -2 4 -4 42.51 39.54 2.50 o
2806 5 -2 4 -5 11.58 10.73 1.59 o
2807 5 -2 4 -6 0.41 0.01 0.27 <
2808 5 2 5 -7 3.47 2.46 0.81 o
2809 5 2 5 -6 16.29 12.63 1.52 o
2810 5 -2 5 -1 84.21 86.94 2.51 o
2811 5 -2 5 -2 20.44 23.71 1.53 o
2811 4 2 -5 2 20.44 23.71 1.53 o
2812 5 -2 5 -3 33.60 42.74 2.21 o
2813 6 -5 -5 4 14.00 18.80 1.63 o
2813 5 -2 5 -4 14.00 18.80 1.63 o
2814 5 -2 5 -5 5.60 2.97 0.87 o
2815 5 -2 5 -6 3.65 1.80 0.80 <
2816 5 -2 6 -1 18.60 20.36 1.23 o
2817 5 -2 6 -2 62.86 72.15 2.64 o
2817 4 2 -6 2 62.86 72.15 2.64 o
2818 5 -2 6 -3 15.85 17.23 1.43 o
2819 6 -5 -6 4 14.88 8.59 1.14 o
2819 5 -2 6 -4 14.88 8.59 1.14 o
2820 5 -2 6 -5 4.34 2.61 0.77 o
2821 5 -2 7 -2 6.84 6.28 0.71 o
2821 4 2 -7 2 6.84 6.28 0.71 o
2822 5 -2 7 -3 9.65 8.55 1.05 o
2823 6 -5 -7 4 8.07 6.21 0.97 o
2823 5 -2 7 -4 8.07 6.21 0.97 o
2824 5 -2 8 -3 4.51 1.84 0.39 o
2825 6 -5 -8 4 3.20 1.21 0.49 <
2825 5 -2 8 -4 3.20 1.21 0.49 <
2826 5 3 -9 -2 15.81 13.16 0.75 o
2827 5 3 -9 -1 18.13 22.06 1.02 o
2828 6 3 9 0 0.76 0.22 0.15 <
2828 5 3 -9 0 0.76 0.22 0.15 <
2829 5 3 -9 1 5.02 4.12 0.66 o
2830 5 3 -8 -2 8.00 6.55 0.44 o
2831 5 3 -8 -1 9.07 10.58 0.62 o
2832 6 3 8 0 56.20 60.92 1.86 o
2832 5 3 -8 0 56.20 60.92 1.86 o
2833 5 3 -8 1 1.31 1.04 0.31 o
2834 5 3 -8 2 6.25 5.13 0.72 o
2835 5 3 -8 3 5.66 10.66 1.17 o
2836 6 0 7 4 94.75 75.11 1.89 o
2836 5 3 -7 -4 94.75 75.11 1.89 o
2837 5 3 -7 -1 12.10 11.72 0.56 o
2838 6 3 7 0 3.43 2.58 0.35 o
2838 5 3 -7 0 3.43 2.58 0.35 o
2839 5 3 -7 1 37.06 42.78 1.84 o
2840 5 3 -7 2 5.08 6.81 0.85 o
2841 5 3 -7 3 2.15 1.23 0.27 o
2842 5 3 -6 -6 4.45 2.93 0.57 o
2843 5 3 -6 -5 9.84 8.38 0.75 o
2844 6 0 6 4 10.41 8.35 0.61 o
2844 5 3 -6 -4 10.41 8.35 0.61 o
2845 5 3 -6 1 1.94 1.17 0.28 o
2846 5 3 -6 2 11.14 11.15 1.09 o
2847 5 3 -5 -8 1.28 0.94 0.40 <
2847 4 7 5 -4 1.28 0.94 0.40 <
2847 3 4 -5 4 1.28 0.94 0.40 <
2847 1 -7 -5 4 1.28 0.94 0.40 <
2848 5 3 -5 -7 1.68 1.61 0.50 o
2849 5 3 -5 -6 3.24 3.01 0.55 o
2850 5 3 -5 -5 16.91 16.69 1.12 o
2851 6 0 5 4 18.42 18.64 0.91 o
2851 5 3 -5 -4 18.42 18.64 0.91 o
2852 5 3 -4 -8 2.21 2.03 0.57 o
2852 4 7 4 -4 2.21 2.03 0.57 o
2852 3 4 -4 4 2.21 2.03 0.57 o
2852 1 -7 -4 4 2.21 2.03 0.57 o
2853 5 3 -4 -7 0.60 -0.10 0.25 <
2854 5 -3 -4 7 0.60 0.12 0.23 <
2855 5 3 -4 -6 17.22 15.70 1.28 o
2856 5 3 -4 -5 1.54 1.28 0.32 o
2857 6 0 4 4 6.03 5.21 0.47 o
2857 5 3 -4 -4 6.03 5.21 0.47 o
2858 5 -3 -3 8 3.63 4.19 1.05 o
2858 4 -7 3 4 3.63 4.19 1.05 o
2858 3 -4 -3 -4 3.63 4.19 1.05 o
2858 1 7 -3 -4 3.63 4.19 1.05 o
2859 5 3 -3 -8 3.63 3.36 0.90 o
2859 4 7 3 -4 3.63 3.36 0.90 o
2859 3 4 -3 4 3.63 3.36 0.90 o
2859 1 -7 -3 4 3.63 3.36 0.90 o
2860 5 -3 -3 7 7.81 10.83 1.62 o
2861 5 3 -3 -7 7.81 10.36 1.31 o
2862 5 -3 -3 6 3.62 1.44 0.33 o
2863 5 3 -3 -6 3.62 1.57 0.36 o
2864 5 3 -3 -5 50.06 43.94 1.95 o
2865 6 0 3 4 4.29 3.53 0.44 o
2865 5 3 -3 -4 4.29 3.53 0.44 o
2866 5 3 -2 -9 1.01 0.24 0.10 <
2867 5 3 -2 -8 4.45 4.85 1.21 o
2867 4 7 2 -4 4.45 4.85 1.21 o
2867 3 4 -2 4 4.45 4.85 1.21 o
2867 1 -7 -2 4 4.45 4.85 1.21 o
2868 5 -3 -2 8 4.45 3.40 0.82 o
2868 4 -7 2 4 4.45 3.40 0.82 o
2868 3 -4 -2 -4 4.45 3.40 0.82 o
2868 1 7 -2 -4 4.45 3.40 0.82 o
2869 5 -3 -2 7 0.71 1.41 0.53 <
2870 5 3 -2 -7 0.71 0.96 0.50 <
2871 5 -3 -2 6 34.64 43.99 2.90 o
2872 5 3 -2 -6 34.64 40.54 2.27 o
2873 5 3 -2 -5 13.79 19.04 1.34 o
2874 5 -3 -2 5 13.79 16.99 1.65 o
2875 6 0 2 4 5.46 1.35 0.43 o
2875 5 3 -2 -4 5.46 1.35 0.43 o
2876 5 3 -1 -9 0.91 1.87 0.76 <
2877 5 3 -1 -8 6.29 7.78 1.28 o
2877 4 7 1 -4 6.29 7.78 1.28 o
2877 3 4 -1 4 6.29 7.78 1.28 o
2877 1 -7 -1 4 6.29 7.78 1.28 o
2878 5 -3 -1 8 6.29 7.02 1.24 o
2878 4 -7 1 4 6.29 7.02 1.24 o
2878 3 -4 -1 -4 6.29 7.02 1.24 o
2878 1 7 -1 -4 6.29 7.02 1.24 o
2879 5 3 -1 -7 6.81 10.43 1.31 o
2880 5 -3 -1 7 6.81 10.65 1.49 o
2881 5 -3 -1 6 8.98 9.01 1.10 o
2882 5 3 -1 -6 8.98 8.52 1.06 o
2883 5 -3 -1 5 42.61 52.23 2.61 o
2884 5 3 -1 -5 42.61 56.89 2.44 o
2885 6 0 1 4 276.66 156.24 3.70 o
2885 5 3 -1 -4 276.66 156.24 3.70 o
2886 5 3 0 -9 0.90 1.87 0.61 o
2887 5 3 0 -8 15.15 27.54 2.56 o
2887 4 7 0 -4 15.15 27.54 2.56 o
2887 3 4 0 4 15.15 27.54 2.56 o
2887 1 -7 0 4 15.15 27.54 2.56 o
2888 5 -3 0 8 15.15 26.13 2.28 o
2888 4 -7 0 4 15.15 26.13 2.28 o
2888 3 -4 0 -4 15.15 26.13 2.28 o
2888 1 7 0 -4 15.15 26.13 2.28 o
2889 5 3 0 -7 0.59 0.12 0.16 <
2890 5 -3 0 7 0.59 0.71 0.31 <
2891 5 -3 0 6 3.04 2.20 0.63 o
2892 5 3 0 -6 3.04 2.27 0.53 o
2893 5 -3 0 5 37.74 37.59 2.13 o
2894 5 3 0 -5 37.74 38.26 2.11 o
2895 6 0 0 -4 36.05 34.37 1.83 o
2895 5 -3 0 4 36.05 34.37 1.83 o
2896 5 -3 1 9 0.91 3.44 0.96 o
2897 5 -3 1 8 6.35 9.13 1.33 o
2897 4 -7 -1 4 6.35 9.13 1.33 o
2897 3 -4 1 -4 6.35 9.13 1.33 o
2897 1 7 1 -4 6.35 9.13 1.33 o
2898 5 3 1 -8 6.35 11.04 1.66 o
2898 4 7 -1 -4 6.35 11.04 1.66 o
2898 3 4 1 4 6.35 11.04 1.66 o
2898 1 -7 1 4 6.35 11.04 1.66 o
2899 5 -3 1 7 6.82 12.35 1.31 o
2900 5 3 1 -7 6.82 11.20 1.48 o
2901 5 3 1 -6 8.84 6.09 0.90 o
2902 5 -3 1 6 8.84 7.08 0.99 o
2903 5 3 1 -5 44.10 48.30 2.65 o
2904 5 -3 1 5 44.10 53.73 2.31 o
2905 6 0 -1 -4 277.74 149.85 3.64 o
2905 5 -3 1 4 277.74 149.85 3.64 o
2906 5 -3 2 9 1.05 0.06 0.44 <
2907 5 3 2 -8 4.67 4.15 0.93 o
2907 4 7 -2 -4 4.67 4.15 0.93 o
2907 3 4 2 4 4.67 4.15 0.93 o
2907 1 -7 2 4 4.67 4.15 0.93 o
2908 5 -3 2 8 4.67 5.96 1.05 o
2908 4 -7 -2 4 4.67 5.96 1.05 o
2908 3 -4 2 -4 4.67 5.96 1.05 o
2908 1 7 2 -4 4.67 5.96 1.05 o
2909 5 -3 2 7 0.72 1.00 0.48 <
2910 5 3 2 -7 0.72 0.66 0.34 <
2911 5 3 2 -6 35.01 44.20 2.86 o
2912 5 -3 2 6 35.01 44.12 2.30 o
2913 5 -3 2 5 13.46 18.29 1.25 o
2914 6 0 -2 -4 5.58 2.49 0.47 o
2914 5 -3 2 4 5.58 2.49 0.47 o
2915 5 -3 2 3 97.69 104.00 2.26 o
2916 5 -3 3 8 3.60 5.10 1.06 o
2916 4 -7 -3 4 3.60 5.10 1.06 o
2916 3 -4 3 -4 3.60 5.10 1.06 o
2916 1 7 3 -4 3.60 5.10 1.06 o
2917 5 3 3 -8 3.60 5.54 1.26 o
2917 4 7 -3 -4 3.60 5.54 1.26 o
2917 3 4 3 4 3.60 5.54 1.26 o
2917 1 -7 3 4 3.60 5.54 1.26 o
2918 5 -3 3 7 7.93 14.03 1.47 o
2919 5 3 3 -7 7.93 11.68 1.59 o
2920 5 -3 3 6 3.51 1.14 0.32 o
2921 5 3 3 -6 3.51 0.66 0.14 o
2922 5 -3 3 5 50.24 46.05 1.93 o
2923 6 0 -3 -4 4.79 4.89 0.51 o
2923 5 -3 3 4 4.79 4.89 0.51 o
2924 5 -3 3 3 26.54 27.72 0.93 o
2925 5 3 4 -7 0.60 0.00 0.37 <
2926 6 -3 -4 0 58.98 61.62 1.74 o
2926 5 -3 4 0 58.98 61.62 1.74 o
2927 5 -3 4 -1 8.73 5.94 0.67 o
2928 5 -3 4 -2 0.99 1.56 0.49 o
2929 5 -3 4 -3 19.29 27.45 2.01 o
2930 6 -3 -5 0 2.45 2.22 0.29 o
2930 5 -3 5 0 2.45 2.22 0.29 o
2931 5 -3 5 -1 18.42 20.11 1.19 o
2932 5 -3 5 -2 22.47 17.80 1.31 o
2933 5 -3 5 -3 5.38 7.09 1.01 o
2934 6 -6 -5 4 4.43 2.50 0.68 o
2934 5 -3 5 -4 4.43 2.50 0.68 o
2935 5 -3 5 -5 1.43 0.40 0.41 <
2936 6 -3 -6 0 107.79 107.48 2.49 o
2936 5 -3 6 0 107.79 107.48 2.49 o
2937 5 -3 6 -1 1.98 1.58 0.39 o
2938 5 -3 6 -2 10.93 9.18 0.91 o
2939 5 -3 6 -3 4.75 8.46 1.09 o
2940 6 -6 -6 4 1.16 1.10 0.47 <
2940 5 -3 6 -4 1.16 1.10 0.47 <
2941 5 -3 7 -1 36.56 44.21 1.84 o
2942 5 -3 7 -2 5.16 6.44 0.79 o
2943 5 -3 7 -3 2.18 2.45 0.48 o
2944 5 -3 8 -2 6.27 3.02 0.55 o
2945 5 -3 8 -3 5.56 9.75 1.19 o
2946 5 4 -8 -5 8.02 2.16 0.29 o
2947 5 4 -7 -6 1.15 1.59 0.35 o
2948 5 4 -7 -5 0.81 -0.02 0.12 <
2949 5 4 -6 -7 2.09 1.56 0.47 o
2949 4 6 6 -5 2.09 1.56 0.47 o
2950 5 4 -6 -6 0.28 0.95 0.35 <
2951 5 4 -6 -5 12.62 14.27 0.78 o
2952 5 4 -5 -8 0.16 1.97 0.52 o
2953 5 4 -5 -7 5.77 4.27 0.61 o
2953 4 6 5 -5 5.77 4.27 0.61 o
2954 5 4 -5 -6 5.93 10.36 0.94 o
2955 5 4 -5 -5 3.19 2.30 0.36 o
2956 5 4 -4 -8 0.64 0.65 0.45 <
2957 5 4 -4 -7 2.72 3.26 0.70 o
2957 4 6 4 -5 2.72 3.26 0.70 o
2958 5 4 -4 -6 2.84 2.04 0.42 o
2959 5 4 -4 -5 11.22 11.40 0.86 o
2960 5 4 -3 -8 0.41 2.06 0.49 o
2961 5 -4 -3 8 0.41 1.77 0.71 <
2962 5 4 -3 -7 8.05 11.71 1.30 o
2962 4 6 3 -5 8.05 11.71 1.30 o
2963 5 4 -3 -6 8.21 9.65 1.05 o
2964 5 4 -3 -5 1.79 1.59 0.41 o
2965 5 4 -2 -9 0.04 0.60 0.60 <
2966 5 -4 -2 8 2.14 2.80 0.61 o
2967 5 4 -2 -8 2.14 2.45 0.77 o
2968 5 -4 -2 7 4.36 4.03 0.89 o
2968 4 -6 2 5 4.36 4.03 0.89 o
2969 5 4 -2 -7 4.36 3.42 0.77 o
2969 4 6 2 -5 4.36 3.42 0.77 o
2970 5 4 -2 -6 2.71 1.90 0.51 o
2971 5 4 -1 -9 1.64 1.30 0.56 <
2972 5 -4 -1 8 1.11 3.96 1.09 o
2973 5 4 -1 -8 1.11 2.98 0.93 o
2974 5 4 -1 -7 9.78 12.72 1.43 o
2974 4 6 1 -5 9.78 12.72 1.43 o
2975 5 -4 -1 7 9.78 12.09 1.63 o
2975 4 -6 1 5 9.78 12.09 1.63 o
2976 5 -4 -1 6 6.20 9.46 1.29 o
2977 5 4 -1 -6 6.20 7.18 0.94 o
2978 5 4 0 -9 0.15 0.42 0.24 <
2979 5 -4 0 9 0.15 0.57 0.20 <
2980 5 4 0 -8 6.71 10.45 1.59 o
2981 5 -4 0 8 6.71 7.67 1.24 o
2982 5 -4 0 7 6.29 7.46 1.10 o
2982 4 -6 0 5 6.29 7.46 1.10 o
2983 5 4 0 -7 6.29 7.37 1.14 o
2983 4 6 0 -5 6.29 7.37 1.14 o
2984 5 4 0 -6 0.32 1.02 0.38 <
2985 5 -4 0 6 0.32 0.51 0.25 <
2986 5 -4 1 9 1.63 2.36 0.60 o
2987 5 -4 1 8 1.10 2.98 0.73 o
2988 5 4 1 -8 1.10 4.24 1.13 o
2989 5 4 1 -7 9.46 9.81 1.46 o
2989 4 6 -1 -5 9.46 9.81 1.46 o
2990 5 -4 1 7 9.46 10.32 1.27 o
2990 4 -6 -1 5 9.46 10.32 1.27 o
2991 5 -4 1 6 6.27 8.78 1.03 o
2992 5 -4 1 5 7.08 6.63 0.82 o
2993 5 -4 2 9 0.05 0.04 0.11 <
2994 5 4 2 -8 2.00 2.30 0.76 o
2995 5 -4 2 8 2.00 2.11 0.53 o
2996 5 -4 2 7 4.32 3.91 0.78 o
2996 4 -6 -2 5 4.32 3.91 0.78 o
2997 5 -4 2 6 2.67 2.18 0.44 o
2998 5 -4 2 5 23.19 21.47 1.33 o
2999 6 -1 -2 -4 34.82 4.55 0.59 o
2999 5 -4 2 4 34.82 4.55 0.59 o
3000 5 -4 3 8 0.43 2.77 0.70 o
3001 5 4 3 -8 0.43 2.41 0.87 <
3002 5 -4 3 7 7.94 11.71 1.21 o
3002 4 -6 -3 5 7.94 11.71 1.21 o
3003 5 -4 3 6 8.08 11.58 1.01 o
3004 5 -4 3 5 1.87 1.94 0.38 o
3005 6 -1 -3 -4 17.62 7.84 0.62 o
3005 5 -4 3 4 17.62 7.84 0.62 o
3006 5 -4 4 8 0.70 0.50 0.07 o
3007 5 -4 4 7 2.81 3.30 0.67 o
3007 4 -6 -4 5 2.81 3.30 0.67 o
3008 5 -4 4 6 2.79 3.18 0.55 o
3009 5 -4 4 5 10.80 14.01 0.93 o
3010 6 -1 -4 -4 10.23 2.03 0.29 o
3010 5 -4 4 4 10.23 2.03 0.29 o
3011 5 -4 5 1 15.40 13.74 0.68 o
3012 6 -4 -5 0 15.98 17.39 1.09 o
3012 5 -4 5 0 15.98 17.39 1.09 o
3013 5 -4 5 -1 3.66 1.30 0.43 <
3014 5 -4 5 -2 8.54 7.62 0.98 o
3015 5 -4 6 1 2.75 1.96 0.25 o
3016 6 -4 -6 0 17.23 18.18 1.02 o
3016 5 -4 6 0 17.23 18.18 1.02 o
3017 5 -4 6 -1 18.23 18.51 1.31 o
3018 5 -4 6 -2 0.16 0.52 0.34 <
3019 5 -4 6 -3 1.34 2.45 0.76 o
3020 6 -4 -7 0 48.35 55.93 1.82 o
3020 5 -4 7 0 48.35 55.93 1.82 o
3021 5 -4 7 -1 0.63 -0.30 0.29 <
3022 5 -4 7 -2 0.85 1.54 0.59 <
3023 5 -4 8 -1 6.96 5.68 0.69 o
3024 5 5 -5 -7 0.89 1.07 0.36 <
3025 5 5 -4 -8 0.06 0.95 0.43 <
3026 5 5 -4 -7 4.81 12.23 2.57 o
3027 5 5 -3 -8 0.68 1.02 0.42 <
3028 5 5 -3 -7 1.59 0.53 0.21 <
3029 5 5 -2 -8 0.37 1.50 0.64 <
3030 5 -5 -1 8 1.24 2.59 0.86 o
3031 5 5 -1 -8 1.24 1.12 0.56 <
3032 5 5 0 -9 0.42 1.07 0.64 <
3033 5 -5 0 9 0.42 1.33 0.57 <
3034 5 -5 0 8 0.42 0.67 0.11 o
3035 5 -5 0 7 1.80 1.89 0.61 o
3036 5 -5 1 8 1.19 2.39 0.71 o
3037 5 -5 1 7 1.46 1.02 0.29 o
3038 5 -5 1 6 9.20 10.86 1.17 o
3038 4 -5 -1 6 9.20 10.86 1.17 o
3039 5 -5 2 8 0.36 1.37 0.43 o
3040 5 -5 2 7 2.96 4.20 0.73 o
3041 5 -5 2 6 7.30 13.11 1.18 o
3041 4 -5 -2 6 7.30 13.11 1.18 o
3042 5 -5 3 8 0.67 0.79 0.21 o
3043 5 -5 3 7 1.59 1.56 0.42 o
3044 5 -5 3 6 8.46 13.04 1.11 o
3044 4 -5 -3 6 8.46 13.04 1.11 o
3045 5 -5 3 5 8.55 17.05 1.10 o
3046 5 -5 4 8 0.07 0.64 0.24 <
3047 5 -5 4 7 4.88 6.98 1.79 o
3048 5 -5 4 6 10.60 13.57 1.03 o
3048 4 -5 -4 6 10.60 13.57 1.03 o
3049 5 -5 4 5 0.09 0.38 0.16 <
3050 6 -2 -4 -4 42.84 23.60 1.25 o
3050 5 -5 4 4 42.84 23.60 1.25 o
3051 5 -5 5 7 0.87 0.30 0.22 <
3052 5 -5 5 6 7.17 10.38 0.91 o
3052 4 -5 -5 6 7.17 10.38 0.91 o
3053 5 -5 5 5 4.77 12.50 0.72 o
3054 6 -2 -5 -4 12.36 0.20 0.09 <
3054 5 -5 5 4 12.36 0.20 0.09 <
3055 5 -5 6 1 9.93 7.92 0.61 o
3056 6 -5 -6 0 3.75 2.13 0.39 o
3056 5 -5 6 0 3.75 2.13 0.39 o
3057 5 -5 6 -1 0.41 0.24 0.29 <
3058 6 -5 -7 0 4.26 7.67 1.02 o
3058 5 -5 7 0 4.26 7.67 1.02 o
3059 5 -5 7 -1 2.00 1.37 0.43 o
3060 5 -6 1 8 0.61 -0.26 0.31 <
3061 5 -6 2 8 0.30 0.18 0.02 o
3062 5 -6 2 7 0.03 0.00 0.20 <
3063 5 -6 3 8 0.95 0.90 0.51 <
3064 5 -6 3 7 1.25 2.76 0.56 o
3065 5 -6 3 6 2.15 2.06 0.46 o
3066 5 -6 4 7 0.07 0.30 0.29 <
3067 5 -6 4 6 2.59 4.53 0.67 o
3068 5 -6 4 5 2.04 3.66 0.52 o
3068 4 -4 -4 7 2.04 3.66 0.52 o
3069 5 -6 5 6 0.05 0.23 0.16 <
3070 5 -6 5 5 5.57 5.14 0.52 o
3070 4 -4 -5 7 5.57 5.14 0.52 o
3071 6 -3 -5 -4 4.48 1.87 0.34 o
3071 5 -6 5 4 4.48 1.87 0.34 o
3072 5 -6 6 2 0.74 -0.14 0.12 <
3073 6 0 -5 -7 1.62 4.17 0.69 o
3074 6 0 -4 -5 0.55 0.44 0.21 <
3075 6 0 -4 -6 21.40 30.53 1.90 o
3076 6 0 -4 -7 0.77 0.76 0.13 o
3077 6 0 -3 -3 2.20 1.88 0.30 o
3078 6 0 -3 -4 4.81 2.21 0.46 o
3078 5 -3 3 4 4.81 2.21 0.46 o
3079 6 0 -3 -5 13.89 17.92 1.34 o
3080 6 0 -3 -6 0.02 -0.09 0.08 <
3081 6 0 -3 -7 9.38 13.35 1.43 o
3082 6 0 -2 -2 191.78 189.45 2.52 o
3083 6 0 -2 -3 182.55 206.51 3.52 o
3084 6 0 -2 -4 5.56 7.14 0.83 o
3084 5 -3 2 4 5.56 7.14 0.83 o
3085 6 0 -2 -5 29.80 42.10 2.31 o
3086 6 0 -2 -6 20.07 33.43 2.30 o
3087 6 0 -2 -7 3.03 4.31 0.86 o
3088 6 0 -2 -8 1.88 2.63 0.64 o
3089 6 0 -1 -2 108.28 118.43 2.33 o
3090 6 0 -1 -3 44.43 44.67 1.86 o
3091 6 0 -1 -4 276.54 239.41 5.26 o
3091 5 -3 1 4 276.54 239.41 5.26 o
3092 6 0 -1 -5 38.42 46.50 2.63 o
3093 6 0 -1 -6 8.54 10.16 1.31 o
3094 6 0 -1 -7 3.48 5.44 1.16 o
3095 6 0 -1 -8 1.29 1.42 0.51 <
3096 6 0 0 1 172.93 107.50 1.86 o
3097 6 0 0 -1 172.93 107.93 1.85 o
3098 6 0 0 2 8.30 10.51 0.87 o
3099 6 0 0 -2 8.30 10.78 0.86 o
3100 6 0 0 -3 231.62 209.89 4.73 o
3101 6 0 0 -4 35.92 37.53 2.35 o
3101 5 -3 0 4 35.92 37.53 2.35 o
3102 6 0 0 -5 40.96 50.77 3.00 o
3103 6 0 0 -6 0.73 1.00 0.44 <
3104 6 0 1 2 107.96 115.73 2.45 o
3105 6 0 1 3 44.48 40.13 1.85 o
3106 6 0 1 4 275.47 236.58 5.50 o
3106 5 3 -1 -4 275.47 236.58 5.50 o
3107 6 0 2 2 192.02 187.01 2.70 o
3108 6 0 2 3 182.45 204.48 3.84 o
3109 6 0 2 4 5.44 6.18 0.86 o
3109 5 3 -2 -4 5.44 6.18 0.86 o
3110 6 0 2 5 29.83 36.10 2.25 o
3111 6 0 3 2 392.39 438.63 3.83 o
3112 6 0 3 3 2.20 1.16 0.22 o
3113 6 0 3 4 4.31 1.69 0.47 o
3113 5 3 -3 -4 4.31 1.69 0.47 o
3114 6 0 3 5 13.77 13.03 1.36 o
3115 6 0 4 3 101.97 93.99 2.24 o
3116 6 0 4 4 6.02 1.43 0.42 o
3116 5 3 -4 -4 6.02 1.43 0.42 o
3117 6 0 4 5 0.40 0.76 0.37 <
3118 6 0 4 6 21.30 21.59 1.82 o
3119 6 0 5 3 0.10 0.06 0.12 <
3120 6 0 5 4 18.39 6.94 0.80 o
3120 5 3 -5 -4 18.39 6.94 0.80 o
3121 6 0 5 5 12.53 11.67 1.00 o
3122 6 0 5 6 2.35 1.41 0.35 o
3123 6 0 6 4 10.38 10.02 0.80 o
3123 5 3 -6 -4 10.38 10.02 0.80 o
3124 6 0 6 5 14.07 13.37 1.00 o
3125 6 0 6 6 0.62 0.60 0.14 o
3126 6 0 7 4 94.56 72.47 2.21 o
3126 5 3 -7 -4 94.56 72.47 2.21 o
3127 6 0 7 5 9.41 9.54 0.85 o
3128 6 0 7 6 1.18 0.24 0.16 <
3129 6 0 8 5 7.51 2.93 0.44 o
3130 6 -1 -5 -5 16.04 20.98 1.16 o
3131 6 -1 -5 -6 3.48 6.92 0.68 o
3132 6 1 -4 -8 1.26 1.30 0.56 <
3133 6 1 -4 -7 8.66 14.64 1.49 o
3134 6 1 -4 -6 2.81 2.99 0.59 o
3135 6 -1 -4 -4 10.20 17.24 0.94 o
3135 5 -4 4 4 10.20 17.24 0.94 o
3136 6 -1 -4 -5 3.70 3.38 0.50 o
3137 6 -1 -4 -6 8.99 16.27 1.31 o
3138 6 -1 -4 -7 1.06 1.54 0.34 o
3139 6 1 -3 -8 0.87 1.07 0.54 <
3140 6 1 -3 -7 8.51 13.94 1.54 o
3141 6 1 -3 -6 12.22 20.61 1.67 o
3142 6 1 -3 -5 10.35 10.23 1.12 o
3143 6 -1 -3 2 24.95 28.77 1.80 o
3144 6 -1 -3 -3 54.58 63.23 1.77 o
3145 6 -1 -3 -4 17.54 17.81 1.16 o
3145 5 -4 3 4 17.54 17.81 1.16 o
3146 6 -1 -3 -5 14.91 23.05 1.54 o
3147 6 -1 -3 -6 10.39 17.94 1.58 o
3148 6 -1 -3 -7 1.33 1.70 0.62 <
3149 6 1 -2 -8 2.69 4.55 1.03 o
3150 6 1 -2 -7 4.63 8.88 1.24 o
3151 6 1 -2 -6 0.83 0.94 0.31 o
3152 6 1 -2 -5 35.13 37.24 2.21 o
3153 6 -1 -2 5 35.13 39.82 2.94 o
3154 6 -1 -2 4 86.26 80.27 3.84 o
3154 5 2 2 -4 86.26 80.27 3.84 o
3155 6 1 -2 -4 86.26 60.08 2.60 o
3155 5 -2 2 4 86.26 60.08 2.60 o
3156 6 -1 -2 3 165.30 182.72 4.86 o
3157 6 1 -2 -3 165.30 181.79 3.52 o
3158 6 -1 -2 2 641.74 747.94 8.24 o
3159 6 -1 -2 1 10.71 10.84 0.80 o
3160 6 -1 -2 -2 166.79 120.20 2.22 o
3161 6 -1 -2 -3 8.82 8.05 0.84 o
3162 6 -1 -2 -4 34.65 36.52 2.02 o
3162 5 -4 2 4 34.65 36.52 2.02 o
3163 6 -1 -2 -5 0.19 0.30 0.14 <
3164 6 -1 -2 -6 7.43 9.95 1.29 o
3165 6 1 -1 -8 0.55 1.81 0.76 <
3166 6 1 -1 -7 4.31 3.04 0.78 o
3167 6 1 -1 -6 15.05 22.30 1.95 o
3168 6 -1 -1 6 15.05 22.21 2.27 o
3169 6 -1 -1 5 17.84 16.39 1.75 o
3170 6 1 -1 -5 17.84 16.86 1.52 o
3171 6 -1 -1 4 124.05 126.53 4.32 o
3171 5 2 1 -4 124.05 126.53 4.32 o
3172 6 1 -1 -4 124.05 130.83 3.77 o
3172 5 -2 1 4 124.05 130.83 3.77 o
3173 6 1 -1 -3 45.47 43.13 1.91 o
3174 6 -1 -1 3 45.47 44.81 2.34 o
3175 6 -1 -1 2 274.85 289.52 4.75 o
3176 6 1 -1 -2 274.85 291.46 3.87 o
3177 6 -1 -1 1 409.23 440.98 4.41 o
3178 6 1 0 -8 3.05 3.04 0.93 o
3179 6 1 0 -7 5.88 4.40 0.97 o
3180 6 -1 0 7 5.88 5.64 1.28 o
3181 6 1 0 -6 5.17 9.69 1.33 o
3182 6 -1 0 6 5.17 7.98 1.38 o
3183 6 1 0 -5 113.27 142.50 4.85 o
3184 6 -1 0 5 113.27 145.96 4.97 o
3185 6 -1 0 4 201.84 185.08 5.09 o
3185 5 2 0 -4 201.84 185.08 5.09 o
3186 6 1 0 -4 201.84 187.28 4.91 o
3186 5 -2 0 4 201.84 187.28 4.91 o
3187 6 1 0 -3 3.21 4.12 0.60 o
3188 6 -1 0 3 3.21 5.07 0.73 o
3189 6 1 0 -2 14.16 19.29 1.14 o
3190 6 -1 0 2 14.16 18.29 1.10 o
3191 6 1 1 -8 0.56 1.93 1.02 <
3192 6 -1 1 8 0.56 0.12 0.39 <
3193 6 -1 1 7 4.13 3.77 1.00 o
3194 6 1 1 -7 4.13 4.27 1.12 o
3195 6 -1 1 6 14.61 20.74 2.01 o
3196 6 1 1 -6 14.61 19.07 2.01 o
3197 6 -1 1 5 17.43 18.46 1.70 o
3198 6 1 1 -5 17.43 16.65 1.73 o
3199 6 -1 1 4 123.40 129.58 3.87 o
3199 5 2 -1 -4 123.40 129.58 3.87 o
3200 6 1 1 -4 123.40 130.68 4.31 o
3200 5 -2 -1 4 123.40 130.68 4.31 o
3201 6 -1 1 3 48.41 46.67 2.05 o
3202 6 1 1 -3 48.41 40.23 2.10 o
3203 6 1 1 -2 275.90 291.07 4.75 o
3204 6 -1 1 2 275.90 293.61 4.06 o
3205 6 1 1 -1 409.88 441.46 4.44 o
3206 6 -1 2 8 2.56 5.23 1.35 o
3207 6 -1 2 7 4.73 9.43 1.48 o
3208 6 -1 2 6 0.77 0.00 0.24 <
3209 6 1 2 -6 0.77 -0.09 0.31 <
3210 6 -1 2 5 34.08 32.47 2.18 o
3211 6 1 2 -5 34.08 32.64 2.59 o
3212 6 1 2 -4 84.98 75.36 3.57 o
3212 5 -2 -2 4 84.98 75.36 3.57 o
3213 6 -1 2 4 84.98 63.09 2.87 o
3213 5 2 -2 -4 84.98 63.09 2.87 o
3214 6 1 2 -3 162.08 185.66 4.78 o
3215 6 -1 2 3 162.08 177.12 3.89 o
3216 6 1 2 -2 642.54 743.76 8.21 o
3217 6 1 2 -1 12.15 12.58 0.84 o
3218 6 -1 3 8 0.86 1.35 0.60 <
3219 6 -1 3 7 8.39 13.42 1.76 o
3220 6 -1 3 6 12.28 19.62 1.80 o
3221 6 -1 3 5 10.40 10.81 1.23 o
3222 6 -1 3 4 58.37 57.62 2.52 o
3222 5 2 -3 -4 58.37 57.62 2.52 o
3223 6 1 3 -3 190.07 209.11 5.60 o
3224 6 1 3 -2 25.20 29.91 1.86 o
3225 6 1 3 -1 93.65 114.52 2.96 o
3226 6 -1 4 8 1.33 1.57 0.67 <
3227 6 -1 4 7 8.64 11.37 1.57 o
3228 6 -1 4 6 2.73 2.28 0.64 o
3229 6 -1 4 5 10.45 9.73 1.17 o
3230 6 -1 4 4 161.40 117.28 3.73 o
3230 5 2 -4 -4 161.40 117.28 3.73 o
3231 6 -1 5 7 2.97 1.73 0.55 o
3232 6 -1 5 6 14.29 16.27 1.53 o
3233 6 -1 5 5 7.10 4.88 0.68 o
3234 6 -1 6 7 1.98 1.26 0.39 o
3235 6 -1 6 6 2.08 1.47 0.57 <
3236 6 -1 6 5 42.25 43.14 2.29 o
3237 6 -1 7 6 2.28 1.01 0.31 o
3238 6 -2 -5 3 67.64 78.74 3.77 o
3239 6 -2 -5 2 74.61 79.41 3.45 o
3240 6 -2 -5 -4 12.31 15.69 0.70 o
3240 5 -5 5 4 12.31 15.69 0.70 o
3241 6 -2 -5 -5 4.90 3.25 0.49 o
3242 6 -2 -5 -6 3.23 3.31 0.54 o
3243 6 2 -4 -8 0.26 0.27 0.23 <
3244 6 -2 -4 6 17.39 21.66 2.66 o
3245 6 -2 -4 5 0.42 0.15 0.27 <
3246 6 -2 -4 4 152.93 178.28 6.05 o
3246 5 1 4 -4 152.93 178.28 6.05 o
3247 6 -2 -4 3 58.56 68.88 3.28 o
3248 6 -2 -4 2 3.49 4.62 0.67 o
3249 6 -2 -4 1 335.78 363.86 5.90 o
3250 6 -2 -4 -3 0.31 0.23 0.13 <
3251 6 -2 -4 -4 42.60 36.50 1.66 o
3251 5 -5 4 4 42.60 36.50 1.66 o
3252 6 -2 -4 -5 10.20 14.65 1.17 o
3253 6 -2 -4 -6 0.39 0.50 0.25 <
3254 6 2 -3 -8 2.89 3.60 0.91 o
3255 6 2 -3 -7 6.31 6.16 1.06 o
3256 6 -2 -3 7 6.31 3.27 0.92 o
3257 6 2 -3 -6 8.94 10.45 1.36 o
3258 6 -2 -3 6 8.94 10.07 1.84 o
3259 6 -2 -3 5 30.81 37.17 3.03 o
3260 6 -2 -3 4 64.32 73.88 3.68 o
3260 5 1 3 -4 64.32 73.88 3.68 o
3261 6 -2 -3 3 128.82 163.66 4.92 o
3262 6 -2 -3 2 277.71 305.38 5.70 o
3263 6 -2 -3 1 5.32 6.45 0.66 o
3264 6 2 -2 -8 0.80 0.37 0.08 o
3265 6 -2 -2 8 0.80 2.61 1.01 <
3266 6 2 -2 -7 6.30 7.95 1.21 o
3267 6 -2 -2 7 6.30 7.46 1.49 o
3268 6 -2 -2 6 20.15 25.99 2.70 o
3269 6 2 -2 -6 20.15 26.34 2.08 o
3270 6 2 -2 -5 20.88 25.47 1.85 o
3271 6 -2 -2 5 20.88 24.79 2.42 o
3272 6 -2 -2 4 78.50 87.34 3.79 o
3272 5 1 2 -4 78.50 87.34 3.79 o
3273 6 -2 -2 3 87.19 87.70 3.44 o
3274 6 -2 -2 2 40.09 38.82 1.95 o
3275 6 -2 -2 1 285.61 312.91 4.63 o
3276 6 -2 -1 9 0.72 1.31 0.72 <
3277 6 2 -1 -9 0.72 1.03 0.34 <
3278 6 2 -1 -8 3.75 6.57 1.37 o
3279 6 -2 -1 8 3.75 6.13 1.38 o
3280 6 -2 -1 7 3.29 1.69 0.63 <
3281 6 2 -1 -7 3.29 2.55 0.72 o
3282 6 -2 -1 6 20.75 25.61 2.58 o
3283 6 2 -1 -6 20.75 24.12 2.17 o
3284 6 -2 -1 5 19.46 25.35 2.25 o
3285 6 2 -1 -5 19.46 25.80 2.01 o
3286 6 -2 -1 4 135.25 114.01 4.11 o
3286 5 1 1 -4 135.25 114.01 4.11 o
3287 6 2 -1 -4 135.25 103.06 3.41 o
3287 5 -1 1 4 135.25 103.06 3.41 o
3288 6 -2 -1 3 128.22 130.14 3.99 o
3289 6 -2 -1 2 41.45 43.58 2.04 o
3290 6 2 0 -9 1.02 2.40 0.95 <
3291 6 -2 0 9 1.02 2.61 1.16 <
3292 6 2 0 -8 0.61 5.79 1.34 o
3293 6 -2 0 8 0.61 5.33 1.35 o
3294 6 2 0 -7 8.07 9.39 1.48 o
3295 6 -2 0 7 8.07 7.89 1.48 o
3296 6 -2 0 6 0.24 0.03 0.35 <
3297 6 2 0 -6 0.24 0.29 0.20 <
3298 6 -2 0 5 4.10 3.11 0.77 o
3299 6 2 0 -5 4.10 3.29 0.72 o
3300 6 2 0 -4 202.84 165.84 4.68 o
3300 5 -1 0 4 202.84 165.84 4.68 o
3301 6 -2 0 4 202.84 166.82 4.87 o
3301 5 1 0 -4 202.84 166.82 4.87 o
3302 6 -2 0 3 4.40 4.70 0.74 o
3303 6 2 0 -3 4.40 6.17 0.78 o
3304 6 -2 1 9 0.74 1.40 0.79 <
3305 6 -2 1 8 3.95 6.65 1.46 o
3306 6 2 1 -8 3.95 8.19 1.58 o
3307 6 2 1 -7 3.45 2.82 0.96 <
3308 6 -2 1 7 3.45 2.16 0.70 o
3309 6 -2 1 6 20.80 23.67 2.30 o
3310 6 2 1 -6 20.80 24.77 2.40 o
3311 6 2 1 -5 18.73 22.72 2.09 o
3312 6 -2 1 5 18.73 24.30 2.11 o
3313 6 -2 1 4 135.95 98.10 3.67 o
3313 5 1 -1 -4 135.95 98.10 3.67 o
3314 6 2 1 -4 135.95 104.96 3.81 o
3314 5 -1 -1 4 135.95 104.96 3.81 o
3315 6 -2 1 3 124.94 122.70 3.52 o
3316 6 2 1 -3 124.94 129.42 3.84 o
3317 6 2 1 -2 38.68 37.90 1.77 o
3318 6 2 2 -8 0.78 1.56 0.82 <
3319 6 -2 2 8 0.78 2.86 1.01 <
3320 6 -2 2 7 6.51 4.53 1.07 o
3321 6 2 2 -7 6.51 7.88 1.52 o
3322 6 -2 2 6 19.97 24.63 2.22 o
3323 6 2 2 -6 19.97 26.53 2.59 o
3324 6 -2 2 5 21.45 24.35 2.01 o
3325 6 2 2 -5 21.45 26.61 2.34 o
3326 6 -2 2 4 79.84 84.24 3.36 o
3326 5 1 -2 -4 79.84 84.24 3.36 o
3327 6 2 2 -4 79.84 88.02 3.78 o
3327 5 -1 -2 4 79.84 88.02 3.78 o
3328 6 2 2 -3 89.82 91.35 3.41 o
3329 6 2 2 -2 41.72 40.92 1.95 o
3330 6 2 2 -1 285.29 312.24 4.43 o
3331 6 2 3 -8 2.86 3.35 0.92 o
3332 6 -2 3 8 2.86 2.10 0.44 o
3333 6 2 3 -7 6.35 4.63 1.17 o
3334 6 -2 3 7 6.35 4.86 1.00 o
3335 6 -2 3 6 9.29 9.83 1.50 o
3336 6 2 3 -6 9.29 12.82 1.84 o
3337 6 2 3 -5 30.64 40.08 3.01 o
3338 6 -2 3 5 30.64 38.56 2.51 o
3339 6 2 3 -4 65.87 69.47 3.56 o
3339 5 -1 -3 4 65.87 69.47 3.56 o
3340 6 2 3 -3 129.58 159.99 4.88 o
3341 6 2 3 -2 277.91 298.84 5.65 o
3342 6 2 3 -1 5.31 6.24 0.67 o
3343 6 -2 4 8 0.27 -0.19 0.32 <
3344 6 -2 4 7 7.21 9.68 1.48 o
3345 6 -2 4 6 17.42 23.58 2.12 o
3346 6 2 4 -6 17.42 23.98 2.58 o
3347 6 2 4 -5 0.38 -0.17 0.14 <
3348 6 2 4 -4 152.72 179.30 5.91 o
3348 5 -1 -4 4 152.72 179.30 5.91 o
3349 6 2 4 -3 57.55 62.20 3.14 o
3350 6 2 4 -2 3.03 3.87 0.68 o
3351 6 2 4 -1 335.98 369.50 5.54 o
3352 6 -2 5 8 2.11 1.62 0.57 <
3353 6 -2 5 7 3.11 2.33 0.66 o
3354 6 -2 5 6 14.61 12.70 1.62 o
3355 6 2 5 -5 31.52 37.91 3.20 o
3356 6 2 5 -4 55.28 62.57 3.64 o
3356 5 -1 -5 4 55.28 62.57 3.64 o
3357 6 2 5 -3 67.94 78.68 3.73 o
3358 6 2 5 -2 75.20 82.79 3.41 o
3359 6 2 5 -1 57.58 69.91 2.67 o
3360 6 -2 6 7 3.04 1.27 0.39 o
3361 6 2 6 -3 14.12 16.15 1.71 o
3362 6 2 6 -2 22.79 26.98 2.04 o
3363 6 2 6 -1 69.66 70.79 2.84 o
3364 6 2 6 1 16.68 16.39 0.72 o
3365 6 2 7 -2 10.98 13.76 1.52 o
3366 6 2 7 -1 0.31 0.31 0.06 o
3367 6 2 7 1 19.87 18.04 1.03 o
3368 6 2 8 1 10.10 7.78 0.78 o
3369 6 2 9 1 7.75 6.14 0.84 o
3370 6 -3 -6 6 3.99 2.30 1.02 <
3371 6 -3 -6 5 8.82 5.73 1.30 o
3372 6 -3 -6 4 11.38 11.60 1.59 o
3372 5 0 6 -4 11.38 11.60 1.59 o
3373 6 -3 -6 3 49.93 51.89 3.12 o
3374 6 -3 -6 2 9.74 7.13 0.94 o
3375 6 -3 -6 1 11.97 8.43 0.94 o
3376 6 -3 -5 7 1.51 1.25 0.59 <
3377 6 -3 -5 6 2.91 2.18 0.84 <
3378 6 -3 -5 5 15.16 12.41 1.79 o
3379 6 -3 -5 4 17.12 21.23 2.11 o
3379 5 0 5 -4 17.12 21.23 2.11 o
3380 6 -3 -5 3 0.84 0.86 0.45 <
3381 6 -3 -5 2 46.04 58.74 2.78 o
3382 6 -3 -5 1 46.83 50.50 2.24 o
3383 6 -3 -5 -1 15.51 12.91 0.74 o
3384 6 -3 -5 -4 4.46 2.18 0.42 o
3384 5 -6 5 4 4.46 2.18 0.42 o
3385 6 -3 -5 -5 1.33 0.88 0.28 o
3386 6 -3 -4 7 0.54 -1.23 0.62 <
3387 6 -3 -4 6 15.44 12.39 2.07 o
3388 6 -3 -4 5 1.38 1.79 0.69 <
3389 6 -3 -4 4 5.46 4.76 0.87 o
3389 5 0 4 -4 5.46 4.76 0.87 o
3390 6 -3 -4 3 25.23 29.17 2.12 o
3391 6 -3 -4 2 19.94 23.40 1.72 o
3392 6 -3 -4 1 18.45 24.90 1.55 o
3393 6 3 -3 -8 3.50 2.47 0.83 <
3393 4 -7 -3 4 3.50 2.47 0.83 <
3393 2 4 -3 4 3.50 2.47 0.83 <
3393 1 7 3 -4 3.50 2.47 0.83 <
3394 6 -3 -3 8 3.50 5.42 1.61 o
3394 4 7 -3 -4 3.50 5.42 1.61 o
3394 2 -4 -3 -4 3.50 5.42 1.61 o
3394 1 -7 3 4 3.50 5.42 1.61 o
3395 6 -3 -3 7 7.01 9.45 1.89 o
3396 6 -3 -3 6 3.25 1.33 0.91 <
3397 6 -3 -3 5 44.89 40.39 3.02 o
3398 6 -3 -3 4 4.14 3.46 0.85 o
3398 5 0 3 -4 4.14 3.46 0.85 o
3399 6 -3 -3 3 23.90 27.56 2.07 o
3400 6 -3 -3 2 45.49 49.86 2.46 o
3401 6 -3 -3 1 47.18 52.54 2.28 o
3402 6 3 -2 -9 0.91 0.67 0.31 <
3403 6 -3 -2 8 4.30 4.24 1.15 o
3403 4 7 -2 -4 4.30 4.24 1.15 o
3403 2 -4 -2 -4 4.30 4.24 1.15 o
3403 1 -7 2 4 4.30 4.24 1.15 o
3404 6 3 -2 -8 4.30 4.49 0.96 o
3404 4 -7 -2 4 4.30 4.49 0.96 o
3404 2 4 -2 4 4.30 4.49 0.96 o
3404 1 7 2 -4 4.30 4.49 0.96 o
3405 6 3 -2 -7 0.64 0.37 0.25 <
3406 6 -3 -2 7 0.64 0.80 0.53 <
3407 6 -3 -2 6 31.06 39.61 3.26 o
3408 6 3 -2 -6 31.06 46.53 2.82 o
3409 6 -3 -2 5 12.37 14.84 1.84 o
3410 6 -3 -2 4 5.97 2.93 0.86 o
3410 5 0 2 -4 5.97 2.93 0.86 o
3411 6 -3 -2 3 87.59 94.89 3.65 o
3412 6 -3 -2 2 62.07 61.06 2.71 o
3413 6 3 -1 -9 0.82 2.29 0.50 o
3414 6 3 -1 -8 6.06 7.60 1.58 o
3414 4 -7 -1 4 6.06 7.60 1.58 o
3414 2 4 -1 4 6.06 7.60 1.58 o
3414 1 7 1 -4 6.06 7.60 1.58 o
3415 6 -3 -1 8 6.06 10.40 1.92 o
3415 4 7 -1 -4 6.06 10.40 1.92 o
3415 2 -4 -1 -4 6.06 10.40 1.92 o
3415 1 -7 1 4 6.06 10.40 1.92 o
3416 6 -3 -1 7 6.11 10.38 1.80 o
3417 6 3 -1 -7 6.11 11.68 1.56 o
3418 6 3 -1 -6 8.05 9.46 1.28 o
3419 6 -3 -1 6 8.05 9.11 1.47 o
3420 6 3 -1 -5 38.21 54.15 2.87 o
3421 6 -3 -1 5 38.21 50.39 3.31 o
3422 6 -3 -1 4 283.79 165.35 5.26 o
3422 5 0 1 -4 283.79 165.35 5.26 o
3423 6 -3 -1 3 4.37 5.13 0.85 o
3424 6 -3 0 9 0.81 1.54 0.79 <
3425 6 3 0 -9 0.81 1.95 0.89 <
3426 6 -3 0 8 15.10 27.72 2.88 o
3426 4 7 0 -4 15.10 27.72 2.88 o
3426 2 -4 0 -4 15.10 27.72 2.88 o
3426 1 -7 0 4 15.10 27.72 2.88 o
3427 6 3 0 -8 15.10 26.87 2.84 o
3427 4 -7 0 4 15.10 26.87 2.84 o
3427 2 4 0 4 15.10 26.87 2.84 o
3427 1 7 0 -4 15.10 26.87 2.84 o
3428 6 -3 0 7 0.53 0.00 0.24 <
3429 6 3 0 -7 0.53 0.14 0.18 <
3430 6 -3 0 6 2.73 2.18 0.72 o
3431 6 3 0 -6 2.73 2.56 0.77 o
3432 6 3 0 -5 33.84 39.65 2.54 o
3433 6 -3 0 5 33.84 36.22 2.60 o
3434 6 3 0 -4 35.99 36.47 2.19 o
3434 5 0 0 4 35.99 36.47 2.19 o
3435 6 -3 0 4 35.99 30.62 2.35 o
3435 5 0 0 -4 35.99 30.62 2.35 o
3436 6 -3 1 9 0.81 2.56 0.89 <
3437 6 -3 1 8 6.11 6.24 1.42 o
3437 4 7 1 -4 6.11 6.24 1.42 o
3437 2 -4 1 -4 6.11 6.24 1.42 o
3437 1 -7 -1 4 6.11 6.24 1.42 o
3438 6 3 1 -8 6.11 8.46 1.62 o
3438 4 -7 1 4 6.11 8.46 1.62 o
3438 2 4 1 4 6.11 8.46 1.62 o
3438 1 7 -1 -4 6.11 8.46 1.62 o
3439 6 -3 1 7 6.12 8.39 1.59 o
3440 6 3 1 -7 6.12 8.79 1.56 o
3441 6 -3 1 6 7.92 9.69 1.51 o
3442 6 3 1 -6 7.92 6.43 1.14 o
3443 6 3 1 -5 39.54 55.73 3.22 o
3444 6 -3 1 5 39.54 52.68 3.19 o
3445 6 3 1 -4 284.72 161.60 4.92 o
3445 5 0 -1 4 284.72 161.60 4.92 o
3446 6 3 1 -3 4.47 5.97 0.82 o
3447 6 -3 2 9 0.95 1.91 0.88 <
3448 6 -3 2 8 4.52 6.43 1.49 o
3448 4 7 2 -4 4.52 6.43 1.49 o
3448 2 -4 2 -4 4.52 6.43 1.49 o
3448 1 -7 -2 4 4.52 6.43 1.49 o
3449 6 3 2 -8 4.52 5.45 1.45 o
3449 4 -7 2 4 4.52 5.45 1.45 o
3449 2 4 2 4 4.52 5.45 1.45 o
3449 1 7 -2 -4 4.52 5.45 1.45 o
3450 6 -3 2 7 0.64 0.39 0.27 <
3451 6 3 2 -7 0.64 0.52 0.03 o
3452 6 3 2 -6 31.39 40.31 3.08 o
3453 6 -3 2 6 31.39 41.45 3.02 o
3454 6 3 2 -5 12.07 16.12 1.85 o
3455 6 3 2 -4 6.07 2.05 0.66 o
3455 5 0 -2 4 6.07 2.05 0.66 o
3456 6 3 2 -3 87.60 98.56 3.51 o
3457 6 3 2 -2 59.85 61.42 2.50 o
3458 6 3 3 -8 3.47 4.30 1.33 o
3458 4 -7 3 4 3.47 4.30 1.33 o
3458 2 4 3 4 3.47 4.30 1.33 o
3458 1 7 -3 -4 3.47 4.30 1.33 o
3459 6 -3 3 8 3.47 3.26 1.04 o
3459 4 7 3 -4 3.47 3.26 1.04 o
3459 2 -4 3 -4 3.47 3.26 1.04 o
3459 1 -7 -3 4 3.47 3.26 1.04 o
3460 6 3 3 -7 7.11 13.23 1.99 o
3461 6 -3 3 7 7.11 10.93 1.59 o
3462 6 -3 3 6 3.15 1.72 0.65 <
3463 6 3 3 -6 3.15 0.94 0.76 <
3464 6 3 3 -5 45.05 43.08 3.07 o
3465 6 3 3 -4 4.62 4.47 0.97 o
3465 5 0 -3 4 4.62 4.47 0.97 o
3466 6 3 3 -3 23.80 27.85 2.04 o
3467 6 3 3 -2 45.82 53.59 2.33 o
3468 6 -3 4 8 2.03 1.82 0.78 <
3468 4 7 4 -4 2.03 1.82 0.78 <
3468 2 -4 4 -4 2.03 1.82 0.78 <
3468 1 -7 -4 4 2.03 1.82 0.78 <
3469 6 3 4 -7 0.54 0.06 0.15 <
3470 6 -3 4 7 0.54 -0.11 0.38 <
3471 6 3 4 -6 15.44 15.55 2.13 o
3472 6 3 4 -5 1.30 1.31 0.65 <
3473 6 3 4 -4 5.43 5.27 0.95 o
3473 5 0 -4 4 5.43 5.27 0.95 o
3474 6 3 4 -3 25.34 28.77 2.12 o
3475 6 3 4 -2 20.37 26.94 1.84 o
3476 6 3 4 -1 18.05 20.73 1.45 o
3477 6 -3 5 8 1.22 1.44 0.78 <
3477 4 7 5 -4 1.22 1.44 0.78 <
3477 2 -4 5 -4 1.22 1.44 0.78 <
3477 1 -7 -5 4 1.22 1.44 0.78 <
3478 6 3 5 -7 1.40 1.37 0.64 <
3479 6 3 5 -6 3.02 4.43 1.29 o
3480 6 3 5 -5 14.65 17.70 2.21 o
3481 6 3 5 -4 16.19 20.70 2.05 o
3481 5 0 -5 4 16.19 20.70 2.05 o
3482 6 3 5 -3 0.84 0.55 0.22 <
3483 6 3 5 -2 45.77 58.24 2.86 o
3484 6 3 5 -1 47.41 56.77 2.31 o
3485 6 3 6 -6 3.85 2.14 0.60 o
3486 6 3 6 -5 8.97 8.66 1.49 o
3487 6 3 6 -4 11.38 14.69 1.83 o
3487 5 0 -6 4 11.38 14.69 1.83 o
3488 6 3 6 -3 50.06 60.96 3.35 o
3489 6 3 6 -2 10.52 9.55 1.14 o
3490 6 3 6 -1 11.13 10.06 1.07 o
3491 6 3 7 -5 4.67 4.51 1.13 o
3492 6 3 7 -4 99.24 135.94 5.75 o
3492 5 0 -7 4 99.24 135.94 5.75 o
3493 6 3 7 -3 2.21 1.60 0.66 <
3494 6 3 7 -2 13.53 10.83 1.25 o
3495 6 3 7 -1 11.12 12.45 1.12 o
3496 6 3 8 -4 1.58 0.14 0.30 <
3496 5 0 -8 4 1.58 0.14 0.30 <
3497 6 3 8 -3 24.89 25.52 2.29 o
3498 6 3 8 -2 6.85 7.57 1.09 o
3499 6 3 8 -1 8.52 9.32 1.05 o
3500 6 3 9 -3 0.41 0.14 0.14 <
3501 6 3 9 -2 14.44 16.03 1.77 o
3502 6 3 9 -1 16.03 14.68 1.42 o
3503 6 -4 -8 4 12.51 7.33 1.45 o
3503 5 -1 8 -4 12.51 7.33 1.45 o
3504 6 -4 -8 3 1.50 0.73 0.12 o
3505 6 -4 -7 6 1.03 1.58 0.79 <
3506 6 -4 -7 5 0.72 0.69 0.62 <
3507 6 -4 -7 4 23.83 26.55 2.53 o
3507 5 -1 7 -4 23.83 26.55 2.53 o
3508 6 -4 -7 3 14.66 14.30 1.68 o
3509 6 -4 -7 2 0.32 -0.19 0.25 <
3510 6 -4 -7 1 14.32 16.29 1.33 o
3511 6 -4 -6 6 0.25 -0.48 0.55 <
3512 6 -4 -6 5 11.32 12.20 1.78 o
3513 6 -4 -6 4 55.29 52.10 3.71 o
3513 5 -1 6 -4 55.29 52.10 3.71 o
3514 6 -4 -6 3 2.76 2.81 0.78 o
3515 6 -4 -6 2 12.17 12.19 1.28 o
3516 6 -4 -6 1 2.67 1.96 0.47 o
3517 6 -4 -6 -1 16.52 14.58 0.89 o
3518 6 -4 -6 -2 0.17 0.03 0.04 <
3519 6 -4 -5 7 5.73 4.76 1.52 o
3519 1 -6 5 5 5.73 4.76 1.52 o
3520 6 -4 -5 6 5.32 5.55 1.34 o
3521 6 -4 -5 5 2.86 1.45 0.56 <
3522 6 -4 -5 4 16.15 10.67 1.47 o
3522 5 -1 5 -4 16.15 10.67 1.47 o
3523 6 -4 -5 3 12.80 16.04 1.58 o
3524 6 -4 -5 2 1.62 1.01 0.46 <
3525 6 -4 -5 1 14.69 14.58 1.29 o
3526 6 -4 -4 7 2.52 3.92 1.32 <
3526 1 -6 4 5 2.52 3.92 1.32 <
3527 6 -4 -4 6 2.55 2.86 0.96 <
3528 6 -4 -4 5 10.06 11.21 1.76 o
3529 6 -4 -4 4 11.14 3.03 1.12 <
3529 5 -1 4 -4 11.14 3.03 1.12 <
3530 6 -4 -4 3 2.23 1.26 0.53 <
3531 6 -4 -4 2 55.41 54.12 2.99 o
3532 6 -4 -4 1 1.71 0.70 0.35 <
3533 6 -4 -3 8 0.37 4.02 1.40 <
3534 6 -4 -3 7 7.92 7.14 1.51 o
3534 1 -6 3 5 7.92 7.14 1.51 o
3535 6 -4 -3 6 7.37 6.93 1.39 o
3536 6 -4 -3 5 1.61 1.53 0.57 <
3537 6 -4 -3 4 18.52 7.30 1.29 o
3537 5 -1 3 -4 18.52 7.30 1.29 o
3538 6 -4 -3 3 18.43 25.69 2.13 o
3539 6 -4 -3 2 2.06 0.85 0.30 <
3540 6 4 -2 -9 0.04 0.21 0.26 <
3541 6 4 -2 -8 1.92 3.52 0.86 o
3542 6 -4 -2 8 1.92 2.57 0.94 <
3543 6 -4 -2 7 4.17 3.24 0.99 o
3543 1 -6 2 5 4.17 3.24 0.99 o
3544 6 -4 -2 6 2.43 1.28 0.60 <
3545 6 -4 -2 5 20.50 17.39 2.01 o
3546 6 -4 -2 4 39.20 4.44 1.04 o
3546 5 -1 2 -4 39.20 4.44 1.04 o
3547 6 -4 -2 3 24.12 21.78 1.98 o
3548 6 4 -1 -9 1.47 1.17 0.39 o
3549 6 -4 -1 8 1.00 4.54 1.46 o
3550 6 4 -1 -8 1.00 5.33 1.29 o
3551 6 4 -1 -7 9.49 11.83 1.49 o
3551 1 6 1 -5 9.49 11.83 1.49 o
3552 6 -4 -1 7 9.49 7.88 1.62 o
3552 1 -6 1 5 9.49 7.88 1.62 o
3553 6 -4 -1 6 5.56 7.89 1.48 o
3554 6 -4 -1 5 6.37 4.72 1.06 o
3555 6 -4 -1 4 89.14 77.02 3.80 o
3555 5 -1 1 -4 89.14 77.02 3.80 o
3556 6 4 0 -8 6.02 9.49 1.56 o
3557 6 -4 0 8 6.02 7.40 1.56 o
3558 6 -4 0 7 5.75 6.91 1.50 o
3558 1 -6 0 5 5.75 6.91 1.50 o
3559 6 4 0 -7 5.75 9.71 1.47 o
3559 1 6 0 -5 5.75 9.71 1.47 o
3560 6 4 0 -6 0.29 -0.26 0.39 <
3561 6 -4 0 6 0.29 0.70 0.38 <
3562 6 -4 0 5 50.13 68.38 3.87 o
3563 6 -4 1 9 1.46 3.32 1.19 <
3564 6 -4 1 8 0.99 2.72 0.89 o
3565 6 4 1 -8 0.99 4.62 1.23 o
3566 6 4 1 -7 9.18 10.13 1.58 o
3566 1 6 -1 -5 9.18 10.13 1.58 o
3567 6 -4 1 7 9.18 7.42 1.48 o
3567 1 -6 -1 5 9.18 7.42 1.48 o
3568 6 4 1 -6 5.62 12.06 1.53 o
3569 6 -4 1 6 5.62 10.05 1.57 o
3570 6 4 1 -5 6.35 6.26 1.02 o
3571 6 -4 2 9 0.04 0.00 0.32 <
3572 6 -4 2 8 1.80 2.40 0.89 <
3573 6 4 2 -8 1.80 2.21 0.81 <
3574 6 4 2 -7 4.14 5.18 1.24 o
3574 1 6 -2 -5 4.14 5.18 1.24 o
3575 6 -4 2 7 4.14 3.98 1.03 o
3575 1 -6 -2 5 4.14 3.98 1.03 o
3576 6 4 2 -6 2.39 2.00 0.72 <
3577 6 4 2 -5 20.80 21.77 2.04 o
3578 6 4 2 -4 38.25 3.98 0.82 o
3578 5 1 -2 4 38.25 3.98 0.82 o
3579 6 4 3 -8 0.38 3.33 0.93 o
3580 6 -4 3 8 0.38 1.99 0.88 <
3581 6 4 3 -7 7.81 6.55 1.32 o
3581 1 6 -3 -5 7.81 6.55 1.32 o
3582 6 4 3 -6 7.25 8.05 1.45 o
3583 6 4 3 -5 1.68 1.44 0.69 <
3584 6 4 3 -4 18.30 8.47 1.23 o
3584 5 1 -3 4 18.30 8.47 1.23 o
3585 6 4 3 -3 18.08 26.71 1.93 o
3586 6 4 4 -7 2.60 3.30 1.02 o
3586 1 6 -4 -5 2.60 3.30 1.02 o
3587 6 4 4 -6 2.50 2.07 0.78 <
3588 6 4 4 -5 9.69 13.87 1.73 o
3589 6 4 4 -4 11.40 2.85 0.97 <
3589 5 1 -4 4 11.40 2.85 0.97 <
3590 6 4 4 -3 2.48 1.42 0.49 <
3591 6 4 5 -7 5.90 4.59 1.17 o
3591 1 6 -5 -5 5.90 4.59 1.17 o
3592 6 4 5 -6 5.43 10.55 1.77 o
3593 6 4 5 -5 2.83 3.59 0.90 o
3594 6 4 5 -4 16.64 17.96 1.97 o
3594 5 1 -5 4 16.64 17.96 1.97 o
3595 6 4 5 -3 13.54 19.14 1.75 o
3596 6 4 5 -2 1.62 0.58 0.31 <
3597 6 4 6 -6 0.28 0.09 0.17 <
3598 6 4 6 -5 11.53 18.40 2.20 o
3599 6 4 6 -4 55.69 44.20 3.60 o
3599 5 1 -6 4 55.69 44.20 3.60 o
3600 6 4 6 -3 2.93 2.98 0.70 o
3601 6 4 6 -2 12.05 16.41 1.48 o
3602 6 4 7 -6 1.01 2.19 1.06 <
3603 6 4 7 -5 0.71 0.55 0.45 <
3604 6 4 7 -4 23.77 31.25 2.70 o
3604 5 1 -7 4 23.77 31.25 2.70 o
3605 6 4 7 -3 14.35 20.37 1.93 o
3606 6 4 7 -2 0.32 -0.13 0.31 <
3607 6 4 7 -1 14.66 19.46 1.48 o
3608 6 4 8 -5 7.26 3.28 0.95 o
3609 6 4 8 -4 12.29 7.93 1.36 o
3609 5 1 -8 4 12.29 7.93 1.36 o
3610 6 4 8 -3 1.44 2.11 0.77 <
3611 6 4 8 -2 12.59 17.47 1.61 o
3612 6 4 8 -1 2.52 1.70 0.37 o
3613 6 4 9 -3 3.74 2.28 0.58 o
3614 6 4 9 -2 0.02 0.02 0.26 <
3615 6 4 9 -1 5.04 3.03 0.66 o
3616 6 -5 -8 4 3.21 1.99 0.66 o
3616 5 -2 8 -4 3.21 1.99 0.66 o
3617 6 -5 -8 3 0.16 0.02 0.26 <
3618 6 -5 -8 2 0.33 1.21 0.47 <
3619 6 -5 -8 1 3.04 1.35 0.24 o
3620 6 -5 -7 5 1.44 0.99 0.50 <
3621 6 -5 -7 4 8.10 4.11 1.05 o
3621 5 -2 7 -4 8.10 4.11 1.05 o
3622 6 -5 -7 3 1.10 0.39 0.40 <
3623 6 -5 -7 2 0.93 1.32 0.53 <
3624 6 -5 -7 1 0.19 0.47 0.40 <
3625 6 -5 -7 -1 1.81 0.41 0.14 <
3626 6 -5 -6 6 0.65 2.17 1.02 <
3626 1 -5 6 6 0.65 2.17 1.02 <
3627 6 -5 -6 5 1.53 1.73 0.88 <
3628 6 -5 -6 4 14.94 11.03 1.57 o
3628 5 -2 6 -4 14.94 11.03 1.57 o
3629 6 -5 -6 3 2.88 2.64 0.76 o
3630 6 -5 -6 2 1.78 1.66 0.53 o
3631 6 -5 -6 1 8.85 8.71 1.08 o
3632 6 -5 -5 7 0.79 0.61 0.76 <
3633 6 -5 -5 6 7.19 4.64 1.30 o
3633 1 -5 5 6 7.19 4.64 1.30 o
3634 6 -5 -5 5 4.34 4.47 1.24 o
3635 6 -5 -5 4 14.06 3.25 0.96 o
3635 5 -2 5 -4 14.06 3.25 0.96 o
3636 6 -5 -5 3 13.55 20.72 2.01 o
3637 6 -5 -5 2 14.23 15.42 1.71 o
3638 6 -5 -5 1 0.61 0.48 0.31 <
3639 6 -5 -4 7 4.31 3.59 1.14 o
3640 6 -5 -4 6 10.64 10.00 1.73 o
3640 1 -5 4 6 10.64 10.00 1.73 o
3641 6 -5 -4 5 0.11 0.57 0.41 <
3642 6 -5 -4 4 42.76 28.17 2.60 o
3642 5 -2 4 -4 42.76 28.17 2.60 o
3643 6 -5 -4 3 2.49 2.67 0.73 o
3644 6 -5 -3 7 1.42 1.04 0.14 o
3645 6 -5 -3 6 8.49 10.05 1.84 o
3645 1 -5 3 6 8.49 10.05 1.84 o
3646 6 -5 -3 5 7.51 9.97 1.54 o
3647 6 -5 -3 4 13.84 0.33 0.38 <
3647 5 -2 3 -4 13.84 0.33 0.38 <
3648 6 -5 -2 8 0.33 2.68 1.13 <
3649 6 -5 -2 7 2.73 5.86 1.47 o
3650 6 -5 -2 6 7.29 9.81 1.73 o
3650 1 -5 2 6 7.29 9.81 1.73 o
3651 6 -5 -2 5 0.34 0.06 0.08 <
3652 6 -5 -1 8 1.11 1.73 0.91 <
3653 6 -5 -1 7 1.26 1.44 0.81 <
3654 6 -5 -1 6 9.22 6.65 1.39 o
3654 1 -5 1 6 9.22 6.65 1.39 o
3655 6 -5 0 8 0.37 0.39 0.39 <
3656 6 5 0 -8 0.37 0.44 0.16 <
3657 6 5 0 -7 1.61 1.84 0.61 o
3658 6 -5 0 7 1.61 1.07 0.72 <
3659 6 5 1 -8 1.06 1.04 0.32 o
3660 6 -5 1 8 1.06 1.66 0.81 <
3661 6 5 1 -7 1.31 1.60 0.69 <
3662 6 5 1 -6 9.22 9.95 1.46 o
3662 1 5 -1 -6 9.22 9.95 1.46 o
3663 6 5 2 -7 2.66 6.77 1.37 o
3664 6 5 2 -6 7.30 14.35 1.79 o
3664 1 5 -2 -6 7.30 14.35 1.79 o
3665 6 5 2 -5 0.38 0.76 0.42 <
3666 6 5 3 -7 1.42 1.95 0.58 o
3667 6 5 3 -6 8.49 11.78 1.73 o
3667 1 5 -3 -6 8.49 11.78 1.73 o
3668 6 5 3 -5 7.67 15.50 1.77 o
3669 6 5 4 -7 4.38 6.19 1.44 o
3670 6 5 4 -6 10.64 15.87 2.13 o
3670 1 5 -4 -6 10.64 15.87 2.13 o
3671 6 5 4 -5 0.08 0.74 0.39 <
3672 6 5 4 -4 43.24 33.79 2.52 o
3672 5 2 -4 4 43.24 33.79 2.52 o
3673 6 5 5 -7 0.78 2.23 1.04 <
3674 6 5 5 -6 7.19 9.23 1.55 o
3674 1 5 -5 -6 7.19 9.23 1.55 o
3675 6 5 5 -5 4.28 8.86 1.45 o
3676 6 5 5 -4 13.71 2.69 0.87 o
3676 5 2 -5 4 13.71 2.69 0.87 o
3677 6 5 6 -6 0.65 1.51 0.81 <
3677 1 5 -6 -6 0.65 1.51 0.81 <
3678 6 5 6 -5 1.51 0.80 0.26 o
3679 6 5 6 -4 15.01 17.83 1.97 o
3679 5 2 -6 4 15.01 17.83 1.97 o
3680 6 5 6 -3 2.74 2.92 0.70 o
3681 6 5 7 -5 1.48 3.92 1.12 o
3682 6 5 7 -4 8.11 4.21 1.18 o
3682 5 2 -7 4 8.11 4.21 1.18 o
3683 6 5 7 -3 1.00 1.23 0.55 <
3684 6 5 8 -4 3.05 3.02 0.87 o
3684 5 2 -8 4 3.05 3.02 0.87 o
3685 6 5 8 -3 0.20 0.61 0.34 <
3686 6 5 8 -2 0.28 0.12 0.08 <
3687 6 -6 -7 3 0.11 0.11 0.14 <
3688 6 -6 -6 5 1.81 1.01 0.47 <
3688 1 -4 6 7 1.81 1.01 0.47 <
3689 6 -6 -6 4 1.16 0.80 0.59 <
3689 5 -3 6 -4 1.16 0.80 0.59 <
3690 6 -6 -6 3 2.88 3.14 0.91 o
3691 6 -6 -6 2 0.62 0.49 0.18 <
3692 6 -6 -5 6 0.04 0.38 0.33 <
3693 6 -6 -5 5 5.81 5.78 1.39 o
3693 1 -4 5 7 5.81 5.78 1.39 o
3694 6 -6 -5 4 4.45 3.19 1.01 o
3694 5 -3 5 -4 4.45 3.19 1.01 o
3695 6 -6 -5 3 0.12 -0.13 0.29 <
3696 6 -6 -4 6 2.37 1.43 0.17 o
3697 6 -6 -4 5 2.32 2.79 0.87 o
3697 1 -4 4 7 2.32 2.79 0.87 o
3698 6 -6 -3 7 1.11 2.44 1.02 <
3699 6 -6 -3 6 1.93 1.98 0.80 <
3700 6 -6 -2 7 0.02 -0.50 0.64 <
3701 6 6 2 -7 0.03 -0.10 0.16 <
3702 6 6 3 -7 1.12 4.85 1.23 o
3703 6 6 3 -6 1.93 3.70 1.02 o
3704 6 6 4 -6 2.32 6.14 1.22 o
3705 6 6 5 -6 0.05 -0.37 0.45 <
3706 6 6 5 -5 5.64 6.74 1.23 o
3706 1 4 -5 -7 5.64 6.74 1.23 o
3707 6 6 6 -5 1.87 2.48 0.84 <
3707 1 4 -6 -7 1.87 2.48 0.84 <
