#------------------------------------------------------------------------------
#$Date: 2019-11-07 21:19:47 +0200 (Thu, 07 Nov 2019) $
#$Revision: 223480 $
#$URL: file:///home/coder/svn-repositories/cod/cif/7/23/22/7232272.cif $
#------------------------------------------------------------------------------
#
# This file is available in the Crystallography Open Database (COD),
# http://www.crystallography.net/
#
# All data on this site have been placed in the public domain by the
# contributors.
#
data_7232272
loop_
_publ_author_name
'Fayzullin, Robert R.'
'Shteingolts, Sergey A.'
'Lodochnikova, Olga A.'
'Mamedova, Vera L.'
'Korshin, Dmitry E.'
'Mamedov, Vakhid A.'
_publ_section_title
;
 Intermolecular head-to-head interaction of carbonyl groups in bicyclic
 hydrogen-bonded synthon based on \b-hydroxy ketones
;
_journal_issue                   10
_journal_name_full               CrystEngComm
_journal_page_first              1587
_journal_paper_doi               10.1039/C8CE02132E
_journal_volume                  21
_journal_year                    2019
_chemical_formula_moiety         'C16 H14 Br N O4'
_chemical_formula_sum            'C16 H14 Br N O4'
_chemical_formula_weight         364.19
_chemical_melting_point          374
_chemical_name_systematic
(2RS,3RS)-2-bromo-3-hydroxy-1-(4-methylphenyl)-3-(2-nitrophenyl)-propan-1-one
_space_group_crystal_system      triclinic
_space_group_IT_number           2
_space_group_name_Hall           '-P 1'
_space_group_name_H-M_alt        'P -1'
_symmetry_space_group_name_Hall  '-P 1'
_symmetry_space_group_name_H-M   'P -1'
_atom_sites_solution_hydrogens   mixed
_audit_creation_method           SHELXL-2018/3
_audit_update_record
;
2018-12-16 deposited with the CCDC.
2019-01-31 downloaded from the CCDC.
;
_cell_angle_alpha                106.091(4)
_cell_angle_beta                 94.967(5)
_cell_angle_gamma                100.946(4)
_cell_formula_units_Z            2
_cell_length_a                   7.8816(8)
_cell_length_b                   10.0220(10)
_cell_length_c                   10.4165(11)
_cell_measurement_reflns_used    3957
_cell_measurement_temperature    293(2)
_cell_measurement_theta_max      26.17
_cell_measurement_theta_min      2.50
_cell_volume                     767.68(14)
_computing_cell_refinement       'APEX2 v2014.11-0 (Bruker AXS)'
_computing_data_collection       'APEX2 v2014.11-0 (Bruker AXS)'
_computing_data_reduction        'APEX2 v2014.11-0 (Bruker AXS)'
_computing_molecular_graphics
;
WinGX (Farrugia, 2012); Olex2 (Dolomanov et al., 2009);
ORTEP-3 (Farrugia, 2012); PLATON (Spek, 2009)
;
_computing_publication_material  'enCIFer (Allen, 2004)'
_computing_structure_refinement  'SHELXL-2018/3 (Sheldrick, 2015)'
_computing_structure_solution    'SHELXT-2018/2 (Sheldrick, 2015)'
_diffrn_ambient_temperature      293(2)
_diffrn_measured_fraction_theta_full 0.986
_diffrn_measured_fraction_theta_max 0.987
_diffrn_measurement_device_type  'Bruker APEX-II CCD'
_diffrn_measurement_method       '\f and \w scans'
_diffrn_radiation_probe          x-ray
_diffrn_radiation_type           MoK\a
_diffrn_radiation_wavelength     0.71073
_diffrn_reflns_av_R_equivalents  0.0277
_diffrn_reflns_av_unetI/netI     0.0382
_diffrn_reflns_Laue_measured_fraction_full 0.986
_diffrn_reflns_Laue_measured_fraction_max 0.987
_diffrn_reflns_limit_h_max       9
_diffrn_reflns_limit_h_min       -9
_diffrn_reflns_limit_k_max       12
_diffrn_reflns_limit_k_min       -11
_diffrn_reflns_limit_l_max       12
_diffrn_reflns_limit_l_min       -12
_diffrn_reflns_number            6923
_diffrn_reflns_point_group_measured_fraction_full 0.986
_diffrn_reflns_point_group_measured_fraction_max 0.987
_diffrn_reflns_theta_full        25.242
_diffrn_reflns_theta_max         25.394
_diffrn_reflns_theta_min         2.661
_diffrn_source                   'sealed tube'
_exptl_absorpt_coefficient_mu    2.694
_exptl_absorpt_correction_T_max  0.7458
_exptl_absorpt_correction_T_min  0.6111
_exptl_absorpt_correction_type   multi-scan
_exptl_absorpt_process_details   SADABS-2014/5
_exptl_crystal_colour            colourless
_exptl_crystal_density_diffrn    1.576
_exptl_crystal_description       prism
_exptl_crystal_F_000             368
_exptl_crystal_recrystallization_method
'slow evaporation of an ethanol solution at r.t.'
_exptl_crystal_size_max          0.546
_exptl_crystal_size_mid          0.308
_exptl_crystal_size_min          0.288
_refine_diff_density_max         0.965
_refine_diff_density_min         -0.601
_refine_diff_density_rms         0.080
_refine_ls_extinction_method     none
_refine_ls_goodness_of_fit_ref   1.065
_refine_ls_hydrogen_treatment    mixed
_refine_ls_matrix_type           full
_refine_ls_number_parameters     204
_refine_ls_number_reflns         2790
_refine_ls_number_restraints     1
_refine_ls_restrained_S_all      1.065
_refine_ls_R_factor_all          0.0644
_refine_ls_R_factor_gt           0.0488
_refine_ls_shift/su_max          0.000
_refine_ls_shift/su_mean         0.000
_refine_ls_structure_factor_coef Fsqd
_refine_ls_weighting_details
'w=1/[\s^2^(Fo^2^)+(0.0698P)^2^+0.7340P] where P=(Fo^2^+2Fc^2^)/3'
_refine_ls_weighting_scheme      calc
_refine_ls_wR_factor_gt          0.1291
_refine_ls_wR_factor_ref         0.1403
_reflns_Friedel_coverage         0.000
_reflns_number_gt                2175
_reflns_number_total             2790
_reflns_threshold_expression     'I > 2\s(I)'
_cod_data_source_file            c8ce02132e2.cif
_cod_data_source_block           v611
_cod_depositor_comments
'Adding full bibliography for 7232272--7232275.cif.'
_cod_database_code               7232272
_shelx_shelxl_version_number     2018/3
_shelx_space_group_comment
;
The symmetry employed for this shelxl refinement is uniquely defined
by the following loop, which should always be used as a source of
symmetry information in preference to the above space-group names.
They are only intended as comments.
;
_shelx_estimated_absorpt_t_min   0.321
_shelx_estimated_absorpt_t_max   0.511
_shelx_res_file
;
TITL v611 in P-1
    shelx.res
    created by SHELXL-2018/3 at 13:30:43 on 29-Nov-2018
CELL 0.71073   7.88160  10.02200  10.41650 106.0910  94.9669 100.9464
ZERR    2.00   0.00080   0.00100   0.00110   0.0043   0.0045   0.0044
LATT   1
SFAC  C    H    N    O    BR
UNIT  32 28 2 8 2
MERG   2
OMIT    -2.00  50.80
OMIT     0   0   1
OMIT     0   1   0
OMIT    -1   1   0
DFIX 0.820 O3 H3
MORE -1
EQIV $1 -x, -y+1, -z+1
HTAB O3 O1_$1
EQIV $2 -x+1, -y+1, -z+1
HTAB C2 O3_$2
EQIV $3 1+x, y, z
HTAB C34 O11_$3
FMAP   2
PLAN   10
SIZE     0.288   0.308   0.546
ACTA
BOND   $H
CONF
LIST   4
L.S.  20
TEMP    20.15
WGHT    0.069800    0.734000
FVAR       0.26894
BR1   5    0.410231    0.806245    0.340437    11.00000    0.06381    0.07460 =
         0.07327    0.03459   -0.00669   -0.00897
O1    4    0.050862    0.562135    0.395728    11.00000    0.03798    0.07424 =
         0.04656    0.00859   -0.00060   -0.00131
O3    4    0.315238    0.572415    0.607597    11.00000    0.03946    0.08028 =
         0.06351    0.03351    0.00212   -0.00495
H3    2    0.212228    0.537434    0.591927    11.00000    0.06565
O11   4    0.303306    0.907530    0.793327    11.00000    0.05053    0.14078 =
         0.09223   -0.02078   -0.00166    0.04584
O12   4    0.417768    0.835427    0.946277    11.00000    0.07481    0.10317 =
         0.09815    0.01626    0.04049    0.01131
N1    3    0.417695    0.865080    0.839270    11.00000    0.03724    0.07499 =
         0.06705   -0.01902    0.00552    0.00522
C1    1    0.178783    0.549714    0.339703    11.00000    0.03753    0.05106 =
         0.05192    0.01006   -0.00377    0.00126
C2    1    0.360363    0.636662    0.412219    11.00000    0.04611    0.06820 =
         0.06294   -0.00033   -0.00349    0.00895
AFIX  13
H2    2    0.448290    0.579538    0.392468    11.00000   -1.20000
AFIX   0
C3    1    0.367781    0.696715    0.558375    11.00000    0.03855    0.08104 =
         0.06552   -0.01214   -0.00432    0.01166
AFIX  13
H31   2    0.284677    0.758568    0.576970    11.00000   -1.20000
AFIX   0
C11   1    0.167026    0.462323    0.198299    11.00000    0.03985    0.04311 =
         0.04542    0.01201   -0.00191   -0.00021
C12   1    0.001763    0.394891    0.124143    11.00000    0.04188    0.05038 =
         0.04882    0.01914    0.00029   -0.00037
AFIX  43
H12   2   -0.097791    0.402616    0.164948    11.00000   -1.20000
AFIX   0
C13   1   -0.013346    0.316728   -0.009933    11.00000    0.04640    0.05305 =
         0.04622    0.01525   -0.00562   -0.00138
AFIX  43
H13   2   -0.123813    0.271587   -0.058341    11.00000   -1.20000
AFIX   0
C14   1    0.131423    0.304097   -0.073591    11.00000    0.05881    0.04713 =
         0.05143    0.02075    0.00683    0.00638
C15   1    0.294246    0.367684    0.000609    11.00000    0.05031    0.06232 =
         0.06287    0.02056    0.01510    0.00492
AFIX  43
H15   2    0.393166    0.358267   -0.040646    11.00000   -1.20000
AFIX   0
C16   1    0.313299    0.445023    0.134887    11.00000    0.03871    0.05726 =
         0.06138    0.01283    0.00180   -0.00105
AFIX  43
H16   2    0.424554    0.485940    0.183499    11.00000   -1.20000
AFIX   0
C17   1    0.116154    0.226533   -0.222682    11.00000    0.07985    0.07254 =
         0.05326    0.01308    0.01030    0.01140
AFIX 137
H17A  2    0.148973    0.294314   -0.270636    11.00000   -1.50000
H17B  2   -0.002317    0.175070   -0.256572    11.00000   -1.50000
H17C  2    0.192126    0.161048   -0.235349    11.00000   -1.50000
AFIX   0
C31   1    0.548897    0.777011    0.634242    11.00000    0.03032    0.05861 =
         0.05803   -0.00639   -0.00119    0.00789
C32   1    0.570513    0.849457    0.768705    11.00000    0.03013    0.04642 =
         0.05395   -0.00333    0.00615    0.00677
C33   1    0.731021    0.905430    0.847533    11.00000    0.03832    0.05674 =
         0.04974    0.00050   -0.00037    0.00580
AFIX  43
H33   2    0.738815    0.950574    0.939483    11.00000   -1.20000
AFIX   0
C34   1    0.879656    0.894449    0.790062    11.00000    0.03106    0.05756 =
         0.05756    0.00771   -0.00401    0.00130
AFIX  43
H34   2    0.989147    0.933516    0.842106    11.00000   -1.20000
AFIX   0
C35   1    0.864931    0.825498    0.655579    11.00000    0.02931    0.07574 =
         0.06644    0.00725    0.00970    0.00672
AFIX  43
H35   2    0.965011    0.817725    0.615498    11.00000   -1.20000
AFIX   0
C36   1    0.702630    0.767254    0.578685    11.00000    0.03897    0.08475 =
         0.05067   -0.00523    0.00217    0.01193
AFIX  43
H36   2    0.695324    0.720128    0.487216    11.00000   -1.20000
AFIX   0
HKLF    4




REM  v611 in P-1
REM wR2 = 0.1403, GooF = S = 1.065, Restrained GooF = 1.065 for all data
REM R1 = 0.0488 for 2175 Fo > 4sig(Fo) and 0.0644 for all 2790 data
REM 204 parameters refined using 1 restraints

END

WGHT      0.0698      0.7340

REM Highest difference peak  0.965,  deepest hole -0.601,  1-sigma level  0.080
Q1    1   0.3285  0.8372  0.3943  11.00000  0.05    0.96
Q2    1   0.3330  0.5840  0.4755  11.00000  0.05    0.84
Q3    1   0.3914  0.7633  0.4982  11.00000  0.05    0.75
Q4    1   0.4478  0.7397  0.3704  11.00000  0.05    0.37
Q5    1   0.5740  0.8358  0.5947  11.00000  0.05    0.36
Q6    1   0.5524  0.7417  0.3212  11.00000  0.05    0.34
Q7    1   0.4282  1.0439  0.8762  11.00000  0.05    0.33
Q8    1   0.1705  0.4821  0.2755  11.00000  0.05    0.25
Q9    1   0.2933  0.5063  0.5360  11.00000  0.05    0.24
Q10   1   0.4920  0.8673  0.3791  11.00000  0.05    0.24
;
_shelx_res_checksum              49104
_shelx_hkl_file
;
   1   0   0  139.15    6.14
  -2   0   0   15.52    0.77
   2   0   0   16.94    0.76
   3   0   0   96.59    4.28
   4   0   0   97.86    4.36
   5   0   0   25.44    1.24
  -8   0   0    3.18    0.23
  -8   0   0    3.32    0.25
  -9   0   0   -0.11    0.21
 -10   0   0    1.22    0.28
   7  -1   0   22.15    1.19
   6  -1   0  157.02    6.99
   5  -1   0    0.36    0.20
   4  -1   0    9.07    0.52
   3  -1   0  282.78   12.43
   2  -1   0  700.90   30.19
  -2   1   0  670.58   30.20
  -1   1   0  129.34    5.68
   0  -1   0   -0.35    0.01
   0  -1   0   -0.31    0.02
   0  -1   0   -0.36    0.01
   0   1   0   -0.36    0.02
   0   1   0   -0.37    0.01
   0   1   0   -0.39    0.01
  -1  -1   0   94.95    4.65
  -1  -1   0  118.43    4.65
   1   1   0  101.77    4.65
  -2  -1   0  364.46   16.21
  -2  -1   0  360.36   16.21
  -2  -1   0  368.35   16.21
   2   1   0  383.05   16.19
  -3  -1   0   69.31    2.99
  -3  -1   0   66.16    2.98
  -4  -1   0   73.38    3.22
  -4  -1   0   72.77    3.22
  -5  -1   0   13.75    0.63
  -5  -1   0   13.28    0.64
  -6  -1   0    0.00    0.12
  -6  -1   0   -0.10    0.14
  -7  -1   0    0.10    0.18
  -7  -1   0    0.14    0.15
  -8  -1   0    8.66    0.57
  -9  -1   0    0.90    0.28
 -10  -1   0    0.32    0.31
   7  -2   0    1.55    0.33
   6  -2   0   29.92    1.46
   5  -2   0   46.27    2.13
   4  -2   0  159.21    7.04
   3  -2   0    9.29    0.49
   2  -2   0   18.25    0.83
  -2   2   0   17.53    0.80
  -2   2   0   17.46    0.80
  -2   2   0   18.42    0.80
  -2   2   0   18.16    0.81
   1  -2   0  144.46    6.44
  -1   2   0  145.60    6.44
  -1   2   0  147.79    6.44
  -1   2   0  148.19    6.44
   0  -2   0  243.96   10.75
   0   2   0  246.08   10.75
   0   2   0  242.36   10.75
   0   2   0  247.47   10.75
  -1  -2   0  249.47   10.28
  -1  -2   0  212.87   10.28
   1   2   0  240.97   10.28
   1   2   0  233.30   10.28
  -2  -2   0  500.74   22.57
  -2  -2   0  569.02   22.60
   2   2   0  502.50   22.54
   2   2   0  484.10   22.58
  -3  -2   0   25.30    1.14
  -3  -2   0   24.45    1.13
   3   2   0   25.11    1.12
  -4  -2   0    0.28    0.13
  -4  -2   0    0.11    0.11
  -5  -2   0   12.82    0.66
  -5  -2   0   13.44    0.64
  -6  -2   0   29.19    1.35
  -6  -2   0   28.72    1.33
  -7  -2   0   19.07    0.96
  -8  -2   0    1.23    0.29
  -9  -2   0    7.30    0.52
 -10  -2   0    0.16    0.35
   8  -3   0   13.32    0.91
   7  -3   0   54.54    2.56
   6  -3   0   44.09    2.07
   5  -3   0   20.87    1.05
   4  -3   0    1.56    0.22
  -4   3   0    1.69    0.12
  -4   3   0    1.86    0.15
   3  -3   0   44.54    1.93
  -3   3   0   42.77    1.90
  -3   3   0   41.93    1.89
  -3   3   0   41.68    1.89
   2  -3   0   80.35    3.63
   2  -3   0   82.60    3.63
   2  -3   0   81.21    3.63
   2  -3   0   81.47    3.65
  -2   3   0   82.94    3.64
  -2   3   0   83.72    3.64
  -2   3   0   85.22    3.64
   1  -3   0  144.95    6.41
   1  -3   0  147.63    6.41
  -1   3   0  143.54    6.41
  -1   3   0  146.06    6.41
   0  -3   0  468.60   20.95
   0   3   0  498.99   20.95
   0   3   0  465.23   20.98
  -1  -3   0  233.19   10.37
  -1  -3   0  223.02   10.37
   1   3   0  246.36   10.37
   1   3   0  241.03   10.37
  -2  -3   0    0.58    0.14
  -2  -3   0    0.46    0.12
   2   3   0    0.37    0.13
  -3  -3   0    2.55    0.21
  -3  -3   0    2.69    0.23
   3   3   0    2.99    0.19
   3   3   0    2.91    0.22
  -4  -3   0  105.09    4.75
  -4  -3   0  108.02    4.75
   4   3   0  108.59    4.73
  -5  -3   0   30.17    1.42
  -5  -3   0   30.52    1.40
  -6  -3   0   21.07    1.05
  -7  -3   0    0.38    0.27
  -8  -3   0    0.50    0.31
  -9  -3   0    0.12    0.37
   9  -4   0    3.46    0.54
   8  -4   0    1.03    0.40
   7  -4   0   11.26    0.78
   6  -4   0    4.48    0.39
  -6   4   0    3.51    0.26
   5  -4   0   10.86    0.66
  -5   4   0   11.26    0.54
  -5   4   0   11.27    0.53
  -5   4   0   10.93    0.52
   4  -4   0   27.54    1.28
  -4   4   0   26.26    1.22
  -4   4   0   26.68    1.21
  -4   4   0   26.84    1.21
   3  -4   0   14.93    0.76
   3  -4   0   15.16    0.70
  -3   4   0   15.47    0.73
  -3   4   0   16.09    0.72
  -3   4   0   15.15    0.74
   2  -4   0   46.79    2.12
   2  -4   0   47.71    2.13
  -2   4   0   47.92    2.13
  -2   4   0   48.29    2.12
  -2   4   0   46.96    2.13
   1  -4   0   62.18    2.74
  -1   4   0   61.72    2.76
  -1   4   0   62.03    2.75
  -1   4   0   60.44    2.75
   0  -4   0   26.15    1.24
   0   4   0   25.79    1.23
   0   4   0   28.78    1.25
  -1  -4   0   31.92    1.58
   1   4   0   35.48    1.57
   1   4   0   36.49    1.59
  -2  -4   0   42.54    1.99
   2   4   0   45.66    1.99
   2   4   0   43.30    1.97
  -3  -4   0  123.74    5.25
  -3  -4   0  118.93    5.24
   3   4   0  115.84    5.22
   3   4   0  114.94    5.24
  -4  -4   0   13.77    0.73
  -4  -4   0   13.88    0.69
   4   4   0   12.93    0.69
  -5  -4   0    4.82    0.39
  -6  -4   0    2.00    0.31
  -7  -4   0    2.38    0.39
  -8  -4   0    8.05    0.60
  -9  -4   0    0.80    0.42
   9  -5   0   -0.29    0.44
   8  -5   0    1.59    0.45
   7  -5   0    0.75    0.35
  -7   5   0    0.04    0.13
  -7   5   0    0.53    0.15
   6  -5   0    7.31    0.58
  -6   5   0    6.44    0.37
  -6   5   0    5.83    0.40
  -6   5   0    6.24    0.39
   5  -5   0   16.52    0.85
  -5   5   0   15.83    0.77
  -5   5   0   15.19    0.76
  -5   5   0   15.34    0.74
   4  -5   0   18.68    0.93
  -4   5   0   18.55    0.88
  -4   5   0   17.93    0.86
  -4   5   0   18.30    0.87
   3  -5   0   15.63    0.76
   3  -5   0   15.07    0.76
   3  -5   0   15.95    0.80
  -3   5   0   16.78    0.80
  -3   5   0   16.01    0.78
  -3   5   0   17.43    0.77
  -2   5   0    0.52    0.13
  -2   5   0    0.47    0.17
   1  -5   0   44.53    1.99
  -1   5   0   43.89    1.99
  -1   5   0   43.34    2.00
   0  -5   0   75.09    3.38
   0   5   0   77.03    3.38
   0   5   0   74.95    3.39
  -1  -5   0   81.37    3.85
   1   5   0   87.55    3.85
   1   5   0   89.75    3.84
  -2  -5   0   71.07    3.27
   2   5   0   75.55    3.27
   2   5   0   71.81    3.25
  -3  -5   0   -0.24    0.22
   3   5   0   -0.20    0.20
  -4  -5   0    0.79    0.27
   4   5   0    1.06    0.23
  -5  -5   0   14.49    0.88
   5   5   0   15.70    0.78
  -6  -5   0    7.21    0.54
  -7  -5   0    4.72    0.48
  -8  -5   0    1.21    0.45
   9  -6   0   -0.16    0.46
  -9   6   0    0.28    0.21
   8  -6   0    0.05    0.41
  -8   6   0   -0.20    0.20
   7  -6   0    5.12    0.52
  -7   6   0    4.97    0.40
   6  -6   0    3.97    0.43
  -6   6   0    4.30    0.32
  -6   6   0    4.21    0.33
  -6   6   0    4.43    0.34
   5  -6   0   29.76    1.47
  -5   6   0   30.45    1.42
  -5   6   0   29.40    1.41
  -5   6   0   31.47    1.40
   4  -6   0    0.11    0.22
   4  -6   0    0.04    0.11
   4  -6   0   -0.16    0.12
  -4   6   0    0.03    0.15
  -4   6   0    0.15    0.20
  -4   6   0    0.28    0.19
   3  -6   0   29.59    1.36
   3  -6   0   30.00    1.38
   3  -6   0   29.52    1.36
  -3   6   0   29.56    1.40
  -3   6   0   29.28    1.37
   2  -6   0   46.70    2.09
  -2   6   0   45.90    2.11
  -2   6   0   46.30    2.13
   1  -6   0   41.39    1.89
  -1   6   0   41.17    1.89
  -1   6   0   41.00    1.91
   0  -6   0    3.35    0.30
   0   6   0    2.16    0.27
   0   6   0    2.90    0.30
  -1  -6   0    4.61    0.37
   1   6   0    4.59    0.35
   1   6   0    4.06    0.38
  -2  -6   0    0.16    0.24
   2   6   0    0.20    0.25
   2   6   0   -0.17    0.20
  -3  -6   0    9.20    0.63
   3   6   0    8.35    0.61
  -4  -6   0   34.72    1.69
   4   6   0   35.21    1.66
  -5  -6   0   10.11    0.74
   5   6   0    9.34    0.62
  -6  -6   0    1.88    0.42
  -7  -6   0    1.71    0.47
  -8  -6   0    2.49    0.53
  10  -7   0    0.37    0.55
 -10   7   0    0.75    0.26
   9  -7   0    0.51    0.49
   8  -7   0    0.33    0.43
   7  -7   0   -0.03    0.37
   6  -7   0   -0.05    0.31
  -6   7   0    0.20    0.24
   5  -7   0    3.23    0.37
  -5   7   0    2.79    0.32
   4  -7   0    2.05    0.30
   4  -7   0    1.97    0.21
  -4   7   0    2.43    0.30
  -4   7   0    1.90    0.27
   3  -7   0   11.51    0.67
   3  -7   0   13.02    0.67
   3  -7   0   11.99    0.63
  -3   7   0   13.34    0.73
  -3   7   0   11.41    0.69
   2  -7   0   11.62    0.65
  -2   7   0   12.16    0.68
  -2   7   0   11.82    0.72
   1  -7   0    0.08    0.24
  -1   7   0    0.08    0.22
  -1   7   0    0.35    0.27
   0  -7   0    1.20    0.28
   0   7   0    0.47    0.26
   0   7   0    0.92    0.26
  -1  -7   0   29.32    1.43
   1   7   0   28.79    1.43
   1   7   0   28.76    1.40
  -2  -7   0   13.86    0.85
   2   7   0   13.84    0.85
   2   7   0   14.93    0.81
  -3  -7   0    9.17    0.73
   3   7   0    8.85    0.68
  -4  -7   0    0.64    0.36
   4   7   0    0.69    0.31
  -5  -7   0    0.24    0.39
   5   7   0    0.02    0.29
  -6  -7   0    4.50    0.56
  -7  -7   0    2.04    0.57
   9  -8   0    0.45    0.52
  -9   8   0    0.48    0.28
   8  -8   0    0.23    0.44
  -8   8   0    0.51    0.26
   7  -8   0    0.21    0.40
  -7   8   0   -0.01    0.27
   6  -8   0    0.79    0.36
  -6   8   0    0.31    0.26
  -6   8   0    0.75    0.30
   5  -8   0    3.13    0.37
  -5   8   0    2.60    0.36
  -5   8   0    2.00    0.30
   4  -8   0    0.87    0.22
   4  -8   0    0.68    0.28
  -4   8   0    0.61    0.26
  -4   8   0    0.47    0.30
   3  -8   0   -0.04    0.24
   3  -8   0    0.29    0.22
  -3   8   0    0.27    0.31
  -3   8   0    0.35    0.25
   2  -8   0    3.18    0.31
  -2   8   0    2.06    0.32
  -2   8   0    2.21    0.37
   1  -8   0    0.48    0.28
  -1   8   0    0.54    0.32
  -1   8   0    0.30    0.29
   0  -8   0   25.28    1.30
   0   8   0   26.44    1.31
   0   8   0   24.36    1.32
  -1  -8   0    5.28    0.50
   1   8   0    5.07    0.50
   1   8   0    6.26    0.47
  -2  -8   0    0.24    0.35
   2   8   0    0.04    0.36
  -3  -8   0    1.99    0.44
   3   8   0    1.97    0.40
  -4  -8   0    7.81    0.67
   4   8   0    8.15    0.60
  -5  -8   0    3.96    0.59
   5   8   0    4.27    0.46
  -6  -8   0   -0.72    0.53
   9  -9   0    0.56    0.52
  -9   9   0    0.51    0.32
   8  -9   0    0.28    0.45
  -8   9   0    0.08    0.28
   7  -9   0    0.56    0.41
  -7   9   0    0.43    0.28
   6  -9   0    0.22    0.36
  -6   9   0    0.27    0.34
  -6   9   0   -0.27    0.26
   5  -9   0   -0.03    0.19
   5  -9   0    0.34    0.32
  -5   9   0   -0.04    0.27
  -5   9   0    0.18    0.34
   4  -9   0    0.59    0.28
   4  -9   0    0.31    0.25
  -4   9   0    0.60    0.35
  -4   9   0   -0.09    0.29
   3  -9   0    1.90    0.34
   3  -9   0    2.00    0.29
  -3   9   0    1.97    0.35
  -3   9   0    2.29    0.41
  -2   9   0   11.68    0.81
  -2   9   0   12.33    0.90
   1  -9   0    4.92    0.47
  -1   9   0    4.79    0.52
  -1   9   0    3.77    0.47
   0  -9   0    2.49    0.43
   0   9   0    1.84    0.39
   0   9   0    2.18    0.46
  -1  -9   0    0.99    0.42
   1   9   0    0.96    0.42
   1   9   0    1.58    0.38
  -2  -9   0    4.46    0.55
   2   9   0    5.01    0.55
  -3  -9   0    5.91    0.61
   3   9   0    4.36    0.53
  -4  -9   0    0.79    0.53
   4   9   0    1.30    0.44
  -5  -9   0   -0.12    0.59
   5   9   0    1.49    0.44
  -6  -9   0    0.77    0.67
   8 -10   0   -0.40    0.45
  -8  10   0    0.15    0.33
   7 -10   0    0.24    0.42
  -7  10   0    0.17    0.32
   6 -10   0    0.25    0.38
  -6  10   0    0.41    0.32
  -6  10   0    0.92    0.42
   5 -10   0    0.13    0.32
  -5  10   0    0.20    0.33
  -5  10   0    0.05    0.40
   4 -10   0    0.83    0.35
   4 -10   0    0.47    0.30
  -4  10   0    0.56    0.35
  -4  10   0    0.20    0.43
   3 -10   0    1.08    0.37
  -3  10   0    0.69    0.44
  -3  10   0    1.27    0.39
  -2  10   0    0.58    0.44
  -2  10   0    0.16    0.39
  -1  10   0   -0.24    0.46
  -1  10   0    0.48    0.39
   0 -10   0    0.86    0.62
   0  10   0    1.60    0.51
   0  10   0    1.35    0.43
  -1 -10   0    0.57    0.45
   1  10   0    0.49    0.48
  -2 -10   0    2.59    0.53
   2  10   0    2.54    0.53
  -3 -10   0    1.05    0.55
   3  10   0    0.31    0.48
  -4 -10   0    1.08    0.60
   4  10   0    0.75    0.49
  -5 -10   0    0.39    0.66
   5  10   0    0.33    0.49
  -7  11   0    0.22    0.37
  -6  11   0    0.00    0.46
  -6  11   0   -0.23    0.36
  -5  11   0   -0.02    0.48
  -5  11   0    0.13    0.39
   4 -11   0    0.12    0.33
  -4  11   0    0.10    0.42
  -4  11   0   -0.38    0.49
   3 -11   0   -0.32    0.38
  -3  11   0    0.32    0.52
  -3  11   0    0.65    0.46
   2 -11   0    0.23    0.44
  -2  11   0   -0.03    0.53
  -2  11   0   -0.05    0.44
  -1  11   0   -0.10    0.53
  -1  11   0    0.16    0.47
   0  11   0    1.87    0.56
   1  11   0   -0.67    0.53
  -2 -11   0    4.57    0.74
   2  11   0    3.75    0.64
  -3 -11   0    0.25    0.58
   3  11   0    0.38    0.56
  -6  12   0   -1.00    0.54
  -6  12   0    0.29    0.46
  -5  12   0    0.04    0.59
  -5  12   0    0.16    0.47
   4 -12   0    0.50    0.38
  -4  12   0    0.26    0.62
  -4  12   0    0.54    0.50
   3 -12   0    0.16    0.43
  -3  12   0    0.17    0.62
  -3  12   0    0.11    0.49
   2 -12   0   -0.34    0.47
  -2  12   0   -0.15    0.61
  -2  12   0    0.49    0.53
  -1  12   0    0.39    0.62
   0  12   0    1.26    0.66
   1  12   0    0.65    0.63
   2  12   0    0.16    0.60
  -4  13   0    0.77    0.72
   3 -13   0    0.05    0.48
  -3  13   0   -0.49    0.57
  -3  13   0    0.60    0.71
   2 -13   0    0.61    0.55
  -2  13   0   -0.75    0.69
  -2  13   0   -0.94    0.76
   1 -13   0   -0.16    0.59
  -1  13   0    0.48    0.73
   0  13  -1    2.08    0.70
  -1  13  -1   -0.21    0.70
  -2  13  -1   -0.21    0.55
  -2  13  -1   -0.25    0.70
   2 -13   1    0.25    0.53
  -3  13  -1    0.00    0.58
  -3  13  -1   -0.57    0.68
   3 -13   1   -0.22    0.46
  -4  13  -1    0.79    0.57
  -4  13  -1    0.28    0.67
   4 -13   1   -0.06    0.40
   2  12  -1   -0.03    0.60
   1  12  -1    0.99    0.61
   0  12  -1    0.80    0.62
  -1  12  -1    1.83    0.64
  -1  12  -1    2.14    0.56
  -2  12  -1    0.89    0.62
  -2  12  -1    2.21    0.56
  -3  12  -1   -0.01    0.50
  -3  12  -1   -0.27    0.58
   3 -12   1    0.02    0.42
  -4  12  -1    0.44    0.58
  -4  12  -1    0.39    0.46
   4 -12   1   -0.02    0.36
  -5  12  -1   -0.46    0.42
  -5  12  -1    0.67    0.57
  -6  12  -1    0.30    0.42
  -6  12  -1    0.37    0.55
   4  11  -1    0.90    0.56
  -4 -11   1    0.49    0.64
   3  11  -1    0.26    0.54
  -3 -11   1    0.06    0.58
   2  11  -1    0.36    0.55
  -2 -11   1    0.25    0.54
   1  11  -1    3.02    0.60
   0  11  -1    0.87    0.55
   0  11  -1    1.90    0.52
  -1  11  -1    0.04    0.46
  -1  11  -1   -0.24    0.49
  -2  11  -1    2.35    0.55
  -2  11  -1    0.52    0.46
  -3  11  -1   -0.01    0.40
  -3  11  -1   -0.29    0.50
   3 -11   1   -0.31    0.37
  -4  11  -1    0.54    0.51
  -4  11  -1    0.26    0.39
   4 -11   1    0.57    0.33
  -5  11  -1    0.72    0.48
  -5  11  -1    0.09    0.37
  -6  11  -1    0.00    0.35
  -6  11  -1    0.74    0.47
   6 -11   1    0.31    0.42
  -7  11  -1   -0.03    0.35
   7 -11   1   -0.23    0.46
   5  10  -1    1.01    0.47
  -5 -10   1    0.56    0.65
   4  10  -1    1.13    0.50
  -4 -10   1    0.85    0.58
   3  10  -1    2.18    0.52
  -3 -10   1    3.12    0.58
   2  10  -1    3.23    0.53
  -2 -10   1    2.14    0.52
   1  10  -1    0.88    0.48
  -1 -10   1    0.25    0.43
   0  10  -1    0.22    0.41
   0  10  -1   -0.59    0.42
   0 -10   1   -0.42    0.38
  -1  10  -1   -0.31    0.38
  -1  10  -1    0.08    0.43
  -2  10  -1    3.55    0.55
  -2  10  -1    4.63    0.49
  -3  10  -1    0.90    0.36
  -3  10  -1    0.72    0.43
   3 -10   1    0.37    0.35
  -4  10  -1    0.90    0.41
  -4  10  -1    0.36    0.34
   4 -10   1    1.16    0.30
   4 -10   1    1.26    0.36
  -5  10  -1    0.63    0.33
  -5  10  -1    0.98    0.41
   5 -10   1    1.62    0.40
  -6  10  -1    0.07    0.38
  -6  10  -1   -0.17    0.30
   6 -10   1    0.30    0.41
  -7  10  -1    0.23    0.31
   7 -10   1    0.31    0.45
  -8  10  -1    0.27    0.33
   8 -10   1    0.40    0.50
  -6  -9   1    1.70    0.65
   5   9  -1    3.06    0.47
  -5  -9   1    2.74    0.62
   4   9  -1    5.35    0.55
  -4  -9   1    5.26    0.62
   3   9  -1    0.93    0.43
  -3  -9   1    0.85    0.46
   2   9  -1    0.16    0.40
  -2  -9   1   -0.33    0.40
   1   9  -1    0.51    0.34
   1   9  -1   -0.14    0.39
  -1  -9   1    0.67    0.40
   0   9  -1    4.22    0.50
   0   9  -1    4.13    0.46
   0  -9   1    4.64    0.48
  -1   9  -1   15.53    0.94
  -1   9  -1   14.59    0.99
   1  -9   1   14.59    0.90
  -2   9  -1    3.69    0.40
  -2   9  -1    3.38    0.45
  -3   9  -1    3.19    0.44
  -3   9  -1    2.68    0.37
  -4   9  -1    0.27    0.28
  -4   9  -1    0.32    0.35
   4  -9   1    0.57    0.25
   4  -9   1    0.23    0.31
  -5   9  -1    1.49    0.36
   5  -9   1    1.16    0.38
  -6   9  -1    0.91    0.34
   6  -9   1    1.53    0.44
   7  -9   1    0.33    0.44
   8  -9   1    0.11    0.47
   9  -9   1    0.65    0.54
  -7  -8   1    0.97    0.61
  -6  -8   1    4.13    0.62
   5   8  -1    2.56    0.39
  -5  -8   1    2.30    0.51
   4   8  -1    0.11    0.35
  -4  -8   1   -0.23    0.40
   3   8  -1    1.39    0.39
  -3  -8   1    1.71    0.40
   2   8  -1   14.39    0.84
   2   8  -1   13.40    0.90
  -2  -8   1   14.45    0.89
   1   8  -1   15.93    0.89
   1   8  -1   15.27    0.94
  -1  -8   1   14.55    0.91
   0   8  -1   13.16    0.77
   0   8  -1   11.86    0.81
   0  -8   1   11.56    0.77
  -1   8  -1    3.04    0.36
  -1   8  -1    2.75    0.37
   1  -8   1    2.84    0.35
  -2   8  -1    0.37    0.26
  -2   8  -1   -0.06    0.30
   2  -8   1    0.48    0.23
  -3   8  -1    8.14    0.55
  -3   8  -1    6.87    0.57
  -4   8  -1    8.79    0.64
   4  -8   1    7.23    0.50
   4  -8   1    9.30    0.63
  -5   8  -1   10.73    0.69
  -5   8  -1    9.50    0.67
   5  -8   1   10.70    0.75
  -6   8  -1    1.92    0.33
  -6   8  -1    1.12    0.29
   6  -8   1    1.22    0.40
  -7   8  -1    0.06    0.27
   7  -8   1    0.08    0.40
  -8   8  -1    0.00    0.28
   8  -8   1    0.04    0.45
  -9   8  -1   -0.01    0.29
   9  -8   1   -0.33    0.49
  -7  -7   1    0.10    0.51
  -6  -7   1    0.16    0.42
   5   7  -1    0.12    0.28
  -5  -7   1   -0.01    0.37
   4   7  -1    6.41    0.48
  -4  -7   1    5.52    0.50
   3   7  -1   28.72    1.41
  -3  -7   1   28.33    1.42
   2   7  -1   25.96    1.28
   2   7  -1   25.14    1.32
  -2  -7   1   27.90    1.32
   1   7  -1   12.65    0.74
   1   7  -1   11.43    0.76
  -1  -7   1   12.03    0.73
   0   7  -1    8.61    0.63
   0   7  -1    8.06    0.58
   0  -7   1    9.51    0.61
  -1   7  -1   10.93    0.65
  -1   7  -1   10.27    0.69
   1  -7   1   10.06    0.63
  -2   7  -1   24.15    1.24
   2  -7   1   25.59    1.19
  -3   7  -1    2.38    0.29
  -3   7  -1    2.51    0.30
   3  -7   1    2.87    0.24
  -4   7  -1   15.26    0.77
  -4   7  -1   15.12    0.81
  -4   7  -1   15.41    0.82
   4  -7   1   15.10    0.85
   4  -7   1   15.12    0.73
   4  -7   1   15.12    0.74
  -5   7  -1   -0.01    0.23
  -5   7  -1    0.31    0.22
   5  -7   1   -0.11    0.30
  -6   7  -1    1.17    0.26
  -6   7  -1    0.42    0.25
   6  -7   1    0.96    0.36
  -7   7  -1    1.44    0.26
   7  -7   1    0.78    0.40
  -8   7  -1    0.21    0.25
   8  -7   1    0.38    0.43
  -9   7  -1    0.01    0.25
   9  -7   1    0.15    0.50
 -10   7  -1    0.53    0.28
  10  -7   1   -0.20    0.55
  -8  -6   1    0.19    0.47
  -7  -6   1    0.15    0.42
  -6  -6   1    7.20    0.60
   5   6  -1   17.72    0.93
  -5  -6   1   18.37    1.03
   4   6  -1   20.37    1.06
  -4  -6   1   21.75    1.11
   3   6  -1    0.03    0.24
  -3  -6   1    0.20    0.27
   2   6  -1    0.04    0.20
   2   6  -1    0.00    0.24
  -2  -6   1   -0.01    0.23
   1   6  -1   76.89    3.44
   1   6  -1   77.20    3.43
  -1  -6   1   74.97    3.43
   0   6  -1   39.37    2.03
   0   6  -1   45.42    2.02
   0  -6   1   47.06    2.02
  -1   6  -1   27.93    1.36
  -1   6  -1   28.23    1.35
   1  -6   1   29.26    1.34
  -2   6  -1    2.18    0.24
  -2   6  -1    2.25    0.26
  -3   6  -1    0.77    0.21
  -3   6  -1    0.93    0.17
  -3   6  -1    0.82    0.20
  -4   6  -1   23.37    1.12
  -4   6  -1   22.91    1.12
  -4   6  -1   23.59    1.09
   4  -6   1   23.69    1.16
  -5   6  -1    1.40    0.18
  -5   6  -1    1.19    0.22
  -5   6  -1    1.15    0.22
   5  -6   1    0.89    0.31
  -6   6  -1   14.09    0.69
  -6   6  -1   14.30    0.73
  -6   6  -1   13.10    0.71
   6  -6   1   13.96    0.86
  -7   6  -1    4.33    0.32
  -7   6  -1    4.10    0.31
   7  -6   1    3.67    0.47
  -8   6  -1   -0.03    0.20
   8  -6   1    0.07    0.43
  -9   6  -1    0.12    0.21
   9  -6   1    0.52    0.49
  10  -6   1    0.75    0.56
  -8  -5   1    1.77    0.45
  -7  -5   1   12.18    0.86
  -6  -5   1   10.99    0.76
   5   5  -1    0.62    0.20
  -5  -5   1    0.56    0.29
   4   5  -1    4.16    0.33
  -4  -5   1    4.13    0.37
   3   5  -1   60.48    2.74
  -3  -5   1   60.75    2.75
   2   5  -1  181.36    8.00
   2   5  -1  179.71    7.98
  -2  -5   1  182.01    8.00
   1   5  -1    8.59    0.48
   1   5  -1    8.35    0.52
  -1  -5   1    7.55    0.50
   0   5  -1   81.48    3.63
   0   5  -1   85.23    3.63
   0  -5   1   77.27    3.62
  -1   5  -1    6.15    0.43
  -1   5  -1    5.96    0.41
   1  -5   1    6.24    0.39
  -2   5  -1   32.91    1.51
  -2   5  -1   32.66    1.50
  -2   5  -1   32.45    1.49
  -3   5  -1    7.24    0.39
  -3   5  -1    6.95    0.43
  -3   5  -1    7.65    0.43
   3  -5   1    7.19    0.38
   3  -5   1    6.50    0.37
  -4   5  -1   34.60    1.56
  -4   5  -1   35.04    1.57
  -4   5  -1   34.34    1.58
   4  -5   1   34.68    1.63
  -5   5  -1    8.34    0.43
  -5   5  -1    7.67    0.45
  -5   5  -1    8.09    0.44
   5  -5   1    8.25    0.59
  -6   5  -1    7.06    0.43
  -6   5  -1    7.21    0.39
  -6   5  -1    7.80    0.41
   6  -5   1    7.06    0.62
  -7   5  -1    1.17    0.15
  -7   5  -1    0.85    0.16
   7  -5   1    0.50    0.36
   8  -5   1    0.06    0.39
   9  -5   1    0.59    0.46
  10  -5   1   -0.10    0.51
  -9  -4   1    8.42    0.65
  -8  -4   1    5.70    0.52
  -7  -4   1    0.37    0.31
  -6  -4   1    1.26    0.30
   5   4  -1   29.60    1.33
  -5  -4   1   29.22    1.41
   4   4  -1   33.84    1.57
  -4  -4   1   34.58    1.59
  -4  -4   1   34.78    1.60
   3   4  -1    8.36    0.49
   3   4  -1    8.77    0.46
  -3  -4   1    8.81    0.52
   2   4  -1   19.89    0.94
   2   4  -1   19.84    0.95
  -2  -4   1   19.93    0.96
   1   4  -1    3.70    0.29
   1   4  -1    3.46    0.26
  -1  -4   1    3.04    0.25
   0   4  -1    0.31    0.14
   0  -4   1    0.57    0.14
  -1   4  -1   38.52    1.76
  -1   4  -1   38.27    1.76
  -1   4  -1   38.99    1.75
   1  -4   1   39.93    1.75
  -2   4  -1   96.86    4.26
  -2   4  -1   95.26    4.25
  -2   4  -1   98.00    4.26
   2  -4   1   93.76    4.25
   2  -4   1   97.75    4.25
  -3   4  -1    5.48    0.30
  -3   4  -1    5.44    0.32
  -3   4  -1    5.11    0.32
  -4   4  -1    9.91    0.49
  -4   4  -1    9.81    0.48
  -4   4  -1    9.71    0.47
   4  -4   1    9.95    0.59
  -5   4  -1    1.18    0.13
   5  -4   1    1.02    0.25
   6  -4   1   16.46    0.92
   7  -4   1   18.36    1.05
   8  -4   1    1.30    0.42
   9  -4   1    2.39    0.52
  10  -4   1    0.71    0.51
  -9  -3   1    0.83    0.36
  -8  -3   1    2.47    0.37
  -7  -3   1   10.83    0.67
  -6  -3   1    1.02    0.24
  -5  -3   1    2.05    0.21
  -5  -3   1    1.96    0.24
   4   3  -1    3.61    0.26
  -4  -3   1    4.02    0.29
  -4  -3   1    4.17    0.29
   3   3  -1    2.54    0.22
   3   3  -1    3.05    0.22
  -3  -3   1    3.30    0.24
  -3  -3   1    3.51    0.24
   2   3  -1   21.01    0.99
  -2  -3   1   21.74    0.99
   1   3  -1  282.49   11.77
   1   3  -1  272.93   11.78
  -1  -3   1  259.85   11.77
  -1  -3   1  256.48   11.77
   0   3  -1  730.60   32.66
   0   3  -1  794.28   32.60
   0  -3   1  704.48   32.64
  -1   3  -1  304.40   13.21
  -1   3  -1  303.39   13.21
  -1   3  -1  299.45   13.21
   1  -3   1  302.79   13.21
   1  -3   1  294.59   13.21
  -2   3  -1    3.21    0.20
  -2   3  -1    3.38    0.21
  -2   3  -1    3.39    0.22
   2  -3   1    3.30    0.19
  -3   3  -1   68.58    2.98
  -3   3  -1   68.36    2.98
  -3   3  -1   66.32    2.99
   3  -3   1   67.83    3.03
   4  -3   1   10.59    0.61
   5  -3   1    4.97    0.39
   6  -3   1   11.94    0.74
   7  -3   1   47.90    2.27
   8  -3   1    2.00    0.43
   9  -3   1    0.26    0.43
 -10  -2   1    2.56    0.40
  -9  -2   1    1.29    0.33
  -8  -2   1    1.91    0.30
  -7  -2   1   23.21    1.13
  -6  -2   1    4.36    0.32
  -6  -2   1    4.52    0.32
  -5  -2   1   34.59    1.58
  -5  -2   1   35.28    1.58
  -4  -2   1   36.39    1.63
  -4  -2   1   36.17    1.63
   3   2  -1   54.03    2.38
  -3  -2   1   53.20    2.38
  -3  -2   1   53.70    2.39
   2   2  -1   72.30    3.26
   2   2  -1   77.34    3.26
  -2  -2   1   73.20    3.26
  -2  -2   1   72.68    3.27
   1   2  -1    0.98    0.10
   1   2  -1    0.91    0.11
  -1  -2   1    0.44    0.10
  -1  -2   1    0.18    0.09
  -1  -2   1    0.43    0.08
   0   2  -1  152.11    6.37
   0   2  -1  163.43    6.36
   0   2  -1  127.62    6.36
   0  -2   1  134.76    6.36
  -1   2  -1  314.58   13.67
  -1   2  -1  297.42   13.67
  -1   2  -1  309.56   13.68
   1  -2   1  325.09   13.67
  -2   2  -1  271.79   11.88
  -2   2  -1  270.63   11.89
  -2   2  -1  270.31   11.88
   3  -2   1   20.71    0.98
   4  -2   1   70.32    3.16
   5  -2   1    3.35    0.31
   6  -2   1    2.43    0.36
   7  -2   1    1.69    0.38
   8  -2   1    2.42    0.46
 -10  -1   1    0.49    0.31
  -9  -1   1    1.49    0.30
  -8  -1   1    2.04    0.26
  -7  -1   1    3.74    0.27
  -7  -1   1    3.22    0.24
  -6  -1   1    0.26    0.12
  -6  -1   1    0.36    0.14
  -5  -1   1   19.17    0.87
  -5  -1   1   18.89    0.87
  -4  -1   1   13.60    0.63
  -4  -1   1   13.65    0.62
  -3  -1   1    1.13    0.10
  -3  -1   1    0.99    0.13
  -3  -1   1    0.95    0.10
   2   1  -1   16.22    0.74
  -2  -1   1   16.90    0.75
  -2  -1   1   16.11    0.75
  -2  -1   1   16.69    0.75
   1   1  -1   88.69    3.63
  -1  -1   1   85.13    3.63
  -1  -1   1   73.96    3.63
  -1   1  -1  131.56    5.75
  -1   1  -1  127.75    5.76
  -1   1  -1  133.59    5.75
   2  -1   1  109.38    4.83
   3  -1   1   13.67    0.68
   4  -1   1   38.68    1.78
   5  -1   1   82.59    3.72
   6  -1   1   36.86    1.77
   7  -1   1    0.63    0.34
   8  -1   1   -0.35    0.36
 -10   0   1    0.53    0.29
  -9   0   1    0.39    0.22
  -8   0   1   12.00    0.60
  -8   0   1   11.90    0.59
  -6   0   1    3.85    0.37
  -5   0   1    0.73    0.21
  -4   0   1   13.62    0.72
  -3   0   1  100.67    4.49
  -2   0   1   33.68    1.50
  -2   0   1   33.85    1.50
   1   0  -1  517.33   23.88
  -1   0   1  571.47   23.89
   0   0  -1   -0.08    0.01
   0   0   1   -0.11    0.01
  -1   0  -1    1.78    0.12
  -1   0  -1    2.16    0.12
   2   0   1   21.46    0.98
   3   0   1  185.24    8.17
   4   0   1  190.77    8.43
   5   0   1   21.86    1.10
  -6   0  -1    1.12    0.12
   6   0   1    0.89    0.29
  -7   0  -1    6.16    0.35
  -7   0  -1    6.04    0.38
   7   0   1    5.95    0.51
  -8   0  -1    1.87    0.23
  -9   0  -1    1.70    0.25
 -10   0  -1   -0.17    0.27
   4  -1  -1   49.70    2.25
   3  -1  -1   49.24    2.21
   2  -1  -1   27.72    1.27
  -2   1   1   29.19    1.25
  -2   1   1   27.57    1.27
  -2   1   1   28.57    1.25
   1  -1  -1    9.62    0.44
  -1   1   1    9.17    0.44
  -1   1   1    9.54    0.44
  -1   1   1    9.84    0.45
   0  -1  -1   12.81    0.61
   0  -1  -1   12.94    0.60
   0   1   1   13.82    0.61
   0   1   1   13.03    0.60
  -1  -1  -1  178.83    7.65
  -1  -1  -1  161.91    7.65
  -1  -1  -1  173.32    7.65
  -1  -1  -1  180.85    7.65
   1   1   1  175.21    7.65
   1   1   1  172.22    7.66
  -2  -1  -1  142.82    6.01
  -2  -1  -1  135.37    6.00
   2   1   1  138.20    5.99
   2   1   1  129.92    6.02
  -3  -1  -1   40.37    1.80
  -3  -1  -1   42.08    1.81
   3   1   1   39.36    1.84
  -4  -1  -1    7.37    0.40
  -4  -1  -1    7.47    0.38
   4   1   1    8.31    0.49
  -5  -1  -1   21.73    0.96
  -5  -1  -1   18.90    0.97
   5   1   1   23.20    1.07
  -6  -1  -1   13.98    0.67
  -6  -1  -1   13.56    0.69
  -7  -1  -1    5.19    0.36
  -7  -1  -1    6.06    0.41
  -8  -1  -1    0.86    0.24
  -9  -1  -1    1.83    0.30
 -10  -1  -1    0.28    0.30
   6  -2  -1    0.28    0.24
   5  -2  -1   16.34    0.86
   4  -2  -1    6.41    0.42
   3  -2  -1    2.46    0.20
  -3   2   1    1.97    0.15
  -3   2   1    1.94    0.14
   2  -2  -1  290.26   12.69
   2  -2  -1  295.59   12.71
   2  -2  -1  293.62   12.71
  -2   2   1  286.68   12.70
  -2   2   1  285.27   12.70
  -2   2   1  291.37   12.72
  -2   2   1  285.66   12.69
  -2   2   1  287.49   12.71
   1  -2  -1  519.32   22.95
   1  -2  -1  519.43   22.97
   1  -2  -1  525.49   22.95
   1  -2  -1  538.10   22.97
  -1   2   1  511.73   22.92
  -1   2   1  522.43   22.98
  -1   2   1  523.80   22.96
   0  -2  -1    2.82    0.25
   0   2   1    4.35    0.27
   0   2   1    4.46    0.28
   0   2   1    4.35    0.26
  -1  -2  -1   23.98    1.05
  -1  -2  -1   20.66    1.05
  -1  -2  -1   23.95    1.03
   1   2   1   23.74    1.05
   1   2   1   22.75    1.05
  -2  -2  -1  190.16    7.78
  -2  -2  -1  167.79    7.78
   2   2   1  172.41    7.78
  -3  -2  -1   86.87    3.77
  -3  -2  -1   83.30    3.76
  -4  -2  -1   11.21    0.58
  -4  -2  -1   11.15    0.56
  -5  -2  -1   29.55    1.36
  -5  -2  -1   29.91    1.38
  -6  -2  -1   10.43    0.55
  -6  -2  -1    9.95    0.60
  -7  -2  -1    1.37    0.27
  -8  -2  -1    0.15    0.27
  -9  -2  -1    1.77    0.36
   7  -3  -1    4.27    0.45
   6  -3  -1    0.10    0.26
   5  -3  -1    2.02    0.27
  -5   3   1    2.31    0.19
   4  -3  -1  201.94    8.99
  -4   3   1  206.11    8.94
  -4   3   1  203.43    8.94
  -4   3   1  203.55    8.95
   3  -3  -1  203.61    8.98
  -3   3   1  208.12    8.97
  -3   3   1  200.36    8.96
   2  -3  -1   72.37    3.19
   2  -3  -1   71.96    3.19
   2  -3  -1   71.13    3.19
   2  -3  -1   71.48    3.19
  -2   3   1   72.84    3.19
  -2   3   1   72.51    3.19
  -2   3   1   73.12    3.20
   1  -3  -1   11.42    0.54
   1  -3  -1   11.67    0.58
   1  -3  -1   11.45    0.57
  -1   3   1   12.40    0.57
  -1   3   1   12.35    0.57
  -1   3   1   12.27    0.58
   0  -3  -1   32.37    1.45
   0   3   1   31.13    1.44
   0   3   1   32.43    1.45
  -1  -3  -1   72.43    3.66
  -1  -3  -1   89.71    3.63
   1   3   1   81.85    3.66
   1   3   1   85.42    3.65
  -2  -3  -1    1.39    0.18
  -2  -3  -1    1.45    0.16
   2   3   1    2.29    0.19
  -3  -3  -1   93.40    4.24
  -3  -3  -1   98.81    4.25
   3   3   1   95.99    4.23
   3   3   1   94.80    4.24
  -4  -3  -1   48.32    2.14
  -4  -3  -1   45.99    2.13
  -5  -3  -1    2.04    0.27
  -5  -3  -1    1.62    0.21
  -6  -3  -1    2.29    0.31
  -7  -3  -1   13.10    0.78
  -8  -3  -1    2.17    0.38
  -9  -3  -1    1.23    0.39
   7  -4  -1    3.67    0.44
   6  -4  -1    8.43    0.61
  -6   4   1    8.24    0.42
  -6   4   1    8.16    0.44
  -6   4   1    8.20    0.42
   5  -4  -1   15.05    0.80
  -5   4   1   14.36    0.69
  -5   4   1   14.72    0.71
  -5   4   1   15.40    0.70
   4  -4  -1    3.15    0.29
  -4   4   1    3.88    0.25
  -4   4   1    4.03    0.28
   3  -4  -1   32.22    1.48
   3  -4  -1   33.18    1.48
   3  -4  -1   32.16    1.50
  -3   4   1   32.83    1.50
  -3   4   1   33.26    1.49
  -3   4   1   34.01    1.49
   2  -4  -1   15.33    0.70
   2  -4  -1   14.51    0.72
  -2   4   1   14.82    0.71
  -2   4   1   14.67    0.73
  -2   4   1   15.13    0.72
   1  -4  -1   28.57    1.29
  -1   4   1   27.73    1.30
  -1   4   1   28.15    1.29
   0  -4  -1  151.45    6.61
   0   4   1  147.79    6.61
   0   4   1  149.95    6.61
  -1  -4  -1   78.19    3.22
  -1  -4  -1   67.00    3.26
   1   4   1   75.12    3.25
   1   4   1   70.76    3.26
  -2  -4  -1   10.54    0.62
   2   4   1   11.61    0.59
   2   4   1   11.86    0.62
  -3  -4  -1    0.16    0.20
   3   4   1   -0.21    0.18
   3   4   1   -0.15    0.13
  -4  -4  -1    4.97    0.38
  -4  -4  -1    4.27    0.36
   4   4   1    4.82    0.38
  -5  -4  -1   13.39    0.77
  -6  -4  -1   29.36    1.45
  -7  -4  -1    3.97    0.43
  -8  -4  -1    0.84    0.37
  -9  -4  -1   -0.09    0.41
   8  -5  -1    4.57    0.51
   7  -5  -1    0.90    0.36
  -7   5   1    0.99    0.17
   6  -5  -1    0.59    0.29
  -6   5   1    0.90    0.19
  -6   5   1    0.60    0.15
   5  -5  -1    6.31    0.49
  -5   5   1    5.75    0.36
  -5   5   1    5.91    0.39
   4  -5  -1    5.82    0.42
  -4   5   1    5.54    0.36
  -4   5   1    5.74    0.35
  -4   5   1    5.61    0.39
   3  -5  -1   17.53    0.85
   3  -5  -1   18.03    0.86
  -3   5   1   18.06    0.85
  -3   5   1   17.57    0.86
  -3   5   1   18.37    0.88
   2  -5  -1   12.70    0.63
   2  -5  -1   13.21    0.67
   2  -5  -1   12.59    0.67
  -2   5   1   13.94    0.69
  -2   5   1   13.21    0.67
   1  -5  -1   80.55    3.51
  -1   5   1   78.64    3.51
  -1   5   1   76.79    3.52
   0  -5  -1   63.83    2.84
   0   5   1   62.50    2.85
   0   5   1   62.85    2.83
  -1  -5  -1    0.15    0.10
  -1  -5  -1   -0.18    0.19
   1   5   1    0.12    0.21
   1   5   1    0.05    0.17
  -2  -5  -1   34.88    1.75
   2   5   1   38.67    1.72
   2   5   1   38.75    1.74
  -3  -5  -1   66.58    2.92
   3   5   1   61.91    2.90
  -4  -5  -1   22.76    1.17
   4   5   1   23.58    1.14
  -5  -5  -1    3.63    0.39
  -6  -5  -1    0.26    0.33
  -7  -5  -1    0.88    0.41
  -8  -5  -1    1.01    0.45
 -10   6   1    1.59    0.25
  -9   6   1    1.26    0.24
   8  -6  -1    0.24    0.41
  -8   6   1    0.16    0.20
   7  -6  -1    0.61    0.36
  -7   6   1    0.32    0.19
   6  -6  -1    2.52    0.36
  -6   6   1    2.30    0.27
  -6   6   1    1.54    0.23
   5  -6  -1    2.00    0.31
  -5   6   1    2.16    0.26
  -5   6   1    1.73    0.23
  -5   6   1    2.46    0.24
   4  -6  -1   19.23    0.94
   4  -6  -1   17.64    0.87
   4  -6  -1   18.72    0.88
  -4   6   1   18.38    0.94
  -4   6   1   18.52    0.92
  -4   6   1   19.64    0.91
   3  -6  -1   20.31    0.98
   3  -6  -1   20.03    0.97
   3  -6  -1   21.39    0.99
  -3   6   1   20.60    0.99
  -3   6   1   19.76    1.00
  -3   6   1   21.41    1.04
   2  -6  -1   26.64    1.26
   2  -6  -1   26.06    1.24
   2  -6  -1   26.56    1.21
  -2   6   1   26.88    1.26
  -2   6   1   25.65    1.28
   1  -6  -1   11.13    0.61
  -1   6   1   10.22    0.65
  -1   6   1   10.21    0.63
   0  -6  -1   44.71    1.99
   0   6   1   41.52    1.99
   0   6   1   42.22    1.97
  -1  -6  -1   28.12    1.37
  -1  -6  -1   30.97    1.46
   1   6   1   31.78    1.44
   1   6   1   31.30    1.46
  -2  -6  -1   44.27    2.15
   2   6   1   47.17    2.15
   2   6   1   47.18    2.12
  -3  -6  -1   12.96    0.76
   3   6   1   10.03    0.70
  -4  -6  -1    0.83    0.32
   4   6   1    0.55    0.28
  -5  -6  -1    0.58    0.35
   5   6   1    0.20    0.26
  -6  -6  -1    4.31    0.51
  -7  -6  -1    7.87    0.69
 -10   7   1   -0.14    0.26
  -9   7   1    0.53    0.25
   8  -7  -1   -0.36    0.41
  -8   7   1    0.25    0.23
   7  -7  -1    6.68    0.58
  -7   7   1    6.66    0.49
   6  -7  -1    3.53    0.40
  -6   7   1    4.16    0.36
  -6   7   1    2.72    0.30
   5  -7  -1    2.17    0.32
  -5   7   1    1.79    0.26
  -5   7   1    1.75    0.29
   4  -7  -1    0.67    0.20
   4  -7  -1    0.63    0.23
  -4   7   1    0.74    0.27
  -4   7   1    0.56    0.23
   3  -7  -1    0.12    0.18
   3  -7  -1    0.26    0.19
   3  -7  -1   -0.23    0.20
  -3   7   1    0.08    0.25
  -3   7   1    0.21    0.22
   2  -7  -1   19.39    0.98
   2  -7  -1   19.38    0.96
   2  -7  -1   18.41    0.89
  -2   7   1   19.06    0.98
  -2   7   1   18.62    1.01
   1  -7  -1   13.29    0.75
  -1   7   1   12.81    0.80
  -1   7   1   12.91    0.75
   0  -7  -1   30.67    1.46
   0   7   1   28.21    1.45
   0   7   1   30.01    1.43
  -1  -7  -1   17.34    0.93
   1   7   1   15.80    0.94
   1   7   1   15.65    0.88
  -2  -7  -1    1.27    0.35
   2   7   1    1.46    0.34
   2   7   1    1.58    0.29
  -3  -7  -1    0.58    0.36
   3   7   1    0.27    0.31
  -4  -7  -1    2.84    0.46
   4   7   1    3.03    0.39
  -5  -7  -1   11.55    0.87
   5   7   1    7.87    0.68
  -6  -7  -1    4.61    0.62
  -7  -7  -1   -0.04    0.57
  -9   8   1    0.01    0.29
   8  -8  -1    1.91    0.48
  -8   8   1    1.61    0.31
   7  -8  -1    0.44    0.39
  -7   8   1    0.45    0.27
   6  -8  -1    0.18    0.31
  -6   8   1    0.49    0.30
  -6   8   1    0.31    0.26
   5  -8  -1    1.53    0.19
   5  -8  -1    1.71    0.32
  -5   8   1    1.29    0.28
  -5   8   1    1.56    0.33
   4  -8  -1    5.25    0.39
   4  -8  -1    4.58    0.37
  -4   8   1    4.11    0.40
  -4   8   1    5.36    0.46
   3  -8  -1    5.20    0.40
   3  -8  -1    4.79    0.41
  -3   8   1    4.46    0.42
  -3   8   1    5.34    0.47
   2  -8  -1    0.48    0.26
   2  -8  -1    0.30    0.16
   2  -8  -1    0.27    0.29
  -2   8   1    0.17    0.33
  -2   8   1    0.67    0.30
   1  -8  -1    8.63    0.66
  -1   8   1    9.32    0.70
  -1   8   1    8.49    0.64
   0  -8  -1    1.74    0.37
   0   8   1    1.65    0.34
   0   8   1    1.51    0.38
  -1  -8  -1    2.81    0.43
   1   8   1    3.13    0.43
   1   8   1    3.47    0.40
  -2  -8  -1    6.75    0.58
   2   8   1    6.33    0.55
  -3  -8  -1    6.87    0.61
   3   8   1    4.92    0.52
  -4  -8  -1    5.16    0.59
   4   8   1    5.63    0.53
  -5  -8  -1   -0.58    0.51
   5   8   1   -0.32    0.35
  -6  -8  -1    0.66    0.60
  -9   9   1    0.06    0.34
   8  -9  -1    0.09    0.44
  -8   9   1    0.43    0.32
   7  -9  -1    0.03    0.38
  -7   9   1   -0.17    0.29
   6  -9  -1    1.28    0.35
  -6   9   1    1.96    0.40
  -6   9   1    0.96    0.32
   5  -9  -1    3.07    0.29
   5  -9  -1    3.22    0.37
  -5   9   1    4.22    0.46
  -5   9   1    3.18    0.39
   4  -9  -1    0.72    0.27
   4  -9  -1    0.78    0.28
  -4   9   1    1.27    0.38
  -4   9   1    0.99    0.33
   3  -9  -1    0.43    0.32
  -3   9   1    0.79    0.39
  -3   9   1    1.11    0.36
   2  -9  -1    0.08    0.34
  -2   9   1   -0.14    0.33
  -2   9   1    0.48    0.41
   1  -9  -1    2.02    0.57
  -1   9   1    2.85    0.47
  -1   9   1    2.82    0.42
   0  -9  -1    6.12    0.58
   0   9   1    7.07    0.62
   0   9   1    6.58    0.55
  -1  -9  -1    3.79    0.51
   1   9   1    4.16    0.51
  -2  -9  -1    8.11    0.69
   2   9   1    8.72    0.67
  -3  -9  -1    2.56    0.54
   3   9   1    1.73    0.47
  -4  -9  -1    0.19    0.56
   4   9   1    0.31    0.44
  -5  -9  -1    2.26    0.66
   5   9   1    0.70    0.45
  -8  10   1    0.13    0.37
  -7  10   1    0.59    0.37
  -6  10   1    0.21    0.42
  -6  10   1    0.05    0.35
   5 -10  -1    0.58    0.41
  -5  10   1    0.09    0.43
  -5  10   1    0.22    0.37
   4 -10  -1    0.17    0.30
  -4  10   1    0.51    0.46
  -4  10   1   -0.17    0.37
   3 -10  -1    0.17    0.36
  -3  10   1    0.12    0.46
  -3  10   1   -0.01    0.38
   2 -10  -1    0.81    0.40
  -2  10   1    0.57    0.47
  -2  10   1    0.63    0.42
  -1  10   1    5.86    0.64
  -1  10   1    5.60    0.58
   0  10   1    0.08    0.48
   0  10   1    0.24    0.41
  -1 -10  -1    7.31    0.69
   1  10   1    7.66    0.71
  -2 -10  -1   -0.06    0.51
   2  10   1   -0.14    0.47
  -3 -10  -1    1.32    0.58
   3  10   1    1.66    0.52
  -4 -10  -1    1.30    0.65
   4  10   1    1.29    0.53
  -7  11   1    0.57    0.42
  -6  11   1    0.07    0.41
  -6  11   1    0.43    0.53
  -5  11   1    1.36    0.56
  -5  11   1    0.95    0.44
   4 -11  -1    0.74    0.36
  -4  11   1   -0.26    0.42
  -4  11   1    1.08    0.56
   3 -11  -1    0.66    0.41
  -3  11   1    1.44    0.57
  -3  11   1    0.92    0.48
   2 -11  -1   -0.38    0.44
  -2  11   1   -0.31    0.47
  -2  11   1    0.99    0.55
   1 -11  -1    0.57    0.50
  -1  11   1   -0.92    0.54
  -1  11   1   -0.28    0.46
   0  11   1    0.82    0.56
   1  11   1    5.80    0.71
   2  11   1    0.34    0.57
  -3 -11  -1   -0.92    0.61
   3  11   1    0.14    0.56
  -6  12   1   -0.52    0.60
  -5  12   1    2.28    0.67
  -5  12   1    1.40    0.52
   4 -12  -1    0.75    0.41
  -4  12   1   -0.20    0.64
  -4  12   1   -0.54    0.50
   3 -12  -1   -0.72    0.43
  -3  12   1   -0.36    0.64
  -3  12   1   -0.66    0.52
   2 -12  -1    0.42    0.52
  -2  12   1    0.34    0.66
  -2  12   1    0.00    0.53
   1 -12  -1    0.48    0.54
  -1  12   1    0.11    0.64
   0 -12  -1    0.56    0.61
   0  12   1   -0.38    0.62
   1  12   1    1.06    0.63
   0  13  -2    0.43    0.67
  -1  13  -2   -0.25    0.66
  -2  13  -2    0.92    0.68
  -2  13  -2   -0.01    0.57
  -3  13  -2   -0.34    0.54
  -3  13  -2    0.96    0.68
   3 -13   2    0.32    0.46
  -4  13  -2   -0.61    0.51
  -4  13  -2   -0.35    0.66
   4 -13   2   -0.22    0.38
  -5  13  -2   -0.35    0.65
  -5  13  -2   -0.25    0.49
   2  12  -2    0.03    0.59
   1  12  -2    1.08    0.62
   0  12  -2    2.94    0.64
  -1  12  -2    0.91    0.53
  -1  12  -2    0.38    0.58
  -2  12  -2   -0.33    0.48
  -2  12  -2    0.33    0.60
  -3  12  -2   -0.26    0.47
  -3  12  -2   -0.33    0.59
  -4  12  -2    1.07    0.47
  -4  12  -2    0.12    0.58
   4 -12   2   -0.43    0.34
  -5  12  -2    0.09    0.55
  -5  12  -2   -0.34    0.41
  -6  12  -2   -0.64    0.52
  -6  12  -2    0.63    0.41
   4  11  -2    0.50    0.53
  -4 -11   2    0.31    0.64
   3  11  -2    1.54    0.57
  -3 -11   2    1.36    0.59
   2  11  -2    3.11    0.60
  -2 -11   2    3.35    0.61
   1  11  -2    1.48    0.54
   0  11  -2   -0.38    0.47
   0  11  -2   -0.14    0.45
  -1  11  -2   -0.05    0.50
  -1  11  -2   -0.26    0.43
  -2  11  -2    1.42    0.53
  -2  11  -2    1.09    0.45
  -3  11  -2    2.11    0.52
  -3  11  -2    1.62    0.44
  -4  11  -2    0.30    0.47
  -4  11  -2   -0.15    0.37
   4 -11   2    0.36    0.39
   4 -11   2    0.58    0.32
  -5  11  -2   -0.41    0.46
  -5  11  -2    0.14    0.36
   5 -11   2    0.16    0.42
  -6  11  -2    0.16    0.46
  -6  11  -2   -0.15    0.37
   6 -11   2   -0.52    0.44
  -7  11  -2    0.44    0.38
   7 -11   2   -0.42    0.48
   5  10  -2    0.46    0.47
  -5 -10   2    0.65    0.61
   4  10  -2    3.57    0.57
  -4 -10   2    3.63    0.62
   3  10  -2    3.55    0.54
  -3 -10   2    2.62    0.56
   2  10  -2    0.86    0.48
  -2 -10   2    1.19    0.47
   1  10  -2    1.23    0.45
  -1 -10   2    1.62    0.46
   0  10  -2    3.55    0.54
   0  10  -2    2.97    0.47
   0 -10   2    4.31    0.49
  -1  10  -2    5.08    0.50
  -1  10  -2    4.13    0.54
  -2  10  -2    1.21    0.39
  -2  10  -2    0.71    0.44
  -3  10  -2    0.28    0.35
  -3  10  -2   -0.06    0.40
  -4  10  -2    0.43    0.36
  -4  10  -2    0.78    0.41
   4 -10   2    0.58    0.28
  -5  10  -2   -0.85    0.36
   5 -10   2   -0.12    0.39
  -6  10  -2    0.28    0.39
   6 -10   2    0.54    0.45
  -7  10  -2   -0.61    0.35
   7 -10   2    0.57    0.48
   8 -10   2    0.33    0.52
  -6  -9   2    3.09    0.67
   5   9  -2    2.77    0.46
  -5  -9   2    3.08    0.60
   4   9  -2    0.13    0.41
  -4  -9   2   -0.56    0.46
   3   9  -2    1.37    0.44
  -3  -9   2    1.63    0.45
   2   9  -2    3.94    0.50
  -2  -9   2    4.60    0.50
   1   9  -2    9.97    0.83
   1   9  -2   10.31    0.78
  -1  -9   2   10.72    0.79
   0   9  -2    5.65    0.50
   0   9  -2    4.78    0.52
   0  -9   2    6.77    0.53
  -1   9  -2    0.29    0.37
  -1   9  -2   -0.06    0.31
   1  -9   2    0.16    0.30
  -2   9  -2    0.03    0.35
  -2   9  -2    0.18    0.32
  -3   9  -2    2.23    0.41
  -4   9  -2    2.23    0.36
  -4   9  -2    2.38    0.39
   4  -9   2    1.86    0.27
  -5   9  -2    0.49    0.31
  -5   9  -2    0.31    0.32
   5  -9   2    0.30    0.36
  -6   9  -2    2.35    0.37
  -6   9  -2    4.06    0.42
   6  -9   2    2.45    0.48
  -7   9  -2    0.14    0.31
   7  -9   2    0.06    0.45
  -8   9  -2   -0.01    0.31
   8  -9   2    0.00    0.49
  -9   9  -2    0.05    0.34
   9  -9   2    0.03    0.54
  -7  -8   2    0.84    0.58
  -6  -8   2   -0.37    0.49
   5   8  -2    3.12    0.42
  -5  -8   2    3.41    0.52
   4   8  -2    5.28    0.49
  -4  -8   2    4.47    0.53
   3   8  -2   18.71    1.09
  -3  -8   2   19.21    1.09
   2   8  -2    5.93    0.46
   2   8  -2    4.11    0.46
  -2  -8   2    5.05    0.47
   1   8  -2    0.46    0.32
   1   8  -2    0.11    0.27
  -1  -8   2   -0.48    0.29
   0   8  -2    0.22    0.28
   0   8  -2    0.42    0.33
   0  -8   2    0.47    0.28
  -1   8  -2   12.62    0.79
  -1   8  -2   11.82    0.80
   1  -8   2   12.47    0.75
  -2   8  -2   12.12    0.79
   2  -8   2   12.23    0.69
  -3   8  -2   10.53    0.74
  -3   8  -2   11.11    0.69
  -4   8  -2   13.31    0.75
  -4   8  -2   12.91    0.78
   4  -8   2   11.48    0.65
  -5   8  -2    1.17    0.30
  -5   8  -2    1.11    0.28
   5  -8   2    1.28    0.37
  -6   8  -2    0.42    0.28
  -6   8  -2    0.64    0.29
   6  -8   2    0.14    0.40
  -7   8  -2    0.54    0.29
   7  -8   2    0.32    0.43
  -8   8  -2    2.96    0.36
   8  -8   2    3.23    0.57
  -9   8  -2    0.63    0.31
   9  -8   2    1.01    0.55
  -7  -7   2    0.93    0.53
  -6  -7   2    4.21    0.53
   5   7  -2    6.59    0.49
  -5  -7   2    6.37    0.56
   4   7  -2    8.61    0.66
  -4  -7   2    8.58    0.61
   3   7  -2    0.70    0.31
  -3  -7   2    0.69    0.31
   2   7  -2    4.63    0.44
   2   7  -2    5.42    0.41
  -2  -7   2    5.13    0.44
   1   7  -2    7.74    0.60
   1   7  -2    8.09    0.55
  -1  -7   2    6.65    0.57
   0   7  -2   28.90    1.42
   0   7  -2   28.85    1.40
   0  -7   2   29.30    1.40
  -1   7  -2   44.38    2.08
   1  -7   2   44.75    2.05
  -2   7  -2   48.96    2.13
  -2   7  -2   44.28    2.11
   2  -7   2   44.50    2.08
  -3   7  -2    0.37    0.28
  -3   7  -2    0.20    0.22
  -3   7  -2    0.24    0.24
   3  -7   2    0.29    0.23
  -4   7  -2    8.16    0.48
  -4   7  -2    7.88    0.54
  -4   7  -2    7.37    0.55
   4  -7   2    7.57    0.42
   4  -7   2    7.58    0.43
  -5   7  -2    6.64    0.52
  -5   7  -2    6.45    0.46
   5  -7   2    6.61    0.54
  -6   7  -2    1.49    0.26
  -6   7  -2    1.60    0.28
   6  -7   2    1.38    0.40
  -7   7  -2    0.93    0.26
   7  -7   2    1.30    0.43
  -8   7  -2    1.01    0.27
   8  -7   2    1.52    0.48
  -9   7  -2   -0.07    0.26
   9  -7   2    0.05    0.52
 -10   7  -2   -0.17    0.28
  10  -7   2    0.55    0.59
  -8  -6   2   -0.54    0.45
  -7  -6   2    2.35    0.47
  -6  -6   2    0.13    0.36
   5   6  -2    5.03    0.38
  -5  -6   2    4.18    0.45
   4   6  -2   -0.43    0.23
  -4  -6   2   -0.05    0.28
   3   6  -2    5.35    0.39
   3   6  -2    5.26    0.39
  -3  -6   2    4.29    0.40
   2   6  -2   71.46    3.26
   2   6  -2   71.82    3.28
  -2  -6   2   74.68    3.28
   1   6  -2   79.57    3.56
   1   6  -2   79.31    3.55
  -1  -6   2   78.35    3.55
   0   6  -2    9.71    0.64
   0  -6   2   10.41    0.59
  -1   6  -2   26.76    1.28
  -1   6  -2   25.05    1.26
   1  -6   2   27.69    1.25
  -2   6  -2   22.39    1.10
  -2   6  -2   23.07    1.11
  -3   6  -2   50.17    2.27
  -3   6  -2   51.09    2.25
  -3   6  -2   48.64    2.27
  -4   6  -2   18.28    0.89
  -4   6  -2   18.02    0.91
  -4   6  -2   19.50    0.92
  -5   6  -2    3.78    0.27
  -5   6  -2    4.07    0.30
  -5   6  -2    3.97    0.31
   5  -6   2    4.22    0.42
  -6   6  -2    0.74    0.21
  -6   6  -2    0.87    0.17
  -6   6  -2    0.89    0.21
   6  -6   2    0.18    0.35
  -7   6  -2    1.85    0.24
   7  -6   2    1.77    0.43
  -8   6  -2   11.48    0.62
   8  -6   2   10.72    0.91
  -9   6  -2    0.12    0.21
   9  -6   2    0.26    0.50
  10  -6   2    1.66    0.60
  -9  -5   2    0.42    0.45
  -8  -5   2    3.33    0.48
  -7  -5   2    1.14    0.38
  -6  -5   2    2.43    0.37
   5   5  -2   30.91    1.44
  -5  -5   2   31.48    1.51
   4   5  -2   57.23    2.60
  -4  -5   2   58.15    2.63
   3   5  -2   90.67    4.02
  -3  -5   2   89.54    4.03
   2   5  -2    6.53    0.43
   2   5  -2    6.46    0.47
  -2  -5   2    6.62    0.46
   1   5  -2    7.28    0.48
   1   5  -2    7.58    0.46
  -1  -5   2    7.34    0.47
   0   5  -2   23.14    1.10
   0   5  -2   23.69    1.11
   0  -5   2   22.39    1.09
  -1   5  -2  177.15    7.88
  -1   5  -2  178.26    7.89
   1  -5   2  180.40    7.87
  -2   5  -2  168.94    7.45
  -2   5  -2  170.02    7.44
  -2   5  -2  167.28    7.44
  -3   5  -2   45.53    2.01
  -3   5  -2   45.01    2.02
  -3   5  -2   45.09    2.02
   3  -5   2   43.60    2.00
  -4   5  -2    6.19    0.36
  -4   5  -2    6.40    0.39
  -4   5  -2    6.64    0.40
  -5   5  -2    2.70    0.23
  -5   5  -2    2.65    0.22
  -5   5  -2    2.66    0.20
   5  -5   2    2.34    0.36
  -6   5  -2   10.84    0.56
  -6   5  -2   10.91    0.53
  -6   5  -2   10.78    0.55
  -7   5  -2    6.66    0.38
  -7   5  -2    6.41    0.37
   7  -5   2    6.73    0.60
   8  -5   2    0.18    0.41
   9  -5   2    0.94    0.48
  10  -5   2   -0.14    0.53
  -9  -4   2    2.52    0.47
  -8  -4   2    1.24    0.37
  -7  -4   2    4.34    0.43
  -6  -4   2   25.16    1.24
   5   4  -2   57.01    2.57
  -5  -4   2   58.89    2.63
   4   4  -2   10.05    0.54
  -4  -4   2    9.79    0.58
  -4  -4   2    9.89    0.54
   3   4  -2    3.69    0.25
   3   4  -2    3.58    0.27
  -3  -4   2    3.23    0.27
  -3  -4   2    3.04    0.25
   2   4  -2  117.11    5.22
   2   4  -2  120.35    5.23
  -2  -4   2  116.90    5.23
   1   4  -2   20.46    0.98
  -1  -4   2   20.38    0.97
   0   4  -2  226.44    9.38
   0   4  -2  210.81    9.39
   0  -4   2  202.03    9.38
  -1   4  -2   49.38    2.32
  -1   4  -2   51.31    2.32
  -1   4  -2   53.55    2.33
   1  -4   2   53.34    2.32
  -2   4  -2   10.15    0.48
  -2   4  -2    9.21    0.48
  -2   4  -2    9.23    0.46
   2  -4   2    9.18    0.45
   2  -4   2    8.44    0.45
  -3   4  -2    9.93    0.51
  -3   4  -2   10.15    0.50
  -3   4  -2   10.57    0.51
  -4   4  -2   50.13    2.20
  -4   4  -2   49.03    2.21
  -4   4  -2   48.53    2.21
   4  -4   2   51.13    2.28
  -5   4  -2   57.17    2.55
  -5   4  -2   57.03    2.56
  -5   4  -2   57.49    2.56
   5  -4   2   60.00    2.67
  -6   4  -2    1.22    0.14
   6  -4   2    1.24    0.32
   7  -4   2    1.60    0.39
   8  -4   2   -0.11    0.41
   9  -4   2    1.24    0.48
  10  -4   2   -0.30    0.52
  -9  -3   2    1.52    0.39
  -8  -3   2    8.26    0.67
  -7  -3   2    0.22    0.27
  -6  -3   2    5.69    0.40
  -5  -3   2    8.28    0.47
  -5  -3   2    8.74    0.52
   4   3  -2   62.65    2.79
  -4  -3   2   64.14    2.81
  -4  -3   2   61.90    2.81
   3   3  -2  185.99    7.98
   3   3  -2  179.01    7.99
  -3  -3   2  181.81    8.00
  -3  -3   2  179.11    7.99
   2   3  -2   72.47    3.22
  -2  -3   2   73.20    3.22
  -2  -3   2   71.96    3.22
   1   3  -2  219.78    9.42
   1   3  -2  214.85    9.43
  -1  -3   2  208.16    9.42
   0   3  -2  908.65   37.91
   0   3  -2  857.01   37.95
   0  -3   2  824.22   37.88
  -1   3  -2    2.19    0.17
  -1   3  -2    2.15    0.16
  -1   3  -2    2.20    0.16
   1  -3   2    1.44    0.15
   1  -3   2    2.09    0.16
  -2   3  -2  109.34    4.73
  -2   3  -2  104.59    4.73
  -2   3  -2  109.46    4.73
   2  -3   2  108.20    4.72
   2  -3   2  105.21    4.72
  -3   3  -2  156.38    6.89
  -3   3  -2  154.11    6.89
  -3   3  -2  159.77    6.89
  -4   3  -2   57.83    2.56
   4  -3   2   57.98    2.63
   5  -3   2   10.62    0.67
   6  -3   2    0.21    0.27
   7  -3   2   24.05    1.28
   8  -3   2    5.49    0.58
   9  -3   2    1.02    0.50
  10  -3   2    1.05    0.54
 -10  -2   2    4.72    0.51
  -9  -2   2    1.48    0.36
  -8  -2   2    0.80    0.28
  -7  -2   2    0.41    0.23
  -6  -2   2  144.62    6.39
  -6  -2   2  145.12    6.40
  -5  -2   2   19.64    0.93
  -5  -2   2   19.63    0.92
  -4  -2   2  111.98    5.01
  -4  -2   2  115.11    5.01
   3   2  -2   47.40    2.12
  -3  -2   2   47.27    2.12
  -3  -2   2   48.31    2.13
   2   2  -2    3.98    0.25
  -2  -2   2    3.92    0.25
  -2  -2   2    3.54    0.23
   1   2  -2   40.15    1.69
   1   2  -2   38.60    1.70
  -1  -2   2   37.57    1.69
  -1  -2   2   35.10    1.69
   0   2  -2   65.40    2.82
   0   2  -2   61.41    2.81
   0   2  -2   68.68    2.82
   0  -2   2   58.83    2.81
  -1   2  -2  973.45   42.99
  -1   2  -2  986.56   43.01
  -1   2  -2 1000.00   42.99
   1  -2   2  957.57   42.99
  -2   2  -2   60.91    2.72
  -2   2  -2   63.09    2.72
  -2   2  -2   61.05    2.72
  -3   2  -2   39.91    1.77
  -4   2  -2    0.08    0.07
   4  -2   2   -0.06    0.20
   6  -2   2    7.56    0.59
   7  -2   2   18.28    1.06
   8  -2   2    2.49    0.46
   9  -2   2    0.45    0.47
 -10  -1   2    0.01    0.34
  -9  -1   2    2.23    0.32
  -8  -1   2    7.56    0.50
  -7  -1   2    0.58    0.16
  -7  -1   2    0.94    0.19
  -6  -1   2    4.19    0.31
  -5  -1   2   87.32    3.85
  -4  -1   2    0.25    0.11
  -4  -1   2    0.13    0.09
  -3  -1   2    1.78    0.13
  -3  -1   2    1.71    0.14
   2   1  -2  554.30   25.19
  -2  -1   2  588.77   25.18
  -2  -1   2  578.07   25.21
   1   1  -2  282.01   12.45
   1   1  -2  306.67   12.45
  -1  -1   2  277.04   12.45
  -1  -1   2  278.53   12.45
  -1  -1   2  273.87   12.44
   0   1  -2    6.55    0.32
   0  -1   2    6.39    0.32
  -1   1  -2    7.96    0.39
  -1   1  -2    8.08    0.39
  -1   1  -2    8.35    0.39
   1  -1   2    7.99    0.38
  -2   1  -2  124.71    5.48
  -2   1  -2  124.83    5.47
  -2   1  -2  123.80    5.47
  -3   1  -2    1.22    0.08
  -3   1  -2    0.97    0.10
  -3   1  -2    0.89    0.09
   3  -1   2    1.07    0.17
  -4   1  -2   23.50    1.16
   5  -1   2   81.96    3.69
   6  -1   2   30.46    1.49
  -7   1  -2    0.15    0.12
   7  -1   2   -0.18    0.32
  -8   1  -2    1.53    0.20
  -8   1  -2    1.47    0.20
   8  -1   2    1.76    0.46
  -9   1  -2   15.95    0.81
 -10   1  -2    2.29    0.29
 -10   0   2    1.18    0.30
  -9   0   2    0.65    0.22
  -8   0   2    3.67    0.26
  -8   0   2    3.66    0.27
  -7   0   2    0.06    0.13
  -6   0   2    1.94    0.33
  -5   0   2   29.68    1.32
  -4   0   2  214.43    9.38
  -4   0   2  213.36    9.38
  -3   0   2  148.56    6.41
  -3   0   2  145.44    6.41
  -3   0   2  143.79    6.41
   2   0  -2   58.88    2.48
   2   0  -2   55.90    2.47
   2   0  -2   55.56    2.48
  -2   0   2   56.28    2.48
  -2   0   2   56.06    2.48
  -2   0   2   54.52    2.48
   1   0  -2   77.70    3.45
   1   0  -2   74.66    3.45
   1   0  -2   86.74    3.45
  -1   0   2   74.38    3.45
  -1   0   2   77.37    3.45
   0   0  -2   55.92    2.91
   0   0  -2   73.33    2.92
   0   0  -2   68.45    2.92
   0   0   2   65.34    2.92
  -1   0  -2  176.75    7.96
  -1   0  -2  176.41    7.96
  -1   0  -2  194.65    7.96
   1   0   2  177.41    7.96
  -2   0  -2   96.16    4.43
  -2   0  -2  111.11    4.44
   2   0   2   94.80    4.45
  -3   0  -2  649.77   28.73
  -3   0  -2  659.47   28.76
   3   0   2  654.89   28.72
  -4   0  -2   24.21    1.10
  -4   0  -2   24.60    1.10
   4   0   2   24.74    1.18
  -5   0  -2    2.66    0.19
  -5   0  -2    2.46    0.19
   5   0   2    3.12    0.31
  -6   0  -2   16.59    0.77
  -6   0  -2   16.23    0.78
   6   0   2   15.93    0.93
  -7   0  -2   16.25    0.79
  -7   0  -2   16.13    0.81
   7   0   2   17.40    1.01
  -8   0  -2   10.96    0.62
  -9   0  -2    1.52    0.28
 -10   0  -2    0.26    0.28
 -10   1   2    5.71    0.41
  -6   1   2   53.05    2.44
  -5   1   2   17.51    0.80
  -4   1   2   35.43    1.58
  -3   1   2  203.21    9.73
  -3   1   2  224.09    9.72
  -3   1   2  230.86    9.72
  -3   1   2  227.74    9.72
   2  -1  -2    3.43    0.20
   2  -1  -2    3.64    0.20
   2  -1  -2    3.27    0.20
  -2   1   2    3.48    0.21
  -2   1   2    4.09    0.21
  -2   1   2    3.79    0.21
  -2   1   2    3.50    0.21
   1  -1  -2   70.62    3.10
   1  -1  -2   73.63    3.10
   1  -1  -2   66.45    3.10
  -1   1   2   71.59    3.10
  -1   1   2   68.19    3.10
  -1   1   2   71.21    3.10
  -1   1   2   69.55    3.10
   0  -1  -2  620.68   28.33
   0  -1  -2  643.00   28.34
   0  -1  -2  646.68   28.34
   0  -1  -2  663.93   28.35
   0   1   2  651.70   28.34
   0   1   2  645.52   28.37
   0   1   2  644.65   28.31
  -1  -1  -2  423.38   18.77
  -1  -1  -2  409.93   18.79
  -1  -1  -2  429.43   18.77
   1   1   2  430.59   18.78
   1   1   2  446.69   18.77
  -2  -1  -2  145.85    6.83
  -2  -1  -2  154.36    6.83
   2   1   2  143.25    6.83
   2   1   2  177.24    6.82
  -3  -1  -2   14.51    0.69
  -3  -1  -2   15.23    0.71
   3   1   2   14.36    0.73
  -4  -1  -2    7.95    0.41
  -4  -1  -2    8.03    0.43
   4   1   2    7.46    0.50
  -5  -1  -2   67.68    3.04
  -5  -1  -2   68.40    3.04
   5   1   2   69.02    3.10
  -6  -1  -2   20.31    0.96
  -6  -1  -2   19.33    0.94
   6   1   2   20.14    1.09
  -7  -1  -2    6.24    0.47
  -8  -1  -2    0.35    0.25
  -9  -1  -2    0.54    0.29
  -6   2   2    2.00    0.16
  -5   2   2    0.57    0.11
  -4   2   2    0.29    0.09
  -4   2   2    0.33    0.10
  -4   2   2    0.39    0.09
  -3   2   2   11.58    0.56
  -3   2   2   12.15    0.56
  -3   2   2   11.76    0.56
   2  -2  -2  101.73    4.53
   2  -2  -2  106.35    4.53
   2  -2  -2  100.73    4.53
  -2   2   2  104.06    4.53
  -2   2   2  100.57    4.54
  -2   2   2  102.92    4.53
  -2   2   2  103.31    4.53
   1  -2  -2  498.39   22.18
   1  -2  -2  503.48   22.22
  -1   2   2  500.20   22.18
  -1   2   2  501.04   22.18
  -1   2   2  515.84   22.20
  -1   2   2  515.46   22.22
   0  -2  -2  109.00    4.77
   0  -2  -2  103.98    4.77
   0   2   2  109.21    4.78
   0   2   2  110.46    4.77
  -1  -2  -2    0.43    0.13
  -1  -2  -2    0.36    0.11
   1   2   2    0.35    0.13
   1   2   2    1.10    0.12
   1   2   2    0.44    0.08
  -2  -2  -2  388.49   17.10
  -2  -2  -2  396.06   17.10
   2   2   2  377.71   17.09
   2   2   2  396.07   17.10
  -3  -2  -2   73.25    3.37
  -3  -2  -2   78.66    3.38
   3   2   2   76.20    3.39
  -4  -2  -2   30.64    1.47
  -4  -2  -2   33.72    1.48
   4   2   2   32.22    1.51
  -5  -2  -2    4.01    0.31
  -5  -2  -2    3.31    0.26
   5   2   2    3.80    0.37
  -6  -2  -2    3.41    0.31
  -7  -2  -2    0.55    0.27
  -8  -2  -2    3.55    0.38
  -9  -2  -2    2.96    0.41
  -6   3   2    2.51    0.17
  -6   3   2    2.30    0.17
  -6   3   2    2.44    0.19
  -5   3   2   43.48    1.93
  -5   3   2   42.82    1.92
  -5   3   2   43.27    1.93
   4  -3  -2   82.93    3.73
  -4   3   2   82.72    3.70
  -4   3   2   85.21    3.70
  -4   3   2   83.68    3.70
   3  -3  -2   42.15    1.93
   3  -3  -2   44.66    1.94
  -3   3   2   43.02    1.94
  -3   3   2   45.05    1.95
  -3   3   2   42.44    1.94
   2  -3  -2   28.14    1.27
  -2   3   2   27.83    1.28
  -2   3   2   28.89    1.27
  -2   3   2   27.54    1.27
  -2   3   2   27.50    1.26
   1  -3  -2    6.83    0.39
   1  -3  -2    7.32    0.39
  -1   3   2    6.65    0.40
  -1   3   2    7.04    0.39
   0  -3  -2    6.63    0.40
   0  -3  -2    7.14    0.42
   0   3   2    7.50    0.41
   0   3   2    6.76    0.39
  -1  -3  -2  160.52    7.59
   1   3   2  176.40    7.60
   1   3   2  179.64    7.59
  -2  -3  -2   99.20    4.40
   2   3   2   97.77    4.38
   2   3   2   99.86    4.39
  -3  -3  -2   53.73    2.27
  -3  -3  -2   47.70    2.26
   3   3   2   50.34    2.24
   3   3   2   48.71    2.26
  -4  -3  -2    0.54    0.17
  -4  -3  -2    0.67    0.20
  -5  -3  -2    3.89    0.35
  -6  -3  -2   12.21    0.76
  -7  -3  -2    6.20    0.48
  -8  -3  -2    1.46    0.37
  -9  -3  -2    0.33    0.39
  -8   4   2    1.13    0.17
  -8   4   2    1.05    0.18
  -7   4   2    4.93    0.33
  -7   4   2    4.45    0.32
  -6   4   2   13.09    0.64
  -6   4   2   13.03    0.64
  -6   4   2   13.15    0.66
   5  -4  -2   13.13    0.72
  -5   4   2   12.63    0.63
  -5   4   2   12.87    0.65
  -5   4   2   13.14    0.64
   4  -4  -2    6.63    0.43
  -4   4   2    6.52    0.37
  -4   4   2    6.44    0.40
  -4   4   2    5.86    0.38
   3  -4  -2    0.05    0.13
   3  -4  -2    0.23    0.13
   3  -4  -2    0.04    0.11
  -3   4   2    0.11    0.16
  -3   4   2   -0.03    0.14
  -3   4   2    0.15    0.12
   2  -4  -2   47.51    2.16
   2  -4  -2   48.31    2.19
  -2   4   2   48.88    2.17
  -2   4   2   47.95    2.16
  -2   4   2   47.68    2.16
   1  -4  -2   14.87    0.76
   1  -4  -2   15.49    0.76
  -1   4   2   14.97    0.77
  -1   4   2   16.11    0.76
   0  -4  -2  111.49    4.81
   0   4   2  107.43    4.81
   0   4   2  106.39    4.80
  -1  -4  -2   20.98    1.07
   1   4   2   23.53    1.06
   1   4   2   22.35    1.07
  -2  -4  -2   11.27    0.65
   2   4   2   11.32    0.64
   2   4   2   11.72    0.61
  -3  -4  -2    4.45    0.36
   3   4   2    4.78    0.36
   3   4   2    4.73    0.36
  -4  -4  -2   26.44    1.29
  -5  -4  -2   42.58    2.00
  -6  -4  -2    5.98    0.49
  -7  -4  -2    0.31    0.34
  -8  -4  -2    0.23    0.39
 -10   5   2    0.61    0.21
  -9   5   2   -0.20    0.20
  -8   5   2    3.15    0.27
  -7   5   2    5.40    0.39
   6  -5  -2    1.55    0.32
  -6   5   2    1.78    0.20
  -6   5   2    1.71    0.24
  -6   5   2    1.30    0.21
   5  -5  -2    9.07    0.61
  -5   5   2   10.26    0.57
  -5   5   2    9.88    0.54
  -5   5   2    9.88    0.53
   4  -5  -2    9.70    0.49
   4  -5  -2    9.69    0.50
   4  -5  -2    9.25    0.56
  -4   5   2   10.49    0.57
  -4   5   2    9.45    0.53
  -4   5   2    9.74    0.54
   3  -5  -2   11.06    0.57
   3  -5  -2   11.30    0.60
   3  -5  -2   11.29    0.58
  -3   5   2   11.56    0.64
  -3   5   2   11.64    0.61
  -3   5   2   11.15    0.59
   2  -5  -2    2.13    0.19
   2  -5  -2    1.70    0.23
   2  -5  -2    2.43    0.23
  -2   5   2    2.37    0.23
  -2   5   2    2.91    0.28
   1  -5  -2  105.77    4.63
   1  -5  -2  103.58    4.63
  -1   5   2  102.78    4.62
  -1   5   2  103.92    4.64
   0  -5  -2   -0.07    0.20
   0   5   2    0.19    0.18
   0   5   2   -0.04    0.20
  -1  -5  -2    0.64    0.24
   1   5   2    1.15    0.24
   1   5   2    1.10    0.21
  -2  -5  -2   30.19    1.53
   2   5   2   32.02    1.49
   2   5   2   33.80    1.52
  -3  -5  -2   45.62    2.12
   3   5   2   45.50    2.11
  -4  -5  -2    5.87    0.47
   4   5   2    5.37    0.42
  -5  -5  -2    0.06    0.32
  -6  -5  -2    0.06    0.38
  -7  -5  -2    1.40    0.45
  -8  -5  -2    1.80    0.51
 -10   6   2    0.00    0.25
  -9   6   2    0.31    0.24
  -8   6   2    0.42    0.24
  -7   6   2    2.42    0.28
   6  -6  -2    2.45    0.37
  -6   6   2    3.22    0.29
  -6   6   2    3.62    0.34
   5  -6  -2    4.05    0.36
  -5   6   2    3.27    0.30
  -5   6   2    4.08    0.35
   4  -6  -2    7.16    0.44
   4  -6  -2    6.95    0.47
  -4   6   2    7.38    0.46
  -4   6   2    7.02    0.50
  -4   6   2    7.05    0.53
   3  -6  -2    2.61    0.23
   3  -6  -2    2.54    0.27
   3  -6  -2    3.40    0.25
  -3   6   2    2.30    0.28
  -3   6   2    3.11    0.33
   2  -6  -2    3.23    0.23
   2  -6  -2    3.66    0.33
   2  -6  -2    3.55    0.30
  -2   6   2    3.66    0.34
  -2   6   2    3.02    0.30
   1  -6  -2   13.36    0.76
   1  -6  -2   13.77    0.76
  -1   6   2   13.00    0.74
  -1   6   2   14.65    0.80
   0  -6  -2    0.66    0.25
   0   6   2    0.56    0.27
   0   6   2    1.09    0.24
  -1  -6  -2   26.20    1.34
   1   6   2   27.86    1.30
   1   6   2   26.70    1.33
  -2  -6  -2    9.35    0.65
   2   6   2    7.89    0.55
   2   6   2    8.61    0.61
  -3  -6  -2    0.89    0.35
   3   6   2    1.44    0.33
  -4  -6  -2    2.92    0.43
   4   6   2    3.36    0.38
  -5  -6  -2   16.40    1.04
  -6  -6  -2    1.46    0.49
  -7  -6  -2    2.44    0.57
  -9   7   2    0.21    0.28
  -8   7   2    0.53    0.27
  -7   7   2    0.49    0.27
   6  -7  -2   -0.13    0.29
  -6   7   2   -0.28    0.24
  -6   7   2    0.14    0.28
   5  -7  -2    2.60    0.34
   5  -7  -2    3.70    0.29
  -5   7   2    3.07    0.33
  -5   7   2    3.24    0.37
   4  -7  -2    0.14    0.20
   4  -7  -2    0.45    0.21
  -4   7   2    0.72    0.26
  -4   7   2    0.39    0.30
   3  -7  -2    5.09    0.36
   3  -7  -2    5.02    0.40
  -3   7   2    5.20    0.41
  -3   7   2    6.04    0.47
   2  -7  -2    9.38    0.65
   2  -7  -2    9.89    0.60
  -2   7   2    9.57    0.64
  -2   7   2    8.93    0.67
   1  -7  -2   22.92    1.16
   1  -7  -2   23.61    1.19
  -1   7   2   22.44    1.16
  -1   7   2   22.69    1.19
   0  -7  -2    1.40    0.33
   0   7   2    0.96    0.33
   0   7   2    1.25    0.29
  -1  -7  -2    2.03    0.38
   1   7   2    2.01    0.32
   1   7   2    2.43    0.37
  -2  -7  -2   13.22    0.87
   2   7   2   12.41    0.82
  -3  -7  -2    4.45    0.49
   3   7   2    4.45    0.46
  -4  -7  -2    3.22    0.50
   4   7   2    3.13    0.42
  -5  -7  -2    1.87    0.52
  -6  -7  -2    1.44    0.57
  -9   8   2    0.32    0.31
  -8   8   2    0.02    0.30
  -7   8   2    0.88    0.31
   6  -8  -2    0.08    0.31
  -6   8   2    0.43    0.33
  -6   8   2    0.55    0.30
   5  -8  -2   -0.14    0.25
   5  -8  -2    0.00    0.19
  -5   8   2    0.58    0.29
  -5   8   2   -0.18    0.32
   4  -8  -2    5.16    0.42
   4  -8  -2    4.99    0.40
  -4   8   2    3.93    0.41
  -4   8   2    4.94    0.47
   3  -8  -2    3.14    0.37
  -3   8   2    3.05    0.38
  -3   8   2    4.18    0.46
   2  -8  -2   -0.17    0.31
  -2   8   2    0.25    0.36
  -2   8   2    0.15    0.31
   1  -8  -2    0.37    0.32
   1  -8  -2    0.68    0.35
  -1   8   2    0.57    0.37
  -1   8   2    0.35    0.32
   0  -8  -2    3.02    0.42
   0   8   2    2.16    0.37
   0   8   2    2.59    0.43
  -1  -8  -2    5.28    0.53
   1   8   2    4.62    0.46
   1   8   2    4.95    0.52
  -2  -8  -2    8.33    0.68
   2   8   2    8.29    0.64
  -3  -8  -2    4.52    0.58
   3   8   2    3.90    0.49
  -4  -8  -2    0.36    0.51
   4   8   2    0.34    0.40
  -5  -8  -2    0.63    0.57
   5   8   2    1.05    0.41
  -6  -8  -2    0.32    0.64
  -8   9   2    0.27    0.34
  -7   9   2   -0.10    0.31
  -6   9   2    0.14    0.32
  -6   9   2    0.61    0.39
   5  -9  -2    0.03    0.22
  -5   9   2   -0.10    0.32
  -5   9   2   -0.23    0.38
   4  -9  -2    4.96    0.44
  -4   9   2    5.55    0.57
  -4   9   2    5.61    0.50
   3  -9  -2    0.50    0.32
  -3   9   2    0.04    0.40
  -3   9   2    0.46    0.36
   2  -9  -2    1.07    0.39
  -2   9   2    1.68    0.46
  -2   9   2    1.78    0.42
   1  -9  -2    1.24    0.41
  -1   9   2    1.04    0.44
  -1   9   2    0.99    0.40
   0  -9  -2    0.49    0.41
   0   9   2    0.70    0.38
   0   9   2   -0.14    0.42
  -1  -9  -2    1.24    0.47
   1   9   2    0.43    0.43
  -2  -9  -2    0.77    0.49
   2   9   2    0.92    0.46
  -3  -9  -2    3.12    0.62
   3   9   2    4.15    0.56
  -4  -9  -2    1.33    0.61
   4   9   2    1.32    0.49
  -5  -9  -2    2.32    0.70
   5   9   2    2.19    0.70
  -8  10   2    0.34    0.40
  -7  10   2   -0.50    0.37
  -6  10   2    0.67    0.46
  -6  10   2    0.31    0.37
   5 -10  -2    0.35    0.33
  -5  10   2   -0.10    0.48
  -5  10   2   -0.60    0.38
   4 -10  -2    0.05    0.32
  -4  10   2   -0.02    0.40
  -4  10   2   -0.55    0.46
   3 -10  -2    0.89    0.38
  -3  10   2    0.22    0.49
  -3  10   2    0.60    0.44
   2 -10  -2    0.55    0.43
  -2  10   2    0.93    0.53
  -2  10   2    1.01    0.45
   1 -10  -2    0.26    0.44
  -1  10   2   -0.28    0.50
  -1  10   2    0.53    0.45
   0 -10  -2    0.15    0.48
   0  10   2   -0.04    0.49
  -1 -10  -2   -0.12    0.59
   1  10   2   -0.75    0.48
  -2 -10  -2    0.66    0.55
   2  10   2    0.81    0.52
  -3 -10  -2    0.96    0.62
   3  10   2    0.74    0.53
  -4 -10  -2   -0.03    0.65
   4  10   2    0.28    0.55
  -7  11   2    0.10    0.43
  -6  11   2    0.98    0.46
  -6  11   2    0.75    0.57
  -5  11   2   -0.23    0.45
  -5  11   2    0.11    0.58
   4 -11  -2   -0.11    0.37
  -4  11   2   -0.17    0.47
  -4  11   2   -0.14    0.57
   3 -11  -2   -0.02    0.41
  -3  11   2    0.34    0.50
  -3  11   2   -0.13    0.56
   2 -11  -2   -0.90    0.45
  -2  11   2   -0.17    0.59
  -2  11   2    0.34    0.50
   1 -11  -2   -0.04    0.51
  -1  11   2   -0.22    0.49
  -1  11   2    0.57    0.58
   0 -11  -2    0.40    0.53
   0  11   2    0.52    0.57
  -1 -11  -2    1.03    0.62
   1  11   2   -0.52    0.57
   2  11   2   -0.57    0.56
  -5  12   2    0.55    0.54
  -5  12   2    0.81    0.66
   4 -12  -2   -0.30    0.39
  -4  12   2    1.30    0.55
  -4  12   2   -1.10    0.64
   3 -12  -2   -0.21    0.45
  -3  12   2   -0.08    0.67
  -3  12   2   -0.08    0.56
   2 -12  -2    0.24    0.50
  -2  12   2    0.74    0.69
  -2  12   2    0.22    0.55
   1 -12  -2    0.07    0.56
  -1  12   2   -0.57    0.65
   0 -12  -2   -0.26    0.60
   0  12   2    0.08    0.65
   1  13  -3    0.59    0.67
   0  13  -3   -0.05    0.64
  -1  13  -3    1.97    0.71
  -2  13  -3   -0.03    0.68
  -2  13  -3    0.42    0.56
  -3  13  -3    0.24    0.65
  -3  13  -3   -0.79    0.52
  -4  13  -3   -0.33    0.64
  -4  13  -3    0.65    0.53
   4 -13   3   -0.54    0.37
  -5  13  -3    0.33    0.63
  -5  13  -3   -0.18    0.48
   3  12  -3   -0.11    0.58
   2  12  -3    2.30    0.65
   1  12  -3    3.54    0.64
   0  12  -3    0.54    0.60
  -1  12  -3   -0.44    0.48
  -1  12  -3    0.35    0.58
  -2  12  -3    0.13    0.48
  -2  12  -3    0.99    0.58
  -3  12  -3    2.17    0.62
  -3  12  -3    1.74    0.51
  -4  12  -3    0.40    0.45
  -4  12  -3    0.21    0.57
   4 -12   3   -0.10    0.33
  -5  12  -3    0.85    0.56
  -5  12  -3   -0.36    0.40
   5 -12   3    0.02    0.46
  -6  12  -3   -0.06    0.53
  -6  12  -3   -0.65    0.42
   6 -12   3    0.87    0.53
   4  11  -3    1.92    0.56
  -4 -11   3    1.61    0.62
   3  11  -3    3.86    0.62
  -3 -11   3    2.85    0.61
   2  11  -3    0.62    0.53
  -2 -11   3    0.66    0.52
   1  11  -3   -0.96    0.49
   0  11  -3    0.84    0.52
   0  11  -3    1.36    0.45
  -1  11  -3    2.50    0.55
  -1  11  -3    2.73    0.49
  -2  11  -3    3.86    0.53
  -2  11  -3    2.43    0.57
  -3  11  -3    0.18    0.42
  -3  11  -3    0.18    0.48
  -4  11  -3    0.27    0.47
   4 -11   3   -0.41    0.30
  -5  11  -3    1.34    0.49
   5 -11   3    1.19    0.47
  -6  11  -3    1.08    0.46
  -6  11  -3    1.93    0.48
   6 -11   3    0.85    0.52
  -7  11  -3   -0.10    0.43
   7 -11   3   -0.18    0.53
   5  10  -3    2.33    0.50
  -5 -10   3    3.32    0.67
   4  10  -3    1.15    0.50
  -4 -10   3    1.12    0.55
   3  10  -3    0.92    0.49
  -3 -10   3    0.28    0.49
   2  10  -3    1.00    0.47
  -2 -10   3    1.89    0.48
   1  10  -3   11.48    0.95
   1  10  -3   12.34    0.91
  -1 -10   3   11.70    0.92
   0  10  -3    6.15    0.60
   0  10  -3    6.27    0.57
   0 -10   3    5.81    0.56
  -1  10  -3    3.80    0.49
  -1  10  -3    4.21    0.55
  -2  10  -3    0.07    0.43
  -2  10  -3    0.03    0.38
  -3  10  -3    0.59    0.42
  -4  10  -3    3.66    0.46
  -4  10  -3    3.81    0.49
  -5  10  -3    0.56    0.37
  -5  10  -3   -0.04    0.38
   5 -10   3    0.09    0.41
  -6  10  -3    0.07    0.38
  -6  10  -3   -0.03    0.36
   6 -10   3    0.00    0.45
  -7  10  -3   -0.12    0.36
   7 -10   3    0.15    0.50
  -8  10  -3    0.40    0.39
   8 -10   3    1.15    0.57
  -6  -9   3    0.99    0.60
   5   9  -3    0.00    0.41
  -5  -9   3   -0.36    0.52
   4   9  -3    3.67    0.52
  -4  -9   3    4.50    0.58
   3   9  -3    5.88    0.57
  -3  -9   3    5.94    0.59
   2   9  -3   20.11    1.23
  -2  -9   3   22.03    1.20
   1   9  -3    0.37    0.34
   1   9  -3    0.22    0.38
  -1  -9   3    0.87    0.37
   0   9  -3    0.57    0.35
   0   9  -3    0.04    0.36
   0  -9   3    0.01    0.32
  -1   9  -3    6.52    0.56
  -1   9  -3    6.01    0.52
   1  -9   3    6.03    0.50
  -2   9  -3    2.55    0.42
  -2   9  -3    2.86    0.41
  -3   9  -3    1.87    0.39
  -3   9  -3    2.26    0.37
  -4   9  -3    0.37    0.32
  -4   9  -3    0.46    0.34
  -5   9  -3    0.77    0.34
  -5   9  -3    1.00    0.32
  -6   9  -3    1.03    0.34
  -6   9  -3    0.54    0.34
   6  -9   3   -0.11    0.43
  -7   9  -3    0.76    0.35
   7  -9   3    0.65    0.49
  -8   9  -3    0.03    0.34
   8  -9   3   -0.10    0.51
  -9   9  -3   -0.58    0.35
   9  -9   3   -0.57    0.53
  -7  -8   3    1.73    0.62
  -6  -8   3    3.08    0.57
   5   8  -3   10.21    0.74
  -5  -8   3    8.58    0.71
   4   8  -3    8.22    0.62
  -4  -8   3    9.03    0.67
   3   8  -3    2.03    0.38
  -3  -8   3    1.42    0.39
   2   8  -3    8.63    0.69
   2   8  -3    8.29    0.64
  -2  -8   3    7.78    0.58
   1   8  -3    2.54    0.35
   1   8  -3    1.95    0.37
  -1  -8   3    1.99    0.37
   0   8  -3   30.05    1.50
   0   8  -3   29.26    1.51
   0  -8   3   31.27    1.48
  -1   8  -3   14.07    0.90
  -1   8  -3   15.20    0.87
   1  -8   3   15.38    0.83
  -2   8  -3    4.70    0.45
  -2   8  -3    4.83    0.43
   2  -8   3    5.00    0.38
  -3   8  -3    3.63    0.38
  -3   8  -3    3.38    0.39
  -4   8  -3   -0.12    0.29
  -4   8  -3    0.49    0.28
  -5   8  -3    3.32    0.38
  -5   8  -3    3.72    0.39
  -6   8  -3    6.03    0.47
  -6   8  -3    6.74    0.49
   6  -8   3    6.17    0.61
  -7   8  -3    3.53    0.38
   7  -8   3    2.93    0.55
  -8   8  -3    1.02    0.33
   8  -8   3    0.78    0.51
  -9   8  -3   -0.23    0.32
   9  -8   3   -0.59    0.49
  -8  -7   3    3.76    0.64
  -7  -7   3    2.56    0.56
  -6  -7   3   11.23    0.80
   5   7  -3    1.91    0.33
  -5  -7   3    1.59    0.41
   4   7  -3    1.28    0.32
  -4  -7   3    0.29    0.34
   3   7  -3    4.15    0.42
  -3  -7   3    4.95    0.45
   2   7  -3   23.55    1.23
   2   7  -3   24.16    1.19
  -2  -7   3   24.33    1.22
   1   7  -3   22.62    1.17
   1   7  -3   22.56    1.15
  -1  -7   3   22.34    1.14
   0   7  -3   30.81    1.49
   0   7  -3   30.94    1.51
   0  -7   3   31.25    1.48
  -1   7  -3    9.40    0.65
  -1   7  -3    9.12    0.61
   1  -7   3    9.98    0.59
  -2   7  -3    0.24    0.26
  -2   7  -3    0.05    0.24
   2  -7   3    0.17    0.20
  -3   7  -3    8.97    0.59
  -3   7  -3    8.57    0.60
  -4   7  -3   11.72    0.69
  -4   7  -3   11.65    0.69
  -4   7  -3   10.67    0.67
  -5   7  -3   14.86    0.81
  -5   7  -3   14.47    0.79
  -6   7  -3    0.38    0.24
  -6   7  -3    0.11    0.25
   6  -7   3    0.15    0.39
  -7   7  -3    5.28    0.39
   7  -7   3    4.08    0.53
  -8   7  -3    0.21    0.26
   8  -7   3    0.04    0.46
  -9   7  -3    1.13    0.30
   9  -7   3    0.95    0.52
  -8  -6   3    1.75    0.52
  -7  -6   3    0.49    0.42
  -6  -6   3   -0.38    0.37
   5   6  -3    2.01    0.29
  -5  -6   3    2.05    0.37
   4   6  -3   17.48    0.93
  -4  -6   3   17.82    0.98
   3   6  -3   18.65    0.98
   3   6  -3   19.13    0.95
  -3  -6   3   18.25    0.99
   2   6  -3   14.22    0.74
   2   6  -3   13.59    0.78
  -2  -6   3   13.20    0.77
   1   6  -3    2.02    0.29
  -1  -6   3    3.15    0.31
   0   6  -3   85.02    3.68
   0   6  -3   76.21    3.68
   0  -6   3   84.93    3.68
  -1   6  -3   14.00    0.75
  -1   6  -3   13.58    0.74
   1  -6   3   13.67    0.72
  -2   6  -3   78.52    3.52
  -2   6  -3   78.19    3.51
  -3   6  -3   23.15    1.12
  -3   6  -3   23.82    1.14
  -3   6  -3   23.40    1.10
  -4   6  -3    4.81    0.36
  -4   6  -3    6.13    0.43
  -4   6  -3    5.44    0.42
  -5   6  -3    0.23    0.20
  -5   6  -3   -0.04    0.16
  -5   6  -3    0.25    0.20
   5  -6   3    0.30    0.31
  -6   6  -3    6.06    0.46
  -6   6  -3    6.71    0.42
  -6   6  -3    6.78    0.47
   6  -6   3    6.89    0.59
  -7   6  -3   31.97    1.51
   7  -6   3   33.65    1.71
  -8   6  -3    0.46    0.22
   8  -6   3    0.26    0.44
  -9   6  -3    0.36    0.23
   9  -6   3    0.19    0.52
 -10   6  -3    0.30    0.26
  10  -6   3    0.58    0.56
  -9  -5   3    0.15    0.45
  -8  -5   3    0.51    0.41
  -7  -5   3    9.60    0.79
  -6  -5   3   20.18    1.07
   5   5  -3    0.60    0.20
  -5  -5   3    0.20    0.27
   4   5  -3   20.05    0.99
  -4  -5   3   20.21    1.02
   3   5  -3    5.37    0.44
  -3  -5   3    5.52    0.44
   2   5  -3    9.84    0.58
   2   5  -3    8.84    0.56
  -2  -5   3    9.53    0.56
   1   5  -3   61.13    2.67
   1   5  -3   58.26    2.68
  -1  -5   3   58.02    2.67
   0   5  -3  240.44   10.70
   0   5  -3  239.38   10.70
   0  -5   3  248.82   10.70
  -1   5  -3  397.95   17.80
  -1   5  -3  405.23   17.80
   1  -5   3  412.24   17.80
  -2   5  -3   37.49    1.72
  -2   5  -3   38.00    1.72
  -2   5  -3   37.02    1.70
  -3   5  -3   -0.12    0.16
  -3   5  -3    0.12    0.16
  -3   5  -3    0.22    0.12
   3  -5   3   -0.01    0.11
  -4   5  -3   31.19    1.40
  -4   5  -3   30.09    1.40
  -4   5  -3   29.61    1.38
  -5   5  -3   11.09    0.57
  -5   5  -3   11.22    0.59
  -5   5  -3   11.51    0.58
   5  -5   3   11.40    0.73
  -6   5  -3   10.22    0.56
  -6   5  -3   10.82    0.56
  -6   5  -3   10.32    0.54
   6  -5   3   10.28    0.79
  -7   5  -3    6.30    0.38
  -7   5  -3    6.65    0.41
   7  -5   3    5.79    0.58
  -8   5  -3    1.56    0.21
   8  -5   3    1.32    0.47
  -9   5  -3   -0.10    0.19
   9  -5   3    0.33    0.50
  10  -5   3    0.54    0.55
  -9  -4   3    1.35    0.43
  -8  -4   3    3.96    0.46
  -7  -4   3    0.38    0.31
  -6  -4   3   28.53    1.39
   5   4  -3   17.97    0.87
  -5  -4   3   19.12    0.95
   4   4  -3   18.65    0.90
  -4  -4   3   19.57    0.94
  -4  -4   3   18.13    0.90
   3   4  -3   45.13    2.04
  -3  -4   3   45.28    2.05
  -3  -4   3   44.61    2.05
   2   4  -3  208.00    9.29
  -2  -4   3  213.38    9.29
   1   4  -3   96.85    4.27
   1   4  -3   96.00    4.26
  -1  -4   3   95.08    4.26
   0   4  -3   -0.06    0.16
   0   4  -3    0.29    0.15
   0  -4   3    0.34    0.14
  -1   4  -3   44.16    1.95
  -1   4  -3   41.59    1.93
  -1   4  -3   41.83    1.94
   1  -4   3   43.85    1.93
  -2   4  -3   24.00    1.09
  -2   4  -3   23.73    1.08
  -2   4  -3   24.01    1.07
   2  -4   3   23.37    1.06
   2  -4   3   21.41    1.06
  -3   4  -3   16.19    0.81
  -3   4  -3   17.56    0.81
  -3   4  -3   18.21    0.82
   3  -4   3   17.19    0.79
  -4   4  -3    9.69    0.49
  -4   4  -3    9.10    0.47
  -4   4  -3    9.76    0.50
  -5   4  -3   11.11    0.56
  -5   4  -3   11.13    0.54
  -5   4  -3   11.03    0.56
   5  -4   3   11.90    0.71
  -6   4  -3   -0.02    0.13
  -6   4  -3    0.04    0.15
  -6   4  -3   -0.10    0.12
   6  -4   3   -0.20    0.32
  -7   4  -3    0.16    0.14
  -7   4  -3    0.47    0.15
   7  -4   3    0.41    0.37
  -8   4  -3    2.85    0.23
   8  -4   3    2.52    0.50
   9  -4   3    5.66    0.67
  10  -4   3    1.04    0.57
  -9  -3   3    1.59    0.41
  -8  -3   3    0.59    0.32
  -7  -3   3    2.15    0.31
  -6  -3   3   11.78    0.68
  -5  -3   3   29.76    1.37
  -5  -3   3   28.70    1.35
   4   3  -3   47.33    2.10
  -4  -3   3   46.18    2.11
  -4  -3   3   47.18    2.12
   3   3  -3    4.64    0.30
   3   3  -3    4.43    0.33
  -3  -3   3    4.89    0.31
  -3  -3   3    5.16    0.35
   2   3  -3    4.43    0.33
   2   3  -3    4.21    0.30
  -2  -3   3    4.66    0.30
  -2  -3   3    4.45    0.32
   1   3  -3   62.09    2.73
   1   3  -3   60.64    2.72
  -1  -3   3   60.41    2.72
   0   3  -3  181.02    7.85
   0   3  -3  183.71    7.85
   0  -3   3  170.13    7.85
  -1   3  -3   65.62    2.93
  -1   3  -3   67.10    2.93
  -1   3  -3   65.39    2.92
   1  -3   3   65.05    2.92
  -2   3  -3  113.88    4.97
  -2   3  -3  111.71    4.96
  -2   3  -3  112.27    4.97
   2  -3   3  108.41    4.96
   2  -3   3  116.35    4.95
  -3   3  -3   37.47    1.69
  -3   3  -3   38.15    1.69
  -3   3  -3   37.57    1.69
  -4   3  -3   36.74    1.64
  -4   3  -3   36.80    1.64
  -4   3  -3   36.56    1.65
  -5   3  -3    9.99    0.48
  -5   3  -3    9.57    0.47
  -5   3  -3    9.47    0.49
   5  -3   3   10.51    0.66
  -6   3  -3   19.07    0.87
  -6   3  -3   19.06    0.88
  -6   3  -3   18.90    0.87
   6  -3   3   18.38    1.05
   7  -3   3    4.43    0.48
   8  -3   3    2.55    0.48
  -9   3  -3    0.08    0.20
   9  -3   3   -0.52    0.44
  10  -3   3    0.38    0.54
 -10  -2   3    1.63    0.44
  -9  -2   3    2.33    0.38
  -8  -2   3    2.55    0.34
  -7  -2   3   51.61    2.35
  -6  -2   3   13.75    0.69
  -6  -2   3   12.55    0.66
  -5  -2   3    0.40    0.13
  -5  -2   3    0.57    0.17
   4   2  -3   -0.01    0.09
  -4  -2   3    0.01    0.11
  -4  -2   3    0.13    0.14
   3   2  -3    7.28    0.37
   3   2  -3    7.16    0.39
  -3  -2   3    7.23    0.39
  -3  -2   3    7.19    0.40
   2   2  -3  118.32    5.30
  -2  -2   3  121.47    5.30
  -2  -2   3  120.84    5.30
   1   2  -3  167.28    6.94
   1   2  -3  158.10    6.93
  -1  -2   3  149.69    6.93
  -1  -2   3  154.66    6.94
   0   2  -3  257.39   11.38
   0   2  -3  263.68   11.38
   0  -2   3  255.99   11.38
  -1   2  -3  104.23    4.59
  -1   2  -3  103.46    4.59
  -1   2  -3  107.24    4.59
   1  -2   3   98.87    4.59
   1  -2   3  106.40    4.59
  -2   2  -3   17.19    0.79
  -2   2  -3   16.89    0.79
  -2   2  -3   16.67    0.79
   2  -2   3   16.81    0.78
   2  -2   3   17.62    0.78
  -3   2  -3   85.37    3.68
  -3   2  -3   82.40    3.68
  -3   2  -3   82.22    3.68
  -4   2  -3   27.24    1.19
  -4   2  -3   26.39    1.20
  -4   2  -3   26.30    1.19
   4  -2   3   25.76    1.27
  -5   2  -3   31.88    1.40
  -5   2  -3   30.37    1.40
  -5   2  -3   31.13    1.39
   5  -2   3   31.01    1.51
  -6   2  -3    0.66    0.15
  -6   2  -3    0.69    0.13
  -6   2  -3    0.48    0.14
   6  -2   3    0.31    0.30
  -7   2  -3    0.86    0.15
  -7   2  -3    0.80    0.17
   7  -2   3    0.45    0.36
  -8   2  -3    0.21    0.18
   8  -2   3    0.30    0.41
  -9   2  -3    0.78    0.23
   9  -2   3    1.05    0.51
 -10   2  -3    1.01    0.27
  10  -2   3    1.46    0.57
 -10  -1   3    0.39    0.35
  -9  -1   3    1.59    0.31
  -8  -1   3    5.92    0.46
  -7  -1   3    0.99    0.19
  -7  -1   3    1.61    0.22
  -6  -1   3    0.19    0.14
  -6  -1   3    0.38    0.16
  -5  -1   3    4.55    0.33
  -5  -1   3    5.09    0.31
  -4  -1   3   28.56    1.30
  -4  -1   3   28.91    1.30
   3   1  -3   23.00    1.02
   3   1  -3   22.34    1.02
  -3  -1   3   22.20    1.03
  -3  -1   3   22.47    1.03
   2   1  -3   40.07    1.78
  -2  -1   3   39.33    1.77
  -2  -1   3   39.58    1.77
   1   1  -3   22.43    0.94
   1   1  -3   20.97    0.94
  -1  -1   3   19.51    0.94
  -1  -1   3   19.16    0.94
   0   1  -3    0.22    0.09
   0   1  -3    0.21    0.10
   0   1  -3    0.12    0.09
   0  -1   3    0.18    0.09
  -1   1  -3  194.09    8.63
  -1   1  -3  194.36    8.63
  -1   1  -3  197.92    8.63
   1  -1   3  194.43    8.63
   1  -1   3  201.08    8.63
  -2   1  -3  119.61    5.22
  -2   1  -3  113.64    5.21
  -2   1  -3  120.10    5.21
   2  -1   3  120.25    5.20
  -3   1  -3   10.45    0.52
  -3   1  -3   10.69    0.52
  -3   1  -3   10.61    0.51
  -4   1  -3   13.36    0.64
  -4   1  -3   12.82    0.63
  -4   1  -3   13.51    0.64
   4  -1   3   13.45    0.74
  -5   1  -3    2.16    0.19
  -5   1  -3    1.91    0.17
  -5   1  -3    1.77    0.18
   5  -1   3    1.97    0.30
  -6   1  -3    0.28    0.14
  -6   1  -3    0.57    0.17
  -6   1  -3    0.47    0.16
   6  -1   3    0.11    0.29
  -7   1  -3    4.74    0.37
  -7   1  -3    4.46    0.34
   7  -1   3    5.28    0.51
  -8   1  -3    4.53    0.33
   8  -1   3    4.29    0.54
  -9   1  -3    3.01    0.32
   9  -1   3    2.51    0.54
 -10   1  -3    0.22    0.28
 -10   0   3    0.16    0.26
  -9   0   3    0.00    0.23
  -8   0   3    0.58    0.20
  -7   0   3    7.36    0.42
  -7   0   3    6.82    0.42
  -6   0   3    6.98    0.40
  -6   0   3    7.43    0.40
  -5   0   3   67.13    2.97
  -4   0   3    1.39    0.14
  -4   0   3    1.66    0.14
   3   0  -3    6.41    0.34
   3   0  -3    6.48    0.34
  -3   0   3    7.16    0.35
  -3   0   3    6.62    0.35
   2   0  -3   69.29    3.13
   2   0  -3   70.12    3.13
  -2   0   3   74.14    3.13
  -2   0   3   69.35    3.13
   1   0  -3   46.18    2.07
   1   0  -3   50.74    2.07
  -1   0   3   42.33    2.07
   0   0  -3  150.34    6.48
   0   0  -3  150.97    6.48
   0   0   3  140.34    6.48
  -1   0  -3  110.26    5.02
  -1   0  -3  117.60    5.03
  -1   0  -3  121.98    5.03
   1   0   3  108.03    5.02
   1   0   3  112.21    5.02
  -2   0  -3   61.13    2.90
  -2   0  -3   63.20    2.90
  -2   0  -3   71.38    2.90
   2   0   3   65.89    2.89
  -3   0  -3   -0.06    0.12
  -3   0  -3    0.00    0.10
  -3   0  -3   -0.08    0.12
   3   0   3    0.00    0.16
  -4   0  -3   59.01    2.65
  -4   0  -3   61.01    2.66
  -4   0  -3   59.23    2.65
   4   0   3   58.85    2.70
  -5   0  -3   18.03    0.85
  -5   0  -3   17.86    0.87
   5   0   3   18.19    0.96
  -6   0  -3   13.64    0.71
  -6   0  -3   15.11    0.74
   6   0   3   15.29    0.89
  -7   0  -3    0.86    0.23
   7   0   3    0.75    0.37
  -8   0  -3    1.54    0.27
   8   0   3    1.75    0.46
  -9   0  -3    0.04    0.28
 -10   1   3    1.54    0.26
  -9   1   3    1.53    0.22
  -8   1   3    1.05    0.18
  -8   1   3    0.80    0.19
  -7   1   3    2.98    0.22
  -7   1   3    2.88    0.22
  -6   1   3   15.11    0.73
  -6   1   3   15.99    0.73
  -5   1   3    0.36    0.11
  -5   1   3    0.25    0.12
  -4   1   3    0.24    0.10
  -4   1   3    0.23    0.11
  -4   1   3    0.19    0.11
   3  -1  -3  256.65   11.03
   3  -1  -3  244.91   11.03
  -3   1   3  253.33   11.04
  -3   1   3  249.85   11.04
  -3   1   3  251.74   11.03
   2  -1  -3  117.51    5.19
   2  -1  -3  118.38    5.19
  -2   1   3  119.02    5.20
  -2   1   3  115.08    5.19
  -2   1   3  118.84    5.19
   1  -1  -3   21.60    1.03
   1  -1  -3   21.63    1.02
  -1   1   3   22.64    1.02
  -1   1   3   23.37    1.03
  -1   1   3   22.42    1.03
   0  -1  -3   14.60    0.70
   0  -1  -3   15.17    0.71
   0   1   3   15.11    0.71
   0   1   3   14.39    0.71
  -1  -1  -3    1.73    0.18
  -1  -1  -3    2.54    0.20
  -1  -1  -3    2.04    0.19
   1   1   3    1.44    0.17
  -2  -1  -3    0.59    0.15
  -2  -1  -3    0.82    0.13
  -2  -1  -3    0.82    0.14
   2   1   3    1.13    0.15
  -3  -1  -3   71.17    3.08
  -3  -1  -3   68.66    3.09
   3   1   3   68.07    3.10
  -4  -1  -3   68.86    3.17
  -4  -1  -3   73.18    3.18
   4   1   3   71.95    3.21
  -5  -1  -3   41.83    1.87
  -5  -1  -3   39.71    1.86
   5   1   3   41.48    1.92
  -6  -1  -3    1.58    0.25
   6   1   3    1.71    0.36
  -7  -1  -3    3.23    0.34
   7   1   3    4.55    0.50
  -8  -1  -3    5.25    0.43
  -9  -1  -3    0.70    0.33
 -10   2   3    0.73    0.21
  -9   2   3    1.22    0.20
  -8   2   3    0.33    0.16
  -8   2   3    0.16    0.15
  -7   2   3    0.23    0.15
  -7   2   3    0.41    0.14
  -6   2   3   17.73    0.83
  -6   2   3   17.33    0.82
  -6   2   3   17.88    0.84
  -5   2   3   26.10    1.22
  -5   2   3   28.50    1.22
  -5   2   3   25.90    1.23
  -4   2   3   38.11    1.74
  -4   2   3   38.92    1.75
  -4   2   3   39.72    1.75
   3  -2  -3    1.73    0.15
   3  -2  -3    1.75    0.16
  -3   2   3    1.84    0.17
  -3   2   3    2.30    0.17
  -3   2   3    2.24    0.17
   2  -2  -3    0.56    0.13
  -2   2   3    1.04    0.14
  -2   2   3    1.18    0.14
  -2   2   3    1.00    0.14
   1  -2  -3    0.58    0.13
   1  -2  -3    0.69    0.13
  -1   2   3    0.42    0.12
  -1   2   3    0.82    0.15
   0  -2  -3  145.63    6.66
   0  -2  -3  149.78    6.66
   0   2   3  155.59    6.67
   0   2   3  153.09    6.66
  -1  -2  -3   70.78    3.01
  -1  -2  -3   70.82    3.01
   1   2   3   65.88    3.00
   1   2   3   65.46    3.01
   1   2   3   64.39    2.98
  -2  -2  -3  155.81    6.78
  -2  -2  -3  152.57    6.78
  -2  -2  -3  153.26    6.77
   2   2   3  152.50    6.76
  -3  -2  -3   23.41    1.12
  -3  -2  -3   23.78    1.14
   3   2   3   21.58    1.13
   3   2   3   27.42    1.12
  -4  -2  -3    1.18    0.23
  -4  -2  -3    0.95    0.18
   4   2   3    1.42    0.25
  -5  -2  -3    6.85    0.52
   5   2   3    7.91    0.60
  -6  -2  -3    3.10    0.33
   6   2   3    2.75    0.41
  -7  -2  -3   15.79    0.89
  -8  -2  -3    0.54    0.33
  -9  -2  -3    0.28    0.36
 -10   3   3    0.54    0.20
  -9   3   3    3.08    0.25
  -8   3   3   -0.15    0.16
  -7   3   3    3.78    0.31
  -7   3   3    3.77    0.31
  -6   3   3    4.49    0.32
  -6   3   3    4.47    0.31
  -6   3   3    4.29    0.33
  -5   3   3   12.16    0.62
  -5   3   3   12.63    0.64
  -5   3   3   12.60    0.62
  -4   3   3    0.45    0.13
  -4   3   3    0.13    0.13
  -4   3   3    0.25    0.15
   3  -3  -3   14.71    0.73
   3  -3  -3   15.54    0.74
   3  -3  -3   15.48    0.73
  -3   3   3   15.74    0.75
  -3   3   3   15.78    0.75
  -3   3   3   15.50    0.76
   2  -3  -3  100.62    4.43
   2  -3  -3   98.86    4.44
  -2   3   3   96.87    4.42
  -2   3   3  105.21    4.44
  -2   3   3   98.84    4.44
  -2   3   3  100.76    4.45
   1  -3  -3   21.68    1.05
   1  -3  -3   22.39    1.04
  -1   3   3   22.21    1.04
  -1   3   3   22.47    1.06
   0  -3  -3    1.28    0.20
   0  -3  -3    1.61    0.20
   0   3   3    1.70    0.19
   0   3   3    1.66    0.21
  -1  -3  -3   70.44    3.03
   1   3   3   65.24    3.02
   1   3   3   65.22    2.98
   1   3   3   69.05    3.01
  -2  -3  -3   12.65    0.69
   2   3   3   12.80    0.64
   2   3   3   12.64    0.62
   2   3   3   12.15    0.67
  -3  -3  -3   10.23    0.61
   3   3   3   10.32    0.57
   3   3   3   10.23    0.54
  -4  -3  -3   31.21    1.49
  -5  -3  -3   28.22    1.38
  -6  -3  -3    2.23    0.36
  -7  -3  -3   -0.17    0.33
  -8  -3  -3    0.88    0.39
 -10   4   3    1.71    0.24
  -9   4   3    1.17    0.22
  -8   4   3    1.02    0.21
  -7   4   3    4.88    0.39
  -6   4   3    0.45    0.18
  -6   4   3    0.47    0.19
  -6   4   3    0.37    0.16
  -5   4   3   -0.25    0.18
  -5   4   3   -0.14    0.14
  -5   4   3    0.31    0.17
   4  -4  -3   16.04    0.73
   4  -4  -3   14.87    0.73
  -4   4   3   14.82    0.78
  -4   4   3   15.62    0.76
  -4   4   3   15.43    0.77
   3  -4  -3   54.09    2.37
   3  -4  -3   51.22    2.37
  -3   4   3   54.39    2.39
  -3   4   3   52.41    2.38
  -3   4   3   51.81    2.37
   2  -4  -3   41.49    1.88
   2  -4  -3   41.50    1.88
  -2   4   3   40.96    1.90
  -2   4   3   41.41    1.88
   1  -4  -3   27.18    1.29
   1  -4  -3   28.02    1.29
  -1   4   3   26.93    1.29
  -1   4   3   27.95    1.30
   0  -4  -3   25.63    1.24
   0  -4  -3   27.23    1.25
   0   4   3   25.79    1.23
   0   4   3   25.75    1.25
  -1  -4  -3   61.53    2.89
  -1  -4  -3   59.85    2.89
   1   4   3   66.63    2.89
   1   4   3   68.11    2.88
  -2  -4  -3   49.88    2.31
   2   4   3   50.31    2.31
   2   4   3   51.14    2.29
  -3  -4  -3   45.74    2.12
   3   4   3   45.79    2.11
  -4  -4  -3   17.85    0.97
  -5  -4  -3    3.11    0.40
  -6  -4  -3   -0.39    0.34
  -7  -4  -3    4.16    0.50
  -8  -4  -3    2.42    0.49
 -10   5   3   -0.18    0.23
  -9   5   3   -0.30    0.23
  -8   5   3    1.88    0.26
  -7   5   3    0.42    0.23
  -6   5   3    5.34    0.39
  -6   5   3    4.75    0.37
  -5   5   3    7.47    0.49
  -5   5   3    7.50    0.51
  -5   5   3    6.86    0.48
   4  -5  -3   16.90    0.81
  -4   5   3   15.92    0.84
  -4   5   3   16.97    0.83
  -4   5   3   16.53    0.86
   3  -5  -3    8.69    0.52
   3  -5  -3    9.04    0.49
  -3   5   3    7.72    0.53
  -3   5   3    8.69    0.57
   2  -5  -3    0.18    0.19
   2  -5  -3    0.16    0.20
  -2   5   3    0.52    0.23
  -2   5   3   -0.03    0.18
   1  -5  -3   27.65    1.32
   1  -5  -3   28.13    1.33
  -1   5   3   25.89    1.32
  -1   5   3   28.29    1.31
   0  -5  -3   45.66    2.04
   0  -5  -3   45.26    2.05
   0   5   3   42.11    2.02
   0   5   3   43.69    2.04
  -1  -5  -3   13.51    0.82
   1   5   3   14.58    0.80
   1   5   3   15.66    0.78
  -2  -5  -3    9.44    0.67
   2   5   3    9.99    0.60
   2   5   3   10.30    0.66
  -3  -5  -3   25.43    1.29
   3   5   3   24.46    1.24
  -4  -5  -3    2.40    0.39
  -5  -5  -3    4.09    0.48
  -6  -5  -3    9.07    0.70
  -7  -5  -3    5.05    0.60
 -10   6   3   -0.19    0.26
  -9   6   3    0.72    0.26
  -8   6   3    0.32    0.27
  -7   6   3    1.73    0.28
  -6   6   3    0.22    0.26
  -6   6   3    0.08    0.24
   5  -6  -3    1.16    0.17
  -5   6   3    0.99    0.28
  -5   6   3    1.38    0.27
   4  -6  -3    0.64    0.21
  -4   6   3    0.56    0.24
  -4   6   3    1.04    0.27
   3  -6  -3    2.18    0.28
  -3   6   3    1.81    0.31
  -3   6   3    1.69    0.28
   2  -6  -3   12.00    0.70
   2  -6  -3   11.47    0.67
  -2   6   3   12.65    0.74
  -2   6   3   11.46    0.68
   1  -6  -3   15.10    0.82
   1  -6  -3   14.05    0.83
  -1   6   3   15.04    0.85
  -1   6   3   14.34    0.81
   0  -6  -3    6.54    0.49
   0  -6  -3    6.31    0.48
   0   6   3    6.55    0.45
   0   6   3    5.29    0.47
  -1  -6  -3    3.37    0.39
   1   6   3    3.02    0.32
   1   6   3    2.47    0.36
  -2  -6  -3   20.04    1.13
   2   6   3   21.34    1.06
   2   6   3   20.67    1.10
  -3  -6  -3   42.01    1.97
   3   6   3   38.47    1.92
  -4  -6  -3    8.83    0.70
   4   6   3   11.10    0.74
  -5  -6  -3    6.15    0.62
  -6  -6  -3    0.33    0.51
  -7  -6  -3    1.55    0.61
  -9   7   3    0.43    0.30
  -8   7   3    0.36    0.30
  -7   7   3    0.38    0.29
  -6   7   3    2.51    0.37
  -6   7   3    2.48    0.33
   5  -7  -3    1.36    0.23
  -5   7   3    1.65    0.31
  -5   7   3    1.78    0.34
   4  -7  -3   11.38    0.71
  -4   7   3   12.65    0.81
  -4   7   3   13.25    0.76
   3  -7  -3   11.18    0.71
  -3   7   3   11.61    0.74
  -3   7   3   11.58    0.78
   2  -7  -3   11.86    0.74
   2  -7  -3   12.15    0.77
  -2   7   3   13.16    0.76
  -2   7   3   11.49    0.81
   1  -7  -3    0.26    0.32
   1  -7  -3    0.44    0.30
  -1   7   3   -0.03    0.32
  -1   7   3   -0.15    0.28
   0  -7  -3    0.93    0.35
   0  -7  -3    0.86    0.34
   0   7   3    1.07    0.31
   0   7   3    1.25    0.35
  -1  -7  -3   46.75    2.25
  -1  -7  -3   48.42    2.25
   1   7   3   46.35    2.22
   1   7   3   46.62    2.19
  -2  -7  -3   20.96    1.22
   2   7   3   20.45    1.15
  -3  -7  -3    6.74    0.61
   3   7   3    5.32    0.52
  -4  -7  -3    0.92    0.50
   4   7   3    0.74    0.39
  -5  -7  -3   -0.12    0.53
  -6  -7  -3    2.31    0.65
  -9   8   3    0.36    0.33
  -8   8   3    0.42    0.35
  -7   8   3    1.35    0.36
  -6   8   3    0.46    0.32
  -6   8   3    0.16    0.36
   5  -8  -3   11.78    0.70
  -5   8   3   12.59    0.81
  -5   8   3   13.53    0.88
   4  -8  -3    0.92    0.29
  -4   8   3    1.68    0.40
  -4   8   3    0.84    0.35
   3  -8  -3    0.12    0.30
  -3   8   3    0.24    0.38
  -3   8   3    0.48    0.32
   2  -8  -3    1.18    0.36
  -2   8   3    1.18    0.35
  -2   8   3    1.59    0.41
   1  -8  -3    4.49    0.48
   1  -8  -3    4.32    0.47
  -1   8   3    3.96    0.45
  -1   8   3    3.19    0.47
   0  -8  -3    9.12    0.68
   0  -8  -3    8.79    0.67
   0   8   3    9.99    0.75
   0   8   3    8.44    0.66
  -1  -8  -3    0.87    0.42
  -1  -8  -3    0.74    0.44
   1   8   3    1.82    0.41
  -2  -8  -3    2.50    0.51
   2   8   3    2.67    0.46
  -3  -8  -3    0.55    0.51
   3   8   3    0.62    0.44
  -4  -8  -3    1.75    0.59
   4   8   3    2.65    0.48
  -5  -8  -3    0.95    0.64
  -8   9   3    0.36    0.35
  -7   9   3    0.35    0.38
  -6   9   3    0.26    0.41
  -6   9   3   -0.32    0.37
   5  -9  -3    7.41    0.59
  -5   9   3    7.80    0.63
  -5   9   3   10.23    0.71
   4  -9  -3    0.30    0.32
  -4   9   3    0.52    0.36
  -4   9   3   -0.27    0.43
   3  -9  -3    2.06    0.40
  -3   9   3    2.97    0.52
  -3   9   3    2.02    0.41
   2  -9  -3    0.89    0.40
  -2   9   3    1.76    0.49
  -2   9   3    1.47    0.42
   1  -9  -3   -0.30    0.41
  -1   9   3    0.74    0.45
  -1   9   3    1.35    0.42
   0  -9  -3   -0.37    0.43
   0  -9  -3    0.58    0.56
   0   9   3    0.58    0.39
   0   9   3    0.51    0.44
  -1  -9  -3    2.52    0.54
  -1  -9  -3    1.92    0.53
   1   9   3    1.67    0.49
  -2  -9  -3    4.50    0.66
  -2  -9  -3    5.94    0.67
   2   9   3    6.17    0.63
  -3  -9  -3    1.83    0.59
   3   9   3    1.46    0.50
  -4  -9  -3    2.11    0.66
   4   9   3    0.76    0.51
  -7  10   3    0.36    0.40
  -6  10   3    1.04    0.53
  -6  10   3    0.59    0.40
   5 -10  -3    2.39    0.42
  -5  10   3    4.24    0.62
  -5  10   3    2.91    0.48
   4 -10  -3    2.35    0.41
  -4  10   3    2.21    0.48
  -4  10   3    3.57    0.62
   3 -10  -3    0.77    0.42
  -3  10   3    0.12    0.44
  -3  10   3   -0.18    0.53
   2 -10  -3   -0.48    0.41
  -2  10   3   -0.10    0.45
  -2  10   3    0.10    0.53
   1 -10  -3    0.82    0.49
  -1  10   3    0.29    0.46
  -1  10   3    1.31    0.53
   0 -10  -3    0.08    0.50
   0  10   3    0.29    0.53
  -1 -10  -3    0.53    0.57
   1  10   3    0.61    0.52
  -2 -10  -3    3.05    0.69
  -2 -10  -3    2.03    0.65
   2  10   3    3.25    0.62
  -3 -10  -3    0.72    0.69
  -3 -10  -3    0.01    0.62
   3  10   3   -0.37    0.54
  -6  11   3    0.97    0.61
  -6  11   3   -0.88    0.42
  -5  11   3   -0.25    0.47
  -5  11   3   -0.28    0.60
   4 -11  -3    0.08    0.40
  -4  11   3    0.75    0.63
  -4  11   3    0.25    0.50
   3 -11  -3    0.26    0.44
  -3  11   3    0.46    0.62
  -3  11   3   -0.16    0.51
   2 -11  -3    0.55    0.49
  -2  11   3   -0.30    0.60
  -2  11   3    0.56    0.52
   1 -11  -3    0.33    0.54
  -1  11   3   -0.49    0.60
   0 -11  -3    0.62    0.58
   0  11   3    0.38    0.60
  -1 -11  -3    0.37    0.64
   1  11   3    0.50    0.60
   3 -12  -3    0.48    0.48
  -3  12   3   -0.02    0.58
  -3  12   3   -0.24    0.71
   2 -12  -3    0.75    0.54
  -2  12   3    0.92    0.74
   1  13  -4    0.94    0.63
   0  13  -4   -0.41    0.66
  -1  13  -4   -0.05    0.66
  -2  13  -4    0.40    0.55
  -2  13  -4   -0.05    0.66
  -3  13  -4   -0.06    0.54
  -3  13  -4   -0.08    0.67
  -4  13  -4    0.48    0.67
  -4  13  -4    0.76    0.54
   4 -13   4    0.01    0.40
  -5  13  -4   -0.14    0.49
  -5  13  -4    0.64    0.67
   3  12  -4    0.53    0.61
   2  12  -4    1.60    0.60
   1  12  -4    0.19    0.58
   0  12  -4    0.47    0.58
  -1  12  -4    1.79    0.62
  -1  12  -4    0.58    0.51
  -2  12  -4    0.60    0.51
  -2  12  -4    1.21    0.61
  -3  12  -4    0.72    0.50
  -3  12  -4    1.05    0.58
  -4  12  -4    0.56    0.59
  -5  12  -4    0.74    0.56
  -6  12  -4    0.00    0.54
  -6  12  -4    0.19    0.55
   6 -12   4   -0.05    0.52
   4  11  -4    2.32    0.59
  -4 -11   4    2.19    0.64
   3  11  -4   -0.23    0.52
  -3 -11   4   -0.29    0.53
   2  11  -4    0.30    0.52
  -2 -11   4   -0.22    0.49
   1  11  -4    1.57    0.54
   0  11  -4    8.04    0.68
   0  11  -4    6.58    0.70
  -1  11  -4    1.18    0.47
  -1  11  -4    1.16    0.53
  -2  11  -4    0.24    0.45
  -2  11  -4    0.76    0.51
  -3  11  -4    0.28    0.49
  -4  11  -4    2.50    0.52
  -4  11  -4    2.38    0.53
  -5  11  -4    1.31    0.50
  -5  11  -4    0.78    0.45
  -6  11  -4    0.47    0.45
  -6  11  -4    0.33    0.47
   6 -11   4    0.10    0.49
  -7  11  -4    0.59    0.46
   7 -11   4    0.46    0.55
   5  10  -4   -0.58    0.46
  -5 -10   4    0.18    0.60
   4  10  -4    0.92    0.50
  -4 -10   4    1.20    0.56
   3  10  -4    3.81    0.54
  -3 -10   4    2.74    0.56
   2  10  -4   14.30    1.08
  -2 -10   4   15.41    1.06
   1  10  -4    5.44    0.54
   1  10  -4    5.24    0.59
  -1 -10   4    4.72    0.54
   0  10  -4    2.00    0.47
   0  10  -4    1.04    0.42
   0 -10   4    0.08    0.38
  -1  10  -4    0.15    0.45
  -2  10  -4    7.34    0.62
  -2  10  -4    7.11    0.65
  -3  10  -4    4.61    0.51
  -3  10  -4    4.81    0.55
  -4  10  -4    1.32    0.41
  -4  10  -4    2.43    0.46
  -5  10  -4    0.51    0.38
  -5  10  -4    0.88    0.41
  -6  10  -4   -0.24    0.38
  -6  10  -4    0.03    0.40
   6 -10   4   -0.33    0.45
  -7  10  -4    0.43    0.39
   7 -10   4    1.04    0.55
  -8  10  -4    0.21    0.41
   8 -10   4    0.21    0.58
  -6  -9   4   -1.03    0.56
   5   9  -4    4.13    0.52
  -5  -9   4    4.85    0.64
   4   9  -4   10.08    0.74
  -4  -9   4   10.11    0.77
   3   9  -4    5.29    0.55
  -3  -9   4    5.48    0.56
   2   9  -4   -0.11    0.38
  -2  -9   4    0.18    0.38
   1   9  -4    0.06    0.35
   1   9  -4    0.04    0.38
  -1  -9   4    1.07    0.38
   0   9  -4    7.66    0.62
   0  -9   4    8.19    0.66
  -1   9  -4    1.97    0.39
  -1   9  -4    1.11    0.41
   1  -9   4    1.37    0.33
  -2   9  -4   13.73    0.92
  -2   9  -4   14.41    0.89
  -3   9  -4    0.91    0.37
  -3   9  -4    0.39    0.34
  -4   9  -4    0.28    0.36
  -4   9  -4    0.28    0.34
  -5   9  -4    0.74    0.36
  -5   9  -4    1.04    0.36
  -6   9  -4    1.93    0.40
  -6   9  -4    2.11    0.40
   6  -9   4    2.26    0.50
  -7   9  -4    0.09    0.35
   7  -9   4    0.45    0.51
  -8   9  -4    2.24    0.42
   8  -9   4    0.97    0.57
  -9   9  -4    0.36    0.39
   9  -9   4    0.30    0.58
  -7  -8   4    2.41    0.63
  -6  -8   4    1.63    0.54
   5   8  -4    0.35    0.35
  -5  -8   4   -0.28    0.45
   4   8  -4    2.12    0.39
  -4  -8   4    1.23    0.42
   3   8  -4    2.81    0.41
  -3  -8   4    1.75    0.41
   2   8  -4   12.04    0.78
   2   8  -4   12.33    0.87
  -2  -8   4   13.21    0.84
   1   8  -4   23.62    1.22
   1   8  -4   21.69    1.19
  -1  -8   4   21.83    1.17
   0   8  -4   38.62    1.92
   0   8  -4   40.47    1.90
   0  -8   4   40.02    1.88
  -1   8  -4    1.16    0.32
  -1   8  -4    1.17    0.35
   1  -8   4    1.22    0.27
  -2   8  -4   26.27    1.30
  -2   8  -4   26.24    1.28
   2  -8   4   23.43    1.21
  -3   8  -4    1.37    0.33
  -3   8  -4    1.45    0.33
  -4   8  -4    9.74    0.67
  -4   8  -4    8.70    0.68
  -5   8  -4    1.38    0.32
  -5   8  -4    2.01    0.35
  -6   8  -4    0.85    0.30
  -6   8  -4    1.17    0.33
   6  -8   4    0.86    0.44
  -7   8  -4    0.91    0.30
   7  -8   4    0.68    0.49
  -8   8  -4    0.13    0.30
   8  -8   4   -0.38    0.49
  -9   8  -4    0.70    0.35
   9  -8   4    0.86    0.56
  -8  -7   4    0.72    0.59
  -7  -7   4    2.25    0.55
  -6  -7   4    2.70    0.51
   5   7  -4    4.61    0.42
  -5  -7   4    3.68    0.50
   4   7  -4   23.80    1.25
  -4  -7   4   24.73    1.28
   3   7  -4   27.67    1.41
  -3  -7   4   28.59    1.42
   2   7  -4   23.34    1.19
   2   7  -4   23.81    1.22
  -2  -7   4   23.70    1.22
   1   7  -4    9.01    0.65
   1   7  -4    9.06    0.68
  -1  -7   4   10.24    0.67
   0   7  -4   11.88    0.72
   0   7  -4   11.82    0.76
   0  -7   4   11.55    0.70
  -1   7  -4    3.67    0.35
  -1   7  -4    3.63    0.37
   1  -7   4    3.82    0.33
  -2   7  -4   11.12    0.71
  -2   7  -4   10.47    0.68
   2  -7   4   10.65    0.66
  -3   7  -4   16.92    0.89
  -3   7  -4   16.09    0.90
  -4   7  -4    4.82    0.39
  -4   7  -4    3.70    0.35
  -5   7  -4    1.89    0.30
  -5   7  -4    1.74    0.30
  -6   7  -4    0.51    0.27
  -6   7  -4    0.55    0.27
   6  -7   4   -0.22    0.39
  -7   7  -4    0.10    0.26
   7  -7   4   -0.03    0.45
  -8   7  -4    2.61    0.34
   8  -7   4    1.75    0.54
  -9   7  -4   -0.07    0.29
   9  -7   4    0.04    0.51
  -8  -6   4   -0.19    0.49
  -7  -6   4   -0.28    0.42
  -6  -6   4   15.07    0.93
   5   6  -4    7.18    0.56
  -5  -6   4    7.67    0.55
   4   6  -4    9.48    0.65
  -4  -6   4    9.50    0.66
   3   6  -4    0.09    0.22
   3   6  -4   -0.40    0.24
  -3  -6   4    0.01    0.26
   2   6  -4    0.55    0.27
  -2  -6   4    0.62    0.25
   1   6  -4   29.52    1.41
   1   6  -4   28.52    1.38
  -1  -6   4   28.65    1.39
   0   6  -4    2.37    0.27
   0   6  -4    2.09    0.27
   0  -6   4    1.49    0.26
  -1   6  -4   54.44    2.54
  -1   6  -4   58.59    2.55
   1  -6   4   54.62    2.53
  -2   6  -4   28.59    1.38
  -2   6  -4   29.66    1.39
  -3   6  -4    0.14    0.21
  -3   6  -4    0.13    0.21
  -3   6  -4    0.05    0.16
  -4   6  -4   12.21    0.65
  -4   6  -4   12.69    0.70
  -4   6  -4   12.76    0.70
  -5   6  -4   11.16    0.65
  -5   6  -4   11.37    0.66
  -5   6  -4   12.13    0.64
  -6   6  -4   11.26    0.66
  -6   6  -4   11.96    0.67
   6  -6   4   12.38    0.87
  -7   6  -4    0.33    0.22
   7  -6   4    0.18    0.44
  -8   6  -4   -0.02    0.23
   8  -6   4    0.30    0.43
  -9   6  -4   -0.31    0.25
   9  -6   4   -0.66    0.50
  -9  -5   4    1.40    0.49
  -8  -5   4    1.75    0.44
  -7  -5   4   12.74    0.85
  -6  -5   4    4.95    0.46
   5   5  -4    3.14    0.29
  -5  -5   4    2.69    0.36
   4   5  -4    6.34    0.49
  -4  -5   4    6.68    0.53
   3   5  -4   15.88    0.83
   3   5  -4   13.45    0.90
  -3  -5   4   16.26    0.83
   2   5  -4   59.07    2.63
   2   5  -4   56.98    2.64
  -2  -5   4   58.43    2.64
   1   5  -4   61.23    2.83
   1   5  -4   61.94    2.82
  -1  -5   4   64.77    2.83
   0   5  -4  117.30    5.11
   0   5  -4  114.57    5.12
   0  -5   4  113.21    5.10
  -1   5  -4    9.38    0.56
  -1   5  -4   10.01    0.58
   1  -5   4    9.65    0.54
  -2   5  -4   31.12    1.47
  -2   5  -4   32.98    1.45
  -2   5  -4   30.62    1.47
  -3   5  -4   62.46    2.78
  -3   5  -4   62.08    2.79
  -3   5  -4   64.30    2.78
   3  -5   4   59.33    2.76
  -4   5  -4   42.39    1.97
  -4   5  -4   44.71    1.97
  -4   5  -4   42.93    1.96
  -5   5  -4   10.71    0.55
  -5   5  -4   10.30    0.58
  -5   5  -4   10.20    0.58
  -6   5  -4   -0.17    0.19
  -6   5  -4   -0.17    0.19
  -6   5  -4   -0.07    0.16
   6  -5   4    0.20    0.38
  -7   5  -4    0.20    0.20
   7  -5   4    0.89    0.41
  -8   5  -4    0.48    0.22
   8  -5   4   -0.48    0.42
  -9   5  -4    0.17    0.24
   9  -5   4    0.24    0.49
 -10   5  -4    1.27    0.29
  10  -5   4    1.30    0.60
  -9  -4   4    1.48    0.48
  -8  -4   4    1.18    0.41
  -7  -4   4    0.86    0.33
  -6  -4   4    0.64    0.28
   5   4  -4   38.88    1.77
  -5  -4   4   39.34    1.83
   4   4  -4   22.22    1.09
  -4  -4   4   22.98    1.12
  -4  -4   4   23.24    1.10
   3   4  -4   75.52    3.43
  -3  -4   4   77.79    3.43
   2   4  -4   20.11    0.97
   2   4  -4   19.91    0.98
  -2  -4   4   20.12    0.97
   1   4  -4    4.39    0.37
   1   4  -4    4.60    0.34
  -1  -4   4    5.14    0.36
   0   4  -4   12.14    0.65
   0   4  -4   12.79    0.64
   0  -4   4   11.66    0.63
  -1   4  -4  135.80    6.09
  -1   4  -4  136.91    6.08
   1  -4   4  140.05    6.08
  -2   4  -4   35.88    1.62
  -2   4  -4   35.46    1.61
  -2   4  -4   35.91    1.62
   2  -4   4   34.55    1.67
  -3   4  -4   46.28    2.07
  -3   4  -4   45.63    2.06
  -3   4  -4   46.69    2.07
   3  -4   4   44.83    2.04
  -4   4  -4    2.15    0.22
  -4   4  -4    1.97    0.21
  -4   4  -4    2.20    0.19
  -5   4  -4    8.36    0.49
  -5   4  -4    9.26    0.46
  -5   4  -4    8.27    0.49
   5  -4   4    7.69    0.63
  -6   4  -4    9.98    0.52
  -6   4  -4    9.96    0.55
  -6   4  -4    9.66    0.55
   6  -4   4    9.77    0.78
  -7   4  -4    4.21    0.30
   7  -4   4    2.72    0.46
  -8   4  -4    2.72    0.28
   8  -4   4    3.52    0.54
  -9   4  -4    0.16    0.24
   9  -4   4   -0.13    0.47
 -10   4  -4    0.22    0.28
  10  -4   4    0.63    0.57
  -9  -3   4   -0.20    0.38
  -8  -3   4    1.75    0.35
  -7  -3   4    1.42    0.31
  -6  -3   4    8.65    0.58
  -5  -3   4   18.90    0.95
  -5  -3   4   19.23    0.93
   4   3  -4    0.37    0.16
  -4  -3   4    0.68    0.19
  -4  -3   4    0.47    0.16
   3   3  -4    0.13    0.16
  -3  -3   4    0.04    0.17
  -3  -3   4   -0.16    0.14
   2   3  -4   35.58    1.69
   2   3  -4   37.36    1.70
  -2  -3   4   38.89    1.70
   1   3  -4  175.65    7.70
   1   3  -4  179.00    7.69
  -1  -3   4  168.88    7.69
   0   3  -4  124.43    5.31
   0   3  -4  120.12    5.31
   0  -3   4  115.49    5.30
  -1   3  -4    9.00    0.48
  -1   3  -4    9.28    0.50
   1  -3   4    8.94    0.48
  -2   3  -4   18.67    0.83
  -2   3  -4   17.02    0.82
  -2   3  -4   17.07    0.81
   2  -3   4   17.63    0.80
   2  -3   4   15.54    0.82
  -3   3  -4  101.05    4.47
  -3   3  -4  103.28    4.47
  -3   3  -4   99.99    4.46
   3  -3   4   99.75    4.45
  -4   3  -4   22.67    1.07
  -4   3  -4   23.00    1.08
  -4   3  -4   24.05    1.08
  -5   3  -4   22.37    1.09
  -5   3  -4   23.82    1.08
  -5   3  -4   23.88    1.09
   5  -3   4   23.92    1.22
  -6   3  -4    9.95    0.55
  -6   3  -4   10.14    0.55
  -6   3  -4   10.18    0.53
   6  -3   4    9.86    0.78
  -7   3  -4    1.15    0.21
   7  -3   4    0.97    0.41
  -8   3  -4    0.25    0.21
   8  -3   4    0.01    0.43
  -9   3  -4    1.42    0.27
   9  -3   4    0.95    0.51
 -10   3  -4    0.73    0.30
  10  -3   4    0.92    0.59
 -10  -2   4    2.81    0.48
  -9  -2   4    0.49    0.35
  -8  -2   4    0.75    0.30
  -7  -2   4   10.10    0.63
  -6  -2   4    1.52    0.24
  -5  -2   4    1.06    0.17
  -5  -2   4    0.87    0.19
   4   2  -4   33.32    1.53
  -4  -2   4   33.91    1.55
  -4  -2   4   34.67    1.55
   3   2  -4  353.50   15.45
   3   2  -4  351.48   15.46
  -3  -2   4  345.85   15.46
  -3  -2   4  357.21   15.46
   2   2  -4   37.67    1.67
   2   2  -4   36.83    1.67
  -2  -2   4   37.25    1.67
  -2  -2   4   35.65    1.67
   1   2  -4    9.52    0.52
   1   2  -4   10.24    0.52
  -1  -2   4    9.34    0.50
   0   2  -4   34.58    1.54
   0   2  -4   33.98    1.53
   0  -2   4   32.48    1.53
  -1   2  -4    0.48    0.14
  -1   2  -4    0.57    0.14
  -1   2  -4    0.71    0.13
   1  -2   4    1.33    0.14
  -2   2  -4   49.00    2.26
  -2   2  -4   50.92    2.26
  -2   2  -4   51.02    2.25
   2  -2   4   49.58    2.25
   2  -2   4   51.74    2.25
  -3   2  -4   49.68    2.25
  -3   2  -4   49.91    2.25
  -3   2  -4   51.35    2.25
  -4   2  -4  113.29    4.88
  -4   2  -4  110.01    4.88
  -4   2  -4  108.08    4.88
  -5   2  -4    4.83    0.35
  -5   2  -4    4.39    0.34
  -5   2  -4    4.96    0.32
   5  -2   4    4.68    0.44
  -6   2  -4    6.81    0.45
  -6   2  -4    7.62    0.43
  -6   2  -4    7.66    0.45
   6  -2   4    5.79    0.54
  -7   2  -4   12.08    0.66
   7  -2   4   11.69    0.88
  -8   2  -4    4.08    0.35
   8  -2   4    4.51    0.57
  -9   2  -4    0.34    0.27
   9  -2   4    0.01    0.49
 -10  -1   4    1.33    0.41
  -9  -1   4    5.72    0.45
  -8  -1   4    0.33    0.25
  -7  -1   4    2.01    0.26
  -6  -1   4   14.71    0.74
  -6  -1   4   14.71    0.73
  -5  -1   4   24.54    1.11
  -5  -1   4   22.82    1.10
   4   1  -4   30.79    1.40
   4   1  -4   31.12    1.40
  -4  -1   4   31.77    1.43
  -4  -1   4   31.43    1.43
   3   1  -4    7.34    0.41
   3   1  -4    7.35    0.40
   3   1  -4    6.91    0.39
  -3  -1   4    7.49    0.42
  -3  -1   4    7.57    0.40
   2   1  -4   13.35    0.67
   2   1  -4   14.98    0.69
  -2  -1   4   14.12    0.68
  -2  -1   4   13.73    0.68
   1   1  -4   70.91    3.04
   1   1  -4   66.71    3.04
  -1  -1   4   67.03    3.03
   0   1  -4  123.67    5.28
   0   1  -4  121.57    5.28
   0  -1   4  113.13    5.27
  -1   1  -4  190.10    8.80
  -1   1  -4  216.98    8.81
  -1   1  -4  195.82    8.81
   1  -1   4  197.89    8.81
  -2   1  -4   18.62    0.89
  -2   1  -4   18.26    0.88
  -2   1  -4   18.36    0.89
   2  -1   4   19.57    0.89
   2  -1   4   19.51    0.87
  -3   1  -4   11.51    0.58
  -3   1  -4   11.83    0.58
  -3   1  -4   10.86    0.56
  -4   1  -4    2.46    0.23
  -4   1  -4    2.81    0.23
  -4   1  -4    3.03    0.22
   4  -1   4    2.39    0.30
  -5   1  -4   19.83    0.95
  -5   1  -4   20.09    0.97
  -5   1  -4   20.27    0.97
   5  -1   4   20.46    1.07
  -6   1  -4   28.02    1.27
  -6   1  -4   26.83    1.27
  -6   1  -4   26.00    1.25
   6  -1   4   26.81    1.39
  -7   1  -4   21.35    1.05
   7  -1   4   21.43    1.23
  -8   1  -4   -0.39    0.25
   8  -1   4   -0.35    0.40
  -9   1  -4   -0.29    0.29
   9  -1   4    0.22    0.47
 -10   0   4    0.01    0.28
  -9   0   4    0.27    0.26
  -8   0   4    3.04    0.31
  -7   0   4    5.19    0.40
  -6   0   4    4.40    0.32
  -6   0   4    4.19    0.30
  -5   0   4    5.10    0.34
  -5   0   4    5.20    0.33
   4   0  -4    2.79    0.21
  -4   0   4    3.03    0.23
  -4   0   4    3.14    0.22
   3   0  -4    2.11    0.18
   3   0  -4    2.56    0.18
   3   0  -4    2.08    0.19
  -3   0   4    1.82    0.19
  -3   0   4    2.50    0.19
   2   0  -4  117.17    5.16
   2   0  -4  117.33    5.16
  -2   0   4  115.11    5.16
  -2   0   4  117.51    5.16
   1   0  -4  112.54    4.66
   1   0  -4  105.60    4.66
  -1   0   4   97.58    4.65
   0   0  -4  244.55   10.46
   0   0  -4  243.89   10.46
   0   0   4  225.20   10.46
  -1   0  -4    9.18    0.48
  -1   0  -4    9.27    0.48
   1   0   4    8.83    0.48
  -2   0  -4   26.31    1.22
  -2   0  -4   27.22    1.21
  -2   0  -4   25.46    1.22
  -3   0  -4   55.66    2.58
  -3   0  -4   60.89    2.57
  -3   0  -4   57.16    2.58
   3   0   4   56.50    2.60
  -4   0  -4   35.77    1.64
  -4   0  -4   35.44    1.64
  -4   0  -4   35.76    1.63
   4   0   4   36.18    1.69
  -5   0  -4   12.97    0.69
  -5   0  -4   12.34    0.65
  -5   0  -4   12.37    0.68
   5   0   4   13.39    0.78
  -6   0  -4    0.97    0.24
  -6   0  -4    0.72    0.25
   6   0   4    0.88    0.33
  -7   0  -4   -0.28    0.24
   7   0   4   -0.07    0.36
  -8   0  -4    0.15    0.28
   8   0   4    0.64    0.46
  -9   0  -4    2.36    0.37
 -10   1   4    2.05    0.31
  -9   1   4    1.93    0.28
  -8   1   4    0.10    0.20
  -7   1   4    0.16    0.16
  -7   1   4    0.24    0.18
  -6   1   4    1.66    0.18
  -6   1   4    1.17    0.19
  -5   1   4    1.47    0.17
  -5   1   4    1.53    0.18
   4  -1  -4   26.21    1.23
   4  -1  -4   28.15    1.24
  -4   1   4   28.06    1.26
  -4   1   4   27.40    1.26
   3  -1  -4  167.57    7.56
   3  -1  -4  177.18    7.58
   3  -1  -4  167.17    7.57
  -3   1   4  175.09    7.58
  -3   1   4  173.31    7.58
   2  -1  -4   55.51    2.48
   2  -1  -4   55.87    2.49
  -2   1   4   55.05    2.48
  -2   1   4   55.75    2.49
   1  -1  -4   19.50    0.92
   1  -1  -4   19.33    0.92
  -1   1   4   18.94    0.91
   0  -1  -4  278.30   12.08
   0  -1  -4  278.73   12.08
   0   1   4  267.30   12.08
  -1  -1  -4  107.35    4.65
  -1  -1  -4  109.98    4.65
   1   1   4   97.56    4.65
  -2  -1  -4   55.70    2.55
  -2  -1  -4   55.32    2.56
  -2  -1  -4   60.22    2.57
  -3  -1  -4   23.63    1.08
  -3  -1  -4   21.46    1.10
  -3  -1  -4   22.65    1.10
   3   1   4   24.17    1.11
  -4  -1  -4    1.85    0.20
  -4  -1  -4    1.50    0.24
  -4  -1  -4    1.76    0.25
   4   1   4    1.65    0.27
  -5  -1  -4    0.00    0.23
  -5  -1  -4    0.18    0.24
   5   1   4    0.51    0.28
  -6  -1  -4    6.11    0.42
  -6  -1  -4    3.69    0.37
   6   1   4    3.27    0.45
  -7  -1  -4    8.32    0.64
   7   1   4    8.65    0.68
  -8  -1  -4    6.76    0.52
  -9  -1  -4    1.54    0.39
 -10   2   4    1.05    0.26
  -9   2   4    0.65    0.22
  -8   2   4    0.90    0.20
  -7   2   4    2.65    0.24
  -6   2   4   19.67    0.93
  -6   2   4   19.52    0.94
  -6   2   4   18.78    0.93
  -5   2   4    5.59    0.39
  -5   2   4    5.76    0.37
  -5   2   4    5.58    0.38
   4  -2  -4   17.30    0.82
   4  -2  -4   17.34    0.83
  -4   2   4   18.26    0.86
  -4   2   4   18.28    0.87
  -4   2   4   18.41    0.86
   3  -2  -4    0.13    0.14
   3  -2  -4    0.45    0.14
  -3   2   4    0.19    0.16
  -3   2   4    0.18    0.14
  -3   2   4    0.28    0.13
   2  -2  -4    5.85    0.38
   2  -2  -4    5.20    0.38
  -2   2   4    6.14    0.38
  -2   2   4    5.69    0.38
   1  -2  -4  228.91   10.23
   1  -2  -4  232.19   10.23
  -1   2   4  236.41   10.23
  -1   2   4  232.11   10.24
   0  -2  -4   30.66    1.39
   0  -2  -4   28.36    1.39
   0   2   4   30.77    1.41
   0   2   4   30.71    1.39
  -1  -2  -4   57.16    2.53
  -1  -2  -4   57.84    2.53
   1   2   4   53.48    2.53
  -2  -2  -4   14.47    0.73
  -2  -2  -4   14.01    0.73
   2   2   4   13.47    0.69
   2   2   4   13.48    0.70
  -3  -2  -4    1.21    0.24
  -3  -2  -4    1.20    0.24
  -3  -2  -4    1.40    0.19
   3   2   4    1.65    0.19
   3   2   4    1.44    0.22
  -4  -2  -4    4.93    0.40
  -4  -2  -4    5.20    0.41
   4   2   4    6.26    0.48
  -5  -2  -4   10.35    0.64
  -5  -2  -4    6.86    0.56
   5   2   4   10.99    0.67
  -6  -2  -4   17.68    0.97
  -6  -2  -4   16.03    0.95
   6   2   4   17.24    1.01
  -7  -2  -4    4.63    0.46
  -8  -2  -4    0.36    0.38
 -10   3   4    0.15    0.24
  -9   3   4    0.15    0.21
  -8   3   4    2.35    0.25
  -7   3   4   15.36    0.83
  -7   3   4   14.95    0.77
  -6   3   4    0.54    0.19
  -6   3   4    0.77    0.21
  -6   3   4    0.46    0.18
  -5   3   4    0.19    0.18
  -5   3   4    0.03    0.18
  -5   3   4    0.38    0.16
   4  -3  -4    6.07    0.35
   4  -3  -4    5.09    0.33
  -4   3   4    5.74    0.38
  -4   3   4    5.93    0.40
  -4   3   4    5.50    0.37
   3  -3  -4    5.15    0.39
   3  -3  -4    4.72    0.36
  -3   3   4    5.51    0.36
  -3   3   4    5.63    0.36
  -3   3   4    4.92    0.37
   2  -3  -4    3.36    0.28
   2  -3  -4    2.75    0.28
  -2   3   4    4.41    0.32
  -2   3   4    3.45    0.27
  -2   3   4    4.06    0.25
   1  -3  -4    5.05    0.37
   1  -3  -4    4.71    0.38
  -1   3   4    5.03    0.37
  -1   3   4    4.99    0.40
   0  -3  -4   46.94    2.17
   0  -3  -4   47.98    2.17
   0   3   4   47.98    2.18
   0   3   4   47.78    2.16
  -1  -3  -4    1.39    0.24
  -1  -3  -4    1.81    0.25
   1   3   4    1.66    0.14
   1   3   4    1.57    0.24
   1   3   4    1.65    0.23
  -2  -3  -4   45.08    1.89
  -2  -3  -4   39.07    1.88
   2   3   4   40.28    1.86
   2   3   4   38.18    1.82
  -3  -3  -4    9.43    0.64
  -3  -3  -4    9.59    0.63
   3   3   4    9.72    0.57
   3   3   4   10.48    0.56
  -4  -3  -4   12.85    0.80
  -4  -3  -4   13.88    0.79
   4   3   4   12.64    0.75
  -5  -3  -4    0.34    0.32
  -5  -3  -4    0.36    0.33
  -6  -3  -4   -0.29    0.35
  -6  -3  -4   -0.22    0.35
  -7  -3  -4    1.09    0.40
  -8  -3  -4    0.26    0.43
 -10   4   4    0.16    0.24
  -9   4   4    1.92    0.28
  -8   4   4    0.63    0.24
  -7   4   4    3.60    0.32
  -7   4   4    4.08    0.38
  -6   4   4    0.85    0.23
  -6   4   4    0.78    0.23
  -5   4   4    9.93    0.55
  -5   4   4    9.15    0.59
  -5   4   4    9.52    0.56
   4  -4  -4   -0.03    0.16
  -4   4   4    0.10    0.17
  -4   4   4    0.23    0.20
  -4   4   4    0.32    0.22
   3  -4  -4    0.42    0.20
  -3   4   4    0.01    0.19
  -3   4   4    0.20    0.22
   2  -4  -4    4.14    0.33
   2  -4  -4    4.49    0.32
  -2   4   4    3.67    0.24
  -2   4   4    3.29    0.30
  -2   4   4    4.11    0.34
   1  -4  -4    9.02    0.56
   1  -4  -4    9.07    0.55
  -1   4   4    9.19    0.58
  -1   4   4    9.00    0.54
   0  -4  -4    6.70    0.49
   0  -4  -4    7.01    0.49
   0   4   4    6.61    0.51
   0   4   4    6.67    0.49
  -1  -4  -4   91.28    3.85
  -1  -4  -4   85.23    3.85
   1   4   4   80.39    3.82
   1   4   4   85.61    3.85
  -2  -4  -4    6.64    0.56
  -2  -4  -4    7.35    0.56
   2   4   4    7.23    0.55
   2   4   4    6.95    0.48
  -3  -4  -4    8.58    0.69
  -3  -4  -4    9.54    0.67
  -4  -4  -4    0.33    0.34
  -4  -4  -4    0.16    0.33
  -5  -4  -4    1.28    0.39
  -6  -4  -4    6.24    0.58
  -6  -4  -4    5.81    0.59
  -7  -4  -4    1.63    0.48
  -8  -4  -4   11.61    0.85
 -10   5   4    0.04    0.26
  -9   5   4   -0.02    0.26
  -8   5   4    0.20    0.26
  -7   5   4    2.69    0.32
  -7   5   4    3.47    0.38
  -6   5   4    2.04    0.31
  -6   5   4    1.86    0.28
   5  -5  -4    6.08    0.37
  -5   5   4    6.09    0.48
  -5   5   4    6.74    0.53
   4  -5  -4    1.12    0.23
  -4   5   4    1.48    0.29
  -4   5   4    0.76    0.24
   3  -5  -4    0.74    0.23
  -3   5   4    0.47    0.23
  -3   5   4    0.86    0.27
   2  -5  -4    0.03    0.20
   2  -5  -4    0.12    0.23
  -2   5   4    0.50    0.23
  -2   5   4    0.41    0.26
   1  -5  -4    5.61    0.42
   1  -5  -4    4.95    0.41
  -1   5   4    5.18    0.42
  -1   5   4    5.98    0.42
   0  -5  -4   17.53    0.92
   0  -5  -4   16.91    0.92
   0   5   4   16.73    0.91
   0   5   4   16.26    0.88
  -1  -5  -4    0.75    0.31
  -1  -5  -4    0.54    0.29
   1   5   4    0.73    0.29
   1   5   4    0.70    0.24
  -2  -5  -4   73.03    3.22
  -2  -5  -4   70.47    3.21
   2   5   4   66.32    3.19
   2   5   4   71.10    3.17
  -3  -5  -4   16.91    0.99
  -3  -5  -4   17.09    0.98
   3   5   4   15.19    0.94
  -4  -5  -4    5.33    0.55
  -4  -5  -4    7.26    0.60
  -5  -5  -4    5.29    0.58
  -5  -5  -4    5.12    0.57
  -6  -5  -4    2.74    0.57
  -6  -5  -4    1.80    0.53
  -7  -5  -4   -0.10    0.55
  -9   6   4   -0.13    0.29
  -8   6   4    0.22    0.29
  -7   6   4    0.67    0.29
  -7   6   4    0.72    0.35
  -6   6   4    0.85    0.32
  -6   6   4    0.04    0.25
   5  -6  -4    0.05    0.19
  -5   6   4    0.16    0.30
  -5   6   4    0.22    0.25
   4  -6  -4   15.26    0.83
  -4   6   4   15.56    0.85
  -4   6   4   15.50    0.90
   3  -6  -4    5.95    0.46
  -3   6   4    7.86    0.54
  -3   6   4    6.17    0.47
   2  -6  -4    0.29    0.26
   2  -6  -4    0.13    0.24
  -2   6   4    0.06    0.26
  -2   6   4   -0.35    0.29
   1  -6  -4    0.48    0.29
   1  -6  -4    0.31    0.29
  -1   6   4   -0.31    0.26
  -1   6   4    0.19    0.29
   0  -6  -4    0.59    0.33
   0  -6  -4    0.64    0.32
   0   6   4    0.02    0.26
   0   6   4    0.05    0.30
  -1  -6  -4    6.36    0.55
  -1  -6  -4    5.60    0.52
   1   6   4    5.33    0.49
   1   6   4    6.41    0.46
  -2  -6  -4   16.36    0.99
   2   6   4   15.48    0.95
  -3  -6  -4    1.59    0.43
  -3  -6  -4    0.58    0.43
   3   6   4    1.09    0.37
  -4  -6  -4    4.00    0.55
  -4  -6  -4    4.74    0.58
  -5  -6  -4   -0.27    0.51
  -5  -6  -4   -0.32    0.51
  -6  -6  -4    0.69    0.59
  -6  -6  -4    0.62    0.58
  -9   7   4   -0.21    0.33
  -8   7   4    0.28    0.32
  -7   7   4   -0.08    0.39
  -7   7   4   -0.20    0.29
  -6   7   4    0.03    0.29
  -6   7   4   -0.15    0.35
   5  -7  -4    6.24    0.52
  -5   7   4    8.09    0.58
  -5   7   4    7.19    0.59
   4  -7  -4    1.53    0.29
  -4   7   4    1.82    0.39
  -4   7   4    1.17    0.32
   3  -7  -4    3.29    0.40
  -3   7   4    4.02    0.41
  -3   7   4    4.40    0.46
   2  -7  -4    0.60    0.33
  -2   7   4    0.39    0.35
  -2   7   4   -0.17    0.30
   1  -7  -4    3.61    0.43
   1  -7  -4    4.56    0.45
  -1   7   4    3.79    0.42
  -1   7   4    3.71    0.45
   0  -7  -4    3.16    0.45
   0  -7  -4    3.02    0.45
   0   7   4    2.73    0.38
   0   7   4    2.36    0.41
  -1  -7  -4    9.21    0.69
  -1  -7  -4    7.69    0.67
   1   7   4    9.32    0.76
   1   7   4   10.08    0.70
  -2  -7  -4    6.44    0.61
  -2  -7  -4    4.80    0.56
   2   7   4    5.64    0.54
  -3  -7  -4    0.59    0.47
  -3  -7  -4   -0.02    0.47
   3   7   4   -0.12    0.39
  -4  -7  -4   -0.59    0.53
  -4  -7  -4    0.15    0.54
  -5  -7  -4    6.22    0.76
  -5  -7  -4    7.94    0.80
  -6  -7  -4    2.41    0.71
  -8   8   4   -0.17    0.35
  -7   8   4    0.09    0.46
  -7   8   4   -0.27    0.33
  -6   8   4    1.37    0.43
  -6   8   4    1.40    0.36
   5  -8  -4    1.65    0.30
  -5   8   4    1.80    0.44
  -5   8   4    0.76    0.35
   4  -8  -4    0.61    0.30
  -4   8   4    0.42    0.35
  -4   8   4    0.29    0.41
   3  -8  -4    0.85    0.36
  -3   8   4    0.47    0.36
  -3   8   4    0.37    0.41
   2  -8  -4    0.38    0.38
  -2   8   4    0.30    0.43
  -2   8   4    0.81    0.38
   1  -8  -4    1.94    0.43
  -1   8   4    2.27    0.42
  -1   8   4    2.21    0.45
   0  -8  -4   -0.15    0.42
   0  -8  -4    0.30    0.44
   0   8   4    0.36    0.41
   0   8   4    0.16    0.35
  -1  -8  -4    0.67    0.46
  -1  -8  -4   -0.27    0.46
   1   8   4    0.25    0.42
  -2  -8  -4   -0.27    0.48
  -2  -8  -4    0.84    0.52
   2   8   4    0.14    0.44
  -3  -8  -4    1.31    0.58
  -3  -8  -4    1.65    0.58
   3   8   4    1.11    0.48
  -4  -8  -4    2.43    0.65
  -4  -8  -4    1.55    0.65
  -5  -8  -4    0.41    0.67
  -5  -8  -4    0.00    0.66
  -8   9   4   -0.23    0.40
  -7   9   4   -0.44    0.38
  -6   9   4    0.08    0.47
  -6   9   4    0.30    0.37
   5  -9  -4    0.04    0.28
  -5   9   4    0.84    0.48
  -5   9   4   -0.47    0.38
   4  -9  -4    0.02    0.33
  -4   9   4    0.60    0.50
  -4   9   4    0.20    0.40
   3  -9  -4    0.87    0.39
  -3   9   4    0.39    0.50
  -3   9   4   -0.31    0.41
   2  -9  -4   -0.19    0.41
  -2   9   4   -0.57    0.40
  -2   9   4   -0.07    0.49
   1  -9  -4    3.10    0.52
  -1   9   4    2.48    0.48
  -1   9   4    2.93    0.54
   0  -9  -4    1.19    0.52
   0   9   4    2.62    0.52
  -1  -9  -4    2.55    0.60
  -1  -9  -4    1.98    0.55
   1   9   4    1.77    0.53
  -2  -9  -4   -0.11    0.56
  -2  -9  -4    0.26    0.58
   2   9   4    0.79    0.52
  -3  -9  -4   -0.20    0.62
  -3  -9  -4   -0.34    0.62
   3   9   4   -0.77    0.51
  -4  -9  -4    1.47    0.70
  -7  10   4   -0.06    0.44
  -6  10   4    0.66    0.45
  -6  10   4    1.26    0.59
  -5  10   4    0.35    0.57
  -5  10   4    0.46    0.46
   4 -10  -4    0.00    0.37
  -4  10   4   -0.98    0.45
  -4  10   4    0.23    0.58
   3 -10  -4    0.55    0.42
  -3  10   4    1.04    0.50
  -3  10   4    0.06    0.58
   2 -10  -4    0.95    0.49
  -2  10   4    0.71    0.49
  -2  10   4    1.14    0.60
   1 -10  -4    0.69    0.50
  -1  10   4    0.45    0.55
   0 -10  -4    0.25    0.55
   0  10   4   -0.21    0.53
  -1 -10  -4    0.09    0.60
   1  10   4   -0.11    0.56
  -2 -10  -4    0.28    0.67
   2  10   4    0.31    0.57
  -5  11   4    0.04    0.66
  -5  11   4   -0.12    0.53
   4 -11  -4    0.19    0.42
  -4  11   4   -0.11    0.53
  -4  11   4   -0.04    0.66
   3 -11  -4   -0.08    0.45
  -3  11   4    0.32    0.54
  -3  11   4    0.60    0.67
   2 -11  -4   -0.52    0.52
  -2  11   4   -0.89    0.54
  -2  11   4    0.48    0.66
   1 -11  -4    0.24    0.55
  -1  11   4   -0.46    0.62
   0 -11  -4   -0.30    0.60
   0  11   4    0.90    0.64
   1  13  -5    0.21    0.66
   0  13  -5   -0.09    0.64
  -1  13  -5    1.25    0.69
  -2  13  -5   -0.24    0.57
  -2  13  -5    1.30    0.71
  -3  13  -5   -0.58    0.65
  -3  13  -5   -0.27    0.56
  -4  13  -5    0.58    0.68
   3  12  -5    0.67    0.59
   2  12  -5    0.24    0.58
   1  12  -5    0.68    0.58
   0  12  -5    2.01    0.62
  -1  12  -5    1.39    0.55
  -1  12  -5    0.81    0.61
  -2  12  -5    1.36    0.62
  -2  12  -5    2.07    0.57
  -3  12  -5    0.96    0.60
  -4  12  -5    0.45    0.58
  -4  12  -5   -0.13    0.55
  -5  12  -5    0.20    0.57
  -5  12  -5    0.01    0.55
  -6  12  -5    1.03    0.57
  -6  12  -5   -0.01    0.57
   6 -12   5    0.02    0.53
   4  11  -5    0.53    0.56
  -4 -11   5    0.81    0.61
   3  11  -5    0.25    0.53
  -3 -11   5    1.10    0.55
   2  11  -5    2.50    0.57
  -2 -11   5    1.93    0.54
   1  11  -5    5.37    0.66
   0  11  -5    1.98    0.50
   0  11  -5    0.65    0.51
  -1  11  -5   -0.01    0.51
  -2  11  -5    2.24    0.58
  -2  11  -5    2.57    0.53
  -3  11  -5    0.33    0.52
  -3  11  -5    1.52    0.50
  -4  11  -5    1.06    0.51
  -4  11  -5    1.15    0.49
  -5  11  -5   -0.28    0.44
  -5  11  -5    0.51    0.50
  -6  11  -5   -0.20    0.46
  -6  11  -5    0.38    0.48
   6 -11   5   -0.43    0.50
  -7  11  -5   -0.65    0.47
   7 -11   5    0.10    0.55
   5  10  -5    2.62    0.52
  -5 -10   5    1.76    0.63
   4  10  -5    4.32    0.58
  -4 -10   5    4.49    0.64
   3  10  -5    6.69    0.66
  -3 -10   5    5.43    0.63
   2  10  -5    0.75    0.47
  -2 -10   5    1.31    0.47
   1  10  -5    0.44    0.42
   1  10  -5    0.18    0.44
  -1 -10   5    0.74    0.44
   0  10  -5    7.06    0.67
  -1  10  -5    5.30    0.63
  -1  10  -5    6.88    0.60
  -2  10  -5    7.52    0.67
  -2  10  -5    8.30    0.64
  -3  10  -5    3.65    0.49
  -3  10  -5    3.32    0.52
  -4  10  -5    0.79    0.42
  -4  10  -5    0.20    0.44
  -5  10  -5   -0.12    0.41
  -5  10  -5    0.41    0.40
  -6  10  -5   -0.16    0.41
  -6  10  -5    0.24    0.43
  -7  10  -5    2.67    0.49
   7 -10   5    2.46    0.60
  -8  10  -5   -0.01    0.42
   8 -10   5   -0.85    0.56
  -6  -9   5    3.84    0.70
   5   9  -5    3.93    0.52
  -5  -9   5    4.55    0.64
   4   9  -5    0.78    0.43
  -4  -9   5    0.54    0.49
   3   9  -5    0.29    0.42
  -3  -9   5    0.65    0.43
   2   9  -5    3.98    0.51
  -2  -9   5    4.32    0.52
   1   9  -5   11.03    0.92
  -1  -9   5   12.13    0.85
   0   9  -5    1.16    0.41
   0   9  -5    1.35    0.39
   0  -9   5    1.13    0.36
  -1   9  -5   29.61    1.55
  -1   9  -5   31.59    1.59
   1  -9   5   30.63    1.61
  -2   9  -5   -0.34    0.35
  -2   9  -5    1.05    0.41
  -3   9  -5    1.56    0.39
  -3   9  -5    1.49    0.40
  -4   9  -5    5.62    0.52
  -4   9  -5    4.32    0.49
  -5   9  -5    3.44    0.45
  -5   9  -5    3.88    0.47
  -6   9  -5    0.99    0.38
  -6   9  -5    0.81    0.39
  -7   9  -5    1.71    0.40
   7  -9   5    1.23    0.54
  -8   9  -5    0.30    0.37
   8  -9   5    0.28    0.57
  -7  -8   5    0.34    0.62
  -6  -8   5    0.90    0.55
   5   8  -5    1.66    0.41
  -5  -8   5    1.89    0.52
   4   8  -5   11.06    0.86
  -4  -8   5   12.06    0.92
   3   8  -5   13.13    0.91
  -3  -8   5   12.69    0.90
   2   8  -5   12.84    0.89
   2   8  -5   14.51    0.88
  -2  -8   5   13.32    0.88
   1   8  -5    6.56    0.58
   1   8  -5    7.85    0.56
  -1  -8   5    8.77    0.66
   0   8  -5   -0.13    0.33
   0   8  -5    0.10    0.31
   0  -8   5    0.02    0.29
  -1   8  -5   52.07    2.42
  -1   8  -5   52.25    2.40
   1  -8   5   49.97    2.37
  -2   8  -5    2.63    0.38
  -2   8  -5    2.10    0.39
  -3   8  -5   27.78    1.43
  -3   8  -5   28.03    1.40
  -4   8  -5    3.66    0.41
  -4   8  -5    3.03    0.38
  -5   8  -5    0.02    0.29
  -5   8  -5    0.50    0.33
  -6   8  -5    0.45    0.32
  -6   8  -5    1.05    0.34
  -7   8  -5    1.37    0.35
   7  -8   5    0.01    0.49
  -8   8  -5    0.79    0.36
   8  -8   5    0.59    0.56
  -9   8  -5    0.17    0.35
   9  -8   5    0.22    0.56
  -8  -7   5    0.05    0.60
  -7  -7   5    0.11    0.53
  -6  -7   5    9.17    0.75
   5   7  -5   28.59    1.44
  -5  -7   5   29.43    1.50
   4   7  -5    3.33    0.39
  -4  -7   5    2.49    0.39
   3   7  -5   14.55    0.89
  -3  -7   5   14.18    0.87
   2   7  -5    1.70    0.34
  -2  -7   5    1.53    0.34
   1   7  -5   14.65    0.88
   1   7  -5   14.18    0.84
  -1  -7   5   14.84    0.85
   0   7  -5   35.34    1.73
   0   7  -5   35.81    1.72
   0  -7   5   37.16    1.72
  -1   7  -5   38.30    1.86
  -1   7  -5   39.01    1.85
   1  -7   5   39.84    1.83
  -2   7  -5   26.30    1.33
  -2   7  -5   27.23    1.32
   2  -7   5   26.47    1.33
  -3   7  -5    2.63    0.34
  -3   7  -5    2.81    0.34
  -4   7  -5    0.52    0.28
  -4   7  -5    0.05    0.27
  -5   7  -5    6.50    0.48
  -5   7  -5    6.70    0.49
  -6   7  -5    2.91    0.36
  -6   7  -5    2.13    0.34
   6  -7   5    2.59    0.49
  -7   7  -5    2.03    0.34
   7  -7   5    2.17    0.53
  -8   7  -5    0.68    0.31
   8  -7   5    0.89    0.52
  -9   7  -5   -0.42    0.32
   9  -7   5    0.44    0.56
  -8  -6   5    1.18    0.49
  -7  -6   5    3.85    0.51
  -6  -6   5    2.85    0.44
   5   6  -5    5.17    0.41
  -5  -6   5    4.52    0.46
   4   6  -5    0.23    0.28
  -4  -6   5   -0.08    0.30
   3   6  -5   10.66    0.65
   3   6  -5   10.83    0.69
  -3  -6   5    8.61    0.67
   2   6  -5   41.71    1.92
   2   6  -5   38.88    1.88
  -2  -6   5   41.14    1.90
   1   6  -5   63.69    3.05
   1   6  -5   68.32    3.04
  -1  -6   5   69.46    3.05
   0   6  -5    8.90    0.59
   0   6  -5    7.52    0.55
   0  -6   5    6.52    0.53
  -1   6  -5    0.27    0.25
  -1   6  -5    0.08    0.22
   1  -6   5    0.13    0.21
  -2   6  -5    7.47    0.49
  -2   6  -5    5.26    0.44
  -3   6  -5   35.52    1.66
  -3   6  -5   35.87    1.66
  -3   6  -5   34.44    1.63
  -4   6  -5    2.23    0.29
  -4   6  -5    1.96    0.29
  -5   6  -5   15.28    0.79
  -5   6  -5   13.14    0.78
  -6   6  -5    3.01    0.32
  -6   6  -5    3.40    0.33
   6  -6   5    2.53    0.46
  -7   6  -5    0.02    0.25
   7  -6   5   -0.31    0.45
  -8   6  -5    1.25    0.29
   8  -6   5    1.01    0.53
  -9   6  -5    0.64    0.30
   9  -6   5    0.83    0.55
  -9  -5   5   -0.09    0.47
  -8  -5   5    3.27    0.51
  -7  -5   5    0.14    0.38
  -6  -5   5    0.25    0.33
   5   5  -5    9.99    0.61
  -5  -5   5   10.02    0.70
   4   5  -5   56.93    2.59
  -4  -5   5   56.57    2.60
   3   5  -5   71.23    3.18
  -3  -5   5   69.57    3.18
   2   5  -5    0.32    0.22
   2   5  -5    0.53    0.23
  -2  -5   5    0.05    0.21
   1   5  -5    2.10    0.29
   1   5  -5    1.91    0.27
  -1  -5   5    1.88    0.26
   0   5  -5   13.74    0.83
   0   5  -5   16.40    0.82
   0  -5   5   16.56    0.81
  -1   5  -5   37.96    1.78
  -1   5  -5   37.50    1.77
   1  -5   5   39.14    1.76
  -2   5  -5   52.32    2.37
  -2   5  -5   51.45    2.36
  -3   5  -5   35.46    1.62
  -3   5  -5   36.32    1.64
  -3   5  -5   34.02    1.63
  -4   5  -5   32.73    1.49
  -4   5  -5   31.14    1.51
  -4   5  -5   33.24    1.52
  -5   5  -5    4.32    0.34
  -5   5  -5    4.36    0.34
  -6   5  -5    3.95    0.35
  -6   5  -5    4.91    0.36
   6  -5   5    4.89    0.54
  -7   5  -5    7.59    0.53
   7  -5   5    6.34    0.66
  -8   5  -5    1.04    0.28
   8  -5   5    0.13    0.46
  -9   5  -5    0.98    0.30
   9  -5   5    0.69    0.53
  -9  -4   5    1.83    0.50
  -8  -4   5    2.21    0.43
  -7  -4   5    7.32    0.56
  -6  -4   5   22.66    1.17
   5   4  -5   23.53    1.12
  -5  -4   5   23.67    1.18
   4   4  -5    3.45    0.30
  -4  -4   5    2.70    0.32
   3   4  -5    1.42    0.25
  -3  -4   5    0.75    0.23
   2   4  -5    4.99    0.39
   2   4  -5    3.94    0.34
  -2  -4   5    4.80    0.39
   1   4  -5   87.80    3.84
   1   4  -5   85.87    3.85
  -1  -4   5   84.11    3.83
   0   4  -5  127.10    5.53
   0   4  -5  122.80    5.52
   0  -4   5  123.41    5.51
  -1   4  -5   77.06    3.26
  -1   4  -5   68.74    3.24
   1  -4   5   71.67    3.24
  -2   4  -5    4.82    0.33
  -2   4  -5    4.20    0.35
  -2   4  -5    4.37    0.32
  -3   4  -5    0.17    0.18
  -3   4  -5    0.17    0.18
  -3   4  -5    0.05    0.14
   3  -4   5    0.27    0.13
  -4   4  -5   29.16    1.36
  -4   4  -5   28.76    1.37
  -4   4  -5   30.45    1.38
  -5   4  -5   14.35    0.74
  -5   4  -5   13.62    0.71
  -5   4  -5   14.20    0.74
  -6   4  -5   16.76    0.86
  -6   4  -5   15.78    0.85
   6  -4   5   18.17    1.06
  -7   4  -5    1.92    0.27
   7  -4   5    1.45    0.47
  -8   4  -5    0.13    0.25
   8  -4   5   -0.19    0.43
  -9   4  -5    0.58    0.29
   9  -4   5    0.53    0.50
  -9  -3   5    1.45    0.43
  -8  -3   5    4.28    0.47
  -7  -3   5    2.91    0.37
  -6  -3   5    2.51    0.33
   5   3  -5    3.84    0.31
  -5  -3   5    3.86    0.34
   4   3  -5    2.51    0.24
  -4  -3   5    2.34    0.24
  -4  -3   5    2.16    0.26
   3   3  -5   31.16    1.46
  -3  -3   5   31.67    1.46
   2   3  -5   90.70    4.10
   2   3  -5   93.55    4.11
  -2  -3   5   92.36    4.10
   1   3  -5  118.65    5.29
   1   3  -5  120.05    5.30
  -1  -3   5  119.24    5.29
   0   3  -5   29.03    1.39
   0   3  -5   30.15    1.38
   0  -3   5   29.72    1.37
  -1   3  -5   41.45    1.92
  -1   3  -5   43.64    1.92
   1  -3   5   41.40    1.91
  -2   3  -5   93.59    4.14
  -2   3  -5   92.19    4.15
  -2   3  -5   93.97    4.15
  -3   3  -5   76.27    3.45
  -3   3  -5   78.78    3.45
  -3   3  -5   76.61    3.44
   3  -3   5   77.51    3.43
  -4   3  -5    3.73    0.30
  -4   3  -5    4.37    0.31
  -4   3  -5    3.47    0.26
  -5   3  -5    6.13    0.47
  -5   3  -5    6.93    0.46
  -5   3  -5    6.56    0.42
   5  -3   5    7.12    0.60
  -6   3  -5    0.76    0.23
  -6   3  -5    0.89    0.23
   6  -3   5    0.10    0.38
  -7   3  -5    0.73    0.25
   7  -3   5    0.82    0.42
  -8   3  -5    2.07    0.31
   8  -3   5    2.59    0.53
  -9   3  -5    2.45    0.35
   9  -3   5    1.70    0.55
 -10  -2   5   -0.26    0.41
  -9  -2   5   -0.74    0.35
  -8  -2   5   -0.14    0.31
  -7  -2   5    0.13    0.26
  -6  -2   5    8.90    0.57
   5   2  -5   14.25    0.71
   5   2  -5   14.97    0.70
  -5  -2   5   14.49    0.75
  -5  -2   5   15.25    0.77
   4   2  -5   89.49    3.95
  -4  -2   5   88.02    3.96
  -4  -2   5   89.36    3.96
   3   2  -5   29.33    1.37
  -3  -2   5   29.54    1.36
  -3  -2   5   29.33    1.36
   2   2  -5   -0.17    0.16
   2   2  -5    0.29    0.16
  -2  -2   5    0.14    0.16
   1   2  -5   28.73    1.33
   1   2  -5   28.46    1.33
  -1  -2   5   28.46    1.32
   0   2  -5  127.09    5.53
   0   2  -5  125.40    5.54
   0  -2   5  122.49    5.53
  -1   2  -5   53.30    2.36
  -1   2  -5   51.59    2.35
   1  -2   5   51.79    2.34
  -2   2  -5   70.47    3.08
  -2   2  -5   67.26    3.08
  -3   2  -5    2.88    0.26
  -3   2  -5    2.82    0.26
  -3   2  -5    3.22    0.25
  -4   2  -5    0.11    0.18
  -4   2  -5    0.10    0.15
  -4   2  -5   -0.14    0.17
  -5   2  -5    8.91    0.53
  -5   2  -5    8.72    0.49
  -5   2  -5    8.57    0.53
   5  -2   5    7.44    0.59
  -6   2  -5    4.45    0.36
  -6   2  -5    4.65    0.36
   6  -2   5    3.29    0.47
  -7   2  -5    9.43    0.63
   7  -2   5   10.38    0.77
  -8   2  -5    1.95    0.32
   8  -2   5    2.34    0.50
  -9   2  -5    0.14    0.31
   9  -2   5   -0.42    0.46
 -10  -1   5    0.95    0.37
  -9  -1   5    0.25    0.31
  -8  -1   5    2.19    0.32
  -7  -1   5   10.85    0.64
  -6  -1   5    6.40    0.46
  -5  -1   5    6.20    0.41
  -5  -1   5    6.64    0.44
   4   1  -5    0.19    0.13
   4   1  -5    0.08    0.14
  -4  -1   5    0.06    0.17
  -4  -1   5    0.18    0.14
   3   1  -5    9.54    0.53
  -3  -1   5    9.61    0.52
  -3  -1   5    9.38    0.53
   2   1  -5   42.65    1.94
   2   1  -5   42.15    1.93
  -2  -1   5   43.23    1.94
   1   1  -5  193.59    8.19
   1   1  -5  178.55    8.18
  -1  -1   5  184.58    8.18
   0   1  -5    6.01    0.40
   0   1  -5    6.24    0.38
   0  -1   5    4.76    0.37
  -1   1  -5   76.90    3.39
  -1   1  -5   76.95    3.39
   1  -1   5   74.22    3.38
  -2   1  -5    3.56    0.27
  -2   1  -5    3.51    0.29
  -2   1  -5    3.59    0.27
  -3   1  -5   14.15    0.72
  -3   1  -5   15.13    0.75
  -3   1  -5   14.87    0.75
  -4   1  -5   43.40    1.98
  -4   1  -5   43.59    1.99
  -4   1  -5   43.41    1.99
   4  -1   5   44.59    2.05
  -5   1  -5   30.37    1.48
  -5   1  -5   30.80    1.45
  -5   1  -5   30.94    1.45
   5  -1   5   30.88    1.54
  -6   1  -5   20.11    0.99
  -6   1  -5   18.41    0.98
   6  -1   5   19.40    1.11
  -7   1  -5    0.24    0.26
   7  -1   5    0.19    0.39
  -8   1  -5    0.27    0.31
   8  -1   5    0.35    0.44
  -9   1  -5    0.29    0.33
   9  -1   5    0.08    0.51
 -10   0   5    0.16    0.32
  -9   0   5    0.02    0.28
  -8   0   5    6.31    0.52
  -7   0   5    2.85    0.30
  -6   0   5    1.76    0.24
  -5   0   5   15.47    0.77
  -5   0   5   14.93    0.76
   4   0  -5   31.31    1.40
   4   0  -5   30.55    1.40
  -4   0   5   31.71    1.42
  -4   0   5   29.20    1.41
   3   0  -5   17.03    0.83
   3   0  -5   17.03    0.82
  -3   0   5   17.07    0.83
  -3   0   5   17.11    0.83
   2   0  -5    9.53    0.55
   2   0  -5    9.89    0.53
  -2   0   5    9.75    0.54
   1   0  -5   70.45    3.09
   1   0  -5   69.48    3.10
  -1   0   5   67.38    3.09
   0   0  -5  115.93    5.10
   0   0  -5  118.42    5.11
   0   0   5  111.15    5.10
  -1   0  -5  122.46    5.54
  -1   0  -5  128.83    5.54
   1   0   5  124.16    5.54
  -2   0  -5   50.94    2.37
  -2   0  -5   53.94    2.37
  -3   0  -5   88.95    3.91
  -3   0  -5   84.52    3.91
  -3   0  -5   89.73    3.90
  -4   0  -5   15.21    0.80
  -4   0  -5   15.85    0.81
  -4   0  -5   14.92    0.77
   4   0   5   15.21    0.86
  -5   0  -5    5.70    0.41
  -5   0  -5    4.93    0.40
   5   0   5    4.81    0.47
  -6   0  -5    2.40    0.33
  -6   0  -5    3.56    0.35
   6   0   5    2.61    0.42
  -7   0  -5    1.98    0.34
   7   0   5    1.54    0.44
  -8   0  -5    0.57    0.34
   8   0   5    0.28    0.45
  -9   0  -5    0.22    0.36
   9   0   5    0.02    0.50
 -10   1   5   -0.13    0.30
  -9   1   5    0.14    0.27
  -8   1   5    2.64    0.31
  -7   1   5   -0.19    0.20
  -6   1   5    4.59    0.34
  -5   1   5   20.07    0.98
  -5   1   5   20.55    0.98
   4  -1  -5    0.20    0.13
   4  -1  -5    0.43    0.16
  -4   1   5    0.51    0.18
  -4   1   5    0.34    0.15
   3  -1  -5    5.31    0.38
   3  -1  -5    6.40    0.44
  -3   1   5    5.54    0.37
  -3   1   5    5.51    0.39
   2  -1  -5    1.82    0.22
   2  -1  -5    1.69    0.21
  -2   1   5    2.19    0.22
   1  -1  -5   95.49    4.07
   1  -1  -5   85.85    4.06
  -1   1   5   92.77    4.07
   0  -1  -5   55.52    2.44
   0  -1  -5   53.32    2.44
   0   1   5   53.01    2.43
  -1  -1  -5   77.11    3.42
  -1  -1  -5   79.46    3.42
   1   1   5   72.70    3.41
  -2  -1  -5   14.22    0.75
  -2  -1  -5   15.00    0.76
   2   1   5   14.19    0.74
  -3  -1  -5   10.35    0.60
  -3  -1  -5   10.33    0.59
  -3  -1  -5    8.17    0.59
   3   1   5   10.95    0.60
   3   1   5    8.99    0.51
  -4  -1  -5   29.80    1.42
  -4  -1  -5   29.13    1.41
   4   1   5   29.45    1.44
  -5  -1  -5   20.19    1.07
  -5  -1  -5   22.09    1.07
   5   1   5   19.96    1.11
  -6  -1  -5   12.81    0.79
  -6  -1  -5   12.88    0.81
   6   1   5   12.39    0.88
  -7  -1  -5    0.41    0.34
   7   1   5    0.10    0.40
  -8  -1  -5    1.56    0.39
   8   1   5    0.67    0.47
 -10   2   5    0.26    0.29
  -9   2   5    0.37    0.25
  -8   2   5    0.13    0.24
  -7   2   5    9.95    0.59
  -6   2   5    2.09    0.24
  -5   2   5    0.63    0.19
  -5   2   5    0.46    0.18
   4  -2  -5   12.76    0.64
  -4   2   5   12.45    0.68
  -4   2   5   11.86    0.66
  -4   2   5   12.34    0.65
   3  -2  -5   66.63    2.99
  -3   2   5   67.21    3.00
  -3   2   5   66.11    2.99
   2  -2  -5   46.71    2.16
   2  -2  -5   47.06    2.15
  -2   2   5   47.32    2.17
  -2   2   5   48.40    2.15
   1  -2  -5   73.42    3.30
   1  -2  -5   70.45    3.29
  -1   2   5   75.19    3.30
  -1   2   5   75.22    3.31
   0  -2  -5    9.14    0.53
   0   2   5    7.85    0.52
  -1  -2  -5    0.90    0.22
  -1  -2  -5    0.78    0.21
   1   2   5    1.20    0.21
  -2  -2  -5    4.25    0.36
  -2  -2  -5    4.48    0.37
   2   2   5    4.71    0.39
   2   2   5    4.95    0.37
  -3  -2  -5  163.43    7.00
  -3  -2  -5  148.81    7.00
   3   2   5  167.10    6.99
   3   2   5  151.96    6.97
  -4  -2  -5   11.46    0.73
  -4  -2  -5   10.93    0.73
   4   2   5   12.15    0.71
  -5  -2  -5    5.48    0.48
  -5  -2  -5    5.00    0.47
   5   2   5    5.33    0.47
  -6  -2  -5    0.01    0.35
  -6  -2  -5   -0.63    0.33
   6   2   5    0.26    0.37
  -7  -2  -5    0.67    0.40
   7   2   5    0.56    0.44
  -8  -2  -5   -0.46    0.40
 -10   3   5    0.23    0.26
  -9   3   5   -0.05    0.25
  -8   3   5    0.63    0.24
  -7   3   5    0.53    0.23
  -6   3   5    0.57    0.22
  -6   3   5    0.61    0.25
   5  -3  -5    3.07    0.21
  -5   3   5    2.31    0.28
  -5   3   5    2.70    0.30
   4  -3  -5   21.50    1.02
  -4   3   5   20.25    1.02
  -4   3   5   21.45    1.05
  -4   3   5   20.96    1.03
   3  -3  -5   60.27    2.64
  -3   3   5   57.71    2.65
  -3   3   5   57.14    2.64
   2  -3  -5    0.20    0.21
   2  -3  -5    0.32    0.21
  -2   3   5    0.78    0.21
  -2   3   5    0.45    0.21
   1  -3  -5   16.71    0.89
   1  -3  -5   17.53    0.88
  -1   3   5   18.15    0.90
  -1   3   5   17.01    0.88
   0  -3  -5    9.68    0.61
   0  -3  -5   10.99    0.63
   0   3   5    9.73    0.63
   0   3   5   10.33    0.61
  -1  -3  -5   40.66    1.77
  -1  -3  -5   39.94    1.77
   1   3   5   34.98    1.75
   1   3   5   35.98    1.69
  -2  -3  -5   -0.03    0.26
  -2  -3  -5   -0.06    0.26
   2   3   5    1.13    0.23
   2   3   5    1.02    0.18
  -3  -3  -5    6.14    0.48
  -3  -3  -5    6.51    0.49
   3   3   5    6.51    0.46
  -4  -3  -5   11.71    0.82
  -4  -3  -5   13.37    0.84
   4   3   5   13.41    0.77
  -5  -3  -5    6.01    0.55
  -5  -3  -5    7.63    0.58
   5   3   5    6.36    0.52
  -6  -3  -5    0.53    0.41
  -6  -3  -5    1.31    0.43
  -7  -3  -5    2.66    0.50
  -8  -3  -5   -0.04    0.47
 -10   4   5    0.48    0.28
  -9   4   5    0.07    0.26
  -8   4   5    0.67    0.26
  -7   4   5    0.84    0.26
  -7   4   5    1.67    0.31
  -6   4   5    2.38    0.30
  -6   4   5    2.87    0.33
   5  -4  -5   12.10    0.61
  -5   4   5   10.52    0.67
  -5   4   5   12.34    0.72
   4  -4  -5   15.62    0.78
  -4   4   5   14.08    0.83
  -4   4   5   14.60    0.79
   3  -4  -5   29.01    1.36
  -3   4   5   28.99    1.39
  -3   4   5   27.49    1.36
   2  -4  -5   21.04    1.03
   2  -4  -5   20.95    1.05
  -2   4   5   19.84    0.94
  -2   4   5   21.79    1.07
  -2   4   5   20.49    1.04
   1  -4  -5   14.34    0.81
   1  -4  -5   15.80    0.82
  -1   4   5   14.27    0.83
  -1   4   5   14.89    0.81
   0  -4  -5    5.16    0.43
   0  -4  -5    6.99    0.46
   0   4   5    4.29    0.40
   0   4   5    6.23    0.49
  -1  -4  -5   -0.04    0.26
  -1  -4  -5   -0.20    0.27
   1   4   5    0.02    0.27
   1   4   5    0.35    0.23
  -2  -4  -5   -0.57    0.30
  -2  -4  -5   -0.20    0.31
   2   4   5    0.02    0.23
  -3  -4  -5    8.68    0.62
  -3  -4  -5    7.55    0.59
  -4  -4  -5   18.74    1.07
  -4  -4  -5   17.72    1.07
  -5  -4  -5   11.42    0.90
  -5  -4  -5   12.18    0.92
  -6  -4  -5    2.37    0.51
  -6  -4  -5    2.27    0.50
  -7  -4  -5    0.71    0.54
  -9   5   5    1.39    0.32
  -8   5   5    1.49    0.33
  -7   5   5   -0.30    0.26
  -7   5   5    0.10    0.30
  -6   5   5    0.13    0.30
  -6   5   5    0.35    0.27
   5  -5  -5   10.31    0.61
  -5   5   5   12.30    0.74
  -5   5   5   10.72    0.68
   4  -5  -5    3.60    0.33
  -4   5   5    2.24    0.33
  -4   5   5    3.49    0.38
   3  -5  -5   13.88    0.79
  -3   5   5   13.69    0.84
  -3   5   5   14.77    0.79
   2  -5  -5    7.03    0.52
   2  -5  -5    6.72    0.49
  -2   5   5    5.55    0.49
  -2   5   5    6.14    0.46
   1  -5  -5    5.08    0.42
   1  -5  -5    4.59    0.42
  -1   5   5    4.57    0.44
  -1   5   5    4.36    0.40
   0  -5  -5    0.20    0.29
   0  -5  -5    0.35    0.30
   0   5   5    0.28    0.29
   0   5   5    0.68    0.27
  -1  -5  -5    0.39    0.32
  -1  -5  -5    0.17    0.33
   1   5   5    0.58    0.28
   1   5   5    0.22    0.29
  -2  -5  -5   11.07    0.77
  -2  -5  -5   10.23    0.80
   2   5   5    7.42    0.61
  -3  -5  -5   18.63    1.13
  -3  -5  -5   18.14    1.10
  -4  -5  -5    3.27    0.51
  -4  -5  -5    3.74    0.52
  -5  -5  -5    0.08    0.49
  -5  -5  -5   -0.22    0.48
  -6  -5  -5    0.59    0.56
  -6  -5  -5    0.48    0.54
  -9   6   5   -0.29    0.32
  -8   6   5    1.12    0.34
  -7   6   5    0.22    0.35
  -7   6   5    0.24    0.31
  -6   6   5    0.33    0.29
  -6   6   5    0.38    0.33
   5  -6  -5    7.05    0.53
  -5   6   5    7.11    0.59
  -5   6   5    7.70    0.57
   4  -6  -5    4.44    0.39
  -4   6   5    3.45    0.39
  -4   6   5    3.96    0.44
   3  -6  -5    1.41    0.33
  -3   6   5    1.36    0.32
  -3   6   5    1.40    0.36
   2  -6  -5   -0.22    0.29
   2  -6  -5    0.04    0.27
  -2   6   5   -0.08    0.28
  -2   6   5   -0.33    0.32
   1  -6  -5    3.71    0.44
   1  -6  -5    5.13    0.46
  -1   6   5    4.10    0.47
  -1   6   5    4.77    0.43
   0  -6  -5    6.90    0.55
   0  -6  -5    6.07    0.53
   0   6   5    5.70    0.54
   0   6   5    6.05    0.50
  -1  -6  -5    2.04    0.42
  -1  -6  -5    2.63    0.45
   1   6   5    1.89    0.34
   1   6   5    1.46    0.36
  -2  -6  -5    0.06    0.42
  -2  -6  -5    0.00    0.43
   2   6   5    0.32    0.38
  -3  -6  -5   -0.55    0.44
  -3  -6  -5   -0.76    0.45
  -4  -6  -5   -0.11    0.50
  -4  -6  -5    0.60    0.52
  -5  -6  -5    2.05    0.63
  -5  -6  -5    1.64    0.58
  -6  -6  -5    3.97    0.74
  -6  -6  -5    4.63    0.72
  -9   7   5    0.01    0.37
  -8   7   5    0.43    0.37
  -7   7   5   -0.53    0.37
  -7   7   5   -0.08    0.33
  -6   7   5    0.06    0.37
  -6   7   5   -0.01    0.33
   5  -7  -5    0.41    0.28
  -5   7   5    0.68    0.39
  -5   7   5    0.76    0.34
   4  -7  -5    2.98    0.37
  -4   7   5    3.06    0.46
  -4   7   5    2.62    0.39
   3  -7  -5    0.83    0.35
  -3   7   5    1.15    0.35
  -3   7   5    0.75    0.40
   2  -7  -5    2.28    0.42
  -2   7   5    3.70    0.48
  -2   7   5    3.12    0.41
   1  -7  -5    3.55    0.49
   1  -7  -5    4.14    0.47
  -1   7   5    4.60    0.47
  -1   7   5    2.42    0.47
   0  -7  -5    4.89    0.53
   0  -7  -5    3.83    0.50
   0   7   5    4.12    0.51
   0   7   5    3.90    0.46
  -1  -7  -5    0.69    0.46
  -1  -7  -5    1.13    0.44
   1   7   5    0.32    0.41
  -2  -7  -5    5.09    0.61
  -2  -7  -5    4.28    0.60
   2   7   5    2.90    0.50
  -3  -7  -5    1.89    0.57
  -3  -7  -5    3.25    0.60
  -4  -7  -5    7.66    0.80
  -4  -7  -5    8.19    0.80
  -5  -7  -5    2.42    0.69
  -5  -7  -5    3.80    0.72
  -8   8   5    0.03    0.39
  -7   8   5    0.15    0.44
  -7   8   5   -0.14    0.37
  -6   8   5    0.24    0.37
  -6   8   5    0.47    0.44
   5  -8  -5   -0.18    0.28
  -5   8   5    0.31    0.44
  -5   8   5   -0.04    0.37
   4  -8  -5    1.58    0.35
  -4   8   5    1.47    0.40
  -4   8   5    1.66    0.50
   3  -8  -5   -0.07    0.37
  -3   8   5   -0.23    0.44
  -3   8   5    0.23    0.39
   2  -8  -5    3.93    0.51
  -2   8   5    5.79    0.54
  -2   8   5    5.28    0.59
   1  -8  -5    0.53    0.43
  -1   8   5    0.09    0.44
  -1   8   5   -0.06    0.41
   0  -8  -5    0.64    0.46
   0   8   5    0.91    0.45
  -1  -8  -5    1.75    0.55
  -1  -8  -5    1.50    0.51
   1   8   5    1.58    0.49
  -2  -8  -5    1.54    0.60
  -2  -8  -5    1.46    0.59
   2   8   5    0.49    0.49
  -3  -8  -5    2.42    0.67
  -3  -8  -5    1.42    0.65
   3   8   5    2.30    0.57
  -4  -8  -5    0.60    0.67
  -4  -8  -5    0.15    0.67
  -7   9   5    0.10    0.42
  -7   9   5    0.34    0.54
  -6   9   5    0.29    0.42
  -6   9   5    0.35    0.51
   5  -9  -5   -0.29    0.31
  -5   9   5    0.24    0.42
  -5   9   5   -0.02    0.52
   4  -9  -5    0.46    0.37
  -4   9   5    0.34    0.43
  -4   9   5    0.10    0.52
   3  -9  -5    0.18    0.42
  -3   9   5   -0.02    0.44
  -3   9   5    0.34    0.52
   2  -9  -5    1.57    0.48
  -2   9   5    2.47    0.50
  -2   9   5    1.60    0.56
   1  -9  -5    0.50    0.49
  -1   9   5    0.31    0.46
  -1   9   5   -0.61    0.50
   0  -9  -5    1.41    0.54
   0   9   5    1.10    0.53
  -1  -9  -5    0.67    0.58
   1   9   5    0.40    0.52
  -2  -9  -5    0.39    0.65
  -2  -9  -5    0.24    0.66
   2   9   5   -0.15    0.55
  -3  -9  -5    0.46    0.69
  -3  -9  -5    1.28    0.72
   3   9   5    0.78    0.60
  -6  10   5    0.08    0.60
  -6  10   5   -0.26    0.46
  -5  10   5    0.34    0.62
  -5  10   5   -0.29    0.47
   4 -10  -5    0.14    0.40
  -4  10   5    0.33    0.51
  -4  10   5   -1.02    0.59
   3 -10  -5    0.24    0.47
  -3  10   5    0.38    0.50
  -3  10   5    1.50    0.63
   2 -10  -5    0.81    0.49
  -2  10   5    0.50    0.61
  -2  10   5   -0.27    0.51
   1 -10  -5    1.31    0.56
  -1  10   5    0.64    0.61
   0 -10  -5   -0.62    0.57
   0  10   5    0.64    0.60
  -1 -10  -5   -0.58    0.63
   1  10   5    0.27    0.61
   1  13  -6    0.77    0.66
   0  13  -6    0.67    0.69
  -1  13  -6    0.96    0.71
  -2  13  -6    0.61    0.70
  -2  13  -6    0.18    0.60
  -3  13  -6   -0.27    0.67
  -4  13  -6    1.70    0.68
  -4  13  -6   -0.30    0.66
   3  12  -6    1.28    0.63
   2  12  -6   -0.07    0.59
   1  12  -6    1.53    0.62
   0  12  -6    0.03    0.58
  -1  12  -6    2.16    0.59
  -1  12  -6    2.57    0.67
  -2  12  -6    0.12    0.62
  -2  12  -6    1.02    0.57
  -3  12  -6    0.32    0.61
  -3  12  -6    1.35    0.59
  -4  12  -6    1.08    0.59
  -4  12  -6    1.00    0.62
  -5  12  -6    0.94    0.60
  -5  12  -6   -0.47    0.57
  -6  12  -6    0.00    0.58
  -6  12  -6    1.05    0.60
   4  11  -6    2.25    0.59
  -4 -11   6    2.29    0.65
   3  11  -6    1.32    0.56
  -3 -11   6    1.81    0.58
   2  11  -6    1.16    0.56
  -2 -11   6    0.75    0.56
   1  11  -6    0.69    0.52
   0  11  -6    1.62    0.55
  -1  11  -6    3.56    0.62
  -1  11  -6    2.44    0.54
  -2  11  -6   -0.27    0.52
  -2  11  -6    0.34    0.49
  -3  11  -6    4.08    0.59
  -3  11  -6    3.66    0.63
  -4  11  -6    0.29    0.52
  -4  11  -6    0.51    0.50
  -5  11  -6    0.01    0.51
  -5  11  -6    0.26    0.53
  -6  11  -6   -0.40    0.48
  -6  11  -6    0.39    0.53
  -7  11  -6    0.82    0.51
   7 -11   6    0.39    0.57
   5  10  -6    0.32    0.50
  -5 -10   6    0.48    0.63
   4  10  -6    0.63    0.50
  -4 -10   6   -0.06    0.56
   3  10  -6    1.48    0.52
  -3 -10   6    0.42    0.50
   2  10  -6    2.01    0.50
  -2 -10   6    1.93    0.50
   1  10  -6    5.60    0.77
   1  10  -6    6.25    0.65
  -1 -10   6    6.39    0.60
   0  10  -6    5.07    0.55
   0  10  -6    4.08    0.58
  -1  10  -6    7.22    0.68
  -1  10  -6    7.88    0.66
  -2  10  -6    0.68    0.49
  -2  10  -6    0.74    0.44
  -3  10  -6    2.47    0.50
  -3  10  -6    1.29    0.46
  -4  10  -6    1.04    0.48
  -4  10  -6    0.21    0.43
  -5  10  -6    1.77    0.48
  -5  10  -6    2.39    0.50
  -6  10  -6    0.65    0.45
  -6  10  -6    0.27    0.45
  -7  10  -6    0.12    0.45
   7 -10   6    0.59    0.54
  -6  -9   6    0.54    0.66
   5   9  -6    2.06    0.47
  -5  -9   6    1.65    0.61
   4   9  -6    0.56    0.44
  -4  -9   6    0.68    0.51
   3   9  -6    7.54    0.65
  -3  -9   6    7.22    0.66
   2   9  -6   11.32    0.94
  -2  -9   6   12.24    0.91
   1   9  -6    7.01    0.55
   1   9  -6    5.63    0.59
  -1  -9   6    5.01    0.53
   0   9  -6    2.65    0.43
   0   9  -6    1.98    0.46
   0  -9   6    2.49    0.42
  -1   9  -6    1.90    0.44
  -1   9  -6    2.81    0.44
  -2   9  -6    4.89    0.53
  -2   9  -6    4.60    0.51
  -3   9  -6    2.29    0.46
  -3   9  -6    1.96    0.43
  -4   9  -6    0.95    0.40
  -4   9  -6    0.10    0.40
  -5   9  -6    1.74    0.42
  -5   9  -6    1.30    0.41
  -6   9  -6    0.57    0.38
  -6   9  -6    0.14    0.39
  -7   9  -6    0.08    0.38
   7  -9   6   -0.35    0.51
  -8   9  -6    0.54    0.40
   8  -9   6    0.70    0.60
  -7  -8   6    0.65    0.66
  -6  -8   6    0.09    0.55
   5   8  -6    8.62    0.67
  -5  -8   6   10.70    0.79
   4   8  -6    7.20    0.60
  -4  -8   6    6.44    0.64
   3   8  -6    3.23    0.46
  -3  -8   6    2.79    0.47
   2   8  -6    0.76    0.39
  -2  -8   6    1.33    0.39
   1   8  -6    1.46    0.41
   1   8  -6    1.64    0.37
  -1  -8   6    1.13    0.36
   0   8  -6   14.29    0.86
   0   8  -6   11.79    0.86
   0  -8   6   12.82    0.83
  -1   8  -6    5.27    0.49
  -1   8  -6    5.30    0.53
   1  -8   6    6.00    0.47
  -2   8  -6    7.40    0.58
  -2   8  -6    7.60    0.59
  -3   8  -6    4.00    0.46
  -3   8  -6    3.73    0.42
  -4   8  -6   -0.04    0.33
  -4   8  -6   -0.06    0.33
  -5   8  -6    5.83    0.51
  -5   8  -6    5.75    0.51
  -6   8  -6    1.76    0.38
  -6   8  -6    1.84    0.39
  -7   8  -6    1.06    0.37
   7  -8   6    1.09    0.53
  -8   8  -6   -0.06    0.35
   8  -8   6    0.12    0.57
  -7  -7   6    2.60    0.51
  -6  -7   6    6.01    0.59
   5   7  -6   -0.10    0.32
  -5  -7   6   -0.02    0.38
   4   7  -6   -0.01    0.33
  -4  -7   6   -0.06    0.36
   3   7  -6    1.74    0.37
  -3  -7   6    1.99    0.37
   2   7  -6    7.23    0.57
   2   7  -6    7.80    0.60
  -2  -7   6    6.72    0.53
   1   7  -6   28.04    1.42
   1   7  -6   27.99    1.40
  -1  -7   6   28.32    1.40
   0   7  -6   25.19    1.27
   0   7  -6   22.97    1.27
   0  -7   6   25.32    1.24
  -1   7  -6    5.39    0.48
  -1   7  -6    5.36    0.46
   1  -7   6    5.38    0.43
  -2   7  -6   -0.35    0.28
  -2   7  -6   -0.31    0.30
   2  -7   6    0.23    0.27
  -3   7  -6   13.68    0.85
  -3   7  -6   13.69    0.83
  -4   7  -6   14.58    0.87
  -4   7  -6   15.11    0.87
  -5   7  -6    3.52    0.40
  -5   7  -6    3.86    0.41
  -6   7  -6    1.40    0.34
  -6   7  -6    1.73    0.34
  -7   7  -6   -0.23    0.30
   7  -7   6   -0.27    0.47
  -8   7  -6    0.03    0.33
   8  -7   6    0.26    0.56
  -9   7  -6    0.15    0.34
   9  -7   6   -0.25    0.55
  -8  -6   6    0.16    0.48
  -7  -6   6    0.46    0.44
   6   6  -6    0.15    0.30
  -6  -6   6   -0.44    0.38
   5   6  -6    0.43    0.28
  -5  -6   6    0.59    0.36
   4   6  -6    1.69    0.33
  -4  -6   6    1.35    0.34
   3   6  -6   22.60    1.17
   3   6  -6   22.35    1.19
  -3  -6   6   23.27    1.19
   2   6  -6   24.13    1.21
   2   6  -6   23.44    1.20
  -2  -6   6   23.07    1.20
   1   6  -6    7.83    0.56
   1   6  -6    7.85    0.59
  -1  -6   6    7.18    0.57
   0   6  -6    3.28    0.35
   0   6  -6    3.53    0.38
   0  -6   6    3.59    0.36
  -1   6  -6   24.97    1.23
  -1   6  -6   22.79    1.20
   1  -6   6   24.16    1.17
  -2   6  -6   53.36    2.45
  -2   6  -6   52.80    2.44
  -3   6  -6    2.63    0.34
  -3   6  -6    3.29    0.35
  -4   6  -6    0.96    0.28
  -4   6  -6    0.41    0.28
  -5   6  -6    0.20    0.26
  -5   6  -6    0.43    0.27
  -6   6  -6    0.67    0.29
  -6   6  -6    0.68    0.28
  -7   6  -6    1.18    0.31
   7  -6   6    1.87    0.54
  -8   6  -6    2.42    0.37
   8  -6   6    2.12    0.56
  -9   6  -6    0.53    0.34
   9  -6   6   -0.15    0.56
  -8  -5   6    0.16    0.44
  -7  -5   6    0.49    0.39
   6   5  -6    3.30    0.34
  -6  -5   6    2.64    0.40
   5   5  -6    9.06    0.58
  -5  -5   6    7.16    0.56
   4   5  -6   21.02    1.08
  -4  -5   6   20.75    1.09
   3   5  -6    3.82    0.38
   3   5  -6    4.33    0.35
  -3  -5   6    3.20    0.35
   2   5  -6    1.77    0.31
   2   5  -6    2.05    0.28
  -2  -5   6    1.36    0.28
   1   5  -6   38.77    1.83
   1   5  -6   38.42    1.81
  -1  -5   6   39.11    1.81
   0   5  -6   29.36    1.45
   0   5  -6   30.38    1.47
   0  -5   6   31.17    1.44
  -1   5  -6   44.27    2.02
  -1   5  -6   41.80    2.00
   1  -5   6   43.63    1.99
  -2   5  -6    3.02    0.34
  -2   5  -6    5.22    0.37
  -3   5  -6   -0.09    0.22
  -3   5  -6    0.02    0.17
  -3   5  -6    0.16    0.23
  -4   5  -6   13.46    0.74
  -4   5  -6   12.29    0.73
  -5   5  -6   13.55    0.77
  -5   5  -6   13.78    0.77
  -6   5  -6    2.88    0.34
  -6   5  -6    1.85    0.31
   6  -5   6    2.79    0.48
  -7   5  -6    1.45    0.30
   7  -5   6    1.08    0.50
  -8   5  -6    0.22    0.31
   8  -5   6    0.51    0.55
  -9   5  -6    0.06    0.33
   9  -5   6   -0.17    0.54
  -9  -4   6    1.72    0.50
  -8  -4   6    0.90    0.42
  -7  -4   6    2.86    0.43
  -6  -4   6    2.99    0.40
   5   4  -6    1.82    0.26
  -5  -4   6    1.65    0.33
   4   4  -6    9.11    0.58
  -4  -4   6    8.10    0.59
   3   4  -6   20.11    1.01
   3   4  -6   20.25    1.04
  -3  -4   6   20.64    1.03
   2   4  -6   76.87    3.48
   2   4  -6   77.65    3.49
  -2  -4   6   78.06    3.49
   1   4  -6   15.01    0.83
   1   4  -6   16.17    0.85
  -1  -4   6   16.28    0.83
   0   4  -6    0.76    0.25
   0   4  -6    0.90    0.24
   0  -4   6    0.83    0.21
  -1   4  -6    1.74    0.25
  -1   4  -6    1.38    0.25
   1  -4   6    1.71    0.22
  -2   4  -6   10.81    0.61
  -2   4  -6    9.99    0.63
  -3   4  -6   33.73    1.58
  -3   4  -6   34.57    1.59
  -3   4  -6   32.96    1.56
  -4   4  -6   32.39    1.52
  -4   4  -6   32.34    1.52
  -4   4  -6   31.94    1.54
  -5   4  -6    7.63    0.54
  -5   4  -6    6.39    0.53
  -6   4  -6   -0.06    0.25
  -6   4  -6    0.24    0.27
   6  -4   6   -0.02    0.41
  -7   4  -6    9.24    0.64
   7  -4   6    9.04    0.77
  -8   4  -6    0.56    0.31
   8  -4   6    0.09    0.50
  -9   4  -6    1.00    0.35
   9  -4   6    0.69    0.52
  -9  -3   6    0.95    0.46
  -8  -3   6    2.94    0.44
  -7  -3   6   -0.58    0.31
  -6  -3   6    6.09    0.47
   5   3  -6   25.68    1.20
  -5  -3   6   25.19    1.25
   4   3  -6   10.40    0.60
   4   3  -6    9.85    0.60
  -4  -3   6    9.49    0.61
   3   3  -6   11.94    0.67
   3   3  -6   12.31    0.70
  -3  -3   6   12.81    0.69
   2   3  -6    0.68    0.23
   2   3  -6    0.88    0.22
  -2  -3   6    0.79    0.21
   1   3  -6    1.63    0.24
   1   3  -6    1.64    0.27
  -1  -3   6    1.31    0.23
   0   3  -6   29.96    1.45
   0   3  -6   31.18    1.45
   0  -3   6   31.06    1.44
  -1   3  -6  118.93    5.20
  -1   3  -6  113.95    5.20
   1  -3   6  117.92    5.19
  -2   3  -6   43.28    1.95
  -2   3  -6   41.28    1.94
  -3   3  -6   26.95    1.30
  -3   3  -6   29.03    1.33
  -3   3  -6   27.40    1.33
  -4   3  -6    1.24    0.24
  -4   3  -6    0.90    0.20
  -4   3  -6    1.35    0.25
  -5   3  -6    8.88    0.58
  -5   3  -6    9.25    0.60
  -6   3  -6    3.38    0.37
  -6   3  -6    3.75    0.36
   6  -3   6    3.95    0.53
  -7   3  -6    1.85    0.33
   7  -3   6    1.82    0.51
  -8   3  -6    2.41    0.37
   8  -3   6    1.23    0.53
  -9   3  -6    0.14    0.34
   9  -3   6    0.06    0.53
  -9  -2   6    1.12    0.41
  -8  -2   6    2.94    0.39
  -7  -2   6    1.21    0.31
  -6  -2   6   11.86    0.70
   5   2  -6    2.96    0.25
  -5  -2   6    2.64    0.30
   4   2  -6   -0.08    0.19
  -4  -2   6   -0.06    0.20
   3   2  -6   11.73    0.68
  -3  -2   6   12.57    0.67
   2   2  -6   22.92    1.12
   2   2  -6   23.48    1.14
  -2  -2   6   23.84    1.12
   1   2  -6   96.04    4.18
   1   2  -6   92.07    4.18
  -1  -2   6   92.92    4.17
   0   2  -6    0.87    0.22
   0   2  -6    0.85    0.20
   0  -2   6    1.19    0.20
  -1   2  -6   12.31    0.70
  -1   2  -6   13.89    0.72
   1  -2   6   13.43    0.69
  -2   2  -6   -0.20    0.19
  -2   2  -6   -0.19    0.19
  -3   2  -6   27.85    1.27
  -3   2  -6   26.66    1.26
  -3   2  -6   25.05    1.24
  -4   2  -6    9.81    0.58
  -4   2  -6   10.22    0.62
  -4   2  -6   10.39    0.61
  -5   2  -6   15.96    0.84
  -5   2  -6   15.38    0.85
   5  -2   6   15.31    0.96
  -6   2  -6    4.85    0.40
  -6   2  -6    3.64    0.38
   6  -2   6    4.84    0.54
  -7   2  -6    0.28    0.29
   7  -2   6   -0.21    0.43
  -8   2  -6    0.00    0.33
   8  -2   6   -0.33    0.45
  -9   2  -6    2.89    0.43
   9  -2   6    2.76    0.61
 -10  -1   6    1.60    0.43
  -9  -1   6    1.99    0.38
  -8  -1   6    0.67    0.30
  -7  -1   6    0.86    0.28
  -6  -1   6    5.77    0.48
   5   1  -6    0.41    0.16
  -5  -1   6    0.29    0.23
   4   1  -6   27.82    1.32
  -4  -1   6   27.96    1.33
  -4  -1   6   28.72    1.34
   3   1  -6   42.17    1.95
  -3  -1   6   42.89    1.95
   2   1  -6   27.45    1.33
   2   1  -6   28.92    1.35
  -2  -1   6   28.74    1.34
   1   1  -6    0.28    0.19
   1   1  -6    0.23    0.20
  -1  -1   6    0.05    0.19
   0   1  -6    3.59    0.32
   0   1  -6    3.70    0.30
   0  -1   6    4.38    0.32
  -1   1  -6   47.07    2.15
  -1   1  -6   47.44    2.15
   1  -1   6   46.43    2.13
  -2   1  -6   46.92    2.10
  -2   1  -6   44.61    2.10
  -3   1  -6   45.64    2.12
  -3   1  -6   48.61    2.14
  -3   1  -6   45.77    2.14
  -4   1  -6   15.26    0.79
  -4   1  -6   13.32    0.79
  -5   1  -6    3.38    0.36
  -5   1  -6    5.49    0.41
   5  -1   6    3.95    0.47
  -6   1  -6    0.50    0.30
  -6   1  -6    0.41    0.29
   6  -1   6    0.12    0.40
  -7   1  -6    5.78    0.48
   7  -1   6    5.13    0.58
  -8   1  -6    2.46    0.41
   8  -1   6    2.76    0.55
  -9   1  -6    3.85    0.47
 -10   0   6   -0.01    0.34
  -9   0   6   -0.02    0.31
  -8   0   6    0.56    0.30
  -7   0   6    5.18    0.41
  -6   0   6    1.17    0.26
   5   0  -6   20.56    0.98
  -5   0   6   21.54    1.04
   4   0  -6   18.93    0.96
  -4   0   6   20.15    0.98
  -4   0   6   19.95    0.97
   3   0  -6   11.60    0.65
  -3   0   6   11.84    0.66
   2   0  -6    9.59    0.58
   2   0  -6    9.77    0.59
  -2   0   6   10.45    0.58
   1   0  -6   27.42    1.29
   1   0  -6   27.31    1.28
  -1   0   6   25.98    1.27
   0   0  -6   46.08    2.12
   0   0  -6   50.35    2.12
   0   0   6   42.53    2.11
  -1   0  -6   36.34    1.59
  -1   0  -6   32.69    1.58
   1   0   6   32.68    1.58
  -2   0  -6    2.31    0.28
  -2   0  -6    2.54    0.28
   2   0   6    3.16    0.30
  -3   0  -6   28.78    1.30
  -3   0  -6   23.27    1.28
   3   0   6   27.57    1.26
  -4   0  -6    3.53    0.37
  -4   0  -6    3.24    0.36
   4   0   6    4.39    0.42
  -5   0  -6   12.34    0.77
  -5   0  -6   12.60    0.79
   5   0   6   12.40    0.84
  -6   0  -6   11.02    0.75
  -6   0  -6   12.01    0.77
   6   0   6   12.11    0.87
  -7   0  -6    8.54    0.69
   7   0   6    7.57    0.69
  -8   0  -6   -0.03    0.37
   8   0   6    1.12    0.49
 -10   1   6   -0.18    0.34
  -9   1   6    0.52    0.31
  -8   1   6    0.47    0.29
  -7   1   6   -0.04    0.24
  -6   1   6    3.96    0.34
   5  -1  -6    0.66    0.17
  -5   1   6    0.40    0.23
   4  -1  -6    5.45    0.42
  -4   1   6    5.73    0.45
  -4   1   6    5.72    0.42
   3  -1  -6    3.85    0.33
  -3   1   6    4.04    0.33
   2  -1  -6   17.30    0.88
   2  -1  -6   16.55    0.89
  -2   1   6   17.47    0.88
   1  -1  -6   10.29    0.63
   1  -1  -6   10.59    0.63
  -1   1   6   10.39    0.60
   0  -1  -6   21.15    1.06
   0  -1  -6   21.42    1.06
   0   1   6   21.77    1.06
  -1  -1  -6    2.80    0.30
  -1  -1  -6    2.58    0.29
   1   1   6    3.15    0.30
  -2  -1  -6    0.36    0.24
  -2  -1  -6    0.29    0.24
   2   1   6    0.17    0.21
  -3  -1  -6   60.19    2.71
  -3  -1  -6   55.41    2.70
   3   1   6   61.75    2.70
  -4  -1  -6   29.78    1.42
  -4  -1  -6   26.22    1.40
   4   1   6   29.97    1.42
  -5  -1  -6   14.49    0.86
  -5  -1  -6   12.85    0.86
   5   1   6   14.53    0.89
  -6  -1  -6   -0.09    0.35
  -6  -1  -6    0.54    0.35
   6   1   6    0.22    0.38
  -7  -1  -6    1.02    0.40
   7   1   6    0.45    0.44
  -8  -1  -6    9.12    0.69
   8   1   6    8.80    0.78
 -10   2   6    0.44    0.33
  -9   2   6    0.20    0.30
  -8   2   6   -0.07    0.27
  -7   2   6    1.74    0.30
  -6   2   6    1.71    0.27
   5  -2  -6   11.96    0.64
  -5   2   6   13.15    0.70
   4  -2  -6    1.70    0.25
  -4   2   6    1.67    0.26
   3  -2  -6   29.42    1.41
  -3   2   6   29.43    1.40
   2  -2  -6   21.02    1.06
   2  -2  -6   20.58    1.05
  -2   2   6   21.06    1.04
   1  -2  -6    5.76    0.43
   1  -2  -6    6.40    0.49
  -1   2   6    6.54    0.48
   0  -2  -6   31.87    1.47
   0  -2  -6   30.88    1.47
   0   2   6   29.68    1.46
  -1  -2  -6   32.37    1.53
  -1  -2  -6   32.32    1.53
   1   2   6   31.38    1.52
  -2  -2  -6  223.14    9.38
  -2  -2  -6  223.17    9.38
   2   2   6  194.26    9.36
   2   2   6  207.80    9.34
  -3  -2  -6    6.18    0.50
  -3  -2  -6    6.27    0.49
   3   2   6    7.74    0.53
  -4  -2  -6    0.62    0.32
  -4  -2  -6   -0.09    0.32
   4   2   6    0.37    0.29
  -5  -2  -6    0.47    0.36
  -5  -2  -6    0.44    0.36
   5   2   6    1.74    0.37
  -6  -2  -6    2.99    0.48
  -6  -2  -6    3.49    0.47
   6   2   6    3.24    0.48
  -7  -2  -6    2.48    0.48
   7   2   6    1.35    0.48
  -8  -2  -6    0.19    0.46
  -9   3   6    0.13    0.30
  -8   3   6   -0.28    0.26
  -7   3   6    0.48    0.26
  -6   3   6   -0.11    0.23
   5  -3  -6    0.28    0.19
  -5   3   6    0.66    0.29
  -5   3   6    0.37    0.23
   4  -3  -6   72.39    3.22
  -4   3   6   72.27    3.24
  -4   3   6   69.47    3.22
   3  -3  -6    0.88    0.27
  -3   3   6    0.66    0.27
  -3   3   6    0.71    0.24
   2  -3  -6    2.37    0.31
   2  -3  -6    2.22    0.31
  -2   3   6    2.01    0.32
  -2   3   6    2.20    0.29
   1  -3  -6   42.52    1.94
   1  -3  -6   40.85    1.94
  -1   3   6   42.15    1.96
  -1   3   6   40.74    1.93
   0  -3  -6   31.04    1.48
   0  -3  -6   30.09    1.49
   0   3   6   30.87    1.47
  -1  -3  -6    3.57    0.39
  -1  -3  -6    4.35    0.41
   1   3   6    4.81    0.39
   1   3   6    4.19    0.33
  -2  -3  -6    9.88    0.74
  -2  -3  -6    9.79    0.71
   2   3   6   10.23    0.57
   2   3   6    9.61    0.64
  -3  -3  -6    3.32    0.43
  -3  -3  -6    3.66    0.44
   3   3   6    3.62    0.33
  -4  -3  -6    5.96    0.56
  -4  -3  -6    6.73    0.57
   4   3   6    7.62    0.58
  -5  -3  -6    3.47    0.51
  -5  -3  -6    3.00    0.49
   5   3   6    3.32    0.44
  -6  -3  -6    1.91    0.49
  -6  -3  -6    1.15    0.47
  -7  -3  -6   -0.52    0.48
  -9   4   6    0.41    0.31
  -8   4   6    0.45    0.28
  -7   4   6    0.18    0.27
  -6   4   6    0.37    0.31
  -6   4   6    0.27    0.26
   5  -4  -6   10.52    0.60
  -5   4   6   10.02    0.65
  -5   4   6    9.76    0.72
   4  -4  -6   11.27    0.69
  -4   4   6   12.21    0.77
  -4   4   6   11.02    0.70
   3  -4  -6    0.10    0.27
  -3   4   6    0.62    0.27
  -3   4   6    0.15    0.29
   2  -4  -6   15.46    0.87
   2  -4  -6   14.93    0.85
  -2   4   6   14.56    0.86
  -2   4   6   15.39    0.88
   1  -4  -6    0.33    0.28
   1  -4  -6    0.47    0.29
  -1   4   6    0.38    0.31
  -1   4   6    0.80    0.28
   0  -4  -6    0.22    0.30
   0  -4  -6   -0.02    0.28
   0   4   6    0.31    0.30
   0   4   6    0.34    0.26
  -1  -4  -6   14.72    0.89
  -1  -4  -6   14.95    0.87
   1   4   6   13.59    0.84
  -2  -4  -6   32.96    1.59
  -2  -4  -6   32.02    1.58
   2   4   6   30.34    1.45
  -3  -4  -6    7.68    0.61
  -3  -4  -6    7.15    0.61
  -4  -4  -6    3.79    0.54
  -4  -4  -6    4.30    0.54
  -5  -4  -6   -0.04    0.47
  -5  -4  -6    0.06    0.47
  -6  -4  -6    0.12    0.54
  -6  -4  -6   -0.53    0.52
  -9   5   6    0.61    0.32
  -8   5   6    0.50    0.31
  -7   5   6    1.11    0.38
  -7   5   6    1.28    0.32
  -6   5   6    2.38    0.35
  -6   5   6    2.33    0.40
   5  -5  -6    7.70    0.56
  -5   5   6    7.28    0.62
  -5   5   6    8.79    0.62
   4  -5  -6    9.40    0.65
  -4   5   6    7.76    0.65
  -4   5   6    9.36    0.74
   3  -5  -6   -0.16    0.29
  -3   5   6    0.04    0.29
  -3   5   6    0.43    0.33
   2  -5  -6   -0.08    0.26
   2  -5  -6    0.04    0.31
  -2   5   6   -0.16    0.29
  -2   5   6    0.17    0.29
   1  -5  -6    2.90    0.39
   1  -5  -6    2.75    0.40
  -1   5   6    2.68    0.38
  -1   5   6    2.80    0.36
   0  -5  -6    3.81    0.43
   0  -5  -6    4.37    0.47
   0   5   6    4.09    0.46
   0   5   6    4.31    0.42
  -1  -5  -6    2.80    0.43
  -1  -5  -6    1.96    0.42
   1   5   6    2.18    0.41
   1   5   6    1.87    0.34
  -2  -5  -6    7.18    0.63
  -2  -5  -6    7.31    0.63
  -3  -5  -6    3.93    0.55
  -3  -5  -6    3.94    0.55
  -4  -5  -6    1.61    0.52
  -4  -5  -6    1.04    0.53
  -5  -5  -6    2.00    0.58
  -5  -5  -6    1.43    0.59
  -6  -5  -6    1.73    0.61
  -6  -5  -6    2.99    0.68
  -9   6   6   -0.09    0.35
  -8   6   6   -0.03    0.34
  -7   6   6    1.17    0.36
  -7   6   6    2.60    0.45
  -6   6   6    0.42    0.41
  -6   6   6    0.05    0.34
   5  -6  -6    0.59    0.28
  -5   6   6    0.38    0.34
  -5   6   6    0.24    0.40
   4  -6  -6   -0.08    0.30
  -4   6   6   -0.42    0.31
  -4   6   6    0.18    0.39
   3  -6  -6    0.82    0.33
  -3   6   6    0.80    0.35
  -3   6   6    1.02    0.41
   2  -6  -6    0.18    0.36
  -2   6   6    0.35    0.37
  -2   6   6    0.87    0.35
   1  -6  -6    1.50    0.38
   1  -6  -6    0.78    0.38
  -1   6   6    1.19    0.36
  -1   6   6    2.04    0.37
   0  -6  -6    2.02    0.43
   0  -6  -6    1.03    0.40
   0   6   6    1.22    0.36
   0   6   6    1.68    0.39
  -1  -6  -6   -0.24    0.43
  -1  -6  -6   -0.34    0.40
   1   6   6   -0.35    0.38
  -2  -6  -6   -0.34    0.44
  -2  -6  -6    0.17    0.47
  -3  -6  -6    1.05    0.54
  -3  -6  -6    0.44    0.54
  -4  -6  -6    0.28    0.57
  -4  -6  -6    2.21    0.63
  -5  -6  -6    2.40    0.70
  -5  -6  -6    2.15    0.66
  -8   7   6    0.47    0.39
  -7   7   6    1.12    0.48
  -7   7   6    0.45    0.40
  -6   7   6    0.80    0.38
  -6   7   6   -0.13    0.45
   5  -7  -6    1.07    0.33
  -5   7   6    1.45    0.40
  -5   7   6    2.00    0.48
   4  -7  -6   -0.30    0.31
  -4   7   6   -0.25    0.37
  -4   7   6    0.07    0.44
   3  -7  -6   -0.05    0.37
  -3   7   6    0.03    0.38
  -3   7   6    0.32    0.45
   2  -7  -6   -0.16    0.38
  -2   7   6   -0.28    0.42
  -2   7   6    0.54    0.40
   1  -7  -6    0.25    0.40
  -1   7   6   -0.07    0.37
  -1   7   6    0.34    0.42
   0  -7  -6    0.62    0.45
   0  -7  -6    1.40    0.46
   0   7   6    0.37    0.39
  -1  -7  -6    0.19    0.47
  -1  -7  -6    0.49    0.50
   1   7   6    0.45    0.44
  -2  -7  -6    3.34    0.60
  -2  -7  -6    2.29    0.59
   2   7   6    2.76    0.55
  -3  -7  -6    0.05    0.60
  -3  -7  -6    0.97    0.61
  -4  -7  -6    2.54    0.68
  -4  -7  -6    1.18    0.69
  -7   8   6   -0.17    0.52
  -7   8   6    0.27    0.42
  -6   8   6    0.26    0.52
  -6   8   6    0.10    0.41
   5  -8  -6    0.32    0.34
  -5   8   6   -0.46    0.52
  -5   8   6    0.07    0.42
   4  -8  -6   -0.21    0.36
  -4   8   6    0.66    0.54
  -4   8   6   -0.18    0.42
   3  -8  -6   -0.27    0.39
  -3   8   6   -0.84    0.48
  -3   8   6    0.05    0.43
   2  -8  -6   -0.43    0.42
  -2   8   6    0.13    0.46
  -2   8   6   -0.71    0.49
   1  -8  -6    0.30    0.46
  -1   8   6   -0.61    0.41
  -1   8   6   -0.08    0.48
   0  -8  -6    0.33    0.50
   0   8   6    0.77    0.48
  -1  -8  -6    0.23    0.56
   1   8   6    0.74    0.53
  -2  -8  -6   -0.22    0.58
  -2  -8  -6    0.29    0.61
   2   8   6   -0.65    0.53
  -3  -8  -6    0.22    0.66
  -3  -8  -6    0.30    0.67
  -6   9   6   -0.25    0.46
  -6   9   6   -0.77    0.58
   5  -9  -6   -0.10    0.35
  -5   9   6   -0.31    0.60
  -5   9   6   -0.98    0.46
   4  -9  -6   -0.03    0.38
  -4   9   6   -0.72    0.48
  -4   9   6    0.75    0.62
   3  -9  -6    0.60    0.45
  -3   9   6    0.89    0.51
  -3   9   6    0.22    0.60
   2  -9  -6    0.11    0.48
  -2   9   6    0.16    0.50
  -2   9   6   -0.30    0.58
   1  -9  -6    0.12    0.51
  -1   9   6    0.55    0.56
   0  -9  -6   -0.01    0.58
   0   9   6    0.30    0.53
  -1  -9  -6   -0.21    0.64
   1   9   6    1.27    0.61
  -2  -9  -6    0.15    0.68
   2   9   6   -0.50    0.60
   4 -10  -6    0.38    0.42
  -4  10   6    0.83    0.70
  -4  10   6    0.09    0.56
   3 -10  -6    0.56    0.49
  -3  10   6   -0.12    0.69
  -3  10   6    0.09    0.55
   2 -10  -6    0.41    0.54
  -2  10   6    0.59    0.69
   1 -10  -6   -0.03    0.57
  -1  10   6    0.47    0.64
   0  13  -7   -0.08    0.68
  -1  13  -7    0.84    0.72
  -2  13  -7    0.27    0.71
  -3  13  -7    1.02    0.73
  -3  13  -7    0.47    0.66
   2  12  -7    1.10    0.63
   1  12  -7    0.11    0.60
   0  12  -7    0.06    0.60
  -1  12  -7    4.05    0.75
  -1  12  -7    4.04    0.65
  -2  12  -7    0.47    0.57
  -2  12  -7    1.17    0.66
  -3  12  -7    1.75    0.68
  -3  12  -7    1.38    0.62
  -4  12  -7   -0.50    0.59
  -4  12  -7    0.04    0.63
  -5  12  -7   -0.36    0.60
  -5  12  -7    0.41    0.63
   4  11  -7    0.43    0.57
  -4 -11   7    0.22    0.63
   3  11  -7   -0.13    0.55
  -3 -11   7   -0.32    0.55
   2  11  -7    0.21    0.55
   1  11  -7    0.78    0.55
   0  11  -7    2.24    0.53
   0  11  -7    3.05    0.64
  -1  11  -7    0.04    0.51
  -1  11  -7   -0.06    0.55
  -2  11  -7    3.67    0.59
  -2  11  -7    3.23    0.66
  -3  11  -7    0.52    0.52
  -3  11  -7   -0.19    0.56
  -4  11  -7    0.83    0.53
  -4  11  -7    0.98    0.56
  -5  11  -7    1.89    0.57
  -5  11  -7    0.82    0.58
  -6  11  -7   -0.19    0.55
  -6  11  -7    0.11    0.56
   5  10  -7    0.32    0.50
  -5 -10   7    0.43    0.66
   4  10  -7    1.28    0.52
  -4 -10   7   -0.31    0.57
   3  10  -7    3.76    0.59
  -3 -10   7    4.47    0.62
   2  10  -7    3.80    0.57
  -2 -10   7    2.63    0.53
   1  10  -7    5.94    0.65
  -1 -10   7    6.07    0.72
   0  10  -7    1.85    0.48
   0  10  -7    1.41    0.52
  -1  10  -7   -0.62    0.42
  -1  10  -7   -0.48    0.49
  -2  10  -7    4.51    0.56
  -2  10  -7    5.28    0.63
  -3  10  -7    5.26    0.63
  -3  10  -7    5.09    0.60
  -4  10  -7    2.93    0.56
  -4  10  -7    1.90    0.52
  -5  10  -7    0.83    0.51
  -5  10  -7    0.30    0.48
  -6  10  -7    0.28    0.48
  -6  10  -7    0.24    0.47
  -7  10  -7    0.27    0.47
   7 -10   7   -0.19    0.52
  -6  -9   7    0.36    0.68
   5   9  -7    1.78    0.49
  -5  -9   7    2.62    0.65
   4   9  -7    8.83    0.73
  -4  -9   7    8.50    0.77
   3   9  -7    7.55    0.68
  -3  -9   7    9.18    0.73
   2   9  -7    2.57    0.50
  -2  -9   7    3.09    0.51
   1   9  -7    0.86    0.45
   1   9  -7    1.28    0.40
  -1  -9   7    0.48    0.41
   0   9  -7    5.20    0.54
   0   9  -7    5.90    0.58
   0  -9   7    5.43    0.54
  -1   9  -7   13.02    0.96
  -1   9  -7   14.50    1.01
  -2   9  -7    7.00    0.63
  -2   9  -7    6.83    0.63
  -3   9  -7   -0.11    0.40
  -3   9  -7    0.19    0.43
  -4   9  -7    1.28    0.44
  -4   9  -7    1.23    0.42
  -5   9  -7    0.13    0.39
  -5   9  -7    0.70    0.43
  -6   9  -7    0.91    0.43
  -6   9  -7    0.95    0.44
  -7   9  -7    0.18    0.44
   7  -9   7    0.32    0.52
  -8   9  -7   -0.48    0.42
  -7  -8   7    0.28    0.68
  -6  -8   7    2.52    0.55
   5   8  -7    4.13    0.51
  -5  -8   7    3.51    0.54
   4   8  -7    0.25    0.40
  -4  -8   7    0.60    0.42
   3   8  -7    3.00    0.48
  -3  -8   7    3.26    0.47
   2   8  -7    2.88    0.47
  -2  -8   7    3.74    0.47
   1   8  -7   17.89    1.12
   1   8  -7   19.26    1.09
  -1  -8   7   19.11    1.09
   0   8  -7   10.70    0.84
   0   8  -7    9.96    0.77
   0  -8   7   10.49    0.76
  -1   8  -7    3.11    0.48
  -1   8  -7    4.43    0.47
  -2   8  -7    0.47    0.40
  -2   8  -7    0.29    0.34
  -3   8  -7    0.72    0.37
  -3   8  -7    1.29    0.41
  -4   8  -7   10.18    0.79
  -4   8  -7    9.73    0.81
  -5   8  -7    1.36    0.39
  -5   8  -7    1.21    0.39
  -6   8  -7    1.21    0.40
  -6   8  -7    1.59    0.41
  -7   8  -7    0.35    0.39
   7  -8   7    0.38    0.53
  -8   8  -7   -0.17    0.40
   8  -8   7   -0.97    0.59
  -7  -7   7    2.03    0.54
   6   7  -7   -0.05    0.49
  -6  -7   7   -0.34    0.44
   5   7  -7    2.41    0.42
  -5  -7   7    2.39    0.46
   4   7  -7   10.30    0.79
  -4  -7   7    9.72    0.79
   3   7  -7   19.36    1.12
  -3  -7   7   18.74    1.11
   2   7  -7   22.01    1.18
   2   7  -7   23.25    1.23
  -2  -7   7   21.85    1.20
   1   7  -7    0.69    0.31
   1   7  -7   -0.09    0.35
  -1  -7   7    0.67    0.33
   0   7  -7    0.30    0.31
   0   7  -7    0.13    0.34
   0  -7   7   -0.02    0.29
  -1   7  -7    2.62    0.38
  -1   7  -7    3.33    0.43
   1  -7   7    3.06    0.36
  -2   7  -7    5.34    0.51
  -2   7  -7    6.95    0.52
  -3   7  -7   23.41    1.26
  -3   7  -7   24.56    1.26
  -4   7  -7    7.17    0.55
  -4   7  -7    6.87    0.55
  -5   7  -7    2.50    0.39
  -5   7  -7    1.68    0.37
  -6   7  -7    1.10    0.35
  -6   7  -7    0.65    0.34
  -7   7  -7    1.59    0.38
   7  -7   7    1.96    0.57
  -8   7  -7    0.43    0.36
   8  -7   7    0.36    0.56
  -8  -6   7    0.57    0.52
  -7  -6   7    2.36    0.50
   6   6  -7    7.34    0.59
  -6  -6   7    5.90    0.59
   5   6  -7    5.83    0.49
  -5  -6   7    5.70    0.53
   4   6  -7    6.91    0.53
  -4  -6   7    6.00    0.53
   3   6  -7    3.92    0.44
  -3  -6   7    3.32    0.40
   2   6  -7   -0.25    0.31
   2   6  -7   -0.55    0.25
  -2  -6   7    0.02    0.28
   1   6  -7    1.91    0.36
   1   6  -7    1.91    0.33
  -1  -6   7    2.02    0.32
   0   6  -7   34.24    1.66
   0   6  -7   33.40    1.63
   0  -6   7   33.36    1.61
  -1   6  -7   35.53    1.72
  -1   6  -7   37.17    1.75
   1  -6   7   34.99    1.69
  -2   6  -7   19.82    1.05
  -2   6  -7   19.09    1.08
  -3   6  -7    1.18    0.32
  -3   6  -7    1.51    0.33
  -4   6  -7   -0.02    0.29
  -4   6  -7    0.27    0.30
  -5   6  -7    7.59    0.61
  -5   6  -7    7.66    0.63
  -6   6  -7    3.78    0.42
  -6   6  -7    4.69    0.44
  -7   6  -7    4.08    0.43
   7  -6   7    3.47    0.62
  -8   6  -7    0.47    0.35
   8  -6   7    0.37    0.56
  -8  -5   7    1.48    0.49
  -7  -5   7    2.39    0.46
   6   5  -7    2.52    0.30
  -6  -5   7    2.05    0.41
   5   5  -7    1.93    0.32
  -5  -5   7    1.43    0.37
   4   5  -7   -0.25    0.28
  -4  -5   7   -0.10    0.30
   3   5  -7    5.18    0.45
   3   5  -7    5.69    0.43
  -3  -5   7    4.35    0.42
   2   5  -7   18.49    1.00
   2   5  -7   19.71    1.03
  -2  -5   7   18.75    1.01
   1   5  -7   57.59    2.67
   1   5  -7   58.77    2.65
  -1  -5   7   56.86    2.64
   0   5  -7   16.85    0.92
   0   5  -7   16.69    0.95
   0  -5   7   17.58    0.91
  -1   5  -7   14.26    0.83
  -1   5  -7   14.58    0.86
   1  -5   7   14.37    0.79
  -2   5  -7   10.21    0.68
  -2   5  -7   10.68    0.70
  -3   5  -7   13.09    0.79
  -3   5  -7   14.81    0.82
  -4   5  -7   14.48    0.85
  -4   5  -7   14.86    0.84
  -5   5  -7    6.58    0.50
  -5   5  -7    8.01    0.62
  -6   5  -7    1.93    0.35
  -6   5  -7    1.15    0.33
   6  -5   7    1.18    0.43
  -7   5  -7    0.54    0.32
   7  -5   7    0.15    0.52
  -8   5  -7    0.16    0.35
   8  -5   7   -0.09    0.54
  -9  -4   7   -0.15    0.48
  -8  -4   7    0.10    0.42
  -7  -4   7    0.09    0.38
   6   4  -7    0.00    0.21
  -6  -4   7    0.15    0.34
   5   4  -7    0.88    0.26
  -5  -4   7    1.31    0.34
   4   4  -7   25.24    1.25
  -4  -4   7   24.55    1.26
   3   4  -7   44.16    2.05
   3   4  -7   43.17    2.03
  -3  -4   7   44.46    2.05
   2   4  -7   36.26    1.69
   2   4  -7   34.85    1.66
  -2  -4   7   34.30    1.66
   1   4  -7    1.27    0.26
   1   4  -7    1.60    0.31
  -1  -4   7    1.38    0.26
   0   4  -7    5.67    0.43
   0   4  -7    5.96    0.45
   0  -4   7    6.12    0.49
  -1   4  -7   80.20    3.57
  -1   4  -7   78.65    3.56
   1  -4   7   78.13    3.54
  -2   4  -7   15.74    0.90
  -2   4  -7   17.50    0.90
  -3   4  -7   17.34    0.96
  -3   4  -7   19.78    0.99
  -4   4  -7    1.06    0.28
  -4   4  -7    1.36    0.30
  -5   4  -7    0.41    0.29
  -5   4  -7    0.26    0.29
  -6   4  -7    6.76    0.50
  -6   4  -7    5.50    0.48
   6  -4   7    5.62    0.62
  -7   4  -7    3.03    0.40
   7  -4   7    2.84    0.59
  -8   4  -7    1.38    0.38
   8  -4   7    2.27    0.62
  -9  -3   7    1.13    0.50
  -8  -3   7    0.05    0.39
  -7  -3   7    2.02    0.41
   6   3  -7    7.91    0.49
  -6  -3   7    5.61    0.50
   5   3  -7   27.33    1.30
  -5  -3   7   26.81    1.34
   4   3  -7    8.74    0.61
  -4  -3   7    8.43    0.61
   3   3  -7    0.14    0.25
   3   3  -7    0.57    0.23
  -3  -3   7    0.64    0.25
   2   3  -7   25.30    1.24
   2   3  -7   25.71    1.27
  -2  -3   7   26.09    1.25
   1   3  -7   60.64    2.75
   1   3  -7   59.68    2.76
  -1  -3   7   61.23    2.75
   0   3  -7  106.93    4.79
   0   3  -7  107.27    4.78
   0  -3   7  106.83    4.77
  -1   3  -7    2.64    0.31
  -1   3  -7    3.08    0.32
   1  -3   7    3.10    0.29
  -2   3  -7   12.24    0.74
  -2   3  -7   12.26    0.72
  -3   3  -7    0.23    0.25
  -3   3  -7   -0.15    0.25
  -4   3  -7    9.87    0.66
  -4   3  -7    9.98    0.68
  -5   3  -7    9.36    0.69
  -5   3  -7   10.01    0.67
  -6   3  -7    8.57    0.58
  -6   3  -7    8.67    0.64
   6  -3   7    7.20    0.70
  -7   3  -7    1.89    0.37
   7  -3   7    1.35    0.50
  -8   3  -7    0.04    0.35
   8  -3   7   -0.06    0.49
  -9  -2   7    0.82    0.43
  -8  -2   7    1.91    0.39
  -7  -2   7    9.93    0.72
  -6  -2   7    5.63    0.45
   5   2  -7    4.75    0.36
  -5  -2   7    4.04    0.39
   4   2  -7    1.77    0.28
  -4  -2   7    1.64    0.28
   3   2  -7   27.15    1.33
   3   2  -7   26.92    1.31
  -3  -2   7   28.14    1.32
   2   2  -7   24.99    1.23
   2   2  -7   24.25    1.21
  -2  -2   7   25.04    1.21
   1   2  -7    8.42    0.60
   1   2  -7    8.83    0.59
  -1  -2   7    9.41    0.57
   0   2  -7   13.90    0.76
   0   2  -7   13.18    0.76
   0  -2   7   12.94    0.73
  -1   2  -7    0.92    0.24
  -1   2  -7    0.53    0.24
   1  -2   7    0.82    0.22
  -2   2  -7   16.67    0.92
  -2   2  -7   16.84    0.89
  -3   2  -7   21.99    1.10
  -3   2  -7   21.39    1.11
  -4   2  -7    2.99    0.34
  -4   2  -7    2.69    0.34
  -5   2  -7    1.13    0.33
  -5   2  -7    1.23    0.33
   5  -2   7    2.24    0.43
  -6   2  -7    1.98    0.36
  -6   2  -7    1.78    0.35
   6  -2   7    1.36    0.46
  -7   2  -7    0.28    0.34
   7  -2   7    0.51    0.48
  -8   2  -7    1.90    0.41
   8  -2   7    1.41    0.54
  -9  -1   7    0.46    0.38
  -8  -1   7    0.46    0.33
  -7  -1   7    4.76    0.44
  -6  -1   7    2.13    0.33
   5   1  -7    5.88    0.45
  -5  -1   7    6.20    0.46
   4   1  -7    5.42    0.40
  -4  -1   7    5.50    0.42
   3   1  -7    2.10    0.30
   3   1  -7    2.48    0.27
  -3  -1   7    2.62    0.31
   2   1  -7    7.25    0.53
   2   1  -7    6.91    0.55
  -2  -1   7    7.57    0.53
   1   1  -7    6.78    0.53
   1   1  -7    7.02    0.53
  -1  -1   7    7.56    0.52
   0   1  -7   47.33    2.23
   0   1  -7   48.68    2.22
   0  -1   7   48.91    2.22
  -1   1  -7   47.40    2.15
  -1   1  -7   45.89    2.14
   1  -1   7   45.94    2.13
  -2   1  -7   62.60    2.86
  -2   1  -7   66.00    2.87
   2  -1   7   60.43    2.83
  -3   1  -7   20.43    1.02
  -3   1  -7   17.91    1.00
  -4   1  -7   -0.35    0.27
  -4   1  -7   -0.10    0.27
  -5   1  -7    3.06    0.40
  -5   1  -7    3.27    0.40
   5  -1   7    4.10    0.50
  -6   1  -7    1.05    0.36
  -6   1  -7    1.12    0.36
   6  -1   7    1.29    0.46
  -7   1  -7    2.64    0.43
   7  -1   7    1.81    0.49
  -8   1  -7    2.05    0.45
   8  -1   7    2.50    0.57
  -9   0   7   -0.04    0.35
  -8   0   7    0.66    0.35
  -7   0   7    3.50    0.38
  -6   0   7    1.47    0.31
   5   0  -7    7.52    0.51
  -5   0   7    8.10    0.57
   4   0  -7    7.55    0.54
  -4   0   7    7.57    0.55
   3   0  -7   27.68    1.39
   3   0  -7   30.26    1.42
  -3   0   7   30.11    1.41
   2   0  -7    6.85    0.54
   2   0  -7    6.66    0.53
  -2   0   7    7.34    0.52
   1   0  -7   25.77    1.24
   1   0  -7   24.12    1.25
  -1   0   7   25.67    1.23
   0   0  -7   24.26    1.22
   0   0  -7   24.42    1.23
   0   0   7   25.16    1.21
  -1   0  -7    0.19    0.25
  -1   0  -7    0.20    0.25
   1   0   7    0.18    0.23
  -2   0  -7    0.89    0.30
  -2   0  -7    1.25    0.30
   2   0   7    1.73    0.26
  -3   0  -7    9.78    0.73
  -3   0  -7   12.91    0.73
  -4   0  -7   38.83    1.84
  -4   0  -7   40.27    1.85
   4   0   7   36.14    1.85
  -5   0  -7    0.85    0.35
  -5   0  -7    1.13    0.35
   5   0   7    1.21    0.40
  -6   0  -7    5.17    0.51
  -6   0  -7    4.72    0.50
   6   0   7    5.48    0.58
  -7   0  -7    0.21    0.39
   7   0   7   -0.06    0.45
  -8   0  -7    0.22    0.42
   8   0   7    0.55    0.50
  -9   1   7    1.44    0.37
  -8   1   7    0.18    0.32
  -7   1   7    0.20    0.29
  -6   1   7    0.03    0.27
   5  -1  -7   13.32    0.72
  -5   1   7   13.35    0.77
   4  -1  -7    2.25    0.30
  -4   1   7    2.84    0.32
   3  -1  -7    0.90    0.27
   3  -1  -7    1.41    0.26
  -3   1   7    1.54    0.27
   2  -1  -7   15.67    0.86
   2  -1  -7   15.61    0.87
  -2   1   7   16.58    0.86
   1  -1  -7    0.20    0.25
   1  -1  -7    0.25    0.26
  -1   1   7   -0.14    0.24
   0  -1  -7    1.16    0.29
   0  -1  -7    0.99    0.28
   0   1   7    1.04    0.27
  -1  -1  -7    5.85    0.46
  -1  -1  -7    5.86    0.47
   1   1   7    6.22    0.45
  -2  -1  -7   18.23    1.02
  -2  -1  -7   17.87    0.99
   2   1   7   18.86    0.95
  -3  -1  -7    4.95    0.48
  -3  -1  -7    6.35    0.50
   3   1   7    6.26    0.48
  -4  -1  -7   -0.05    0.32
  -4  -1  -7    0.63    0.34
   4   1   7    0.40    0.33
  -5  -1  -7    0.30    0.37
  -5  -1  -7    0.43    0.37
   5   1   7   -0.22    0.36
  -6  -1  -7    1.66    0.45
  -6  -1  -7    1.99    0.46
   6   1   7    2.83    0.47
  -7  -1  -7    4.29    0.56
   7   1   7    4.31    0.58
  -9   2   7    0.27    0.34
  -8   2   7    0.41    0.31
  -7   2   7   -0.03    0.28
  -6   2   7    2.92    0.36
   5  -2  -7    1.27    0.25
  -5   2   7    0.75    0.29
   4  -2  -7    5.77    0.42
  -4   2   7    4.93    0.43
   3  -2  -7    7.31    0.54
   3  -2  -7    6.94    0.57
  -3   2   7    8.44    0.59
   2  -2  -7    1.45    0.33
   2  -2  -7    2.42    0.31
  -2   2   7    2.00    0.31
   1  -2  -7    5.26    0.44
   1  -2  -7    3.95    0.40
  -1   2   7    5.52    0.42
   0  -2  -7    8.60    0.64
   0  -2  -7    8.19    0.61
   0   2   7    8.79    0.61
  -1  -2  -7   20.60    1.12
  -1  -2  -7   21.19    1.12
   1   2   7   21.64    1.09
  -2  -2  -7   23.64    1.26
  -2  -2  -7   23.91    1.26
   2   2   7   25.20    1.19
  -3  -2  -7   -0.02    0.32
  -3  -2  -7    0.14    0.33
   3   2   7    0.56    0.29
  -4  -2  -7    5.26    0.53
  -4  -2  -7    5.37    0.54
   4   2   7    5.85    0.49
  -5  -2  -7    5.64    0.57
  -5  -2  -7    5.60    0.57
   5   2   7    6.16    0.54
  -6  -2  -7   14.66    1.03
  -6  -2  -7   12.62    1.04
   6   2   7   13.93    0.99
  -7  -2  -7   -0.30    0.49
   7   2   7   -0.31    0.46
  -9   3   7   -0.51    0.32
  -8   3   7   -0.05    0.31
  -7   3   7    2.42    0.35
  -6   3   7    0.06    0.27
   5  -3  -7    4.92    0.37
  -5   3   7    4.08    0.39
   4  -3  -7    0.53    0.28
  -4   3   7    0.21    0.27
   3  -3  -7    4.12    0.41
  -3   3   7    4.05    0.39
   2  -3  -7    2.69    0.35
   2  -3  -7    2.33    0.36
  -2   3   7    1.90    0.32
   1  -3  -7    1.57    0.33
   1  -3  -7    2.48    0.35
  -1   3   7    1.53    0.32
   0  -3  -7    8.15    0.64
   0  -3  -7    7.52    0.58
   0   3   7    8.14    0.63
  -1  -3  -7    0.40    0.34
  -1  -3  -7    0.05    0.33
   1   3   7    0.18    0.19
   1   3   7    0.21    0.28
  -2  -3  -7    1.77    0.39
  -2  -3  -7    1.69    0.39
   2   3   7    1.60    0.27
  -3  -3  -7    9.68    0.80
  -3  -3  -7    9.25    0.70
   3   3   7    9.78    0.63
  -4  -3  -7   12.42    0.86
  -4  -3  -7    7.71    0.70
   4   3   7    9.46    0.69
  -5  -3  -7    0.48    0.48
  -5  -3  -7    0.15    0.46
  -6  -3  -7    3.00    0.58
  -6  -3  -7    2.52    0.56
  -9   4   7    0.07    0.35
  -8   4   7   -0.35    0.31
  -7   4   7   -0.19    0.30
  -6   4   7    0.26    0.29
   5  -4  -7    0.48    0.26
  -5   4   7    0.24    0.36
  -5   4   7    0.38    0.28
   4  -4  -7   -0.11    0.28
  -4   4   7   -0.14    0.28
  -4   4   7    0.11    0.36
   3  -4  -7    0.39    0.32
  -3   4   7    0.49    0.29
  -3   4   7    0.48    0.35
   2  -4  -7    0.39    0.33
   2  -4  -7    1.07    0.35
  -2   4   7    0.79    0.37
  -2   4   7    0.71    0.31
   1  -4  -7    4.95    0.48
   1  -4  -7    4.40    0.45
  -1   4   7    4.66    0.44
   0  -4  -7    9.66    0.75
   0  -4  -7   10.99    0.79
   0   4   7   10.28    0.73
  -1  -4  -7   12.01    0.88
  -1  -4  -7   11.91    0.84
  -2  -4  -7    2.82    0.47
  -2  -4  -7    2.55    0.46
  -3  -4  -7   -0.24    0.43
  -3  -4  -7   -0.26    0.43
  -4  -4  -7    1.81    0.52
  -4  -4  -7    1.57    0.52
  -5  -4  -7    4.87    0.64
  -5  -4  -7    3.42    0.63
  -6  -4  -7    0.22    0.59
  -6  -4  -7    0.81    0.59
  -8   5   7    0.04    0.33
  -7   5   7   -0.07    0.31
  -6   5   7    1.51    0.34
  -6   5   7    1.33    0.43
   5  -5  -7    4.59    0.41
  -5   5   7    3.81    0.43
  -5   5   7    4.17    0.50
   4  -5  -7    0.03    0.32
  -4   5   7   -0.19    0.32
  -4   5   7   -0.15    0.40
   3  -5  -7    0.93    0.36
  -3   5   7    1.24    0.41
  -3   5   7    1.12    0.34
   2  -5  -7   13.55    0.85
  -2   5   7   11.65    0.84
  -2   5   7   12.88    0.91
   1  -5  -7    4.82    0.52
   1  -5  -7    6.48    0.54
  -1   5   7    4.76    0.52
  -1   5   7    5.43    0.49
   0  -5  -7    2.07    0.43
   0  -5  -7    1.36    0.43
   0   5   7    1.42    0.35
  -1  -5  -7   -0.10    0.40
  -1  -5  -7    0.33    0.43
  -2  -5  -7   -0.39    0.45
  -2  -5  -7    0.12    0.46
  -3  -5  -7    1.40    0.53
  -3  -5  -7    0.93    0.54
  -4  -5  -7    0.17    0.56
  -4  -5  -7   -0.08    0.56
  -5  -5  -7    1.66    0.63
  -5  -5  -7    0.41    0.63
  -8   6   7    0.68    0.37
  -7   6   7    0.79    0.46
  -7   6   7   -0.11    0.36
  -6   6   7   -0.45    0.45
  -6   6   7    0.27    0.36
   5  -6  -7   -0.26    0.31
  -5   6   7    0.61    0.37
  -5   6   7   -0.12    0.43
   4  -6  -7    0.06    0.34
  -4   6   7    0.27    0.37
  -4   6   7    0.32    0.43
   3  -6  -7    1.70    0.40
  -3   6   7    1.44    0.41
  -3   6   7    2.10    0.47
   2  -6  -7    0.20    0.39
  -2   6   7    0.21    0.42
  -2   6   7    0.29    0.36
   1  -6  -7   -0.11    0.40
  -1   6   7    0.50    0.37
  -1   6   7    0.09    0.41
   0  -6  -7    0.07    0.43
   0  -6  -7    0.95    0.46
   0   6   7    0.45    0.43
  -1  -6  -7    1.74    0.51
  -1  -6  -7    0.28    0.46
  -2  -6  -7    1.39    0.55
  -2  -6  -7    1.06    0.54
  -3  -6  -7    2.69    0.65
  -3  -6  -7    1.89    0.62
  -4  -6  -7    0.49    0.64
  -4  -6  -7    0.07    0.62
  -7   7   7    0.01    0.40
  -7   7   7   -0.39    0.52
  -6   7   7   -0.36    0.39
  -6   7   7    0.47    0.53
   5  -7  -7    0.03    0.33
  -5   7   7   -0.21    0.51
  -5   7   7    0.19    0.41
   4  -7  -7    0.40    0.37
  -4   7   7   -0.23    0.49
  -4   7   7    0.24    0.41
   3  -7  -7    0.41    0.39
  -3   7   7    0.01    0.41
  -3   7   7    0.07    0.47
   2  -7  -7    0.51    0.45
  -2   7   7    0.67    0.42
  -2   7   7    1.06    0.48
   1  -7  -7    1.69    0.50
  -1   7   7    2.53    0.55
  -1   7   7    2.11    0.45
   0  -7  -7    0.15    0.47
   0   7   7    0.56    0.49
  -1  -7  -7    0.67    0.54
  -1  -7  -7    0.51    0.55
  -2  -7  -7    0.85    0.64
  -2  -7  -7    2.00    0.62
  -3  -7  -7    0.06    0.63
  -3  -7  -7   -0.41    0.65
  -6   8   7   -0.11    0.45
  -6   8   7    0.40    0.61
   5  -8  -7    0.38    0.37
  -5   8   7    0.25    0.59
  -5   8   7   -0.69    0.44
   4  -8  -7   -0.27    0.38
  -4   8   7   -0.33    0.56
  -4   8   7   -0.45    0.46
   3  -8  -7    0.09    0.43
  -3   8   7   -0.44    0.46
  -3   8   7    0.44    0.56
   2  -8  -7    0.37    0.48
  -2   8   7    1.11    0.49
  -2   8   7    1.43    0.58
   1  -8  -7    0.33    0.51
  -1   8   7    0.44    0.53
   0  -8  -7    0.47    0.55
   0   8   7    0.32    0.55
  -1  -8  -7    1.27    0.63
   1   8   7    2.19    0.61
  -2  -8  -7    0.46    0.71
  -5   9   7    0.52    0.54
  -5   9   7    0.68    0.67
   4  -9  -7    0.18    0.43
  -4   9   7    0.03    0.67
  -4   9   7   -0.19    0.54
   3  -9  -7   -0.34    0.45
  -3   9   7   -0.44    0.51
  -3   9   7   -0.04    0.64
   2  -9  -7    0.54    0.55
  -2   9   7    0.88    0.63
   1  -9  -7   -0.78    0.55
  -1   9   7    0.49    0.61
   0  -9  -7    1.05    0.63
   0   9   7    0.44    0.63
  -1  13  -8    1.26    0.76
  -2  13  -8    0.86    0.67
  -2  13  -8    0.38    0.73
   2  12  -8    0.75    0.65
   1  12  -8    0.71    0.64
   0  12  -8    2.09    0.69
  -1  12  -8   -0.49    0.66
  -1  12  -8    0.60    0.58
  -2  12  -8   -0.24    0.65
  -2  12  -8   -0.12    0.60
  -3  12  -8    0.24    0.62
  -3  12  -8   -0.14    0.68
  -4  12  -8   -0.89    0.62
  -4  12  -8   -0.45    0.68
  -5  12  -8    0.07    0.64
   3  11  -8    1.02    0.61
   2  11  -8    1.46    0.60
   1  11  -8    3.63    0.67
   0  11  -8   -0.16    0.65
   0  11  -8    0.83    0.60
  -1  11  -8   -0.11    0.52
  -1  11  -8    0.15    0.61
  -2  11  -8    0.14    0.54
  -2  11  -8    0.65    0.60
  -3  11  -8    1.21    0.56
  -3  11  -8    2.30    0.65
  -4  11  -8    0.75    0.61
  -4  11  -8    1.48    0.60
  -5  11  -8   -0.59    0.57
  -5  11  -8   -0.62    0.59
  -6  11  -8   -0.69    0.84
  -6  11  -8    0.17    0.61
   5  10  -8   -0.26    0.53
  -5 -10   8   -0.06    0.67
   4  10  -8    1.67    0.59
  -4 -10   8    1.91    0.65
   3  10  -8    3.66    0.61
  -3 -10   8    2.11    0.60
   2  10  -8    0.79    0.53
  -2 -10   8    0.86    0.51
   1  10  -8    0.33    0.51
   0  10  -8    1.20    0.48
   0  10  -8    0.10    0.54
  -1  10  -8    3.89    0.62
  -1  10  -8    3.90    0.56
  -2  10  -8    4.73    0.67
  -2  10  -8    4.75    0.61
  -3  10  -8    2.36    0.56
  -3  10  -8    2.64    0.60
  -4  10  -8   -0.11    0.52
  -4  10  -8    0.15    0.51
  -5  10  -8    0.22    0.52
  -5  10  -8    0.28    0.51
  -6  10  -8    1.31    0.61
  -6  10  -8    1.74    0.55
  -6  -9   8    1.79    0.73
   5   9  -8    2.22    0.51
  -5  -9   8    2.15    0.65
   4   9  -8    2.29    0.53
  -4  -9   8    1.60    0.58
   3   9  -8   -0.55    0.46
  -3  -9   8   -0.30    0.49
   2   9  -8    1.81    0.50
  -2  -9   8    1.83    0.49
   1   9  -8    5.20    0.62
   1   9  -8    5.98    0.57
  -1  -9   8    5.00    0.57
   0   9  -8    9.87    0.78
   0   9  -8   10.53    0.84
  -1   9  -8    5.65    0.58
  -1   9  -8    4.37    0.60
  -2   9  -8   -0.25    0.43
  -2   9  -8    0.35    0.47
  -3   9  -8    0.53    0.49
  -3   9  -8    1.08    0.45
  -4   9  -8    2.49    0.50
  -4   9  -8    2.57    0.52
  -5   9  -8    2.49    0.53
  -5   9  -8    2.86    0.52
  -6   9  -8    0.39    0.47
  -6   9  -8   -0.32    0.46
  -7   9  -8   -0.46    0.46
   7  -9   8   -0.15    0.52
  -6  -8   8   -0.44    0.49
   5   8  -8    0.22    0.43
  -5  -8   8   -0.20    0.47
   4   8  -8    2.30    0.49
  -4  -8   8    3.36    0.53
   3   8  -8    1.69    0.46
  -3  -8   8    1.08    0.45
   2   8  -8   10.06    0.76
  -2  -8   8   11.01    0.83
   1   8  -8    4.43    0.53
   1   8  -8    5.00    0.50
  -1  -8   8    4.64    0.50
   0   8  -8    0.47    0.43
   0   8  -8   -0.63    0.37
   0  -8   8    0.01    0.35
  -1   8  -8    5.09    0.58
  -1   8  -8    5.51    0.54
  -2   8  -8   10.32    0.77
  -2   8  -8   10.98    0.83
  -3   8  -8    5.89    0.57
  -3   8  -8    4.67    0.53
  -4   8  -8    0.60    0.41
  -4   8  -8    0.69    0.42
  -5   8  -8   -0.49    0.38
  -5   8  -8    0.19    0.40
  -6   8  -8   -0.08    0.40
  -6   8  -8   -0.10    0.41
  -7   8  -8   -0.33    0.41
   7  -8   8   -0.36    0.52
  -7  -7   8   -0.24    0.52
  -6  -7   8    0.06    0.48
   5   7  -8    6.27    0.57
  -5  -7   8    6.30    0.62
   4   7  -8    5.02    0.55
  -4  -7   8    6.05    0.57
   3   7  -8    5.54    0.56
  -3  -7   8    5.21    0.53
   2   7  -8    0.99    0.35
   2   7  -8    1.35    0.41
  -2  -7   8    1.61    0.39
   1   7  -8    8.93    0.64
   1   7  -8    8.61    0.65
  -1  -7   8    9.44    0.74
   0   7  -8    9.64    0.76
   0   7  -8   10.03    0.71
   0  -7   8    9.46    0.72
  -1   7  -8   10.67    0.79
  -1   7  -8   10.48    0.86
  -2   7  -8    1.63    0.41
  -2   7  -8    0.98    0.37
  -3   7  -8    0.57    0.39
  -3   7  -8    0.27    0.36
  -4   7  -8   -0.24    0.37
  -4   7  -8    0.44    0.36
  -5   7  -8    0.71    0.39
  -5   7  -8    0.71    0.38
  -6   7  -8    1.71    0.42
  -6   7  -8    2.33    0.43
  -7   7  -8   -0.81    0.37
   7  -7   8    1.07    0.56
  -8   7  -8    1.15    0.43
   8  -7   8    1.20    0.62
  -7  -6   8    1.73    0.51
   6   6  -8    1.82    0.37
  -6  -6   8    2.21    0.48
   5   6  -8    0.42    0.35
  -5  -6   8    0.42    0.39
   4   6  -8    0.48    0.36
  -4  -6   8    0.74    0.37
   3   6  -8    9.45    0.74
  -3  -6   8    8.43    0.70
   2   6  -8    8.67    0.69
   2   6  -8   10.40    0.78
  -2  -6   8    8.29    0.68
   1   6  -8   14.71    0.91
   1   6  -8   15.56    0.96
  -1  -6   8   14.35    0.88
   0   6  -8    5.83    0.49
   0   6  -8    3.94    0.48
   0  -6   8    5.26    0.45
  -1   6  -8    0.41    0.32
  -1   6  -8    0.36    0.35
   1  -6   8    0.38    0.28
  -2   6  -8    0.47    0.34
  -2   6  -8    0.54    0.36
  -3   6  -8    9.01    0.71
  -3   6  -8    8.13    0.60
  -4   6  -8    7.22    0.58
  -4   6  -8    8.10    0.58
  -5   6  -8    7.27    0.55
  -5   6  -8    5.89    0.53
  -6   6  -8    4.03    0.47
  -6   6  -8    2.91    0.44
  -7   6  -8   -0.23    0.37
   7  -6   8   -0.08    0.54
  -8   6  -8    0.70    0.41
   8  -6   8    1.41    0.61
  -8  -5   8    0.62    0.48
  -7  -5   8    0.71    0.43
   6   5  -8    2.97    0.36
  -6  -5   8    3.22    0.47
   5   5  -8    5.77    0.49
  -5  -5   8    5.85    0.53
   4   5  -8    4.83    0.46
  -4  -5   8    3.78    0.45
   3   5  -8    5.49    0.49
  -3  -5   8    5.72    0.49
   2   5  -8    3.99    0.41
   2   5  -8    4.17    0.44
  -2  -5   8    3.41    0.40
   1   5  -8    0.68    0.34
   1   5  -8   -0.01    0.30
  -1  -5   8   -0.07    0.27
   0   5  -8    3.80    0.41
   0   5  -8    5.04    0.48
   0  -5   8    3.76    0.39
  -1   5  -8   13.37    0.81
  -1   5  -8   12.33    0.84
   1  -5   8   11.97    0.74
  -2   5  -8   36.65    1.81
  -2   5  -8   37.63    1.79
  -3   5  -8   10.68    0.76
  -3   5  -8    9.30    0.69
  -4   5  -8    6.20    0.53
  -4   5  -8    7.11    0.54
  -5   5  -8    0.58    0.35
  -5   5  -8    0.20    0.34
  -6   5  -8    3.85    0.45
  -6   5  -8    2.31    0.42
  -7   5  -8    0.53    0.38
   7  -5   8   -0.31    0.53
  -8   5  -8    0.88    0.41
   8  -5   8    0.00    0.56
  -8  -4   8    1.16    0.48
  -7  -4   8    3.38    0.50
   6   4  -8    0.01    0.25
  -6  -4   8   -0.16    0.36
   5   4  -8    4.01    0.41
  -5  -4   8    3.76    0.45
   4   4  -8    0.70    0.33
  -4  -4   8    0.75    0.33
   3   4  -8   -0.36    0.29
   3   4  -8   -0.29    0.32
  -3  -4   8   -0.50    0.29
   2   4  -8   -0.17    0.27
   2   4  -8    0.30    0.32
  -2  -4   8   -0.14    0.27
   1   4  -8   20.80    1.13
   1   4  -8   20.56    1.09
  -1  -4   8   20.78    1.08
   0   4  -8   50.03    2.32
   0   4  -8   49.09    2.33
   0  -4   8   50.63    2.31
  -1   4  -8   17.88    1.05
  -1   4  -8   19.59    1.07
   1  -4   8   20.54    1.01
  -2   4  -8    2.78    0.37
  -2   4  -8    2.89    0.37
  -3   4  -8   12.48    0.78
  -3   4  -8   12.02    0.82
  -4   4  -8    5.09    0.47
  -4   4  -8    6.14    0.51
  -5   4  -8   10.07    0.74
  -5   4  -8   10.83    0.79
  -6   4  -8    3.23    0.44
  -6   4  -8    4.32    0.48
   6  -4   8    3.01    0.55
  -7   4  -8    1.20    0.40
   7  -4   8    0.58    0.55
  -8   4  -8   -0.14    0.40
   8  -4   8   -0.06    0.59
  -9  -3   8    0.10    0.48
  -8  -3   8    1.00    0.45
  -7  -3   8    0.09    0.37
   6   3  -8    1.87    0.27
  -6  -3   8    2.24    0.39
   5   3  -8   -0.20    0.27
  -5  -3   8    0.33    0.31
   4   3  -8    3.82    0.39
  -4  -3   8    3.08    0.38
   3   3  -8   40.81    1.95
   3   3  -8   42.49    1.97
  -3  -3   8   41.27    1.96
   2   3  -8   27.22    1.36
   2   3  -8   26.24    1.32
  -2  -3   8   27.25    1.33
   1   3  -8   21.08    1.08
   1   3  -8   20.12    1.09
  -1  -3   8   20.74    1.07
   0   3  -8    3.37    0.38
   0   3  -8    3.16    0.36
   0  -3   8    2.69    0.33
  -1   3  -8    7.80    0.61
  -1   3  -8    8.89    0.59
   1  -3   8    7.48    0.57
  -2   3  -8    3.29    0.40
  -2   3  -8    4.39    0.40
   2  -3   8    3.81    0.39
  -3   3  -8   33.25    1.62
  -3   3  -8   32.97    1.60
  -4   3  -8   48.81    2.26
  -4   3  -8   46.48    2.24
  -5   3  -8   -0.25    0.33
  -5   3  -8   -0.06    0.34
  -6   3  -8    1.04    0.38
  -6   3  -8    0.89    0.40
   6  -3   8    0.29    0.47
  -7   3  -8    1.64    0.42
   7  -3   8    1.86    0.57
  -8   3  -8    0.89    0.43
   8  -3   8    0.30    0.57
  -9  -2   8    0.31    0.43
  -8  -2   8   -0.06    0.37
  -7  -2   8    0.11    0.35
   6   2  -8    3.22    0.29
  -6  -2   8    2.99    0.39
   5   2  -8   10.43    0.67
  -5  -2   8   10.23    0.71
   4   2  -8    3.90    0.38
  -4  -2   8    3.37    0.38
   3   2  -8   19.65    1.05
   3   2  -8   18.55    0.99
  -3  -2   8   19.66    1.03
   2   2  -8    2.44    0.35
   2   2  -8    3.63    0.37
  -2  -2   8    2.58    0.34
   1   2  -8   10.74    0.72
   1   2  -8   10.87    0.74
  -1  -2   8   12.63    0.72
   0   2  -8   19.61    1.06
   0   2  -8   19.53    1.07
   0  -2   8   21.19    1.04
  -1   2  -8   14.60    0.90
  -1   2  -8   16.38    0.89
   1  -2   8   15.94    0.85
  -2   2  -8   31.85    1.59
  -2   2  -8   33.26    1.61
   2  -2   8   32.91    1.58
  -3   2  -8   -0.14    0.32
  -3   2  -8    0.54    0.31
  -4   2  -8   -0.27    0.33
  -4   2  -8    0.30    0.33
  -5   2  -8    1.79    0.39
  -5   2  -8    0.88    0.36
   5  -2   8    1.23    0.43
  -6   2  -8    6.88    0.58
  -6   2  -8    6.92    0.59
   6  -2   8    6.61    0.70
  -7   2  -8    1.82    0.45
   7  -2   8    1.87    0.57
  -8   2  -8    0.55    0.46
   8  -2   8   -0.30    0.52
  -9  -1   8    0.39    0.42
  -8  -1   8    0.41    0.36
  -7  -1   8    2.89    0.41
   6   1  -8    5.82    0.42
  -6  -1   8    5.36    0.48
   5   1  -8   -0.09    0.24
  -5  -1   8   -0.23    0.30
   4   1  -8    0.43    0.27
  -4  -1   8    0.05    0.31
   3   1  -8   47.89    2.24
   3   1  -8   47.96    2.22
  -3  -1   8   48.16    2.24
   2   1  -8   16.75    0.91
   2   1  -8   15.71    0.93
  -2  -1   8   16.66    0.91
   1   1  -8   25.54    1.33
   1   1  -8   25.36    1.34
  -1  -1   8   29.45    1.33
   0   1  -8    6.36    0.50
   0   1  -8    7.47    0.58
   0  -1   8    7.45    0.57
  -1   1  -8    9.44    0.72
  -1   1  -8   10.27    0.71
   1  -1   8   11.00    0.67
  -2   1  -8   10.15    0.72
  -2   1  -8   10.26    0.71
  -3   1  -8    6.01    0.50
  -3   1  -8    5.43    0.48
  -4   1  -8   17.46    1.02
  -4   1  -8   16.56    1.00
  -5   1  -8   11.27    0.84
  -5   1  -8   13.34    0.89
   5  -1   8   11.44    0.94
  -6   1  -8    3.06    0.47
  -6   1  -8    3.15    0.47
   6  -1   8    2.44    0.54
  -7   1  -8   -0.17    0.42
   7  -1   8    0.63    0.50
  -9   0   8    1.75    0.43
  -8   0   8    1.26    0.38
  -7   0   8    0.42    0.34
  -6   0   8    1.09    0.34
   5   0  -8    1.35    0.28
  -5   0   8    1.22    0.32
   4   0  -8   58.88    2.71
  -4   0   8   59.72    2.73
   3   0  -8    6.92    0.49
   3   0  -8    6.41    0.48
  -3   0   8    5.87    0.48
   2   0  -8   20.38    1.05
   2   0  -8   18.68    1.05
  -2   0   8   20.41    1.05
   1   0  -8    0.87    0.29
   1   0  -8    0.53    0.29
  -1   0   8    0.56    0.28
   0   0  -8    0.10    0.30
   0   0  -8   -0.09    0.28
   0   0   8   -0.15    0.27
  -1   0  -8   11.43    0.75
  -1   0  -8    9.58    0.73
   1   0   8   10.52    0.69
  -2   0  -8    4.79    0.46
  -2   0  -8    3.88    0.42
  -3   0  -8   36.61    1.72
  -3   0  -8   32.47    1.71
  -4   0  -8    5.94    0.54
  -4   0  -8    6.13    0.55
   4   0   8    6.28    0.56
  -5   0  -8    0.17    0.39
  -5   0  -8    0.52    0.41
   5   0   8   -0.33    0.41
  -6   0  -8   -0.37    0.42
  -6   0  -8   -0.05    0.41
   6   0   8    0.10    0.44
  -7   0  -8    0.59    0.47
   7   0   8    0.86    0.49
  -9   1   8   -0.33    0.38
  -8   1   8    0.30    0.36
  -7   1   8    0.94    0.35
  -6   1   8    0.96    0.34
   5  -1  -8    0.58    0.27
  -5   1   8    0.43    0.31
   4  -1  -8   -0.20    0.26
  -4   1   8    0.17    0.30
   3  -1  -8   17.66    0.99
  -3   1   8   17.78    0.99
   2  -1  -8    3.71    0.38
   2  -1  -8    3.11    0.40
  -2   1   8    3.39    0.38
   1  -1  -8   13.87    0.87
   1  -1  -8   14.44    0.85
  -1   1   8   14.55    0.85
   0  -1  -8   27.99    1.39
   0  -1  -8   25.34    1.38
   0   1   8   28.06    1.36
  -1  -1  -8    4.58    0.46
  -1  -1  -8    4.72    0.47
   1   1   8    5.70    0.45
  -2  -1  -8    0.18    0.35
  -2  -1  -8   -0.22    0.33
  -3  -1  -8    0.29    0.36
  -3  -1  -8    0.05    0.36
   3   1   8    0.16    0.33
  -4  -1  -8    1.07    0.42
  -4  -1  -8    0.57    0.40
   4   1   8    0.72    0.38
  -5  -1  -8    0.19    0.43
  -5  -1  -8    0.43    0.45
   5   1   8    0.47    0.41
  -6  -1  -8    2.81    0.53
  -6  -1  -8    3.39    0.56
   6   1   8    2.18    0.49
  -7  -1  -8    3.34    0.58
   7   1   8    1.46    0.51
  -9   2   8    0.21    0.39
  -8   2   8    1.07    0.39
  -7   2   8    0.16    0.33
  -6   2   8    0.79    0.32
   5  -2  -8   -0.23    0.25
  -5   2   8    0.09    0.29
   4  -2  -8    6.62    0.52
  -4   2   8    8.33    0.62
   3  -2  -8   12.77    0.80
  -3   2   8   12.80    0.80
   2  -2  -8   22.10    1.16
   2  -2  -8   20.46    1.11
  -2   2   8   20.75    1.13
   1  -2  -8    4.98    0.48
   1  -2  -8    4.95    0.49
  -1   2   8    6.18    0.49
   0  -2  -8    1.38    0.37
   0  -2  -8    1.89    0.37
   0   2   8    2.19    0.36
  -1  -2  -8   -0.24    0.35
  -1  -2  -8   -0.50    0.34
   1   2   8    0.12    0.30
  -2  -2  -8    1.97    0.40
  -2  -2  -8    0.77    0.41
   2   2   8    1.00    0.30
  -3  -2  -8    8.44    0.68
  -3  -2  -8    8.94    0.68
   3   2   8    8.58    0.68
  -4  -2  -8    1.42    0.48
  -4  -2  -8    2.55    0.50
   4   2   8    2.92    0.42
  -5  -2  -8   15.75    1.16
  -5  -2  -8   18.32    1.15
   5   2   8   14.26    1.02
  -6  -2  -8    0.45    0.51
  -6  -2  -8    0.14    0.54
  -9   3   8    0.35    0.39
  -8   3   8    0.51    0.35
  -7   3   8    0.04    0.34
  -6   3   8    0.98    0.35
   5  -3  -8    0.15    0.28
  -5   3   8    0.01    0.32
   4  -3  -8    4.71    0.45
  -4   3   8    4.52    0.46
   3  -3  -8    4.64    0.46
  -3   3   8    3.89    0.43
   2  -3  -8    2.44    0.40
   2  -3  -8    1.45    0.38
  -2   3   8    1.38    0.35
   1  -3  -8    6.05    0.53
   1  -3  -8    5.37    0.52
  -1   3   8    5.85    0.49
   0  -3  -8    3.55    0.47
   0  -3  -8    3.80    0.45
   0   3   8    4.36    0.44
  -1  -3  -8    3.75    0.48
  -1  -3  -8    3.05    0.47
  -2  -3  -8   12.89    0.98
  -2  -3  -8   12.07    0.92
  -3  -3  -8    2.51    0.51
  -3  -3  -8    2.00    0.50
  -4  -3  -8    1.02    0.51
  -4  -3  -8    1.02    0.51
  -5  -3  -8    1.38    0.57
  -5  -3  -8    0.75    0.56
  -6  -3  -8    0.45    0.60
  -6  -3  -8    0.86    0.59
  -8   4   8    0.26    0.38
  -7   4   8   -0.26    0.34
  -6   4   8    0.57    0.34
   5  -4  -8   -0.01    0.29
  -5   4   8    0.01    0.33
   4  -4  -8   -0.03    0.32
  -4   4   8    0.38    0.33
   3  -4  -8   -0.09    0.35
  -3   4   8   -0.05    0.32
   2  -4  -8    0.60    0.37
  -2   4   8    0.03    0.35
   1  -4  -8    2.87    0.45
   1  -4  -8    3.54    0.47
  -1   4   8    3.84    0.44
   0  -4  -8    2.07    0.45
   0  -4  -8    2.77    0.46
   0   4   8    3.03    0.41
  -1  -4  -8    6.09    0.60
  -1  -4  -8    5.21    0.58
  -2  -4  -8   -0.28    0.46
  -2  -4  -8   -0.05    0.46
  -3  -4  -8   -0.21    0.50
  -3  -4  -8   -0.32    0.50
  -4  -4  -8    4.59    0.67
  -4  -4  -8    4.89    0.69
  -5  -4  -8    1.54    0.65
  -5  -4  -8    1.42    0.63
  -8   5   8    1.20    0.41
  -7   5   8    0.14    0.36
  -6   5   8    0.34    0.37
   5  -5  -8    0.44    0.33
  -5   5   8    0.10    0.36
   4  -5  -8    0.08    0.35
  -4   5   8   -0.02    0.36
   3  -5  -8    1.01    0.39
  -3   5   8    1.22    0.39
   2  -5  -8    5.31    0.56
  -2   5   8    6.05    0.55
   1  -5  -8    2.49    0.49
  -1   5   8    2.17    0.43
   0  -5  -8    0.03    0.44
   0  -5  -8   -0.25    0.43
  -1  -5  -8    1.06    0.51
  -1  -5  -8    2.25    0.53
  -2  -5  -8    0.30    0.52
  -2  -5  -8    0.43    0.52
  -3  -5  -8    0.97    0.59
  -3  -5  -8    0.41    0.58
  -4  -5  -8   -0.21    0.61
  -4  -5  -8   -0.06    0.62
  -7   6   8    0.11    0.40
  -6   6   8    0.08    0.39
   5  -6  -8    0.45    0.36
  -5   6   8    0.76    0.55
  -5   6   8    0.72    0.41
   4  -6  -8    0.28    0.39
  -4   6   8   -0.04    0.39
  -4   6   8    0.34    0.53
   3  -6  -8   -0.30    0.38
  -3   6   8    0.23    0.51
  -3   6   8   -0.44    0.40
   2  -6  -8    0.17    0.43
  -2   6   8    0.08    0.49
  -2   6   8   -0.32    0.40
   1  -6  -8    0.78    0.48
  -1   6   8    0.50    0.39
   0  -6  -8    0.86    0.51
  -1  -6  -8    1.68    0.56
  -1  -6  -8    0.04    0.54
  -2  -6  -8    3.74    0.67
  -2  -6  -8    3.96    0.68
  -3  -6  -8    0.85    0.64
  -3  -6  -8    0.82    0.65
  -6   7   8    0.04    0.62
  -6   7   8    0.81    0.45
   5  -7  -8   -0.11    0.37
  -5   7   8    0.63    0.60
  -5   7   8    0.05    0.45
   4  -7  -8    0.44    0.41
  -4   7   8    0.51    0.59
  -4   7   8    0.51    0.46
   3  -7  -8    0.46    0.44
  -3   7   8    1.08    0.47
  -3   7   8    0.89    0.58
   2  -7  -8    0.72    0.48
  -2   7   8    1.25    0.58
  -2   7   8   -0.40    0.43
   1  -7  -8    0.50    0.53
  -1   7   8    0.34    0.53
   0  -7  -8    0.88    0.58
  -1  -7  -8    0.32    0.62
  -2  -7  -8    0.83    0.67
   5  -8  -8    0.20    0.40
  -5   8   8    0.48    0.50
  -5   8   8   -0.08    0.66
   4  -8  -8    1.23    0.46
  -4   8   8    0.34    0.68
  -4   8   8    0.23    0.50
   3  -8  -8    0.40    0.48
  -3   8   8   -0.37    0.48
  -3   8   8    0.16    0.65
   2  -8  -8    0.00    0.54
  -2   8   8    0.35    0.62
   1  -8  -8    0.17    0.59
  -1   8   8    0.94    0.63
   0  -8  -8    0.35    0.65
   1  12  -9    0.55    0.67
   0  12  -9    1.25    0.69
  -1  12  -9   -0.26    0.71
  -2  12  -9   -0.89    0.70
  -2  12  -9    0.03    0.62
  -3  12  -9   -0.98    0.71
  -3  12  -9   -0.54    0.64
  -4  12  -9    1.44    0.66
   3  11  -9    0.29    0.61
   2  11  -9    4.32    0.71
   1  11  -9    0.22    0.60
   0  11  -9    0.28    0.64
  -1  11  -9    1.33    0.66
  -1  11  -9    1.59    0.57
  -2  11  -9    2.16    0.58
  -2  11  -9    2.37    0.68
  -3  11  -9    2.10    0.63
  -3  11  -9    1.24    0.67
  -4  11  -9   -0.20    0.61
  -4  11  -9   -0.03    0.64
  -5  11  -9   -0.45    0.63
  -5  11  -9   -0.38    0.63
   4  10  -9    1.64    0.58
  -4 -10   9    0.07    0.63
   3  10  -9   -0.44    0.54
  -3 -10   9    0.71    0.58
   2  10  -9    1.05    0.56
   1  10  -9    0.49    0.58
   0  10  -9    4.54    0.60
   0  10  -9    4.01    0.65
  -1  10  -9    3.07    0.63
  -1  10  -9    2.95    0.56
  -2  10  -9    0.44    0.59
  -2  10  -9    0.38    0.53
  -3  10  -9    0.04    0.54
  -3  10  -9    0.01    0.58
  -4  10  -9    0.31    0.57
  -4  10  -9   -1.33    0.52
  -5  10  -9    1.74    0.61
  -5  10  -9    2.20    0.61
  -6  10  -9    0.00    0.57
   5   9  -9    0.68    0.53
  -5  -9   9   -0.18    0.53
   4   9  -9    0.94    0.53
  -4  -9   9   -0.31    0.49
   3   9  -9    2.81    0.58
  -3  -9   9    3.78    0.55
   2   9  -9    4.60    0.62
  -2  -9   9    3.67    0.56
   1   9  -9    6.89    0.68
   0   9  -9   -0.24    0.50
   0   9  -9    0.88    0.44
  -1   9  -9   -0.07    0.46
  -1   9  -9   -0.35    0.49
  -2   9  -9    0.82    0.55
  -2   9  -9    1.42    0.49
  -3   9  -9    5.30    0.65
  -3   9  -9    5.48    0.62
  -4   9  -9    4.51    0.63
  -4   9  -9    3.41    0.59
  -5   9  -9    0.35    0.50
  -5   9  -9   -0.12    0.51
  -6   9  -9   -1.17    0.70
  -6   9  -9    0.02    0.52
  -6  -8   9    1.04    0.57
   5   8  -9    1.87    0.51
  -5  -8   9    1.93    0.55
   4   8  -9    3.66    0.56
  -4  -8   9    3.64    0.56
   3   8  -9    3.77    0.58
  -3  -8   9    4.62    0.57
   2   8  -9    1.56    0.48
  -2  -8   9    1.17    0.46
   1   8  -9    1.67    0.47
   1   8  -9    0.90    0.40
  -1  -8   9    1.47    0.44
   0   8  -9    1.70    0.50
   0   8  -9    2.86    0.48
  -1   8  -9   21.39    1.29
  -1   8  -9   22.43    1.33
  -2   8  -9    8.21    0.68
  -2   8  -9    8.29    0.72
  -3   8  -9    0.82    0.45
  -3   8  -9    1.08    0.48
  -4   8  -9   -1.00    0.44
  -4   8  -9   -0.24    0.45
  -5   8  -9    1.72    0.49
  -5   8  -9    2.25    0.51
  -6   8  -9    0.54    0.49
  -6   8  -9    0.17    0.50
  -7   8  -9    0.04    0.50
   7  -8   9    0.33    0.57
  -7  -7   9    0.93    0.58
  -6  -7   9    1.68    0.53
   5   7  -9    6.18    0.58
  -5  -7   9    4.79    0.60
   4   7  -9   -0.02    0.43
  -4  -7   9    0.00    0.43
   3   7  -9    0.92    0.43
  -3  -7   9    0.46    0.41
   2   7  -9    6.29    0.60
  -2  -7   9    5.52    0.54
   1   7  -9   13.96    1.01
   1   7  -9   14.68    0.97
  -1  -7   9   13.71    0.94
   0   7  -9   15.47    1.06
   0   7  -9   15.56    1.01
   0  -7   9   15.22    0.97
  -1   7  -9   -0.13    0.38
  -1   7  -9   -0.02    0.42
  -2   7  -9   -0.36    0.37
  -2   7  -9    0.17    0.42
  -3   7  -9    4.75    0.54
  -3   7  -9    5.11    0.56
  -4   7  -9    1.28    0.44
  -4   7  -9    1.07    0.44
  -5   7  -9    0.49    0.43
  -5   7  -9    0.41    0.42
  -6   7  -9    0.39    0.44
  -6   7  -9    0.73    0.45
  -7   7  -9   -0.07    0.44
   7  -7   9    0.11    0.55
  -7  -6   9    0.13    0.49
   6   6  -9    0.36    0.39
  -6  -6   9    0.27    0.45
   5   6  -9    3.12    0.46
  -5  -6   9    2.84    0.49
   4   6  -9    2.73    0.48
  -4  -6   9    3.40    0.47
   3   6  -9   17.32    1.09
  -3  -6   9   16.96    1.03
   2   6  -9    4.57    0.50
   2   6  -9    4.28    0.51
  -2  -6   9    3.51    0.46
   1   6  -9    0.51    0.42
   1   6  -9    0.76    0.35
  -1  -6   9    0.60    0.34
   0   6  -9    3.09    0.43
   0   6  -9    2.81    0.47
   0  -6   9    3.38    0.41
  -1   6  -9    1.95    0.40
  -1   6  -9    2.39    0.47
  -2   6  -9    8.95    0.68
  -2   6  -9    8.47    0.65
  -3   6  -9    8.18    0.63
  -3   6  -9    7.44    0.61
  -4   6  -9    3.62    0.47
  -4   6  -9    3.26    0.49
  -5   6  -9    0.19    0.39
  -5   6  -9   -0.32    0.40
  -6   6  -9    0.25    0.42
  -6   6  -9    0.04    0.41
  -7   6  -9    0.92    0.45
   7  -6   9    0.65    0.59
  -7  -5   9    0.09    0.47
   6   5  -9    5.07    0.46
  -6  -5   9    4.74    0.58
   5   5  -9    2.92    0.42
  -5  -5   9    1.80    0.45
   4   5  -9    7.09    0.57
  -4  -5   9    6.15    0.57
   3   5  -9    1.00    0.39
  -3  -5   9    0.26    0.35
   2   5  -9    0.16    0.38
   2   5  -9    0.16    0.33
  -2  -5   9    0.55    0.34
   1   5  -9    6.30    0.51
   1   5  -9    5.64    0.53
  -1  -5   9    5.34    0.49
   0   5  -9    9.84    0.68
   0   5  -9    8.72    0.72
   0  -5   9    8.21    0.66
  -1   5  -9    9.56    0.64
  -1   5  -9    7.77    0.63
   1  -5   9    8.75    0.71
  -2   5  -9    8.41    0.63
  -2   5  -9    7.12    0.59
  -3   5  -9    0.22    0.35
  -3   5  -9   -0.12    0.37
  -4   5  -9    1.49    0.41
  -4   5  -9    0.60    0.39
  -5   5  -9    3.20    0.48
  -5   5  -9    2.48    0.46
  -6   5  -9    3.66    0.51
  -6   5  -9    3.23    0.49
  -7   5  -9    1.01    0.45
   7  -5   9    0.21    0.57
  -8  -4   9    1.11    0.53
  -7  -4   9   -0.01    0.45
   6   4  -9    1.05    0.31
  -6  -4   9    0.80    0.42
   5   4  -9    0.06    0.34
  -5  -4   9    0.30    0.38
   4   4  -9    0.33    0.36
  -4  -4   9    0.66    0.36
   3   4  -9    2.82    0.43
  -3  -4   9    3.03    0.41
   2   4  -9    2.55    0.37
   2   4  -9    2.37    0.41
  -2  -4   9    2.61    0.39
   1   4  -9    6.54    0.58
   1   4  -9    8.47    0.58
  -1  -4   9    7.06    0.54
   0   4  -9    3.13    0.43
   0   4  -9    3.59    0.42
   0  -4   9    3.75    0.40
  -1   4  -9    1.72    0.40
  -1   4  -9    1.73    0.37
   1  -4   9    2.51    0.34
  -2   4  -9    9.35    0.66
  -2   4  -9    9.22    0.65
  -3   4  -9   -0.22    0.36
  -3   4  -9    0.04    0.35
  -4   4  -9   17.64    1.09
  -4   4  -9   17.46    1.06
  -5   4  -9    2.88    0.44
  -5   4  -9    1.45    0.44
  -6   4  -9    0.06    0.44
  -6   4  -9    0.74    0.41
   6  -4   9    0.50    0.51
  -7   4  -9    0.83    0.45
   7  -4   9    0.03    0.58
  -8  -3   9   -0.26    0.45
  -7  -3   9    0.28    0.41
   6   3  -9   -0.02    0.26
  -6  -3   9    0.08    0.37
   5   3  -9    2.57    0.39
  -5  -3   9    2.38    0.40
   4   3  -9   10.48    0.74
  -4  -3   9   10.57    0.76
   3   3  -9    0.24    0.34
  -3  -3   9    0.09    0.31
   2   3  -9   15.64    0.90
   2   3  -9   15.45    0.96
  -2  -3   9   15.27    0.92
   1   3  -9    0.10    0.33
   1   3  -9    0.16    0.31
  -1  -3   9   -0.12    0.28
   0   3  -9    2.54    0.40
   0   3  -9    2.98    0.40
   0  -3   9    3.19    0.37
  -1   3  -9   16.40    0.96
  -1   3  -9   15.34    0.96
   1  -3   9   15.10    0.88
  -2   3  -9   19.98    1.14
  -2   3  -9   19.35    1.10
  -3   3  -9   38.22    1.80
  -3   3  -9   34.33    1.78
  -4   3  -9    3.72    0.48
  -4   3  -9    4.27    0.51
  -5   3  -9   -0.08    0.42
  -5   3  -9   -0.01    0.40
  -6   3  -9    2.02    0.47
  -6   3  -9    1.71    0.50
   6  -3   9    2.26    0.57
  -7   3  -9    1.35    0.48
   7  -3   9    1.94    0.60
  -8  -2   9    0.12    0.42
  -7  -2   9   -0.11    0.38
   6   2  -9    1.22    0.28
  -6  -2   9    1.45    0.40
   5   2  -9    0.20    0.31
  -5  -2   9   -0.41    0.32
   4   2  -9   14.51    0.90
  -4  -2   9   15.71    0.91
   3   2  -9   16.33    0.97
  -3  -2   9   15.68    0.94
   2   2  -9   19.41    1.09
   2   2  -9   19.34    1.07
  -2  -2   9   20.36    1.08
   1   2  -9    7.07    0.56
   1   2  -9    8.33    0.60
  -1  -2   9    8.48    0.65
   0   2  -9   23.47    1.29
   0   2  -9   25.17    1.28
   0  -2   9   24.53    1.26
  -1   2  -9    1.68    0.36
  -1   2  -9    1.41    0.38
   1  -2   9    1.59    0.31
  -2   2  -9    1.04    0.35
  -2   2  -9    0.64    0.37
  -3   2  -9    0.51    0.39
  -3   2  -9    0.22    0.36
  -4   2  -9    0.32    0.39
  -4   2  -9   -0.39    0.38
  -5   2  -9    2.52    0.47
  -5   2  -9    2.24    0.48
   5  -2   9    3.07    0.53
  -6   2  -9    1.60    0.48
  -6   2  -9    1.90    0.50
   6  -2   9    1.26    0.53
  -7   2  -9    0.16    0.47
   7  -2   9    0.36    0.56
  -8  -1   9   -0.53    0.39
  -7  -1   9    0.36    0.38
   6   1  -9    0.85    0.29
  -6  -1   9    0.23    0.35
   5   1  -9   -0.29    0.28
  -5  -1   9   -0.09    0.33
   4   1  -9    9.45    0.72
  -4  -1   9    9.54    0.72
   3   1  -9    1.09    0.35
  -3  -1   9    1.39    0.35
   2   1  -9    2.54    0.38
   2   1  -9    2.72    0.40
  -2  -1   9    2.77    0.39
   1   1  -9    1.29    0.34
   1   1  -9    1.16    0.36
  -1  -1   9    1.50    0.34
   0   1  -9    0.20    0.32
   0   1  -9    0.15    0.33
   0  -1   9   -0.62    0.29
  -1   1  -9    1.64    0.36
  -1   1  -9    0.52    0.38
   1  -1   9    1.89    0.34
  -2   1  -9   13.84    0.95
  -2   1  -9   15.48    0.96
  -3   1  -9    6.33    0.57
  -3   1  -9    4.75    0.52
  -4   1  -9    2.15    0.43
  -4   1  -9    1.25    0.43
  -5   1  -9    2.69    0.50
  -5   1  -9    1.97    0.47
   5  -1   9    2.71    0.53
  -6   1  -9    2.78    0.54
  -6   1  -9    2.58    0.53
   6  -1   9    2.46    0.57
  -7   1  -9    0.49    0.53
   7  -1   9    0.09    0.51
  -8   0   9    0.31    0.39
  -7   0   9    1.72    0.43
   6   0  -9    0.63    0.32
  -6   0   9    0.59    0.37
   5   0  -9    2.90    0.35
  -5   0   9    2.23    0.40
   4   0  -9    3.18    0.40
  -4   0   9    3.10    0.42
   3   0  -9   -0.11    0.31
  -3   0   9   -0.03    0.32
   2   0  -9    0.60    0.34
   2   0  -9    0.14    0.30
  -2   0   9   -0.02    0.31
   1   0  -9    0.17    0.32
   1   0  -9   -0.01    0.33
  -1   0   9    0.20    0.33
   0   0  -9   12.06    0.83
   0   0  -9   11.98    0.87
   0   0   9   13.27    0.83
  -1   0  -9    5.52    0.52
  -1   0  -9    5.29    0.52
   1   0   9    6.27    0.63
  -2   0  -9    5.57    0.54
  -2   0  -9    5.60    0.56
  -3   0  -9    0.46    0.42
  -3   0  -9    0.82    0.40
  -4   0  -9    0.94    0.45
  -4   0  -9    1.25    0.47
   4   0   9    0.77    0.41
  -5   0  -9    0.94    0.51
  -5   0  -9    1.62    0.50
   5   0   9    1.75    0.49
  -6   0  -9    0.66    0.50
  -6   0  -9   -0.75    0.49
   6   0   9    0.06    0.47
  -8   1   9   -0.06    0.39
  -7   1   9    0.32    0.38
  -6   1   9    1.26    0.39
   5  -1  -9    0.06    0.29
  -5   1   9    0.10    0.34
   4  -1  -9   -0.06    0.30
  -4   1   9   -0.03    0.34
   3  -1  -9    0.30    0.32
  -3   1   9    0.22    0.34
   2  -1  -9    2.74    0.40
   2  -1  -9    3.34    0.44
  -2   1   9    3.42    0.42
   1  -1  -9   -0.31    0.36
   1  -1  -9    1.17    0.35
  -1   1   9    0.86    0.35
   0  -1  -9    0.96    0.38
   0  -1  -9    1.70    0.41
   0   1   9    1.29    0.36
  -1  -1  -9    1.25    0.39
  -1  -1  -9    0.68    0.39
  -2  -1  -9    1.68    0.46
  -2  -1  -9    1.07    0.41
  -3  -1  -9    2.62    0.50
  -3  -1  -9    2.89    0.52
   3   1   9    2.70    0.43
  -4  -1  -9    3.65    0.56
  -4  -1  -9    3.64    0.56
   4   1   9    4.17    0.52
  -5  -1  -9    0.05    0.52
  -5  -1  -9    0.34    0.51
   5   1   9   -0.42    0.43
  -6  -1  -9   -0.01    0.56
  -6  -1  -9    1.12    0.55
  -8   2   9    0.30    0.40
  -7   2   9    0.53    0.39
  -6   2   9    0.40    0.38
   5  -2  -9    1.87    0.34
  -5   2   9    1.06    0.39
   4  -2  -9   -0.06    0.32
  -4   2   9    0.20    0.35
   3  -2  -9    0.50    0.35
  -3   2   9    1.28    0.38
   2  -2  -9   -0.42    0.36
  -2   2   9   -0.29    0.33
   1  -2  -9    0.11    0.37
   1  -2  -9   -0.02    0.38
  -1   2   9   -0.20    0.33
   0  -2  -9    2.98    0.44
   0  -2  -9    2.66    0.46
   0   2   9    2.70    0.42
  -1  -2  -9    2.97    0.48
  -1  -2  -9    3.19    0.50
  -2  -2  -9    4.00    0.54
  -2  -2  -9    2.81    0.51
   2   2   9    2.99    0.40
  -3  -2  -9    1.19    0.50
  -3  -2  -9    1.80    0.51
  -4  -2  -9    0.28    0.52
  -4  -2  -9    0.03    0.51
  -5  -2  -9   -0.31    0.55
  -5  -2  -9    0.14    0.57
  -8   3   9   -0.13    0.42
  -7   3   9    0.46    0.38
  -6   3   9    0.26    0.36
   5  -3  -9   -0.59    0.30
  -5   3   9   -0.08    0.36
   4  -3  -9    0.91    0.37
  -4   3   9    0.51    0.36
   3  -3  -9    1.02    0.37
  -3   3   9    1.17    0.38
   2  -3  -9    0.05    0.40
  -2   3   9   -0.22    0.34
   1  -3  -9    1.84    0.44
   1  -3  -9    2.28    0.45
  -1   3   9    1.75    0.41
   0  -3  -9    2.35    0.47
   0  -3  -9    1.69    0.46
  -1  -3  -9    0.52    0.44
  -1  -3  -9    0.90    0.47
  -2  -3  -9    0.21    0.47
  -2  -3  -9   -0.72    0.48
  -3  -3  -9    3.06    0.59
  -3  -3  -9    2.73    0.60
  -4  -3  -9    0.19    0.58
  -4  -3  -9   -0.16    0.58
  -5  -3  -9    0.92    0.64
  -5  -3  -9    0.01    0.64
  -8   4   9    0.49    0.42
  -7   4   9    0.38    0.41
  -6   4   9    0.39    0.39
   5  -4  -9   -0.09    0.33
  -5   4   9   -0.12    0.39
   4  -4  -9    2.63    0.43
  -4   4   9    2.56    0.45
   3  -4  -9    1.97    0.45
  -3   4   9    2.22    0.44
   2  -4  -9    0.18    0.42
  -2   4   9    0.48    0.39
   1  -4  -9    1.31    0.47
  -1   4   9    1.04    0.40
   0  -4  -9   -0.20    0.45
   0  -4  -9    0.41    0.45
  -1  -4  -9   -0.17    0.49
  -1  -4  -9    0.92    0.49
  -2  -4  -9    2.12    0.61
  -2  -4  -9    1.74    0.55
  -3  -4  -9    0.90    0.59
  -3  -4  -9    1.08    0.61
  -4  -4  -9    2.70    0.72
  -4  -4  -9    3.62    0.72
  -7   5   9    0.53    0.45
  -6   5   9    0.21    0.41
   5  -5  -9   -0.26    0.35
  -5   5   9    0.24    0.41
   4  -5  -9    0.58    0.40
  -4   5   9    0.28    0.42
   3  -5  -9   -0.21    0.42
  -3   5   9    0.11    0.41
   2  -5  -9    0.36    0.45
  -2   5   9    0.38    0.41
   1  -5  -9    1.85    0.52
   0  -5  -9    1.61    0.57
  -1  -5  -9    0.36    0.53
  -1  -5  -9    0.23    0.57
  -2  -5  -9   -0.17    0.61
  -2  -5  -9    0.29    0.58
  -3  -5  -9    2.27    0.73
  -3  -5  -9    0.87    0.66
  -6   6   9    0.57    0.46
   5  -6  -9    0.51    0.39
  -5   6   9    0.69    0.45
   4  -6  -9    0.32    0.41
  -4   6   9    0.65    0.44
   3  -6  -9    0.14    0.46
  -3   6   9    0.54    0.44
   2  -6  -9    0.52    0.48
  -2   6   9    0.96    0.46
   1  -6  -9    0.85    0.54
   0  -6  -9   -0.23    0.55
  -1  -6  -9    0.80    0.65
  -2  -6  -9    1.71    0.70
  -2  -6  -9    1.63    0.73
   5  -7  -9   -0.19    0.40
  -5   7   9    1.28    0.51
   4  -7  -9    0.43    0.46
  -4   7   9    0.23    0.48
   3  -7  -9    0.58    0.48
  -3   7   9    0.86    0.48
   2  -7  -9    0.12    0.54
   1  -7  -9   -0.49    0.57
   0  -7  -9    0.89    0.66
  -1  12 -10    0.02    0.75
  -2  12 -10   -0.40    0.65
   2  11 -10    0.53    0.64
   1  11 -10    1.45    0.67
   0  11 -10    0.34    0.68
  -1  11 -10    1.25    0.70
  -1  11 -10    1.25    0.58
  -2  11 -10    0.18    0.69
  -2  11 -10   -0.03    0.60
  -3  11 -10   -0.62    0.63
  -3  11 -10   -1.00    0.67
  -4  11 -10   -0.30    0.65
  -4  11 -10   -0.30    0.68
   3  10 -10    0.19    0.59
   2  10 -10    1.19    0.62
   1  10 -10    2.00    0.63
   0  10 -10    1.05    0.62
  -1  10 -10    0.67    0.55
  -1  10 -10    0.61    0.64
  -2  10 -10   -0.43    0.55
  -2  10 -10   -0.96    0.60
  -3  10 -10    1.76    0.66
  -3  10 -10    2.38    0.64
  -4  10 -10   -0.86    0.59
  -4  10 -10    0.89    0.64
  -5  10 -10    0.72    0.65
  -5  10 -10    0.91    0.63
   5   9 -10   -0.12    0.54
  -5  -9  10    0.55    0.56
   4   9 -10    1.50    0.58
  -4  -9  10    0.43    0.54
   3   9 -10    2.61    0.61
  -3  -9  10    2.39    0.57
   2   9 -10    1.32    0.57
   1   9 -10   -1.19    0.50
   0   9 -10    2.17    0.58
   0   9 -10    1.41    0.52
  -1   9 -10    2.16    0.54
  -1   9 -10    1.41    0.57
  -2   9 -10    5.13    0.65
  -2   9 -10    7.03    0.73
  -3   9 -10    0.98    0.55
  -3   9 -10    0.62    0.59
  -4   9 -10   -0.30    0.53
  -4   9 -10   -0.07    0.56
  -5   9 -10    0.20    0.57
  -5   9 -10    0.19    0.57
  -6   9 -10    0.26    0.59
   5   8 -10    1.26    0.52
  -5  -8  10    0.66    0.55
   4   8 -10    1.34    0.54
  -4  -8  10    1.34    0.53
   3   8 -10    0.33    0.52
  -3  -8  10    0.05    0.47
   2   8 -10    1.83    0.55
  -2  -8  10    2.93    0.53
   1   8 -10    6.62    0.69
   0   8 -10   10.77    0.82
   0   8 -10    9.82    0.77
  -1   8 -10    2.62    0.59
  -1   8 -10    2.42    0.51
  -2   8 -10    0.12    0.47
  -2   8 -10    0.66    0.53
  -3   8 -10   -1.06    0.50
  -3   8 -10   -0.13    0.48
  -4   8 -10    1.76    0.55
  -4   8 -10    3.26    0.59
  -5   8 -10    3.49    0.61
  -5   8 -10    3.40    0.62
  -6   8 -10    0.98    0.58
  -6  -7  10    0.52    0.54
   5   7 -10    0.04    0.47
  -5  -7  10    0.94    0.50
   4   7 -10    2.66    0.53
  -4  -7  10    1.74    0.50
   3   7 -10    3.33    0.56
  -3  -7  10    3.60    0.52
   2   7 -10    8.30    0.71
  -2  -7  10    8.33    0.68
   1   7 -10    2.28    0.51
   1   7 -10    2.10    0.46
  -1  -7  10    2.00    0.45
   0   7 -10   -0.72    0.46
   0   7 -10   -0.10    0.40
  -1   7 -10    1.37    0.44
  -1   7 -10    0.38    0.49
  -2   7 -10    8.48    0.70
  -2   7 -10    7.12    0.71
  -3   7 -10    2.64    0.53
  -3   7 -10    1.96    0.53
  -4   7 -10    3.46    0.57
  -4   7 -10    3.52    0.58
  -5   7 -10    0.75    0.50
  -5   7 -10   -0.75    0.47
  -6   7 -10    1.08    0.80
  -6   7 -10   -0.72    0.49
  -7  -6  10    0.69    0.54
  -6  -6  10    2.20    0.53
   5   6 -10    1.99    0.48
  -5  -6  10    1.71    0.47
   4   6 -10    2.85    0.53
  -4  -6  10    2.74    0.48
   3   6 -10   -0.07    0.43
  -3  -6  10   -1.01    0.38
   2   6 -10   -0.78    0.41
  -2  -6  10    0.41    0.39
   1   6 -10    4.10    0.56
   1   6 -10    3.91    0.49
  -1  -6  10    4.69    0.50
   0   6 -10   12.08    0.88
   0   6 -10   13.28    0.99
  -1   6 -10    9.50    0.76
  -1   6 -10   11.02    0.86
  -2   6 -10    7.85    0.65
  -2   6 -10    6.99    0.66
  -3   6 -10   -0.43    0.41
  -3   6 -10    0.08    0.45
  -4   6 -10    8.82    0.71
  -4   6 -10    8.74    0.72
  -5   6 -10   -0.13    0.46
  -5   6 -10    0.41    0.45
  -6   6 -10    2.68    0.59
  -6   6 -10    2.50    0.55
  -7  -5  10    1.79    0.54
   6   5 -10    1.39    0.43
  -6  -5  10    0.64    0.47
   5   5 -10    0.17    0.43
  -5  -5  10    0.17    0.43
   4   5 -10    0.75    0.43
  -4  -5  10    0.92    0.42
   3   5 -10    6.34    0.61
  -3  -5  10    7.57    0.61
   2   5 -10   25.95    1.46
  -2  -5  10   27.43    1.42
   1   5 -10    5.20    0.57
   1   5 -10    5.38    0.52
  -1  -5  10    6.39    0.54
   0   5 -10    4.75    0.57
   0   5 -10    5.92    0.56
   0  -5  10    6.24    0.52
  -1   5 -10   -0.57    0.41
  -1   5 -10   -0.51    0.37
  -2   5 -10    3.62    0.49
  -2   5 -10    4.08    0.53
  -3   5 -10   -0.39    0.39
  -3   5 -10    0.39    0.44
  -4   5 -10    2.50    0.50
  -4   5 -10    3.09    0.51
  -5   5 -10    6.16    0.65
  -5   5 -10    7.01    0.65
  -6   5 -10    0.41    0.51
  -6   5 -10    0.66    0.51
  -7   5 -10    0.23    0.52
   7  -5  10    1.08    0.64
  -7  -4  10   -0.27    0.47
   6   4 -10    0.51    0.35
  -6  -4  10    0.21    0.45
   5   4 -10    2.93    0.45
  -5  -4  10    1.57    0.46
   4   4 -10   14.09    0.97
  -4  -4  10   12.52    0.93
   3   4 -10    0.52    0.40
  -3  -4  10    0.32    0.38
   2   4 -10    2.81    0.47
  -2  -4  10    2.71    0.42
   1   4 -10   -0.10    0.39
   1   4 -10   -0.23    0.34
  -1  -4  10    0.73    0.36
   0   4 -10    0.89    0.40
   0   4 -10    1.69    0.40
   0  -4  10    1.45    0.37
  -1   4 -10    5.72    0.56
  -1   4 -10    3.63    0.48
  -2   4 -10    3.76    0.49
  -2   4 -10    4.83    0.54
  -3   4 -10    6.25    0.58
  -3   4 -10    4.60    0.57
  -4   4 -10    0.80    0.45
  -4   4 -10    0.33    0.46
  -5   4 -10    0.34    0.49
  -5   4 -10   -0.12    0.45
  -6   4 -10    2.34    0.55
  -6   4 -10    0.85    0.55
   6  -4  10    2.02    0.60
  -7   4 -10    0.94    0.54
  -8  -3  10    0.07    0.50
  -7  -3  10    1.96    0.49
   6   3 -10    1.60    0.37
  -6  -3  10    0.65    0.43
   5   3 -10    3.05    0.45
  -5  -3  10    2.60    0.46
   4   3 -10    0.74    0.38
  -4  -3  10    0.56    0.39
   3   3 -10   -0.46    0.36
  -3  -3  10   -0.51    0.35
   2   3 -10    7.93    0.63
   2   3 -10    6.36    0.62
  -2  -3  10    8.65    0.63
   1   3 -10    5.48    0.51
   1   3 -10    4.54    0.52
  -1  -3  10    5.30    0.50
   0   3 -10   16.36    1.06
   0   3 -10   18.56    1.13
   0  -3  10   19.01    1.03
  -1   3 -10    6.42    0.58
  -1   3 -10    6.21    0.59
  -2   3 -10    5.49    0.58
  -2   3 -10    6.20    0.58
  -3   3 -10    1.30    0.47
  -3   3 -10    0.78    0.41
  -4   3 -10    4.92    0.58
  -4   3 -10    5.82    0.62
  -5   3 -10    2.84    0.56
  -5   3 -10    1.45    0.50
  -6   3 -10    2.91    0.59
  -6   3 -10    2.82    0.59
   6  -3  10    1.52    0.57
  -8  -2  10    1.75    0.50
  -7  -2  10    0.74    0.45
   6   2 -10    0.95    0.36
  -6  -2  10    1.87    0.44
   5   2 -10    0.79    0.37
  -5  -2  10    0.88    0.40
   4   2 -10   -0.59    0.33
  -4  -2  10   -0.33    0.35
   3   2 -10   13.93    0.97
  -3  -2  10   14.64    0.93
   2   2 -10    5.93    0.57
   2   2 -10    7.70    0.62
  -2  -2  10    7.28    0.58
   1   2 -10    3.81    0.48
   1   2 -10    4.70    0.49
  -1  -2  10    4.71    0.50
   0   2 -10    1.00    0.41
   0   2 -10    2.15    0.41
   0  -2  10    1.61    0.38
  -1   2 -10   -0.57    0.36
  -1   2 -10   -0.01    0.39
  -2   2 -10    4.33    0.52
  -2   2 -10    3.66    0.50
  -3   2 -10    6.69    0.61
  -3   2 -10    7.09    0.65
  -4   2 -10    4.64    0.61
  -4   2 -10    3.39    0.55
  -5   2 -10    1.20    0.52
  -5   2 -10    1.02    0.52
   5  -2  10    0.88    0.51
  -6   2 -10    0.08    0.54
  -6   2 -10    0.56    0.55
   6  -2  10    0.19    0.53
  -8  -1  10   -0.11    0.44
  -7  -1  10   -0.48    0.40
   6   1 -10    1.86    0.42
  -6  -1  10    1.63    0.44
   5   1 -10    1.19    0.36
  -5  -1  10    1.21    0.42
   4   1 -10    1.51    0.39
  -4  -1  10    1.42    0.41
   3   1 -10    0.67    0.38
  -3  -1  10    1.41    0.40
   2   1 -10    0.03    0.35
  -2  -1  10   -0.11    0.37
   1   1 -10    0.80    0.40
   1   1 -10    0.22    0.36
  -1  -1  10    0.50    0.36
   0   1 -10   10.28    0.80
   0   1 -10   10.38    0.83
   0  -1  10    9.39    0.76
  -1   1 -10    7.34    0.61
  -1   1 -10    7.47    0.64
  -2   1 -10    8.15    0.69
  -2   1 -10    6.38    0.63
  -3   1 -10    0.00    0.47
  -3   1 -10    0.52    0.45
  -4   1 -10   -0.32    0.47
  -4   1 -10    0.05    0.50
  -5   1 -10    2.93    0.61
  -5   1 -10    4.20    0.61
   5  -1  10    2.83    0.57
  -6   1 -10    1.75    0.60
  -6   1 -10    2.50    0.61
   6  -1  10    1.61    0.56
  -8   0  10    0.82    0.46
  -7   0  10    0.40    0.42
  -6   0  10    0.76    0.43
   5   0 -10    2.09    0.38
  -5   0  10    1.81    0.44
   4   0 -10   -0.05    0.34
  -4   0  10    0.05    0.37
   3   0 -10    3.43    0.45
  -3   0  10    3.50    0.47
   2   0 -10    4.20    0.50
  -2   0  10    5.08    0.52
   1   0 -10   14.95    1.04
   1   0 -10   18.53    1.06
  -1   0  10   17.67    1.04
   0   0 -10    1.31    0.44
   0   0 -10    1.36    0.41
   0   0  10    1.72    0.41
  -1   0 -10    0.89    0.46
  -1   0 -10    1.07    0.43
  -2   0 -10    0.03    0.43
  -2   0 -10    0.12    0.46
  -3   0 -10   -0.41    0.46
  -3   0 -10   -0.43    0.47
  -4   0 -10    2.31    0.57
  -4   0 -10    2.18    0.56
   4   0  10    2.15    0.49
  -5   0 -10    1.71    0.59
  -5   0 -10    0.85    0.57
   5   0  10    1.20    0.51
  -6   0 -10    1.81    0.67
   6   0  10    2.50    0.67
  -8   1  10    0.41    0.46
  -7   1  10    1.62    0.45
  -6   1  10    0.34    0.41
   5  -1 -10    0.80    0.35
  -5   1  10   -0.16    0.39
   4  -1 -10    4.16    0.48
  -4   1  10    3.73    0.50
   3  -1 -10    1.00    0.38
  -3   1  10    1.26    0.40
   2  -1 -10    1.70    0.42
  -2   1  10    1.61    0.41
   1  -1 -10    0.08    0.37
   1  -1 -10    0.66    0.41
  -1   1  10   -0.06    0.37
   0  -1 -10    1.13    0.43
   0  -1 -10    1.00    0.46
  -1  -1 -10    1.11    0.47
  -1  -1 -10    1.39    0.49
  -2  -1 -10    3.02    0.55
  -2  -1 -10    4.02    0.57
  -3  -1 -10    7.02    0.71
  -3  -1 -10    4.62    0.64
   3   1  10    5.31    0.56
  -4  -1 -10    1.65    0.59
  -4  -1 -10    0.89    0.58
  -5  -1 -10    0.68    0.60
  -5  -1 -10   -0.19    0.60
  -7   2  10    0.47    0.44
  -6   2  10    0.30    0.42
   5  -2 -10    0.66    0.35
  -5   2  10    0.88    0.42
   4  -2 -10    0.73    0.37
  -4   2  10    0.18    0.41
   3  -2 -10    1.46    0.42
  -3   2  10    1.54    0.42
   2  -2 -10    0.53    0.40
  -2   2  10    0.62    0.39
   1  -2 -10    1.15    0.47
  -1   2  10    1.71    0.43
   0  -2 -10    3.92    0.55
   0  -2 -10    3.72    0.55
  -1  -2 -10    1.29    0.50
  -1  -2 -10    0.38    0.48
  -2  -2 -10    2.53    0.57
  -2  -2 -10    3.10    0.60
  -3  -2 -10    1.12    0.57
  -3  -2 -10    0.79    0.57
  -4  -2 -10    0.12    0.60
  -4  -2 -10    0.72    0.61
  -7   3  10    0.10    0.45
  -6   3  10    0.71    0.45
   5  -3 -10   -0.06    0.36
  -5   3  10    0.97    0.44
   4  -3 -10    0.41    0.38
  -4   3  10    0.35    0.43
   3  -3 -10    0.29    0.41
  -3   3  10    0.22    0.42
   2  -3 -10    2.25    0.51
  -2   3  10    2.78    0.48
   1  -3 -10    4.08    0.57
  -1   3  10    2.60    0.48
   0  -3 -10    0.58    0.48
   0  -3 -10    0.48    0.48
  -1  -3 -10   -0.11    0.50
  -1  -3 -10   -0.44    0.52
  -2  -3 -10    6.91    0.75
  -2  -3 -10    4.45    0.67
  -3  -3 -10   -0.52    0.60
  -3  -3 -10    0.81    0.61
  -4  -3 -10   -0.47    0.64
  -4  -3 -10    0.22    0.64
  -7   4  10    0.24    0.46
  -6   4  10   -0.45    0.43
   5  -4 -10    0.23    0.37
  -5   4  10    0.55    0.44
   4  -4 -10    2.63    0.48
  -4   4  10    4.35    0.54
   3  -4 -10    0.32    0.43
  -3   4  10    0.32    0.43
   2  -4 -10    0.28    0.48
  -2   4  10   -0.19    0.42
   1  -4 -10    0.07    0.49
   0  -4 -10    0.87    0.55
  -1  -4 -10    1.30    0.57
  -1  -4 -10    0.95    0.59
  -2  -4 -10    0.87    0.60
  -2  -4 -10   -0.06    0.63
  -3  -4 -10    0.56    0.68
  -3  -4 -10    0.50    0.64
  -6   5  10    0.37    0.49
   5  -5 -10    0.34    0.40
  -5   5  10   -0.11    0.47
   4  -5 -10    0.35    0.42
  -4   5  10    0.37    0.47
   3  -5 -10   -0.05    0.48
  -3   5  10    0.26    0.45
   2  -5 -10   -0.51    0.50
  -2   5  10   -0.74    0.49
   1  -5 -10   -0.02    0.52
   0  -5 -10    0.38    0.60
  -1  -5 -10    0.20    0.63
  -2  -5 -10   -0.45    0.68
  -2  -5 -10    0.58    0.75
   5  -6 -10    0.12    0.42
  -5   6  10    0.48    0.50
   4  -6 -10   -0.69    0.43
  -4   6  10   -0.40    0.48
   3  -6 -10    0.04    0.50
  -3   6  10    0.86    0.51
   2  -6 -10   -0.42    0.52
   1  -6 -10    1.23    0.64
   0  -6 -10    0.36    0.64
   1  11 -11   -0.53    0.69
   0  11 -11    0.44    0.71
  -1  11 -11    0.98    0.75
  -2  11 -11   -0.71    0.64
  -2  11 -11   -1.28    0.72
   2  10 -11    0.12    0.65
   1  10 -11    0.80    0.63
   0  10 -11    0.02    0.65
  -1  10 -11   -0.11    0.68
  -1  10 -11   -0.37    0.57
  -2  10 -11    2.92    0.74
  -2  10 -11    1.45    0.64
  -3  10 -11   -0.08    0.63
  -3  10 -11   -0.26    0.67
  -4  10 -11   -0.12    0.65
  -4  10 -11    0.48    0.68
   4   9 -11    0.97    0.62
  -4  -9  11    1.43    0.60
   3   9 -11    0.22    0.61
   2   9 -11    0.33    0.59
   1   9 -11    1.24    0.62
   0   9 -11    2.84    0.66
  -1   9 -11    3.28    0.60
  -1   9 -11    2.22    0.65
  -2   9 -11   -0.43    0.63
  -2   9 -11    1.47    0.58
  -3   9 -11   -0.16    0.62
  -3   9 -11    0.12    0.58
  -4   9 -11    1.45    0.65
  -4   9 -11    1.51    0.63
  -5   9 -11    0.48    0.64
   5   8 -11    1.32    0.57
  -5  -8  11   -0.99    0.55
   4   8 -11    0.23    0.56
  -4  -8  11   -0.19    0.53
   3   8 -11    3.44    0.62
  -3  -8  11    1.85    0.57
   2   8 -11    4.80    0.66
   1   8 -11    1.27    0.57
   0   8 -11    0.38    0.48
   0   8 -11    0.00    0.55
  -1   8 -11   -0.39    0.58
  -1   8 -11   -0.04    0.49
  -2   8 -11    2.15    0.58
  -2   8 -11    2.47    0.64
  -3   8 -11    0.53    0.58
  -3   8 -11    0.06    0.55
  -4   8 -11    5.45    0.74
  -4   8 -11    5.05    0.71
  -5   8 -11    1.76    0.65
  -5   8 -11    0.25    0.59
   5   7 -11    2.27    0.56
  -5  -7  11    1.62    0.56
   4   7 -11    3.42    0.62
  -4  -7  11    2.10    0.55
   3   7 -11    0.37    0.53
  -3  -7  11    0.18    0.47
   2   7 -11    2.22    0.57
  -2  -7  11    2.23    0.51
   1   7 -11   -0.06    0.51
   0   7 -11    2.47    0.50
   0   7 -11    1.65    0.57
  -1   7 -11    3.31    0.60
  -1   7 -11    2.18    0.52
  -2   7 -11    1.30    0.58
  -2   7 -11    1.58    0.53
  -3   7 -11    2.99    0.61
  -3   7 -11    3.65    0.63
  -4   7 -11    1.78    0.60
  -4   7 -11    1.31    0.57
  -5   7 -11   -0.08    0.57
  -5   7 -11    1.24    0.59
  -6  -6  11    0.67    0.53
   5   6 -11    0.12    0.50
  -5  -6  11    0.50    0.49
   4   6 -11    0.23    0.51
  -4  -6  11    0.54    0.46
   3   6 -11    0.00    0.49
  -3  -6  11    0.25    0.44
   2   6 -11    6.87    0.67
  -2  -6  11    6.15    0.60
   1   6 -11    1.21    0.49
   1   6 -11    0.47    0.57
   0   6 -11    4.22    0.60
   0   6 -11    4.84    0.55
  -1   6 -11    0.35    0.46
  -1   6 -11   -0.24    0.49
  -2   6 -11    0.02    0.47
  -2   6 -11   -0.49    0.51
  -3   6 -11    6.68    0.72
  -3   6 -11    6.62    0.68
  -4   6 -11    0.98    0.55
  -4   6 -11    0.39    0.53
  -5   6 -11    1.65    0.60
  -5   6 -11    1.96    0.58
  -6   6 -11    1.23    0.60
  -6  -5  11   -0.74    0.49
   5   5 -11    0.57    0.48
  -5  -5  11    0.18    0.47
   4   5 -11    2.87    0.53
  -4  -5  11    2.91    0.52
   3   5 -11    9.31    0.75
  -3  -5  11   10.94    0.87
   2   5 -11    0.44    0.46
  -2  -5  11   -0.12    0.40
   1   5 -11    2.65    0.46
   1   5 -11    2.78    0.55
  -1  -5  11    3.30    0.48
   0   5 -11    0.24    0.43
   0   5 -11    0.54    0.50
  -1   5 -11    1.02    0.51
  -1   5 -11    2.30    0.48
  -2   5 -11    4.15    0.55
  -2   5 -11    3.44    0.57
  -3   5 -11    2.51    0.53
  -3   5 -11    2.36    0.57
  -4   5 -11    3.34    0.60
  -4   5 -11    2.85    0.59
  -5   5 -11   -0.97    0.53
  -5   5 -11   -0.18    0.55
  -6   5 -11    0.03    0.91
  -6   5 -11    0.49    0.61
  -7  -4  11    0.19    0.50
  -6  -4  11    0.25    0.49
   5   4 -11    0.78    0.46
  -5  -4  11    0.50    0.47
   4   4 -11   -0.51    0.41
  -4  -4  11    0.28    0.44
   3   4 -11    1.38    0.47
  -3  -4  11    0.46    0.43
   2   4 -11   -0.11    0.46
  -2  -4  11   -0.16    0.39
   1   4 -11    4.00    0.55
   1   4 -11    3.95    0.51
  -1  -4  11    3.47    0.50
   0   4 -11    4.95    0.55
   0   4 -11    5.10    0.58
  -1   4 -11    4.37    0.54
  -1   4 -11    3.96    0.58
  -2   4 -11   -0.08    0.48
  -2   4 -11   -0.19    0.43
  -3   4 -11   -0.02    0.49
  -3   4 -11   -0.46    0.50
  -4   4 -11   -0.90    0.52
  -4   4 -11    0.12    0.52
  -5   4 -11    2.44    0.60
  -5   4 -11    1.49    0.62
  -6   4 -11   -0.53    0.64
  -6   4 -11   -0.36    0.59
   6  -4  11   -0.28    0.59
  -7  -3  11   -0.25    0.49
   6   3 -11    0.08    0.50
  -6  -3  11    0.51    0.47
   5   3 -11    0.26    0.43
  -5  -3  11    0.52    0.44
   4   3 -11    1.14    0.42
  -4  -3  11    0.85    0.45
   3   3 -11    3.87    0.51
  -3  -3  11    2.94    0.49
   2   3 -11    6.44    0.64
  -2  -3  11    6.94    0.61
   1   3 -11    5.15    0.54
   1   3 -11    4.89    0.58
  -1  -3  11    5.14    0.55
   0   3 -11    0.03    0.44
   0   3 -11    1.15    0.42
  -1   3 -11   -0.42    0.41
  -1   3 -11   -0.03    0.43
  -2   3 -11    1.60    0.52
  -2   3 -11    1.83    0.48
  -3   3 -11    0.78    0.50
  -3   3 -11    1.26    0.55
  -4   3 -11    2.09    0.60
  -4   3 -11    3.12    0.58
  -5   3 -11    1.56    0.62
  -5   3 -11    0.66    0.58
  -7  -2  11    0.09    0.49
  -6  -2  11    1.68    0.50
   5   2 -11    1.08    0.39
  -5  -2  11    0.74    0.46
   4   2 -11    1.45    0.42
  -4  -2  11    1.43    0.45
   3   2 -11    2.40    0.47
  -3  -2  11    0.91    0.43
   2   2 -11   -0.17    0.41
  -2  -2  11    0.30    0.40
   1   2 -11    0.54    0.43
   1   2 -11   -0.18    0.39
  -1  -2  11   -0.36    0.40
   0   2 -11   -0.24    0.42
   0   2 -11   -0.09    0.40
  -1   2 -11    5.56    0.61
  -1   2 -11    6.36    0.63
  -2   2 -11    2.79    0.56
  -2   2 -11    2.47    0.52
  -3   2 -11    1.81    0.54
  -3   2 -11    1.99    0.56
  -4   2 -11    1.01    0.59
  -4   2 -11    0.08    0.53
  -5   2 -11   -0.06    0.60
  -5   2 -11   -0.54    0.60
   5  -2  11    0.12    0.51
  -7  -1  11   -0.18    0.46
  -6  -1  11   -0.63    0.42
   5   1 -11    0.06    0.36
  -5  -1  11   -0.36    0.43
   4   1 -11    0.04    0.39
  -4  -1  11    0.08    0.42
   3   1 -11    0.56    0.41
  -3  -1  11    0.59    0.42
   2   1 -11    1.24    0.43
  -2  -1  11    2.15    0.45
   1   1 -11    2.32    0.49
   1   1 -11    2.07    0.45
  -1  -1  11    2.34    0.46
   0   1 -11    1.94    0.46
   0   1 -11    1.83    0.50
  -1   1 -11    0.38    0.49
  -1   1 -11   -0.14    0.43
  -2   1 -11   -0.95    0.50
  -2   1 -11   -0.10    0.47
  -3   1 -11    1.34    0.59
  -3   1 -11    0.61    0.54
  -4   1 -11    1.18    0.60
  -4   1 -11    0.97    0.61
  -5   1 -11    1.41    0.66
  -5   1 -11    1.54    0.65
   5  -1  11    0.48    0.53
  -7   0  11    0.47    0.48
  -6   0  11    0.40    0.46
   5   0 -11    0.09    0.38
  -5   0  11    0.31    0.45
   4   0 -11    0.58    0.40
  -4   0  11    0.69    0.45
   3   0 -11    0.16    0.41
  -3   0  11    0.66    0.44
   2   0 -11    1.47    0.44
  -2   0  11    1.71    0.47
   1   0 -11    0.26    0.45
  -1   0  11    0.64    0.42
   0   0 -11    0.29    0.44
   0   0 -11    1.76    0.50
  -1   0 -11    1.67    0.55
  -1   0 -11    1.97    0.51
  -2   0 -11    3.05    0.59
  -2   0 -11    2.74    0.63
  -3   0 -11    0.69    0.59
  -3   0 -11    0.18    0.56
  -4   0 -11    0.85    0.63
  -4   0 -11    0.34    0.62
  -5   0 -11    0.35    0.66
  -7   1  11    0.83    0.51
  -6   1  11    0.31    0.47
   5  -1 -11   -0.12    0.38
  -5   1  11    0.46    0.45
   4  -1 -11    0.04    0.39
  -4   1  11   -0.18    0.43
   3  -1 -11    0.39    0.41
  -3   1  11    0.22    0.43
   2  -1 -11    0.23    0.45
  -2   1  11   -0.41    0.42
   1  -1 -11   -0.04    0.45
   0  -1 -11    0.76    0.47
   0  -1 -11   -0.50    0.50
  -1  -1 -11    1.78    0.53
  -1  -1 -11    1.49    0.58
  -2  -1 -11   -0.32    0.53
  -2  -1 -11   -0.44    0.57
  -3  -1 -11    1.09    0.63
  -3  -1 -11    1.00    0.61
  -4  -1 -11    1.02    0.66
  -4  -1 -11    0.79    0.66
  -6   2  11    0.16    0.48
   5  -2 -11    0.11    0.38
  -5   2  11   -0.13    0.45
   4  -2 -11    0.24    0.40
  -4   2  11    0.37    0.46
   3  -2 -11   -0.63    0.42
  -3   2  11    0.83    0.45
   2  -2 -11    0.85    0.48
  -2   2  11    0.47    0.44
   1  -2 -11    0.16    0.50
   0  -2 -11    0.25    0.54
  -1  -2 -11    0.94    0.54
  -1  -2 -11    0.30    0.56
  -2  -2 -11    0.65    0.62
  -2  -2 -11    0.51    0.58
  -3  -2 -11    2.04    0.66
  -3  -2 -11    1.18    0.68
  -6   3  11    1.25    0.50
   5  -3 -11    0.36    0.39
  -5   3  11   -0.59    0.46
   4  -3 -11    0.01    0.41
  -4   3  11    0.50    0.47
   3  -3 -11    0.35    0.46
  -3   3  11    0.43    0.46
   2  -3 -11    0.65    0.51
  -2   3  11    0.97    0.47
   1  -3 -11    0.17    0.55
   0  -3 -11    0.69    0.58
  -1  -3 -11    1.30    0.65
  -1  -3 -11    0.67    0.74
  -2  -3 -11    0.27    0.66
  -2  -3 -11    0.21    0.62
   5  -4 -11    1.08    0.43
  -5   4  11    0.76    0.52
   4  -4 -11   -0.21    0.44
  -4   4  11    0.00    0.50
   3  -4 -11    0.36    0.48
  -3   4  11    0.00    0.48
   2  -4 -11    1.13    0.57
   1  -4 -11    0.96    0.58
   0  -4 -11    0.54    0.63
  -1  -4 -11    1.01    0.68
   4  -5 -11   -0.20    0.46
  -4   5  11   -0.15    0.50
   3  -5 -11    0.00    0.49
  -3   5  11    0.22    0.65
   2  -5 -11    0.22    0.58
   1  -5 -11    1.67    0.64
   1  10 -12    0.60    0.69
   0  10 -12    0.41    0.70
  -1  10 -12    0.64    0.74
  -2  10 -12    0.70    0.66
  -2  10 -12    0.13    0.75
   2   9 -12    0.70    0.65
   1   9 -12   -0.52    0.61
   0   9 -12   -0.15    0.66
  -1   9 -12   -0.48    0.65
  -1   9 -12    0.06    0.58
  -2   9 -12    1.02    0.63
  -2   9 -12   -0.40    0.68
  -3   9 -12    0.61    0.71
  -3   9 -12    0.57    0.65
   4   8 -12    2.26    0.67
  -4  -8  12    0.46    0.57
   3   8 -12   -0.12    0.60
   2   8 -12    0.00    0.58
   1   8 -12    0.46    0.59
   0   8 -12    2.24    0.70
  -1   8 -12    2.73    0.61
  -1   8 -12    1.87    0.68
  -2   8 -12    1.93    0.69
  -2   8 -12    0.90    0.60
  -3   8 -12    1.54    0.68
  -3   8 -12    1.22    0.62
  -4   8 -12   -0.24    0.64
  -4   8 -12    0.54    0.66
   4   7 -12    0.35    0.60
  -4  -7  12    0.88    0.55
   3   7 -12    1.44    0.60
  -3  -7  12    0.50    0.53
   2   7 -12    1.71    0.58
   1   7 -12    4.39    0.70
   0   7 -12    2.22    0.59
   0   7 -12    2.50    0.64
  -1   7 -12    0.71    0.52
  -1   7 -12    1.24    0.62
  -2   7 -12   -1.12    0.53
  -2   7 -12   -0.23    0.61
  -3   7 -12   -0.35    0.62
  -3   7 -12   -0.72    0.58
  -4   7 -12    1.12    0.66
  -4   7 -12    0.83    0.63
   5   6 -12    0.30    0.56
  -5  -6  12   -0.14    0.52
   4   6 -12    0.49    0.56
  -4  -6  12    0.82    0.51
   3   6 -12    3.29    0.61
  -3  -6  12    4.21    0.59
   2   6 -12    0.45    0.55
   1   6 -12   -0.68    0.55
   0   6 -12   -0.06    0.57
   0   6 -12    0.24    0.46
  -1   6 -12   -0.11    0.59
  -1   6 -12   -0.38    0.50
  -2   6 -12    1.09    0.56
  -2   6 -12    1.81    0.63
  -3   6 -12    2.12    0.61
  -3   6 -12    1.09    0.63
  -4   6 -12    0.15    0.63
  -4   6 -12    0.03    0.59
   5   5 -12    0.68    0.54
  -5  -5  12    1.09    0.54
   4   5 -12    1.99    0.59
  -4  -5  12    1.94    0.53
   3   5 -12   -0.31    0.48
  -3  -5  12   -0.44    0.46
   2   5 -12    0.13    0.51
  -2  -5  12   -0.01    0.45
   1   5 -12    0.29    0.55
   0   5 -12    2.71    0.54
   0   5 -12    1.80    0.59
  -1   5 -12    4.52    0.59
  -1   5 -12    4.43    0.67
  -2   5 -12    0.29    0.52
  -2   5 -12    2.10    0.61
  -3   5 -12    0.08    0.58
  -3   5 -12    0.17    0.55
  -4   5 -12    0.87    0.62
  -4   5 -12   -0.10    0.57
  -5   5 -12    0.87    0.65
  -5   5 -12   -0.20    0.63
  -6  -4  12    0.25    0.53
   5   4 -12   -0.20    0.49
  -5  -4  12    0.33    0.51
   4   4 -12    0.00    0.42
  -4  -4  12   -0.82    0.45
   3   4 -12   -0.12    0.47
  -3  -4  12    0.67    0.48
   2   4 -12    1.09    0.54
  -2  -4  12    0.34    0.45
   1   4 -12    2.85    0.57
   0   4 -12    0.96    0.52
   0   4 -12    1.03    0.47
  -1   4 -12    0.17    0.48
  -1   4 -12    0.69    0.54
  -2   4 -12    0.37    0.57
  -2   4 -12    0.11    0.49
  -3   4 -12    2.01    0.64
  -3   4 -12    2.31    0.61
  -4   4 -12    2.52    0.69
  -4   4 -12    3.04    0.67
  -5   4 -12    0.76    0.67
  -6  -3  12    0.97    0.52
   5   3 -12   -0.22    0.47
  -5  -3  12    0.10    0.49
   4   3 -12    0.50    0.45
  -4  -3  12    1.16    0.49
   3   3 -12   -0.61    0.46
  -3  -3  12    1.25    0.48
   2   3 -12    2.07    0.54
  -2  -3  12    2.94    0.51
   1   3 -12   -0.22    0.48
   0   3 -12    0.26    0.51
   0   3 -12    0.53    0.47
  -1   3 -12    2.61    0.54
  -1   3 -12    3.17    0.60
  -2   3 -12    2.05    0.57
  -2   3 -12    2.38    0.61
  -3   3 -12    0.60    0.57
  -3   3 -12    1.06    0.64
  -4   3 -12    0.27    0.65
  -4   3 -12    1.23    0.63
  -6  -2  12    0.75    0.53
   5   2 -12    0.40    0.42
  -5  -2  12    1.23    0.52
   4   2 -12   -0.40    0.42
  -4  -2  12    0.58    0.49
   3   2 -12    0.06    0.46
  -3  -2  12    0.40    0.48
   2   2 -12    1.22    0.48
  -2  -2  12    1.77    0.51
   1   2 -12    1.31    0.50
   0   2 -12    5.87    0.65
   0   2 -12    4.66    0.57
  -1   2 -12    1.30    0.57
  -1   2 -12    1.82    0.55
  -2   2 -12    0.43    0.59
  -2   2 -12   -0.04    0.53
  -3   2 -12    0.36    0.63
  -3   2 -12    0.72    0.58
  -4   2 -12    1.76    0.67
  -4   2 -12    1.83    0.69
  -6  -1  12    1.01    0.52
   5   1 -12    0.00    0.40
  -5  -1  12    0.74    0.50
   4   1 -12    1.36    0.47
  -4  -1  12    1.41    0.49
   3   1 -12    2.66    0.53
  -3  -1  12    3.18    0.54
   2   1 -12    0.79    0.49
  -2  -1  12    1.43    0.49
   1   1 -12    0.16    0.48
   0   1 -12    0.31    0.48
   0   1 -12   -0.77    0.50
  -1   1 -12   -0.79    0.56
  -1   1 -12   -0.56    0.48
  -2   1 -12    0.11    0.60
  -2   1 -12    1.34    0.56
  -3   1 -12    2.40    0.70
  -3   1 -12    2.91    0.66
  -4   1 -12    0.34    0.67
  -4   1 -12   -1.65    0.67
   4  -1  12   -0.49    0.52
  -6   0  12    0.11    0.51
   5   0 -12   -0.53    0.40
  -5   0  12    0.09    0.50
   4   0 -12    1.29    0.45
  -4   0  12    1.91    0.53
   3   0 -12    0.22    0.45
  -3   0  12    0.26    0.47
   2   0 -12   -0.18    0.45
  -2   0  12   -0.21    0.46
   1   0 -12    0.32    0.51
   0   0 -12    1.02    0.55
  -1   0 -12    1.44    0.55
  -1   0 -12    1.28    0.62
  -2   0 -12   -0.24    0.56
  -2   0 -12   -0.20    0.63
  -3   0 -12    0.22    0.64
  -3   0 -12    0.12    0.69
  -6   1  12    0.75    0.55
   5  -1 -12   -0.08    0.42
  -5   1  12    0.15    0.52
   4  -1 -12    1.93    0.47
  -4   1  12    1.87    0.55
   3  -1 -12   -0.02    0.45
  -3   1  12   -0.39    0.49
   2  -1 -12    0.81    0.51
   1  -1 -12    0.89    0.53
   0  -1 -12    0.16    0.56
  -1  -1 -12   -0.57    0.54
  -1  -1 -12   -0.21    0.64
  -2  -1 -12    0.15    0.62
  -2  -1 -12   -0.07    0.67
  -3  -1 -12    1.33    0.69
   5  -2 -12   -0.55    0.40
  -5   2  12    0.47    0.52
   4  -2 -12   -0.37    0.44
  -4   2  12   -0.08    0.49
   3  -2 -12    0.39    0.47
  -3   2  12    0.94    0.51
   2  -2 -12   -0.03    0.53
   1  -2 -12    0.58    0.55
   0  -2 -12    0.48    0.64
  -1  -2 -12   -0.74    0.65
  -2  -2 -12   -0.13    0.64
  -2  -2 -12    0.10    0.70
   4  -3 -12   -0.54    0.45
  -4   3  12   -0.24    0.50
   3  -3 -12   -0.23    0.49
  -3   3  12    0.04    0.63
   2  -3 -12    1.09    0.57
   1  -3 -12    0.07    0.60
   0  -3 -12   -0.14    0.65
   2   8 -13   -0.13    0.65
   1   8 -13    1.67    0.66
   0   8 -13    0.94    0.71
  -1   8 -13    1.00    0.73
  -2   8 -13    0.75    0.63
  -2   8 -13   -0.27    0.70
   3   7 -13   -0.01    0.64
   2   7 -13    1.96    0.63
   1   7 -13    0.25    0.65
   0   7 -13   -0.27    0.64
  -1   7 -13   -0.12    0.66
  -1   7 -13   -0.28    0.56
  -2   7 -13    0.48    0.70
  -2   7 -13    1.01    0.63
  -3   7 -13    0.86    0.71
  -3   7 -13    0.79    0.69
   4   6 -13    0.64    0.62
  -4  -6  13    0.21    0.55
   3   6 -13   -0.11    0.56
   2   6 -13    0.01    0.61
   1   6 -13    1.14    0.64
   0   6 -13   -0.12    0.63
  -1   6 -13    0.91    0.68
  -1   6 -13    1.52    0.59
  -2   6 -13   -0.07    0.67
  -2   6 -13   -1.00    0.58
  -3   6 -13   -0.69    0.67
  -3   6 -13    0.09    0.62
   4   5 -13    0.34    0.58
  -4  -5  13   -0.97    0.51
   3   5 -13    1.03    0.56
   2   5 -13    0.49    0.57
   1   5 -13    0.64    0.62
   0   5 -13    0.18    0.63
  -1   5 -13    0.38    0.55
  -1   5 -13   -0.03    0.63
  -2   5 -13   -1.36    0.62
  -2   5 -13   -0.74    0.56
  -3   5 -13   -0.64    0.67
  -3   5 -13   -0.09    0.63
  -5  -4  13    0.26    0.55
   4   4 -13    0.44    0.49
  -4  -4  13    0.67    0.54
   3   4 -13   -0.34    0.51
  -3  -4  13    0.58    0.52
   2   4 -13   -0.08    0.57
   1   4 -13   -1.19    0.55
   0   4 -13   -0.54    0.59
  -1   4 -13    0.30    0.54
  -1   4 -13   -0.72    0.62
  -2   4 -13    1.23    0.60
  -2   4 -13    0.98    0.67
  -3   4 -13    1.62    0.65
  -3   4 -13    0.43    0.70
   5   3 -13   -0.91    0.51
  -5  -3  13    0.36    0.54
   4   3 -13    0.49    0.48
  -4  -3  13   -0.73    0.50
   3   3 -13   -0.27    0.51
  -3  -3  13   -0.14    0.51
   2   3 -13   -0.49    0.53
   1   3 -13    0.49    0.55
   0   3 -13    1.27    0.61
  -1   3 -13    2.09    0.65
  -1   3 -13    1.54    0.56
  -2   3 -13   -0.04    0.59
  -2   3 -13   -0.05    0.64
  -3   3 -13   -0.14    0.69
  -3   3 -13   -0.06    0.65
   5   2 -13   -0.36    0.45
  -5  -2  13   -0.31    0.55
   4   2 -13    0.66    0.47
  -4  -2  13   -0.02    0.55
   3   2 -13    0.31    0.52
  -3  -2  13    0.25    0.52
   2   2 -13    0.66    0.56
   1   2 -13    0.92    0.58
   0   2 -13    0.02    0.58
  -1   2 -13   -0.32    0.63
  -1   2 -13    0.30    0.55
  -2   2 -13    0.88    0.62
  -2   2 -13    0.26    0.69
  -3   2 -13    2.04    0.78
  -3   2 -13    2.88    0.72
   5   1 -13   -0.46    0.43
  -5  -1  13   -0.19    0.53
   4   1 -13    0.33    0.49
  -4  -1  13    0.67    0.53
   3   1 -13    1.81    0.54
  -3  -1  13    2.85    0.58
   2   1 -13    0.79    0.55
   1   1 -13   -0.06    0.54
   0   1 -13    0.81    0.62
  -1   1 -13    2.07    0.71
  -1   1 -13    3.70    0.93
  -2   1 -13    0.66    0.71
  -2   1 -13    0.66    0.64
   4   0 -13   -0.08    0.46
  -4   0  13    0.96    0.55
   3   0 -13    0.33    0.51
  -3   0  13    1.22    0.83
   2   0 -13   -0.02    0.52
   1   0 -13    0.74    0.59
   0   0 -13    0.87    0.64
  -1   0 -13   -1.24    0.67
   4  -1 -13    0.51    0.48
  -4   1  13    0.28    0.55
   3  -1 -13    0.30    0.49
   2  -1 -13   -0.30    0.54
   1  -1 -13    0.49    0.63
   0  -1 -13    0.89    0.68
   1   6 -14   -0.51    0.67
   0   6 -14    0.65    0.73
   2   5 -14   -0.45    0.60
   1   5 -14   -0.07    0.68
   0   5 -14    0.09    0.70
   2   4 -14   -0.32    0.64
   1   4 -14   -1.29    0.63
   0   4 -14    0.46    0.68
  -1   4 -14   -0.46    0.68
   2   3 -14    0.27    0.61
   1   3 -14   -1.10    0.63
   0   3 -14    0.12    0.67
   2   2 -14   -0.36    0.59
   1   2 -14   -0.10    0.64
   0   2 -14    0.10    0.67
   0   0   0    0.00    0.00


_chemical_formula_moiety          'C16 H14 Br N O4'

_exptl_crystal_description       prism
_exptl_crystal_colour            colourless


_cell_measurement_reflns_used       3957
_cell_measurement_theta_min         2.50
_cell_measurement_theta_max         26.17

_chemical_absolute_configuration .

_exptl_absorpt_correction_T_min   0.6111
_exptl_absorpt_correction_T_max   0.7458
_exptl_absorpt_correction_type    multi-scan
_exptl_absorpt_process_details   'SADABS-2014/5'

_diffrn_radiation_probe          x-ray
_diffrn_radiation_type           MoK\a
_diffrn_radiation_wavelength     0.71073
_diffrn_source                   'sealed tube'
_diffrn_source_type              MoK\a
_diffrn_measurement_device       'four-circle diffractometer'
_diffrn_radiation_monochromator  graphite
_diffrn_measurement_device_type  'Bruker APEX-II CCD'
_diffrn_measurement_method       '\f and \w scans'

_computing_data_collection       'APEX2 v2014.11-0 (Bruker AXS)'
_computing_cell_refinement       'APEX2 v2014.11-0 (Bruker AXS)'
_computing_data_reduction        'APEX2 v2014.11-0 (Bruker AXS)'
_computing_structure_solution    'SHELXT-2018/2 (Sheldrick, 2015)'
_computing_structure_refinement  'SHELXL-2018/3 (Sheldrick, 2015)'
_computing_molecular_graphics
)
WinGX (Farrugia, 2012); Olex2 (Dolomanov et al., 2009);
ORTEP-3 (Farrugia, 2012); PLATON (Spek, 2009)
)
_computing_publication_material  'enCIFer (Allen, 2004)'
_refine_special_details
)
Refinement of F^2^ against ALL reflections. The weighted R-factor wR and
goodness of fit S are based on F^2^, conventional R-factors R are based
on F, with F set to zero for negative F^2^. The threshold expression of
F^2^ > 2sigma(F^2^) is used only for calculating R-factors(gt) etc. and is
not relevant to the choice of reflections for refinement. R-factors based
on F^2^ are statistically about twice as large as those based on F, and R-
factors based on ALL data will be even larger.
)


CELL 0.71073   7.88160  10.02200  10.41650 106.0910  94.9669 100.9464
ZERR    2.00   0.00080   0.00100   0.00110   0.0043   0.0045   0.0044
LATT   1
;
_shelx_hkl_checksum              90964
loop_
_space_group_symop_operation_xyz
'x, y, z'
'-x, -y, -z'
loop_
_atom_site_label
_atom_site_type_symbol
_atom_site_fract_x
_atom_site_fract_y
_atom_site_fract_z
_atom_site_U_iso_or_equiv
_atom_site_adp_type
_atom_site_occupancy
_atom_site_site_symmetry_order
_atom_site_calc_flag
_atom_site_refinement_flags_posn
_atom_site_refinement_flags_adp
Br1 Br 0.41023(6) 0.80624(5) 0.34044(5) 0.0724(2) Uani 1 1 d . .
O1 O 0.0509(3) 0.5621(3) 0.3957(3) 0.0573(7) Uani 1 1 d . .
O3 O 0.3152(4) 0.5724(4) 0.6076(3) 0.0615(8) Uani 1 1 d D .
H3 H 0.212(3) 0.537(5) 0.592(5) 0.066(15) Uiso 1 1 d D .
O11 O 0.3033(5) 0.9075(5) 0.7933(4) 0.1034(15) Uani 1 1 d . .
O12 O 0.4178(5) 0.8354(5) 0.9463(5) 0.0944(13) Uani 1 1 d . .
N1 N 0.4177(5) 0.8651(5) 0.8393(4) 0.0693(12) Uani 1 1 d . .
C1 C 0.1788(5) 0.5497(4) 0.3397(4) 0.0498(9) Uani 1 1 d . .
C2 C 0.3604(6) 0.6367(5) 0.4122(5) 0.0645(12) Uani 1 1 d . .
H2 H 0.448290 0.579538 0.392468 0.077 Uiso 1 1 calc R U
C3 C 0.3678(6) 0.6967(6) 0.5584(5) 0.0698(14) Uani 1 1 d . .
H31 H 0.284677 0.758568 0.576970 0.084 Uiso 1 1 calc R U
C11 C 0.1670(5) 0.4623(4) 0.1983(4) 0.0449(8) Uani 1 1 d . .
C12 C 0.0018(5) 0.3949(4) 0.1241(4) 0.0480(9) Uani 1 1 d . .
H12 H -0.097791 0.402616 0.164948 0.058 Uiso 1 1 calc R U
C13 C -0.0133(5) 0.3167(4) -0.0099(4) 0.0510(9) Uani 1 1 d . .
H13 H -0.123813 0.271587 -0.058341 0.061 Uiso 1 1 calc R U
C14 C 0.1314(6) 0.3041(4) -0.0736(4) 0.0521(10) Uani 1 1 d . .
C15 C 0.2942(6) 0.3677(5) 0.0006(5) 0.0588(11) Uani 1 1 d . .
H15 H 0.393166 0.358267 -0.040646 0.071 Uiso 1 1 calc R U
C16 C 0.3133(5) 0.4450(5) 0.1349(4) 0.0555(10) Uani 1 1 d . .
H16 H 0.424554 0.485940 0.183499 0.067 Uiso 1 1 calc R U
C17 C 0.1162(7) 0.2265(5) -0.2227(5) 0.0705(13) Uani 1 1 d . .
H17A H 0.148973 0.294314 -0.270636 0.106 Uiso 1 1 calc R U
H17B H -0.002317 0.175070 -0.256572 0.106 Uiso 1 1 calc R U
H17C H 0.192126 0.161048 -0.235349 0.106 Uiso 1 1 calc R U
C31 C 0.5489(5) 0.7770(5) 0.6342(4) 0.0547(11) Uani 1 1 d . .
C32 C 0.5705(5) 0.8495(4) 0.7687(4) 0.0476(9) Uani 1 1 d . .
C33 C 0.7310(5) 0.9054(4) 0.8475(4) 0.0526(10) Uani 1 1 d . .
H33 H 0.738815 0.950574 0.939483 0.063 Uiso 1 1 calc R U
C34 C 0.8797(5) 0.8944(4) 0.7901(4) 0.0526(10) Uani 1 1 d . .
H34 H 0.989147 0.933516 0.842106 0.063 Uiso 1 1 calc R U
C35 C 0.8649(5) 0.8255(5) 0.6556(5) 0.0606(11) Uani 1 1 d . .
H35 H 0.965011 0.817725 0.615498 0.073 Uiso 1 1 calc R U
C36 C 0.7026(5) 0.7673(5) 0.5787(5) 0.0640(12) Uani 1 1 d . .
H36 H 0.695324 0.720128 0.487216 0.077 Uiso 1 1 calc R U
loop_
_atom_site_aniso_label
_atom_site_aniso_U_11
_atom_site_aniso_U_22
_atom_site_aniso_U_33
_atom_site_aniso_U_23
_atom_site_aniso_U_13
_atom_site_aniso_U_12
Br1 0.0638(3) 0.0746(4) 0.0733(4) 0.0346(3) -0.0067(2) -0.0090(2)
O1 0.0380(15) 0.0742(19) 0.0466(16) 0.0086(14) -0.0006(12) -0.0013(13)
O3 0.0395(16) 0.080(2) 0.0635(19) 0.0335(16) 0.0021(14) -0.0049(15)
O11 0.051(2) 0.141(4) 0.092(3) -0.021(2) -0.0017(18) 0.046(2)
O12 0.075(3) 0.103(3) 0.098(3) 0.016(2) 0.040(2) 0.011(2)
N1 0.037(2) 0.075(3) 0.067(3) -0.019(2) 0.0055(18) 0.0052(17)
C1 0.038(2) 0.051(2) 0.052(2) 0.0101(18) -0.0038(17) 0.0013(16)
C2 0.046(2) 0.068(3) 0.063(3) 0.000(2) -0.0035(19) 0.009(2)
C3 0.039(2) 0.081(3) 0.066(3) -0.012(2) -0.0043(19) 0.012(2)
C11 0.040(2) 0.043(2) 0.045(2) 0.0120(16) -0.0019(16) -0.0002(15)
C12 0.042(2) 0.050(2) 0.049(2) 0.0191(18) 0.0003(16) -0.0004(16)
C13 0.046(2) 0.053(2) 0.046(2) 0.0153(18) -0.0056(17) -0.0014(17)
C14 0.059(2) 0.047(2) 0.051(2) 0.0207(18) 0.0068(19) 0.0064(18)
C15 0.050(2) 0.062(3) 0.063(3) 0.021(2) 0.015(2) 0.0049(19)
C16 0.039(2) 0.057(2) 0.061(3) 0.013(2) 0.0018(18) -0.0010(17)
C17 0.080(3) 0.073(3) 0.053(3) 0.013(2) 0.010(2) 0.011(3)
C31 0.0303(19) 0.059(2) 0.058(2) -0.006(2) -0.0012(16) 0.0079(17)
C32 0.0301(18) 0.046(2) 0.054(2) -0.0033(17) 0.0061(16) 0.0068(15)
C33 0.038(2) 0.057(2) 0.050(2) 0.0005(18) -0.0004(17) 0.0058(17)
C34 0.0311(19) 0.058(2) 0.058(2) 0.0077(19) -0.0040(16) 0.0013(16)
C35 0.0293(19) 0.076(3) 0.066(3) 0.007(2) 0.0097(18) 0.0067(19)
C36 0.039(2) 0.085(3) 0.051(2) -0.005(2) 0.0022(18) 0.012(2)
loop_
_atom_type_symbol
_atom_type_description
_atom_type_scat_dispersion_real
_atom_type_scat_dispersion_imag
_atom_type_scat_source
C C 0.0033 0.0016 'International Tables Vol C Tables 4.2.6.8 and 6.1.1.4'
H H 0.0000 0.0000 'International Tables Vol C Tables 4.2.6.8 and 6.1.1.4'
N N 0.0061 0.0033 'International Tables Vol C Tables 4.2.6.8 and 6.1.1.4'
O O 0.0106 0.0060 'International Tables Vol C Tables 4.2.6.8 and 6.1.1.4'
Br Br -0.2901 2.4595 'International Tables Vol C Tables 4.2.6.8 and 6.1.1.4'
loop_
_geom_angle_atom_site_label_1
_geom_angle_atom_site_label_2
_geom_angle_atom_site_label_3
_geom_angle
C3 O3 H3 115(4)
O11 N1 O12 123.0(4)
O11 N1 C32 119.7(5)
O12 N1 C32 117.3(4)
O1 C1 C11 122.8(3)
O1 C1 C2 120.0(4)
C11 C1 C2 117.0(3)
C3 C2 C1 113.6(4)
C3 C2 Br1 105.6(3)
C1 C2 Br1 105.8(3)
C3 C2 H2 110.6
C1 C2 H2 110.6
Br1 C2 H2 110.6
C2 C3 O3 105.0(4)
C2 C3 C31 114.7(4)
O3 C3 C31 107.1(4)
C2 C3 H31 109.9
O3 C3 H31 109.9
C31 C3 H31 109.9
C16 C11 C12 118.5(4)
C16 C11 C1 122.9(3)
C12 C11 C1 118.6(3)
C13 C12 C11 119.8(4)
C13 C12 H12 120.1
C11 C12 H12 120.1
C14 C13 C12 121.5(4)
C14 C13 H13 119.2
C12 C13 H13 119.2
C15 C14 C13 118.5(4)
C15 C14 C17 119.4(4)
C13 C14 C17 122.0(4)
C14 C15 C16 121.2(4)
C14 C15 H15 119.4
C16 C15 H15 119.4
C15 C16 C11 120.4(4)
C15 C16 H16 119.8
C11 C16 H16 119.8
C14 C17 H17A 109.5
C14 C17 H17B 109.5
H17A C17 H17B 109.5
C14 C17 H17C 109.5
H17A C17 H17C 109.5
H17B C17 H17C 109.5
C32 C31 C36 115.6(3)
C32 C31 C3 120.4(4)
C36 C31 C3 123.5(4)
C31 C32 C33 123.4(3)
C31 C32 N1 120.6(3)
C33 C32 N1 116.0(3)
C34 C33 C32 119.7(4)
C34 C33 H33 120.2
C32 C33 H33 120.2
C35 C34 C33 119.1(3)
C35 C34 H34 120.4
C33 C34 H34 120.4
C34 C35 C36 120.4(4)
C34 C35 H35 119.8
C36 C35 H35 119.8
C35 C36 C31 121.8(4)
C35 C36 H36 119.1
C31 C36 H36 119.1
loop_
_geom_bond_atom_site_label_1
_geom_bond_atom_site_label_2
_geom_bond_distance
Br1 C2 2.026(5)
O1 C1 1.217(5)
O3 C3 1.477(7)
O3 H3 0.80(2)
O11 N1 1.186(6)
O12 N1 1.231(6)
N1 C32 1.475(5)
C1 C11 1.475(6)
C1 C2 1.534(6)
C2 C3 1.465(7)
C2 H2 0.9800
C3 C31 1.525(5)
C3 H31 0.9800
C11 C16 1.393(6)
C11 C12 1.397(5)
C12 C13 1.381(6)
C12 H12 0.9300
C13 C14 1.377(6)
C13 H13 0.9300
C14 C15 1.377(6)
C14 C17 1.514(6)
C15 C16 1.378(6)
C15 H15 0.9300
C16 H16 0.9300
C17 H17A 0.9600
C17 H17B 0.9600
C17 H17C 0.9600
C31 C32 1.366(6)
C31 C36 1.396(6)
C32 C33 1.373(5)
C33 C34 1.370(6)
C33 H33 0.9300
C34 C35 1.363(6)
C34 H34 0.9300
C35 C36 1.378(6)
C35 H35 0.9300
C36 H36 0.9300
loop_
_geom_hbond_atom_site_label_D
_geom_hbond_atom_site_label_H
_geom_hbond_atom_site_label_A
_geom_hbond_distance_DH
_geom_hbond_distance_HA
_geom_hbond_distance_DA
_geom_hbond_angle_DHA
_geom_hbond_site_symmetry_A
_geom_hbond_publ_flag
O3 H3 O1 0.80(2) 2.15(2) 2.937(4) 164(5) 2_566 yes
C2 H2 O3 0.98 2.62 3.586(6) 168.0 2_666 yes
C34 H34 O11 0.93 2.62 3.313(5) 132.2 1_655 yes
loop_
_geom_torsion_atom_site_label_1
_geom_torsion_atom_site_label_2
_geom_torsion_atom_site_label_3
_geom_torsion_atom_site_label_4
_geom_torsion
O1 C1 C2 C3 16.8(6)
C11 C1 C2 C3 -168.2(4)
O1 C1 C2 Br1 -98.5(4)
C11 C1 C2 Br1 76.5(4)
C1 C2 C3 O3 59.5(5)
Br1 C2 C3 O3 174.9(2)
C1 C2 C3 C31 176.9(4)
Br1 C2 C3 C31 -67.7(5)
O1 C1 C11 C16 -178.4(4)
C2 C1 C11 C16 6.7(6)
O1 C1 C11 C12 2.2(6)
C2 C1 C11 C12 -172.7(4)
C16 C11 C12 C13 -1.8(6)
C1 C11 C12 C13 177.6(4)
C11 C12 C13 C14 -0.5(6)
C12 C13 C14 C15 2.1(6)
C12 C13 C14 C17 -176.1(4)
C13 C14 C15 C16 -1.4(6)
C17 C14 C15 C16 176.8(4)
C14 C15 C16 C11 -0.9(7)
C12 C11 C16 C15 2.5(6)
C1 C11 C16 C15 -176.9(4)
C2 C3 C31 C32 173.7(4)
O3 C3 C31 C32 -70.1(5)
C2 C3 C31 C36 -14.8(7)
O3 C3 C31 C36 101.3(5)
C36 C31 C32 C33 -2.4(7)
C3 C31 C32 C33 169.8(5)
C36 C31 C32 N1 -179.1(4)
C3 C31 C32 N1 -7.0(7)
O11 N1 C32 C31 -50.8(6)
O12 N1 C32 C31 130.6(5)
O11 N1 C32 C33 132.2(5)
O12 N1 C32 C33 -46.3(6)
C31 C32 C33 C34 2.6(7)
N1 C32 C33 C34 179.5(4)
C32 C33 C34 C35 -1.2(7)
C33 C34 C35 C36 -0.2(7)
C34 C35 C36 C31 0.4(8)
C32 C31 C36 C35 0.9(7)
C3 C31 C36 C35 -171.0(5)
