#------------------------------------------------------------------------------
#$Date: 2019-11-07 22:02:31 +0200 (Thu, 07 Nov 2019) $
#$Revision: 223687 $
#$URL: file:///home/coder/svn-repositories/cod/cif/7/23/25/7232565.cif $
#------------------------------------------------------------------------------
#
# This file is available in the Crystallography Open Database (COD),
# http://www.crystallography.net/
#
# All data on this site have been placed in the public domain by the
# contributors.
#
data_7232565
loop_
_publ_author_name
'Mila\<sinovi\'c, Valentina'
'Mol\<canov, Kre\<simir'
_publ_section_title
;
 Nitranilic acid as a basis for construction of coordination polymers:
 from discrete monomers to 3D networks
;
_journal_issue                   18
_journal_name_full               CrystEngComm
_journal_page_first              2962
_journal_paper_doi               10.1039/C9CE00209J
_journal_volume                  21
_journal_year                    2019
_chemical_formula_moiety         'C3 Ag N O4'
_chemical_formula_sum            'C3 Ag N O4'
_chemical_formula_weight         221.91
_space_group_IT_number           61
_space_group_name_Hall           '-P 2ac 2ab'
_space_group_name_H-M_alt        'P b c a'
_symmetry_cell_setting           orthorhombic
_symmetry_space_group_name_Hall  '-P 2ac 2ab'
_symmetry_space_group_name_H-M   'P b c a'
_atom_sites_solution_hydrogens   none
_atom_sites_solution_primary     direct
_atom_sites_solution_secondary   difmap
_audit_creation_date             2017-04-07T12:00:47-00:00
_audit_creation_method           'WinGX routine CIF_UPDATE'
_audit_update_record
;
2019-01-29 deposited with the CCDC.    2019-04-03 downloaded from the CCDC.
;
_cell_angle_alpha                90
_cell_angle_beta                 90
_cell_angle_gamma                90
_cell_formula_units_Z            8
_cell_length_a                   7.69450(10)
_cell_length_b                   6.98680(10)
_cell_length_c                   15.1284(3)
_cell_measurement_reflns_used    3343
_cell_measurement_temperature    293(2)
_cell_measurement_theta_max      75.7536
_cell_measurement_theta_min      2.9185
_cell_volume                     813.30(2)
_computing_cell_refinement
;
        CrysAlisPro, Agilent Technologies,
        Version 1.171.36.20 (release 27-06-2012 CrysAlis171 .NET)
        (compiled Jul 11 2012,15:38:31)
;
_computing_data_collection
;
        CrysAlisPro, Agilent Technologies,
        Version 1.171.36.20 (release 27-06-2012 CrysAlis171 .NET)
        (compiled Jul 11 2012,15:38:31)
;
_computing_data_reduction
;
        CrysAlisPro, Agilent Technologies,
        Version 1.171.36.20 (release 27-06-2012 CrysAlis171 .NET)
        (compiled Jul 11 2012,15:38:31)
;
_computing_molecular_graphics    'Ortep-3 for Windows (Farrugia, 1997)'
_computing_publication_material  'WinGX publication routines (Farrugia, 1999)'
_computing_structure_refinement  'SHELXL-97 (Sheldrick, 1997)'
_computing_structure_solution    'SHELXS-97 (Sheldrick, 1997)'
_diffrn_ambient_temperature      293(2)
_diffrn_detector_area_resol_mean 10.4323
_diffrn_measured_fraction_theta_full 0.996
_diffrn_measured_fraction_theta_max 0.996
_diffrn_measurement_device_type  'Xcalibur, Ruby, Nova'
_diffrn_measurement_method       '\w scans'
_diffrn_radiation_monochromator  graphite
_diffrn_radiation_type           CuK\a
_diffrn_radiation_wavelength     1.54179
_diffrn_reflns_av_R_equivalents  0.0394
_diffrn_reflns_av_unetI/netI     0.0224
_diffrn_reflns_limit_h_max       9
_diffrn_reflns_limit_h_min       -9
_diffrn_reflns_limit_k_max       6
_diffrn_reflns_limit_k_min       -8
_diffrn_reflns_limit_l_max       18
_diffrn_reflns_limit_l_min       -16
_diffrn_reflns_number            6121
_diffrn_reflns_theta_full        75.94
_diffrn_reflns_theta_max         75.94
_diffrn_reflns_theta_min         5.85
_exptl_absorpt_coefficient_mu    39.207
_exptl_absorpt_correction_T_max  1
_exptl_absorpt_correction_T_min  0.30609
_exptl_absorpt_correction_type   multi-scan
_exptl_absorpt_process_details
;
        CrysAlisPro, Agilent Technologies,
        Version 1.171.36.20 (release 27-06-2012 CrysAlis171 .NET)
        (compiled Jul 11 2012,15:38:31)
        Empirical absorption correction using spherical harmonics,
 implemented in SCALE3 ABSPACK scaling algorithm.
;
_exptl_crystal_colour            orange
_exptl_crystal_density_diffrn    3.625
_exptl_crystal_density_method    'not measured'
_exptl_crystal_description       prism
_exptl_crystal_F_000             832
_exptl_crystal_size_max          0.1
_exptl_crystal_size_mid          0.07
_exptl_crystal_size_min          0.02
_refine_diff_density_max         1.045
_refine_diff_density_min         -0.994
_refine_diff_density_rms         0.192
_refine_ls_extinction_method     none
_refine_ls_goodness_of_fit_ref   1.111
_refine_ls_hydrogen_treatment    undef
_refine_ls_matrix_type           full
_refine_ls_number_parameters     82
_refine_ls_number_reflns         841
_refine_ls_number_restraints     6
_refine_ls_restrained_S_all      1.123
_refine_ls_R_factor_all          0.0284
_refine_ls_R_factor_gt           0.028
_refine_ls_shift/su_max          0
_refine_ls_shift/su_mean         0
_refine_ls_structure_factor_coef Fsqd
_refine_ls_weighting_details
'calc w=1/[\s^2^(Fo^2^)+(0.0442P)^2^+3.4129P] where P=(Fo^2^+2Fc^2^)/3'
_refine_ls_weighting_scheme      calc
_refine_ls_wR_factor_ref         0.0754
_reflns_number_gt                826
_reflns_number_total             841
_reflns_threshold_expression     >2sigma(I)
_iucr_refine_instructions_details
;
TITL agna_1 in P b c a
CELL  1.54179   7.6945   6.9868  15.1284   90.000   90.000   90.000
ZERR     8.00   0.0001   0.0001   0.0003    0.000    0.000    0.000
LATT   1
SYMM  1/2 - X, - Y, 1/2 + Z
SYMM  1/2 + X, 1/2 - Y, - Z
SYMM  - X, 1/2 + Y, 1/2 - Z
SFAC  C    AG   N    O
UNIT  24   4    8    32
MERG   2
OMIT    -4.00 180.00
ISOR  0.00001 N1
FMAP   2
PLAN   20
ACTA
HTAB    2.00000
BOND   $H
CONF
L.S.  10
WGHT    0.044200    3.412900
FVAR       3.28733
AG1   2    0.105772    0.083075    0.291666    11.00000    0.00634    0.01502 =
         0.01063   -0.00105   -0.00118   -0.00068
O1    4    0.193884    0.133141    0.439993    11.00000    0.01014    0.01036 =
         0.01275   -0.00299   -0.00249    0.00556
O2    4    0.584950    0.015770    0.674225    11.00000    0.00747    0.01177 =
         0.01038    0.00043   -0.00180   -0.00019
O3    4    0.093895    0.132417    0.607717    11.00000    0.00794    0.01273 =
         0.02207    0.00338   -0.00107    0.00102
O4    4    0.305138    0.234689    0.691087    11.00000    0.01433    0.01507 =
         0.01774   -0.00525    0.00174   -0.00218
N1    3    0.245776    0.153360    0.626342    11.00000    0.00550    0.00302 =
         0.00754    0.00136   -0.00375    0.00032
C1    1    0.329869    0.069818    0.471195    11.00000    0.00621    0.00320 =
         0.01301   -0.00024    0.00157    0.00049
C2    1    0.538307    0.015001    0.595720    11.00000    0.00563    0.00473 =
         0.01025   -0.00058    0.00119   -0.00246
C3    1    0.375704    0.077684    0.562621    11.00000    0.00444    0.00716 =
         0.00993    0.00126    0.00206    0.00119
HKLF    4
 
REM  agna_1 in P b c a
REM R1 =  0.0280 for    826 Fo > 4sig(Fo)  and  0.0284 for all    841 data
REM     82 parameters refined using      6 restraints
 
END
 
WGHT      0.0443      2.5106
REM Highest difference peak  1.045,  deepest hole -0.994,  1-sigma level  0.192
Q1    1   0.2682  0.1555  0.5920  11.00000  0.05    1.04
Q2    1   0.2242  0.1579  0.6515  11.00000  0.05    1.04
Q3    1   0.2778  0.1865  0.7793  11.00000  0.05    0.63
Q4    1   0.7325  0.1617  0.6577  11.00000  0.05    0.63
Q5    1   0.6055  0.1745  0.5511  11.00000  0.05    0.62
Q6    1   0.0914  0.0957  0.2427  11.00000  0.05    0.61
Q7    1   0.3752  0.0584  0.5238  11.00000  0.05    0.56
Q8    1   0.4274  0.1768  0.7305  11.00000  0.05    0.53
Q9    1   0.3921  0.0211  0.4422  11.00000  0.05    0.53
Q10   1   0.2174 -0.0658  0.3235  11.00000  0.05    0.53
Q11   1   0.1013  0.1505  0.6967  11.00000  0.05    0.48
Q12   1   0.7049  0.1347  0.7121  11.00000  0.05    0.48
Q13   1  -0.0181  0.0646  0.3466  11.00000  0.05    0.47
Q14   1   0.1503  0.2004  0.4792  11.00000  0.05    0.47
Q15   1   0.0251  0.1777  0.2433  11.00000  0.05    0.47
Q16   1   0.0934  0.2916  0.6563  11.00000  0.05    0.46
Q17   1   0.4812  0.1776  0.4501  11.00000  0.05    0.45
Q18   1   0.3360  0.0353  0.5815  11.00000  0.05    0.44
Q19   1   0.2029 -0.0917  0.5119  11.00000  0.05    0.42
Q20   1   0.2219  0.3189  0.7470  11.00000  0.05    0.42
;
_cod_data_source_file            c9ce00209j2.cif
_cod_data_source_block           agna_1
_cod_depositor_comments
'Adding full bibliography for 7232565--7232570.cif.'
_cod_database_code               7232565
_iucr_refine_reflections_details
;
   0   0  -1 289.775 109.229   3
   0   0  -2 562222. 5534.52   3
   0   0   2 575325. 5216.64   4
   0   0  -3 484.716 223.852   3
   0   0   3 107.236 106.577   4
   0   0   4 45973.3 2170.44   4
   0   0  -4 46114.4 2130.47   3
   0   0   5 52.0610 172.310   4
   0   0  -5 503.725 301.286   3
   0   0  -6 3847.80 749.162   3
   0   0   6 2253.34 644.958   4
   0   0   7 719.966 396.278   4
   0   0  -7 682.993 356.039   3
   0   0   8 389879. 10148.4   4
   0   0  -9 403.826 204.498   5
   0   0   9 1504.34 688.833   4
   0   0  10 458592. 13300.8   4
   0   0 -10 384129. 6418.85   5
   0   0  11 1019.48 706.457   4
   0   0 -11 513.541 268.351   5
   0   0 -12 407400. 7158.06   5
   0   0  12 432156. 14952.6   4
   0   0  13 2339.23 708.892  19
   0   0 -13 3492.37 660.303   5
   0   0  14 140993. 5611.66  19
   0   0  14 140776. 5098.93  26
   0   0  15 2278.49 697.171  26
   0   0  15 805.855 509.377  19
   0   0  16 26149.3 2147.06  26
   0   0  16 25648.8 2321.64  19
   0   0  17 495.950 340.425  26
   0   0  17-208.042 298.168  19
   0   0  18 1779.89 456.052  26
   1   0   0-20.7986 158.077   2
   1   0   1-34.6452 91.6998   2
  -1   0   1 169.963 243.776   4
   1   0  -1 104.249 150.063   2
  -1   0   2 26657.5 1586.34   4
   1   0   2 33808.3 1595.72   2
   1   0   3 46.3973 121.146   2
  -1   0   3 144.634 184.168   4
  -1   0   4 134309. 4251.03   4
   1   0   4 146734. 4186.77   2
   1   0   5 336.686 307.586   2
   1   0   5 123.148 46.3168   1
  -1   0   5-207.471 232.041   4
   1   0   6 619016. 10433.0   4
  -1   0   6 614775. 11139.8   4
   1   0   7 674.279 422.806   4
  -1   0  -7 276.699 283.960   3
  -1   0   7 340.176 325.812   4
   1   0   8 87983.0 4780.24   4
  -1   0  -8 91854.8 4506.17   3
  -1   0   8 89841.5 5203.84   4
  -1   0   9 311.511 509.250   4
  -1   0  -9 463.565 210.450   5
   1   0   9 555.989 435.950   4
   1   0  -9-68.5275 130.366   5
  -1   0  10 21882.0 3076.50   4
   1   0  10 22564.2 2904.72   4
   1   0 -10 17828.7 1452.83   5
   1   0  11 444.817 484.440   4
  -1   0  11-211.588 450.577   4
   1   0 -11 66.3915 152.792   5
  -1   0  12 4725.82 1012.30  19
   1   0  12 4359.00 843.284  26
  -1   0  12 4248.85 855.673  26
  -1   0  12 3152.82 1328.61   4
   1   0  12 4194.70 1418.96   4
   1   0 -12 3236.59 714.946   5
   1   0  13 552.696 323.724  26
   1   0 -13 369.314 228.906   5
  -1   0  13 352.519 299.127  26
  -1   0  13-230.291 337.632  19
  -1   0  14 6979.00 1174.24  26
   1   0 -14 5175.16 858.278   5
  -1   0  14 5041.83 1092.71  19
   1   0  14 5879.18 1033.13  26
  -1   0  15 391.163 407.697  19
  -1   0  15-54.1792 196.862  26
   1   0  15 1141.85 523.577  26
   1   0  15 335.754 361.635  19
   1   0  16 54688.3 3367.85  19
   1   0  16 56421.3 3011.97  26
  -1   0  16 56870.3 3260.83  26
  -1   0  16 48385.1 3138.30  19
  -1   0  17 183.990 201.842  26
   1   0  17 313.682 331.571  19
   1   0  17-129.409 196.673  26
  -1   0  18 101866. 3524.68  26
   1   0  18 98854.8 3163.17  26
   2   0   0 1519.32 623.171   2
   2   0  -1 1151.63 571.090   2
   2   0   1 101.290 210.211   2
   2   0  -2 75642.0 4103.80   2
   2   0   2 74835.5 3249.28   2
   2   0  -3 249.314 290.739   2
   2   0   3 41.0382 157.509   2
  -2   0   3 180.118 461.959   4
  -2   0   4 3069.61 905.676   4
   2   0   4 4137.29 819.626   2
   2   0   5 231.431 203.931   2
  -2   0   5 330.084 348.092   4
  -2   0   6 2345.66 883.418   4
   2   0   6 2154.53 661.177   2
  -2   0   7 159.605 315.961   4
   2   0   7 56.1184 170.919   2
  -2   0   8 2038.51 899.592   4
   2   0  -8 4082.94 581.762   5
   2   0   8 3442.39 984.475   4
   2   0  -9 698.805 277.677   5
  -2   0   9 4.50881 181.060   4
   2   0   9 548.392 577.941   4
  -2   0  10 50678.0 5350.77   4
   2   0  10 49453.3 4333.07   4
   2   0 -10 45189.2 2370.03   5
   2   0 -11 153.327 210.686   5
   2   0  11 19.8801 190.700  21
  -2   0  11 336.537 325.821  19
  -2   0  11 228.968 410.368   4
  -2   0  11 294.240 181.899  20
   2   0  11 488.081 291.108  26
   2   0  11 657.923 562.365   4
  -2   0  11 576.328 327.376  26
  -2   0  12 803.698 395.908  26
  -2   0  12-402.026 538.406   4
   2   0  12 1310.27 790.003   4
   2   0 -12 862.628 392.029   5
  -2   0  12 31.8782 319.967  19
   2   0  12 1220.20 448.497  26
  -2   0  12 794.286 310.251  20
  -2   0  13-138.065 359.214  19
  -2   0  13-181.455 259.413  26
   2   0 -13 156.266 206.341   5
  -2   0  13 585.538 302.754  20
   2   0  13-222.285 238.299  26
   2   0 -14 4097.83 815.737   5
   2   0  14 4464.06 875.654  26
  -2   0  14 5222.25 1072.80  26
  -2   0  14 4436.58 678.135  20
  -2   0  15 93.2260 245.779  26
  -2   0  15 420.680 215.528  20
   2   0  15 238.192 245.033  26
   2   0  16 24538.7 1887.69  26
   2   0  16 25062.9 2198.84  19
  -2   0  16 25733.3 2216.15  26
  -2   0  17 155.147 227.272  26
   2   0  17 214.629 198.973  26
   2   0  17 38.0115 241.441  19
   2   0  18 759.021 254.876  26
   2   0  18 1335.15 393.665  19
  -2   0  18 1129.25 394.486  26
   3   0   0 486.455 421.624   2
   3   0   1 407.867 434.844   2
   3   0  -1 6.17306 216.513   2
   3   0  -2 289960. 10368.9   2
   3   0   2 299663. 8163.39   2
   3   0   3 450.463 323.114   2
   3   0  -3 833.270 629.195   2
   3   0   4 999999. 14745.1   2
   3   0  -4 954730. 19446.3   2
   3   0  -5 164.749 359.144   2
   3   0   5 457.771 296.037   2
   3   0   6 509046. 11470.8   2
   3   0  -6 533352. 15939.8   2
   3   0   7-17.8600 114.985   2
  -3   0   7 440.996 595.548   4
   3   0  -7 337.311 485.343   2
   3   0   8 276211. 9485.16   2
   3   0  -8 266065. 12599.3   2
  -3   0   8 254497. 12603.6   4
   3   0   9 251.570 300.967   4
   3   0  -9 1017.28 876.681   2
   3   0  -9 976.026 354.637   5
  -3   0  10 75848.3 7513.48   4
   3   0  10 70408.4 5293.70   4
  -3   0  10 78079.4 3761.20  26
   3   0 -10 75171.9 3240.90   5
   3   0  10 69565.7 3518.92  13
   3   0 -10 81393.6 7668.52   2
  -3   0  10 89198.1 3214.21  20
   3   0  10 67661.3 3184.33  21
   3   0  10 81788.2 3421.47  26
   3   0 -11 287.751 525.197   2
   3   0  11 602.858 513.155   4
   3   0  11 295.147 214.710  26
  -3   0  11 317.180 254.856  20
   3   0  11 406.952 370.377  21
   3   0 -11-163.222 234.113   5
  -3   0  11 171.211 254.648  26
  -3   0  12 7979.07 998.528  20
   3   0  12 6327.66 1046.27  21
   3   0  12 7970.48 1141.92  26
  -3   0  12 9048.87 1397.96  26
   3   0 -12 7003.25 1117.65   5
  -3   0  13 209.873 248.077  26
   3   0 -13 208.200 249.105   5
  -3   0  13 283.876 248.072  20
   3   0  13 404.833 238.069  26
  -3   0  14 53351.2 2436.95  20
   3   0 -14 45438.8 2769.04   5
   3   0  14 52935.2 2955.09  26
  -3   0  14 53911.2 3462.51  26
  -3   0  15 202.910 209.425  20
   3   0  15-2.62881 159.813  26
  -3   0  15-25.8961 253.482  26
   3   0  16 149807. 4294.08  26
  -3   0  16 156403. 5346.80  26
   3   0  16 157935. 5128.80  19
  -3   0  17 190.732 234.275  26
   3   0  17 542.585 332.483  19
  -3   0  18 118939. 3280.27  26
   4   0   0 676627. 15697.1   2
   4   0  -1-36.9021 342.472   2
   4   0   1-664.439 494.589   2
   4   0  -2 369621. 12953.0   2
   4   0   2 360282. 10496.2   2
   4   0   3 493.063 403.607   2
   4   0  -3 244.385 452.904   2
   4   0  -4 195610. 10361.5   2
   4   0   4 183678. 7326.37   2
   4   0  -5 513.544 620.955   2
   4   0   5 354.786 348.392   2
   4   0   6-49.3705 171.921   2
   4   0  -6-144.775 353.344   2
   4   0  -7 1112.08 945.171   2
   4   0   7 250.523 295.505   2
   4   0   8 152484. 7526.78   2
   4   0  -8 177547. 11780.0   2
  -4   0   9 262.253 297.282  26
   4   0   9 667.598 329.459  26
   4   0   9 601.853 514.527   4
   4   0   9 601.076 387.070  13
  -4   0   9 30.6086 139.293  20
  -4   0  10 220657. 5378.49  20
   4   0  10 206316. 5828.06  26
   4   0 -10 215904. 5805.38   5
   4   0  10 187078. 5761.16  21
   4   0  10 193290. 9019.36   4
   4   0  10 179919. 6102.25  13
   4   0 -10 222064. 14184.1   2
  -4   0  10 203962. 6944.09  26
  -4   0  11-287.831 356.213  26
  -4   0  11 11.1907 155.916  20
   4   0  11 512.194 315.000  26
   4   0 -11 79.0955 217.225   5
   4   0  11 543.209 395.201  21
  -4   0  12 222733. 7440.64  26
   4   0  12 223569. 6181.36  26
   4   0 -12 213784. 6334.69   5
  -4   0  12 226596. 5512.32  20
   4   0 -13 897.258 434.510   5
   4   0  13-100.794 220.658  21
  -4   0  13 11.5328 156.507  20
  -4   0  13 293.346 376.550  26
   4   0  13 14.7604 220.259  26
  -4   0  14 134860. 3905.00  20
   4   0 -14 123592. 4401.88   5
  -4   0  14 138393. 5603.76  26
   4   0  14 137856. 4499.51  26
   4   0  15 70.2621 161.289  26
  -4   0  15 7.74878 114.426  20
   4   0  16 44902.3 1615.59  17
  -4   0  16 41260.0 1676.80  20
   4   0  16 55412.3 2746.10  19
  -4   0  16 50545.3 2812.29  26
   4   0  16 47231.6 2068.43  26
   4   0  17 188.732 184.396  19
   4   0  17 295.999 135.637  26
  -4   0  17-7.14129 133.856  26
   5   0   0-157.069 290.399   2
   5   0  -1-175.507 308.661   2
   5   0   1-302.078 355.385   2
   5   0  -2 5528.87 1614.52   2
   5   0   2 3645.45 1175.37   2
   5   0   3 212.540 335.308   2
   5   0  -3-202.908 387.191   2
   5   0  -4 8131.75 2277.65   2
   5   0   4 7506.46 1618.39   2
   5   0  -5-564.019 645.962   2
   5   0   5-252.717 347.910   2
  -5   0   6 4291.94 1015.41  26
   5   0  -6 3383.20 1612.64   2
   5   0   6 5765.41 1489.96   2
   5   0   6 5704.49 932.020  10
  -5   0   6 5296.55 815.179  20
   5   0   7 204.469 308.848   2
  -5   0   7 476.409 372.767  26
   5   0  -7-236.484 163.919   8
  -5   0   7 14.6674 146.904  20
   5   0   7 416.972 500.109  13
   5   0   7-152.759 214.946  10
   5   0  -8 4328.57 1904.14   2
  -5   0   8 2510.06 611.249  20
   5   0   8 2063.35 1159.81   2
   5   0   8 1733.72 602.255  13
   5   0   8 2258.31 599.651  26
  -5   0   8 2659.17 911.251  26
   5   0   9-75.4211 185.695  26
   5   0   9 521.652 395.566  13
  -5   0   9 539.726 310.780  20
  -5   0   9 121.900 252.856  26
  -5   0  10 44858.5 3508.59  26
  -5   0  10 40983.4 2439.06  20
   5   0  10 42741.6 2717.85  26
   5   0  10 36111.1 2836.31  13
   5   0 -10 42613.1 2674.42   5
   5   0  10 37916.0 2732.82  21
   5   0 -11 304.150 274.489   5
  -5   0  11 338.730 258.198  20
   5   0  11 130.435 267.545  21
   5   0  11 10.7852 172.592  26
  -5   0  11 127.155 296.119  26
  -5   0  11-118.778 149.973  14
   5   0 -12 351.612 282.532   5
  -5   0  12 753.786 357.152  20
   5   0  12 681.646 340.959  21
  -5   0  12 310.468 194.404  14
  -5   0  12 202.844 356.410  26
   5   0  12 479.521 312.606  26
   5   0 -13 587.240 326.995   5
  -5   0  13 251.698 236.277  20
   5   0  13-208.825 229.101  21
   5   0  13 57.8363 168.150  26
  -5   0  13-30.9392 248.651  26
   5   0 -14 4482.98 717.844   5
  -5   0  14 5187.23 742.911  20
   5   0  14 5212.01 769.117  26
  -5   0  14 5462.90 1060.36  26
   5   0  15 144.384 152.151  26
   5   0  15 254.968 185.496  17
  -5   0  15 131.540 212.552  26
  -5   0  15 281.441 181.319  20
   5   0  16 3550.61 583.317  19
  -5   0  16 6289.05 792.784  26
   6   0   0 290836. 11476.9   2
  -6   0   0 290065. 5956.66  14
  -6   0   0 273354. 8535.29  26
  -6   0   1-33.2947 160.181  14
  -6   0  -1-71.7766 292.513  26
  -6   0   1 768.367 520.504  26
   6   0   1 519.608 609.179   2
  -6   0  -1-224.438 176.347  14
   6   0  -1 74.8954 472.526   2
  -6   0   2 216067. 7567.56  26
   6   0   2 228376. 9780.88   2
   6   0   2 205222. 4837.45  23
  -6   0   2 235725. 5571.65  14
  -6   0  -2 213845. 5046.11  14
   6   0  -2 219262. 10388.5   2
  -6   0   3 300.950 329.403  26
   6   0   3 367.006 229.996  23
  -6   0   3 69.9662 180.997  14
   6   0   3 56.1277 232.094  10
  -6   0   3 165.738 191.210  20
  -6   0   4 2288.06 817.483  26
  -6   0   4 3807.05 747.340  14
   6   0   4 2138.25 581.721  10
   6   0  -4 3622.42 1418.89   2
   6   0   4 1979.82 504.584  23
   6   0   4 919.512 644.565   2
  -6   0   4 2015.72 516.848  20
  -6   0   5 38.2698 181.555  20
  -6   0   5-693.121 483.489  26
   6   0   5-117.690 178.581  23
  -6   0   5 380.455 316.862  14
   6   0   5 355.756 464.709   2
   6   0   5 432.658 308.147  10
   6   0  -5 736.214 716.843   2
  -6   0   6 459.772 457.068  26
  -6   0   6 874.709 369.105  20
   6   0   6 900.866 409.725  10
  -6   0   6 722.661 354.997  14
  -6   0   7 160.638 219.580  20
  -6   0   7 512.454 301.863  14
   6   0   7 510.234 386.233  13
  -6   0   7 472.521 432.279  26
   6   0   8 14257.5 1741.62  13
  -6   0   8 16182.9 2213.25  26
   6   0   8 17130.2 1719.25  26
  -6   0   8 16039.2 1518.68  14
  -6   0   8 14391.1 1471.68  20
  -6   0   9 34.4660 169.505  14
  -6   0   9 96.8162 204.313  20
   6   0   9 30.5326 134.988  26
  -6   0   9-50.0958 334.392  26
   6   0   9 184.457 286.934  13
   6   0 -10 136875. 4600.33   5
   6   0  10 130644. 4745.96  21
   6   0  10 142105. 4689.05  26
   6   0  10 127187. 5015.10  13
  -6   0  10 131429. 4349.54  20
  -6   0  10 127462. 3909.18  14
  -6   0  10 139720. 6193.43  26
   6   0 -11 26.3766 169.019   5
  -6   0  11 96.8769 195.208  20
  -6   0  11 375.800 247.168  14
  -6   0  11 235.761 388.630  26
   6   0  11 468.868 278.917  26
   6   0  11 19.2091 232.039  21
  -6   0  12 96790.0 3407.30  20
  -6   0  12 99222.6 2809.08  14
   6   0 -12 101097. 3675.99   5
   6   0  12 100966. 3418.54  21
  -6   0  12 111714. 4848.10  26
   6   0  12 108358. 3574.02  26
  -6   0  13 196.999 354.403  26
   6   0  13 255.870 166.630  26
  -6   0  13 258.639 201.659  20
   6   0 -13 354.146 189.734   5
   6   0  14 42868.1 1612.31  26
   6   0  14 47550.9 1727.60  17
  -7   0   0-1.36446 209.395  14
   7   0   0 237.697 265.655  23
  -7   0   1 451.041 288.947  14
   7   0   1 59.7885 200.804  23
  -7   0   1 317.094 370.407  26
  -7   0  -1 221.975 197.127  14
   7   0   2 22877.3 1640.67  23
   7   0   2 24851.4 1929.11  10
  -7   0   2 25462.6 1958.89  14
  -7   0  -2 23691.0 1829.08  14
  -7   0   2 22959.7 2568.31  26
   7   0   3 298.108 240.430  23
  -7   0   3 91.4274 271.524  14
   7   0   3 231.969 257.373  10
  -7   0   3 161.403 275.831  26
   7   0   4 493965. 7501.02  23
   7   0   4 514894. 8777.57  10
  -7   0   4 515967. 8892.71  14
   7   0   5 267.929 209.552  10
  -7   0   5 435.438 346.949  14
   7   0   6 375892. 7471.43  10
  -7   0   6 393996. 7574.69  14
   7   0   6 372479. 8394.18  13
  -7   0   7 223.239 237.502  14
  -7   0   7 194.584 354.195  26
   7   0   7 392.299 293.766  26
   7   0   7-3.28243 228.217  13
   7   0   8 190553. 5737.29  13
  -7   0   8 206200. 7327.70  26
  -7   0   8 188040. 4909.38  14
   7   0   8 201683. 5293.82  26
   7   0   9 123.813 326.918  21
   7   0   9 126.752 179.645  26
   7   0   9 63.5568 213.140  13
  -7   0   9 630.706 402.206  26
  -7   0   9 628.690 327.930  14
   7   0  -9 587.314 302.071   5
  -7   0  10 28802.0 1662.42  14
   7   0  10 30821.3 1913.14  21
  -7   0  10 35270.9 2689.02  26
   7   0  10 32564.4 1861.20  26
   7   0 -10 29878.2 1864.36   5
   7   0  11 168.459 123.115  26
  -7   0  11 54.3254 105.401  14
   7   0  11 215.217 198.930  21
  -7   0  11 12.3285 198.215  26
   7   0 -11 1.99515 103.713   5
  -7   0  12 69.6289 90.2881  14
   7   0  12 202.979 184.776  17
  -7   0  12 199.245 206.123  26
   7   0  13 170.188 115.860  17
  -7   0  13 194.426 140.966  26
   8   0   0 62736.2 2468.72  23
  -8   0   0 61392.6 2934.86  14
   8   0   0 63129.5 2840.33  10
  -8   0   1 315.215 305.491  14
   8   0  -1 356.754 287.983  10
  -8   0  -1 515.283 300.196  14
   8   0  -1-261.254 192.306  23
   8   0   1 205.825 214.818  10
   8   0   1 139.346 160.756  23
  -8   0  -2 71814.0 3075.36  14
   8   0  -2 71197.4 2660.26  23
   8   0   2 74401.1 3012.75  10
  -8   0   2 69178.0 3148.86  14
   8   0   2 71072.4 2534.85  23
   8   0  -3-124.277 168.842  23
  -8   0   3 121.709 185.666  14
   8   0   3 323.016 245.697  10
  -8   0   4 11423.5 1251.87  14
   8   0   4 12210.5 1199.41  10
  -8   0   4 12758.5 1705.59  26
  -8   0   5 121.760 202.328  14
  -8   0   5-381.528 362.602  26
  -8   0   6 3010.34 771.221  26
   8   0   6 2527.18 512.328  26
   8   0   6 2156.16 556.577  13
  -8   0   6 2304.09 539.406  14
   8   0   7 239.359 260.942  13
   8   0   7 97.6518 131.416  26
  -8   0   7 144.272 245.262  26
  -8   0   7 80.6381 144.280  14
  -8   0   8 3456.35 762.399  26
   8   0  -8 2592.35 476.344   5
   8   0   8 2549.55 526.911  13
   8   0   8 2051.66 337.671  17
  -8   0   8 3170.77 545.956  14
   8   0   8 2258.73 430.956  26
   8   0   8 2605.11 505.149  21
   8   0   9 25.0640 86.9357  26
   8   0   9 404.628 208.370  21
  -8   0   9 69.7446 139.966  14
  -8   0   9 362.202 253.844  26
   8   0   9 274.196 150.627  17
  -8   0  10 38040.8 1859.95  26
  -8   0  10 33820.8 1362.47  14
  -9   0   0 194.598 159.172  14
   9   0   0 142.798 165.540  10
   9   0  -1 188.364 144.669  10
   9   0   1-92.0561 128.565  10
  -9   0   1 413.968 240.362  14
   9   0  -2 13113.9 987.908  10
  -9   0   2 11877.7 1072.73  14
   9   0   2 12197.7 941.133  10
   9   0   3 263.868 210.567  13
  -9   0   3 126.785 155.625  14
   9   0  -3 367.815 203.653  10
   9   0   3-58.5274 94.4378  26
   9   0   4 9745.24 887.810  13
   9   0   4 8986.92 712.171  26
   9   0  -4 10743.4 834.893  10
  -9   0   4 9493.54 917.386  14
  -9   0   5 221.053 188.459  14
   9   0   5 262.127 156.317  13
   9   0  -5-11.2972 95.8482  10
   9   0   5 67.2552 84.2825  26
   9   0  -6 30115.3 1183.63  10
   9   0   6 30523.1 1329.00  13
  -9   0   6 30990.6 1455.91  14
   9   0   6 32172.0 1307.06  21
  -9   0   7-87.3423 87.8364  14
   0   1   0 229.920 155.555   2
   0  -1   0 371.866 214.281   1
   0   1   1 403.827 139.518   2
   0  -1  -1 62.3484 117.964   1
   0  -1  -1 289.609 186.921   3
   0  -1   1 2.15933 85.0961   4
   0  -1   1 155.649 111.103   3
   0  -1   1 126.620 98.2719   1
   0  -1  -2 305.311 219.227   3
   0  -1   2 373.064 181.034   4
   0   1   2 123.631 128.196   2
   0  -1   2 735.983 255.528   1
   0  -1  -2 51.2979 145.348   1
   0  -1  -3 178.961 238.269   3
   0  -1   3 67.2814 128.550   1
   0   1   3 531.742 236.849   2
   0  -1   3 1228.50 385.893   4
   0  -1  -3 802.567 291.427   1
   0  -1   4 174.751 119.630   1
   0  -1  -4 93.5589 92.9370   1
   0  -1  -4 1.74063 287.650   3
   0  -1   4 77.6361 152.501   4
   0  -1  -5 55.6237 242.872   3
   0   1   5-1.23341 177.718   4
   0  -1   5 130.539 186.076   4
   0   1   6 6.34322 172.488   4
   0  -1  -6 11.1440 220.944   3
   0  -1   6 568.346 350.961   4
   0  -1  -7-17.4378 271.436   3
   0   1   7 334.019 307.446   4
   0  -1   7 121.631 214.728   4
   0  -1  -8-302.757 375.603   3
   0   1   8 487.573 388.093   4
   0  -1   9 92.0054 143.051   6
   0  -1  -9 155.997 179.085   5
   0   1   9 552.418 473.749   4
   0  -1   9 692.227 359.234   4
   0  -1  10 649.059 276.397   6
   0  -1  10 990.187 651.535   4
   0  -1 -10-16.4465 168.316   5
   0   1  10 1140.72 696.745   4
   0  -1 -11 169.476 247.053   5
   0   1  11 133.805 457.798   4
   0  -1  11 670.610 564.227   4
   0  -1  12 714.995 590.949   4
   0  -1  12 383.562 194.450  26
   0  -1 -12 554.655 299.949   5
   0   1  12 1163.19 464.092  26
   0  -1  12 382.489 415.603  19
   0  -1 -12-115.424 151.061  25
   0   1  13 227.719 268.729  19
   0  -1  13 66.8921 157.403  26
   0  -1 -13 669.593 354.422   5
   0   1  13 259.794 309.690  26
   0  -1  14 301.209 434.796  19
   0   1  14 714.297 394.774  19
   0  -1  14 3.95515 109.206  26
   0   1  14 29.1583 273.707  26
   0  -1  15 308.372 239.436  26
   0   1  15 44.9105 217.701  19
   0  -1  15-25.9428 288.092  19
   0   1  15 352.837 319.959  26
   0  -1  16 74.0226 139.819  26
   0  -1  16 164.196 304.116  19
   0   1  16 270.416 350.267  26
   0  -1  17-146.482 178.347  26
   0  -1  17 401.587 372.389  19
   0   1  17 117.855 192.996  26
   0   1  18 295.825 239.897  26
   0  -1  18-198.417 99.4636  26
   1  -1   0 167.455 114.923   1
   1  -1   0 69.7019 36.9934   2
   1  -1  -1 646.047 254.203   1
   1  -1   1 481.513 124.010   2
   1  -1   1 890.656 278.999   1
   1   1   1 339.178 296.258   2
   1   1   2 50699.7 2612.82   2
   1   1  -2 52331.2 2700.54   2
  -1  -1   2 47702.2 2730.02   4
   1  -1  -2 52762.4 1999.71   1
  -1   1   2 47594.3 1478.95   4
   1  -1   2 56479.1 1887.14   4
   1  -1   2 60510.4 1703.61   2
   1  -1   2 53922.5 1965.41   1
  -1   1   3 182983. 3659.09   4
   1  -1  -3 199852. 3962.42   1
   1   1   3 181735. 5100.41   2
  -1  -1   3 179805. 5340.43   4
   1  -1   3 189306. 3762.11   1
   1  -1   3 200959. 4184.86   4
  -1   1   4 136937. 3828.11   4
   1   1   4 146224. 4882.19   2
   1  -1  -4 146704. 3497.63   1
   1  -1   4 149387. 4157.36   4
   1  -1   4 143056. 3431.51   1
  -1  -1   4 148994. 5140.78   4
  -1   1   5 294789. 6465.47   4
  -1  -1   5 310531. 7988.50   4
   1  -1  -5 305269. 5261.33   1
   1   1   5 311000. 7780.48   2
   1  -1   5 299740. 5204.40   1
   1  -1   5 316719. 6794.29   4
   1  -1   6 242870. 6619.64   4
   1  -1  -6 232964. 4549.28   1
  -1   1   6 234089. 6581.74   4
   1   1   6 247756. 7555.48   2
  -1  -1   6 235515. 7539.44   4
   1  -1   7 299995. 8114.35   4
  -1  -1   7 287655. 8975.58   4
  -1   1   7 278904. 8086.25   4
   1  -1  -8 62127.6 2241.17   5
  -1  -1  -8 54995.0 4566.32   3
  -1  -1  -8 61427.4 2347.00   5
   1   1   8 59118.1 4137.82   4
  -1  -1   8 62241.7 4527.13   4
   1  -1   8 66391.6 2419.29   6
   1  -1   8 64719.8 4115.89   4
  -1   1   8 59140.5 4121.65   4
   1  -1   9 225297. 4862.44   6
   1  -1   9 233859. 8493.71   4
  -1  -1  -9 225945. 4816.12   5
  -1  -1   9 219077. 9219.28   4
  -1   1   9 223754. 8810.41   4
   1   1   9 212234. 8600.79   4
  -1  -1   9 222965. 4303.91   6
  -1  -1  -9 210489. 9098.45   3
   1  -1  -9 205209. 4528.85   5
   1  -1  10 2916.99 1003.89   4
  -1  -1  10 3368.59 562.236   6
  -1  -1 -10 4331.48 724.361   5
  -1  -1 -10 3093.79 1092.90   3
  -1   1  10 4553.59 1382.71   4
   1   1  10 3430.67 1180.90   4
   1  -1 -10 3117.01 608.423   5
  -1  -1  10 4186.95 1335.77   4
   1  -1 -11 34300.4 2163.56   5
  -1  -1  11 35831.6 4341.07   4
  -1   1  11 36667.5 2415.06  26
   1   1  11 37219.7 2491.77  26
  -1  -1  11 41795.7 2647.49  19
   1   1  11 34973.2 4114.27   4
  -1   1  11 32709.9 3940.68   4
  -1  -1  11 37280.8 2126.46  26
   1  -1  11 35970.4 3854.64   4
  -1  -1  12 4117.59 757.452  26
   1  -1  12 2158.85 987.601   4
   1  -1  12 2006.29 486.922  26
  -1  -1  12 3007.31 1359.82   4
  -1  -1  12 2120.07 679.065  19
  -1   1  12 2468.07 694.243  26
   1   1  12 3061.40 1260.97   4
  -1  -1 -12 1829.87 430.621  25
   1  -1 -12 1569.72 502.874   5
   1   1  12 1751.32 592.051  26
  -1  -1  13 15050.1 1515.10  26
  -1   1  13 16469.0 1397.03  20
   1  -1 -13 14659.8 1544.98   5
  -1   1  13 14345.0 1663.63  26
   1  -1  13 15382.8 1422.51  26
   1   1  13 12880.9 1607.27  26
  -1  -1  13 14930.1 1843.86  19
  -1  -1 -13 13839.0 1210.36  25
   1   1  14 19590.8 2007.47  26
  -1  -1  14 18327.7 2099.00  19
   1  -1 -14 19037.2 1744.56   5
   1  -1  14 18276.8 1912.50  19
  -1   1  14 17506.0 1894.73  26
   1  -1  14 19359.5 1630.27  26
  -1  -1  14 19233.5 1741.74  26
  -1   1  14 20851.1 1536.12  20
  -1  -1  15 91122.6 3770.74  26
   1   1  15 98167.3 4275.94  19
  -1  -1  15 84135.0 4473.37  19
   1   1  15 86462.6 4154.66  26
   1  -1  15 89574.9 3390.16  26
   1  -1  15 96470.1 4439.35  19
  -1   1  15 93771.9 4400.30  26
   1  -1  16 36165.2 2663.66  19
   1   1  16 33805.2 2322.82  19
  -1  -1  16 33118.7 2172.72  26
  -1   1  16 36780.5 2662.87  26
  -1  -1  16 32871.2 2705.02  19
   1   1  16 30906.1 2406.67  26
   1  -1  16 33747.5 1962.17  26
  -1  -1  17 94874.5 3314.85  26
   1   1  17 91855.4 3173.53  19
   1  -1  17 101476. 4138.58  19
   1   1  17 97233.5 3853.90  26
  -1   1  17 99954.9 4060.59  26
   1  -1  17 92502.5 2911.97  26
  -1   1  18 23402.9 1712.91  26
   1  -1  18 22075.7 1686.65  19
   1   1  18 24055.6 1644.52  26
   1  -1  18 18273.4 1071.58  26
  -1  -1  18 20675.1 1304.48  26
   2  -1   0 278753. 4831.62   2
   2   1   0 319151. 9469.73   2
   2  -1  -1 485519. 8564.21   2
   2   1  -1 464722. 11379.4   2
   2  -1   1 462512. 5683.07   2
   2  -1  -2 138494. 4941.21   2
   2  -1   2 140803. 3328.27   2
   2  -1   3 368266. 6329.24   1
   2  -1   3 386654. 6076.40   2
   2  -1  -3 384350. 6713.92   1
   2   1   3 330864. 8784.73   2
  -2  -1   3 302011. 9584.34   4
   2   1  -3 356412. 9778.03   2
   2  -1   4 14428.9 1290.82   2
   2  -1   4 12835.2 1191.79   1
  -2  -1   4 11483.7 1887.24   4
   2   1   4 11115.6 1656.68   2
  -2   1   4 9411.83 1373.15   4
   2   1  -4 13119.0 1952.16   2
   2  -1  -4 13743.1 1287.78   1
   2   1   5 145398. 6139.13   2
   2  -1   5 160236. 4758.95   2
   2  -1   5 151608. 4062.00   1
  -2   1   5 145949. 5774.07   4
   2  -1  -5 163230. 4453.81   1
  -2  -1   5 140673. 6907.42   4
   2  -1   5 150573. 4898.69   4
  -2   1   6 10410.8 1695.08   4
   2  -1   6 10932.6 1090.12   1
  -2  -1   6 10664.8 2015.21   4
   2  -1  -6 13338.7 1277.41   1
   2   1   6 11861.7 1847.31   2
   2  -1   6 11271.4 1473.00   4
   2  -1   7 33307.8 2758.06   4
  -2  -1   7 29717.4 3519.68   4
   2   1   7 33654.8 3315.21   2
  -2   1   7 33244.1 3275.16   4
   2  -1  -7 31961.8 1466.66   5
  -2   1   8 13427.9 2184.43   4
  -2  -1   8 12763.2 2396.10   4
   2  -1  -8 13562.8 1057.27   5
   2   1   8 12826.7 2212.35   2
   2  -1   8 13764.6 1921.92   4
   2   1   9 190630. 8552.32   4
  -2   1   9 214573. 9627.04   4
   2  -1   9 212431. 8088.25   4
   2   1  -9 188560. 4293.63   5
   2  -1  -9 204538. 4575.50   5
  -2  -1  -9 179654. 9646.17   3
  -2  -1   9 203869. 10346.7   4
  -2  -1  10 74015.3 6638.91   4
   2   1  10 69597.6 5572.61   4
   2  -1 -10 72152.8 2952.89   5
   2   1 -10 70428.8 2874.95   5
   2  -1  10 75659.3 5195.21   4
  -2  -1  11 216375. 4526.45  20
  -2  -1  11 183399. 6075.63  19
   2  -1 -11 175866. 5002.30   5
   2   1  11 167531. 9162.99   4
   2  -1  11 197878. 8883.77   4
  -2  -1 -11 156030. 4097.07  25
  -2  -1  11 192620. 5212.99  26
  -2   1  11 176115. 5576.21  26
   2   1  11 176770. 5630.72  26
  -2  -1  11 178503. 10968.0   4
   2  -1  11 188308. 4613.95  26
   2  -1  11 176828. 5307.27  21
   2   1  12 79130.9 6677.52   4
  -2  -1  12 82633.8 7743.54   4
   2   1  12 78300.5 3975.76  26
  -2   1  12 85345.0 4063.92  26
  -2   1  12 90654.0 3479.44  20
  -2  -1  12 83953.8 3677.65  26
  -2  -1  12 79899.2 4287.63  19
   2  -1  12 83048.0 3180.90  26
  -2  -1  12 99438.3 3127.95  20
   2  -1 -12 78828.7 3541.22   5
   2  -1  12 80525.2 5898.10   4
  -2  -1 -12 73248.5 2838.19  25
   2   1  13 359557. 8647.42  26
  -2  -1 -13 343436. 6064.54  25
  -2   1  13 419356. 7487.06  20
   2  -1 -13 360644. 7850.27   5
  -2   1  13 383569. 8952.16  26
  -2  -1  13 390307. 8088.92  26
   2  -1  13 394008. 7083.89  26
  -2  -1  13 355460. 9304.09  19
  -2  -1 -14 43107.5 2062.10  25
  -2   1  14 51033.4 2531.60  20
   2  -1  14 49451.0 2486.70  26
   2   1  14 45393.1 3076.81  26
  -2  -1  14 45197.5 3351.91  19
  -2   1  14 50856.8 3352.79  26
   2  -1 -14 48025.4 2857.97   5
  -2  -1  14 49776.5 2948.33  26
   2  -1  15 94567.2 3301.23  26
   2   1  15 91423.5 4215.72  26
  -2   1  15 100598. 4674.89  26
   2  -1 -15 95266.6 3817.06   5
  -2   1  15 104411. 3370.05  20
   2  -1  15 103855. 4350.07  19
  -2  -1  15 94366.9 3987.58  26
   2   1  16 17607.5 1739.85  26
   2  -1  16 16637.2 1276.85  26
   2  -1  16 19025.7 1824.67  19
  -2   1  16 17942.1 1232.90  20
  -2  -1  16 16127.1 1564.80  26
   2   1  16 19064.5 1742.55  19
  -2   1  16 17699.3 1872.27  26
   2   1  17 2955.31 576.700  19
  -2  -1  17 3194.96 618.815  26
   2  -1  17 2200.62 399.045  26
   2   1  17 2438.48 594.352  26
   2  -1  17 2982.99 671.361  19
  -2   1  17 2701.66 684.480  26
   2   1  18 3371.97 558.182  26
   2  -1  18 3654.82 633.119  19
  -2  -1  18 3127.10 509.494  26
  -2   1  18 3486.07 632.042  26
   3   1   0-74.6693 300.770   2
   3  -1   0 215.007 205.207   2
   3   1   1 7835.30 1706.27   2
   3   1  -1 10707.0 2065.42   2
   3  -1  -1 9794.51 1386.34   2
   3  -1   1 10734.0 1167.46   2
   3   1  -2 45329.0 4301.06   2
   3   1   2 36893.8 3610.00   2
   3  -1   2 43868.3 2327.17   2
   3  -1  -2 46782.8 3474.33   2
   3  -1  -3 91973.4 5344.22   2
   3  -1   3 93682.2 3518.02   2
   3   1  -3 86921.1 5976.56   2
   3  -1  -4 28381.1 3128.18   2
   3   1  -4 31641.1 3736.32   2
   3  -1   4 33139.4 2325.46   1
   3  -1   4 33641.1 2247.63   2
   3   1   4 28966.7 3146.99   2
   3   1  -5 29268.5 3722.47   2
   3  -1  -5 31162.9 3441.79   2
   3  -1   5 32531.7 2353.67   2
   3   1   5 26738.1 3058.94   2
   3  -1  -5 30636.8 2331.01   1
   3  -1   5 30540.5 2197.52   1
   3   1   6 80476.8 5444.98   2
   3  -1   6 86225.7 3629.02   1
   3   1  -6 91749.0 6960.21   2
   3  -1   6 88954.0 4195.58   2
   3  -1  -6 97899.5 4145.81   1
   3  -1  -6 92681.6 6282.61   2
   3  -1  -7 108732. 7336.92   2
   3   1   7 97559.6 6277.12   2
   3  -1   7 99466.4 5001.23   4
   3   1  -7 109227. 7986.18   2
  -3  -1   7 100454. 7940.30   4
   3  -1   8 20757.9 2443.72   4
   3  -1  -8 22151.6 3485.07   2
  -3  -1   8 21156.6 3785.44   4
   3   1  -8 23380.5 3888.63   2
   3  -1  -8 22512.4 1446.95   5
   3   1   8 21769.0 3074.50   2
   3   1  -9 50542.3 5911.61   2
   3  -1  -9 42476.7 2137.49   5
   3  -1   9 42895.7 3749.65   4
  -3  -1   9 48139.6 5983.57   4
   3   1  -9 39681.9 2205.76   5
   3  -1  -9 39004.9 4865.38   2
   3  -1  10 509.079 444.276  21
  -3  -1  10 519.465 244.574  20
  -3   1  10 481.559 272.407  20
  -3  -1  10-221.061 651.243   4
   3  -1  10 344.742 409.846   4
  -3   1  10 956.615 466.526  26
   3  -1 -10 1272.19 927.427   2
   3  -1  10 992.551 322.717  26
  -3  -1  10 869.877 399.110  26
   3   1 -10 757.615 336.470   5
   3   1  10 564.314 341.683  26
   3   1  10 1632.27 909.895   4
   3   1 -10 1372.26 1070.34   2
   3  -1 -10 764.418 330.559   5
  -3  -1  11 1437.54 584.062  26
   3  -1  11 1247.19 378.520  26
   3   1 -11 1064.47 464.770   5
   3  -1 -11 514.586 330.618   5
   3   1  11 1194.68 785.971   4
   3  -1  11 1052.90 482.832  21
   3  -1 -11 1168.54 918.761   2
  -3  -1  11-267.784 714.623   4
  -3  -1  11 1123.66 369.844  20
   3   1  11 1263.88 531.231  26
   3   1 -11 2902.08 1605.26   2
  -3   1  11 833.146 394.242  26
   3  -1  11-66.5373 299.616   4
  -3   1  11 877.569 386.894  20
  -3  -1 -11 1671.16 456.759  25
  -3  -1  12 386.280 315.260  26
   3  -1  12 795.724 324.233  26
   3  -1 -12 473.747 329.083   5
   3   1  12 1131.88 536.908  26
   3  -1  12 490.100 416.432  21
  -3   1  12 610.599 410.930  26
  -3   1  12 923.167 438.160  20
  -3  -1 -12 1260.10 416.189  25
  -3  -1  12 899.904 341.498  20
  -3  -1 -13 864.438 311.935  25
   3   1  13 666.151 424.870  26
  -3   1  13 728.935 346.310  20
  -3  -1  13 908.123 351.498  20
   3  -1 -13 893.223 440.529   5
  -3  -1  13 786.284 419.837  26
  -3   1  13 1756.19 714.043  26
   3  -1  13 786.528 320.734  26
   3  -1  14 15702.9 1190.05  17
   3  -1 -14 14913.8 1591.93   5
   3   1  14 15186.9 1789.88  26
  -3  -1  14 15077.5 1713.44  26
  -3  -1  14 17411.4 1296.29  20
  -3   1  14 17158.8 1507.93  20
  -3   1  14 15849.7 1931.96  26
   3  -1  14 16352.1 1352.92  26
  -3   1  15 16401.1 1360.83  20
  -3  -1  15 15700.4 1645.90  26
   3  -1 -15 16031.7 1537.49   5
  -3  -1  15 14915.9 1075.75  20
  -3   1  15 17768.7 1932.61  26
   3  -1  15 15236.3 1089.57  17
   3  -1  15 15867.3 1247.18  26
   3   1  15 15152.9 1668.23  26
  -3   1  16 7449.80 1178.99  26
   3   1  16 7653.38 1069.08  26
   3  -1 -16 8389.30 939.935   5
   3  -1  16 7799.42 1067.03  19
  -3  -1  16 7027.59 1031.42  26
   3   1  16 7470.59 1040.04  19
   3  -1  16 6987.70 739.200  26
  -3   1  16 7755.03 836.485  20
   3   1  17 18270.2 1271.59  19
   3  -1  17 22059.5 1611.83  19
  -3   1  17 13315.7 865.484  20
  -3  -1  17 19005.8 1433.08  26
   3  -1  17 14498.6 856.317  26
   3   1  17 18587.9 1412.75  26
  -3   1  17 21276.6 1708.06  26
   4   1   0 94822.3 6693.11   2
   4  -1   0 104612. 4615.81   2
   4   1  -1 28560.3 3733.78   2
   4  -1   1 27798.9 2274.91   2
   4  -1  -1 29829.0 2670.85   2
   4   1   1 24511.1 3369.41   2
   4   1  -2 81424.8 6461.70   2
   4  -1   2 80678.1 3814.24   2
   4  -1  -2 82353.9 4868.82   2
   4   1  -3 136138. 8601.81   2
   4  -1  -3 136434. 6958.52   2
   4   1   3 121330. 7378.21   2
   4  -1   3 125038. 4795.70   2
   4   1  -4 6210.29 1883.31   2
   4  -1   4 4685.65 952.915   2
   4  -1  -4 4419.61 1379.08   2
   4   1   4 4847.10 1505.24   2
   4  -1   4 5905.16 1165.25   1
   4   1   5 10661.3 2189.86   2
   4  -1  -5 14305.7 1873.31   1
   4  -1   5 13361.1 1685.86   2
   4  -1   5 15488.0 1894.91   1
   4   1  -5 16385.5 3228.44   2
   4  -1  -5 14928.1 2700.62   2
   4  -1  -6 6971.75 1936.62   2
   4  -1   6 6128.73 1169.13   1
   4  -1   6 5500.01 1166.14   2
   4  -1  -6 7698.13 1348.02   1
   4   1  -6 6152.20 2046.29   2
   4   1   6 6122.06 1667.94   2
   4   1  -7 10238.0 2767.73   2
   4   1   7 8150.19 1967.00   2
   4  -1  -7 11414.6 2619.10   2
   4  -1   7 8123.41 1558.02   4
   4  -1   7 8314.51 1457.96   2
   4   1   8 6874.41 1855.47   2
  -4  -1   8 6860.65 891.084  20
   4  -1   8 5648.34 1359.32   4
   4   1   8 5677.35 996.095  26
   4  -1   8 6924.21 1075.30  13
  -4   1   8 6438.63 907.991  20
  -4  -1   8 5103.54 966.804  26
   4  -1  -8 5042.74 2051.48   2
   4   1  -8 6752.95 2345.43   2
  -4   1   8 6838.41 1202.64  26
   4  -1   9 5556.27 1008.44  13
   4   1  -9 8490.56 2657.67   2
  -4  -1   9 6473.78 887.404  20
  -4  -1   9 5349.75 1054.60  26
   4  -1   9 5487.36 1390.97   4
   4   1   9 5897.76 959.241  13
   4   1   9 6326.97 1126.61  26
   4  -1   9 5368.28 768.373  26
   4  -1  -9 7721.27 2410.19   2
   4  -1  -9 6102.21 874.163   5
  -4   1   9 7187.89 1026.97  20
   4   1   9 5968.83 1771.09   2
  -4   1   9 5762.54 1180.74  26
   4   1  10 54194.1 3009.35  13
  -4   1  10 61828.3 3043.57  20
   4   1 -10 60315.8 3143.64   5
   4  -1  10 55865.8 3323.87  13
   4   1  10 50904.6 5195.19   4
   4  -1  10 60958.1 2619.14  26
   4   1  10 53912.4 3358.47  26
  -4  -1  10 53891.7 3415.11  26
   4  -1  10 55718.6 4540.84   4
   4  -1 -10 62667.1 2939.54   5
  -4   1  10 58042.2 3777.90  26
   4  -1  10 57994.2 3135.17  21
   4   1 -10 71282.7 8086.19   2
  -4  -1  10 61117.7 2797.64  20
   4   1  11 75527.2 3998.61  26
   4   1 -11 79418.9 3693.99   5
   4  -1 -11 82424.3 3574.28   5
  -4  -1  11 81653.5 3274.90  20
  -4   1  11 81029.3 4563.12  26
  -4  -1  11 74490.6 4017.51  26
   4  -1  11 76339.5 3744.65  21
  -4   1  11 78354.6 3467.95  20
   4  -1  11 83045.2 3109.89  26
  -4   1  12 22972.5 2456.23  26
   4  -1 -12 19239.9 1809.39   5
  -4  -1  12 20443.1 2140.34  26
   4  -1  12 22232.0 1617.77  26
   4   1 -12 19656.9 1782.73   5
  -4  -1 -12 17699.4 1453.19  25
   4  -1  12 18825.3 1893.22  21
   4   1  12 21260.5 2159.37  26
  -4  -1  12 20968.4 1634.50  20
  -4   1  12 21664.7 1832.46  20
   4  -1 -13 57939.4 3126.07   5
   4   1  13 55953.4 3454.72  26
  -4   1  13 61181.0 3896.60  26
  -4   1  13 59085.7 2892.92  20
   4  -1  13 55377.6 3135.61  21
  -4  -1  13 59710.8 2632.04  20
  -4  -1  13 58506.5 3533.46  26
   4  -1  13 59847.9 2539.53  26
   4  -1  14 868.365 327.390  17
  -4   1  14 621.435 361.672  20
  -4   1  14 1172.23 554.524  26
   4  -1  14 1466.08 376.048  26
  -4  -1  14 722.271 408.162  26
   4  -1 -14 665.573 346.254   5
   4   1  14 781.043 428.258  26
  -4  -1  14 547.187 258.257  20
  -4   1  15 37508.7 2665.99  26
   4   1  15 36515.4 2327.90  26
   4  -1 -15 34537.1 2055.84   5
   4  -1  15 33805.2 1589.19  26
  -4  -1  15 31747.8 2273.06  26
   4  -1  15 33438.7 1576.31  17
  -4   1  15 35381.1 1936.34  20
  -4  -1  16 4238.14 728.254  26
   4  -1  16 2872.12 373.453  26
  -4   1  16 3851.57 570.613  20
   4  -1  16 3669.80 453.534  17
   4   1  16 4582.51 719.143  26
   4  -1  16 4817.50 742.950  19
   4   1  16 4601.05 745.829  19
  -4   1  16 3615.99 750.519  26
   4   1  17 248.859 141.146  26
  -4   1  17 110.793 130.699  26
   4  -1  17 9.13469 116.276  19
  -4  -1  17 213.987 142.496  26
   5  -1   0 107.467 183.087   2
   5   1   0 25.0766 297.592   2
   5   1  -1 18776.3 3222.63   2
   5  -1  -1 20861.6 2393.79   2
   5   1   1 15101.6 2826.45   2
   5  -1   1 18081.4 2084.12   2
   5  -1   2 3393.60 882.260   2
   5   1   2 4363.38 1583.28   2
   5  -1  -2 4009.29 1115.46   2
   5   1  -2 3284.00 1369.52   2
   5  -1   3 178124. 7502.87   1
   5   1  -3 200222. 11075.0   2
   5  -1   3 193296. 6749.19   2
   5   1   3 170122. 9560.80   2
   5   1   4 86476.6 6798.80   2
   5  -1   4 90324.3 5346.85   1
   5  -1  -4 92879.0 5480.56   1
   5  -1  -5 274031. 9355.01   1
   5   1   5 268051. 12091.4   2
   5  -1   5 276101. 9052.11   1
  -5   1   6 95680.7 3416.78  20
  -5  -1   6 90468.0 4389.49  26
  -5  -1   6 100163. 3369.83  14
   5   1  -6 112558. 9494.08   2
   5  -1  -6 92849.9 5322.87   1
   5   1   6 93043.8 7159.56   2
   5  -1   6 97778.8 3848.58  10
   5  -1   6 89533.2 3564.86  23
   5  -1  -6 95784.0 2823.14   8
   5   1   6 90648.7 3192.58  10
  -5   1   6 92613.2 4771.74  26
  -5  -1   6 97850.4 3500.00  20
  -5   1   7 249308. 8015.12  26
  -5  -1   7 264091. 5542.47  14
  -5   1   7 249604. 5798.05  20
  -5  -1   7 266385. 5892.17  20
   5   1   7 248557. 11850.8   2
   5   1   7 255458. 6479.48  13
   5  -1  -7 244129. 4557.32   8
   5  -1   7 252340. 5235.83  26
   5  -1   7 250085. 6398.56  10
   5  -1   7 238976. 8647.04   4
   5  -1   7 250806. 6568.83  13
  -5  -1   7 242276. 7374.31  26
   5  -1  -8 40760.7 1847.62   8
   5  -1   8 35741.5 3468.32   4
  -5  -1   8 44430.3 2493.50  20
  -5  -1   8 42831.1 3215.87  26
  -5  -1   8 46141.3 2334.49  14
   5  -1   8 45211.2 2247.73  26
   5   1  -8 56009.3 6956.02   2
   5   1   8 44475.1 5024.56   2
   5   1   8 41453.9 2952.59  26
  -5   1   8 45119.9 3509.84  26
   5   1   8 46921.8 2796.51  13
  -5   1   8 42268.4 2467.38  20
   5  -1   8 43916.2 2883.03  13
  -5  -1   9 263929. 7968.58  26
   5   1   9 274320. 6852.13  13
   5  -1   9 269370. 7370.33  13
   5  -1  -9 268517. 4580.76   8
   5  -1  -9 286847. 6200.69   5
  -5  -1   9 285793. 6346.13  20
  -5   1   9 271297. 6380.54  20
  -5  -1   9 290817. 5749.10  14
  -5   1   9 298720. 9165.13  26
   5   1   9 266170. 7489.78  26
   5  -1   9 282144. 5661.75  26
   5   1  10 30979.3 2295.64  13
   5  -1  10 31911.4 2580.18  13
  -5  -1  10 34614.8 2878.03  26
   5   1  10 29454.3 2510.57  26
  -5  -1  10 32487.3 2136.39  20
   5   1  10 32998.5 2204.54  21
   5  -1  10 31600.1 2382.22  21
  -5   1  10 31012.0 2203.76  20
   5  -1  10 31000.2 1891.16  26
  -5   1  10 33546.3 3085.42  26
   5  -1 -10 32929.3 2173.71   5
  -5  -1  10 34294.9 1891.19  14
   5   1 -10 34222.1 2433.14   5
   5   1 -11 12205.1 1457.98   5
  -5   1  11 11855.7 1351.37  20
  -5  -1  11 11420.6 1252.07  20
  -5   1  11 12741.6 1910.49  26
   5  -1  11 12182.5 1499.92  21
   5  -1 -11 13064.8 1416.17   5
  -5  -1  11 11398.4 1662.58  26
   5  -1  11 12927.3 1197.90  26
   5   1  11 11122.4 1554.89  26
   5  -1  12 2764.07 726.104  21
  -5  -1  12 1966.38 491.449  20
  -5   1  12 2570.54 630.253  20
  -5  -1  12 2527.01 751.706  26
  -5   1  12 2343.30 814.344  26
   5   1  12 2314.24 669.429  26
   5  -1  12 2306.85 483.962  26
   5  -1 -12 2801.37 657.973   5
   5   1 -12 2333.64 591.475   5
   5  -1  13 29727.4 1607.44  26
  -5   1  13 27437.1 1643.41  14
  -5  -1  13 29541.9 2424.02  26
  -5   1  13 32225.3 2669.90  26
  -5  -1  13 25808.6 1688.38  20
   5  -1 -13 27825.7 2001.91   5
   5   1  13 30220.8 2288.83  26
   5  -1  13 27332.7 2021.94  21
  -5   1  13 28354.5 1943.61  20
  -5   1  14 4426.17 727.835  20
  -5  -1  14 4047.24 822.334  26
   5   1  14 4247.96 795.911  26
   5  -1 -14 4646.90 730.271   5
   5  -1  14 5278.86 654.443  17
   5  -1  14 3754.03 491.651  26
  -5   1  14 4968.17 986.945  26
  -5   1  15 58129.2 2788.22  26
   5   1  15 51884.6 2279.33  26
  -5   1  15 50170.5 2093.20  20
  -5  -1  15 55798.9 2633.63  26
   5  -1  15 46999.0 1702.11  17
   5   1  16 32822.6 1381.36  26
  -5  -1  16 35702.7 1655.72  26
   6  -1   0 65185.1 2418.74   8
  -6   1   0 54913.7 2630.71  14
   6  -1   0 65847.5 5151.65   1
  -6  -1   0 60149.1 3830.27  26
   6   1   0 59081.9 5915.34   2
  -6   1   0 53247.7 3512.91  26
  -6  -1   0 67138.2 2934.49  14
   6  -1  -1 197807. 8915.06   1
  -6   1   1 178287. 4894.83  14
   6  -1  -1 196945. 4265.27   8
   6   1  -1 184180. 10512.3   2
  -6  -1  -1 191554. 6912.13  26
   6   1   1 178367. 10218.7   2
  -6  -1   1 192295. 6815.27  26
   6  -1   1 197818. 8883.55   1
  -6   1   1 160028. 6181.47  26
  -6  -1   1 210495. 5210.18  14
  -6  -1  -1 196553. 5012.36  14
   6   1  -2 88168.7 7370.69   2
   6  -1   2 85393.1 3532.96  23
  -6  -1  -2 84485.9 3315.85  14
  -6  -1   2 93830.8 3527.66  14
  -6   1   2 85539.5 3457.76  14
   6   1   2 81164.6 3053.98  10
   6  -1  -2 90774.3 2928.06   8
   6   1   2 83462.3 7007.40   2
  -6  -1   2 88251.5 4613.63  26
  -6   1   2 76254.1 4343.64  26
   6  -1  -2 86765.3 5881.41   1
   6  -1   2 92853.0 6005.65   1
   6   1   3 63138.0 2715.30  10
  -6  -1  -3 65779.3 3016.64  14
   6  -1  -3 73383.8 2664.35   8
  -6  -1   3 78125.0 3234.59  14
  -6   1   3 66644.7 3149.27  14
   6   1  -3 84499.9 7399.87   2
   6  -1   3 67353.6 3155.43  23
   6  -1   3 68804.0 3303.36  10
   6   1   3 64985.9 6140.69   2
   6  -1  -3 76548.0 5489.60   1
   6  -1   3 77684.5 5490.97   1
  -6   1   3 65200.4 4044.11  26
  -6  -1   3 72320.1 4197.83  26
   6   1   4 14146.1 1297.43  10
   6  -1   4 13421.1 1432.24  23
  -6  -1   4 15587.6 1448.38  14
   6  -1   4 16258.1 1626.54  10
   6  -1  -4 16855.0 2511.26   1
  -6  -1   4 13667.3 1858.74  26
   6  -1  -4 13720.3 1156.49   8
   6   1  -4 15548.3 3200.44   2
   6  -1   4 14643.0 2315.17   1
  -6  -1  -4 14001.5 1424.95  14
  -6   1   4 13813.7 1926.74  26
   6   1   4 13325.3 2735.60   2
   6  -1   5 14513.1 1479.28  23
  -6   1   5 16651.6 2118.65  26
  -6   1   5 15890.9 1441.86  20
  -6  -1   5 16318.4 2027.61  26
   6  -1  -5 15515.5 1218.80   8
   6  -1   5 15890.6 1635.50  10
  -6  -1   5 16462.1 1518.76  14
   6   1   5 14844.8 1337.43  10
  -6   1   6 3362.72 957.320  26
  -6  -1   6 2353.79 604.869  20
   6   1   6 2704.17 609.686  10
  -6  -1   6 3105.38 664.582  14
   6  -1   6 2735.12 694.955  10
  -6   1   6 3504.31 712.578  20
   6  -1  -6 2984.78 529.111   8
  -6  -1   6 3303.72 912.575  26
  -6  -1   7 6436.35 930.466  14
   6  -1   7 5434.14 1013.38  13
   6   1   7 6019.78 1013.25  13
  -6  -1   7 6602.90 1004.31  20
  -6   1   7 5688.64 1349.94  26
  -6   1   7 5353.11 873.387  20
  -6  -1   7 6849.35 1396.48  26
   6  -1   7 6221.09 850.441  26
   6  -1  -7 5613.79 723.380   8
  -6   1   8 8170.81 1519.87  26
  -6  -1   8 8325.56 1031.66  14
  -6   1   8 8244.78 1130.19  20
  -6  -1   8 8319.78 1492.75  26
  -6  -1   8 8008.34 1103.99  20
   6   1   8 8097.17 1173.13  13
   6  -1  -8 7594.41 816.102   8
   6   1   8 7008.27 1203.72  26
   6  -1   8 8748.81 1001.33  26
   6  -1   8 8294.07 1289.61  13
   6  -1  -9 76894.2 3158.29   5
   6  -1   9 78322.2 3933.54  13
  -6  -1   9 77097.7 2965.00  14
  -6   1   9 81086.3 4758.49  26
   6   1   9 71395.1 3795.51  26
   6  -1  -9 67059.6 2304.44   8
  -6   1   9 71718.8 3290.32  20
  -6  -1   9 77703.2 3374.76  20
   6  -1   9 77669.2 2890.59  26
  -6  -1   9 78306.3 4451.32  26
   6   1   9 71566.2 3375.61  13
   6   1 -10 74595.5 3385.20   5
   6   1  10 70544.2 2937.66  21
  -6   1  10 64147.7 3014.49  14
  -6  -1  10 67219.8 2592.28  14
   6  -1  10 65995.7 3577.38  13
   6  -1 -10 64272.1 2915.85   5
  -6  -1  10 66216.8 3033.05  20
  -6  -1  10 64835.9 3913.23  26
   6  -1  10 68499.9 3374.43  21
  -6   1  10 61390.1 3013.49  20
   6   1  10 68950.3 3601.15  26
   6   1  10 62080.2 3025.44  13
   6  -1  10 65260.2 2549.25  26
  -6   1  10 75849.6 4434.57  26
  -6   1  11 102687. 3554.32  14
  -6  -1  11 111934. 4884.50  26
   6   1  11 107857. 4278.35  26
   6  -1  11 109858. 4109.94  21
  -6  -1  11 106048. 2918.93  14
  -6   1  11 102629. 3759.91  20
   6   1 -11 114149. 3908.82   5
   6  -1  11 109528. 3074.62  26
   6  -1 -11 110992. 3770.26   5
  -6   1  11 120156. 5265.44  26
  -6  -1  12 41420.4 2743.85  26
  -6   1  12 42576.7 2856.32  26
  -6   1  12 36781.2 1922.34  14
   6   1 -12 35931.2 1934.36   5
   6  -1  12 36131.4 1594.60  26
   6  -1  12 38909.0 2266.96  21
   6   1  12 37944.0 2342.20  26
   6  -1 -12 38248.9 2131.71   5
  -6   1  12 38064.6 2154.32  20
   6  -1  12 36317.8 1792.27  17
   6  -1 -13 84365.5 2880.01   5
   6   1  13 86301.8 3107.35  26
  -6   1  13 75131.1 2309.55  14
   6  -1  13 80374.9 2436.93  17
  -6   1  13 80104.6 2877.12  20
  -6   1  13 93157.6 3744.56  26
  -6  -1  13 92682.5 3676.07  26
  -6   1  14 8818.32 949.666  26
  -6  -1  14 9495.87 1011.85  26
  -6   1  14 9289.34 871.395  20
   6  -1  14 8611.35 706.113  17
   6   1  14 8023.38 788.072  26
  -7   1   0 480.588 277.877  14
   7  -1   0 125.067 184.942  23
  -7  -1   0-283.403 254.292  14
   7  -1   1 3398.35 721.267  23
  -7  -1  -1 4121.02 792.915  14
  -7  -1   1 3770.91 772.238  14
  -7  -1   1 4280.90 1045.07  26
  -7   1  -1 4159.04 752.346  14
  -7   1   1 3372.94 706.929  14
   7   1   1 3438.66 663.032  10
  -7  -1   2 642.426 558.338  26
  -7  -1   2 1018.87 467.712  14
  -7   1   2 410.116 360.462  26
   7   1   2 553.533 280.822  10
   7  -1   2 1712.27 545.165  10
   7  -1   2 1081.58 407.166  23
  -7   1   2 340.950 346.685  14
  -7  -1  -2 380.255 288.148  14
  -7   1   3 1480.41 645.075  26
  -7  -1  -3 2816.47 654.962  14
  -7  -1   3 3030.11 918.568  26
   7  -1   3 2332.53 577.445  23
  -7  -1   3 2243.05 609.847  14
  -7   1   3 1641.72 534.140  14
   7  -1   3 2556.12 663.034  10
   7   1   3 2167.23 524.720  10
  -7  -1   4 2856.58 648.558  14
  -7  -1  -4 2646.43 651.747  14
  -7   1   4 1846.73 724.241  26
  -7   1   4 2329.75 659.683  14
   7  -1   4 2444.14 643.973  10
  -7  -1   4 2035.01 743.524  26
   7  -1   4 2113.46 551.442  23
   7   1   4 2237.76 528.434  10
   7  -1   5 816.772 361.788  23
  -7  -1   5 856.313 543.630  26
  -7   1   5 1222.15 504.982  14
  -7   1   5 1418.32 606.853  26
   7  -1   5 868.163 417.443  10
  -7  -1   5 830.428 357.806  14
   7   1   5 588.869 258.754  10
  -7  -1   6 6648.34 1331.48  26
  -7  -1   6 7187.28 1002.90  14
  -7   1   6 6370.31 1027.77  14
   7  -1   6 6539.67 850.840  26
  -7   1   6 6667.23 1309.78  26
   7   1   6 7311.32 1078.65  13
   7  -1   6 7284.43 1158.69  13
   7  -1   6 7139.70 1062.80  10
  -7   1   6 6482.45 952.177  20
  -7   1   7 3821.06 739.944  20
   7   1   7 4108.06 778.207  13
  -7   1   7 3885.16 1036.63  26
   7   1   7 3140.50 748.767  26
  -7   1   7 3776.08 788.815  14
  -7  -1   7 3893.54 994.991  26
  -7  -1   7 3433.06 673.405  14
   7  -1   7 4038.07 894.329  13
   7  -1   7 2949.70 542.542  26
   7   1   8 857.496 394.687  26
  -7   1   8 422.030 291.600  20
  -7   1   8 1126.61 432.887  14
   7   1   8 738.635 325.528  13
  -7  -1   8 442.650 395.229  26
  -7  -1   8-30.0867 156.835  14
   7  -1   8 197.875 151.643  26
   7  -1  -8 89.8165 151.671   5
   7  -1   8 187.858 279.688  13
  -7   1   8 1315.11 570.495  26
   7  -1  -9 521.951 283.740   5
   7   1   9 375.438 235.933  13
  -7   1   9 510.757 318.198  20
   7   1  -9 1055.08 378.294   5
  -7  -1   9 143.779 262.447  26
   7   1   9 308.542 223.275  21
  -7   1   9 1178.79 527.696  26
   7  -1   9 648.359 228.839  26
   7  -1   9 541.856 273.174  21
  -7  -1   9 369.533 221.688  14
  -7   1   9 693.674 327.526  14
   7   1   9 588.266 326.449  26
   7  -1   9 914.091 418.144  13
   7   1  10 1166.03 306.204  21
  -7   1  10 780.656 342.565  20
  -7   1  10 1082.33 457.804  26
  -7  -1  10 752.273 259.102  14
   7  -1  10 560.101 328.775  21
  -7  -1  10 824.421 423.644  26
   7   1 -10 977.619 331.290   5
   7  -1 -10 830.537 276.127   5
   7  -1  10 636.779 290.503  17
   7   1  10 1162.61 369.059  26
  -7   1  10 736.477 307.748  14
  -7   1  11 2513.51 487.942  14
  -7   1  11 2841.28 636.796  26
  -7  -1  11 1988.70 339.980  14
  -7  -1  11 3307.50 705.085  26
   7   1  11 2760.11 537.825  26
   7  -1  11 2419.46 503.590  21
   7  -1 -11 2480.72 473.405   5
   7  -1  11 2544.75 442.455  17
  -7   1  12 643.448 256.442  26
   7   1  12 590.998 222.325  26
  -7  -1  12 702.012 305.579  26
   7  -1  12 605.499 236.311  17
  -7   1  12 366.992 164.100  14
  -8   1   0 77507.5 3186.83  14
  -8  -1   0 75502.5 3297.53  14
   8  -1   0 80091.3 3269.50  10
   8  -1   0 78814.1 3045.03  23
   8   1   0 77946.5 2829.94  10
  -8  -1  -1 115673. 4067.97  14
  -8   1   1 113435. 3958.33  14
  -8  -1   1 116595. 4089.95  14
   8  -1  -1 119021. 3775.71  23
   8  -1   1 118089. 3693.43  23
   8  -1  -1 114957. 3997.88  10
   8   1  -1 118765. 3518.39  10
   8   1   1 119128. 3453.50  10
   8  -1   1 124955. 4048.47  10
  -8  -1   2 26218.0 1924.57  14
  -8   1   2 25839.3 1928.03  14
   8  -1   2 27049.5 1873.50  10
   8   1  -2 23869.1 1629.92  10
   8  -1  -2 25583.3 1757.74  23
   8  -1   2 25816.7 1705.31  23
   8   1   2 27002.5 1622.30  10
  -8  -1  -2 25939.3 1907.45  14
  -8   1   3 59555.1 2908.35  14
  -8  -1   3 57753.8 2799.49  14
   8   1   3 60235.0 2381.36  10
   8  -1   3 57368.7 2507.79  23
  -8  -1  -3 58865.2 2778.68  14
   8  -1   3 62433.6 2813.80  10
   8  -1  -3 53708.2 2577.77  23
  -8  -1   4 6206.68 913.497  14
  -8  -1   4 7645.12 1277.89  26
  -8   1   4 5880.25 912.876  14
   8  -1   4 6350.79 888.829  10
   8  -1   5 28135.0 1446.46  26
  -8  -1   5 29446.9 1891.65  14
  -8   1   5 25608.0 2127.43  26
  -8  -1   5 30423.3 2489.87  26
  -8   1   5 26758.3 1896.37  14
   8  -1   5 29712.6 1996.55  13
   8   1   5 28264.2 1803.66  13
   8   1   6 501.016 251.561  26
   8   1   6 625.622 284.613  13
  -8  -1   6 481.045 254.870  14
  -8  -1   6 220.099 262.790  26
  -8   1   6 598.314 253.370  26
   8  -1   6 590.106 321.154  13
  -8   1   6 568.115 304.561  14
  -8  -1   7 8155.32 1174.97  26
  -8  -1   7 7009.43 824.797  14
   8  -1   7 7465.99 939.933  13
   8  -1  -7 7291.16 765.290   5
   8   1   7 6847.08 797.890  13
   8   1   7 7119.36 871.612  26
  -8   1   7 7476.07 923.724  14
  -8   1   7 7291.13 1031.50  26
  -8   1   8 5274.30 814.366  26
  -8  -1   8 5527.86 665.188  14
  -8   1   8 5554.91 760.149  14
   8  -1   8 5928.18 791.786  13
  -8  -1   8 6598.04 995.003  26
   8   1   8 5121.47 572.194  21
   8  -1   8 5574.83 529.175  17
   8  -1   8 5820.77 743.553  21
   8   1   8 5548.52 721.674  26
   8   1   8 5183.00 624.046  13
   8  -1  -8 6400.52 682.138   5
   8  -1   9 45249.0 1409.19  17
  -8  -1   9 53595.9 1821.13  14
   8   1   9 56018.0 2031.93  26
  -8   1   9 54087.7 2092.42  14
  -8  -1   9 65924.5 2787.59  26
  -8   1   9 47559.4 2014.24  26
   8  -1   9 56083.8 2043.87  21
  -8   1  10 22821.9 1171.28  14
   8  -1  10 23630.3 1108.74  21
   8   1  10 21155.6 1042.60  26
   9  -1   0 171.125 174.068  10
  -9  -1   0 88.1039 138.069  14
   9   1   0 54.2535 89.6068  10
   9  -1   0 5.28143 149.441  23
  -9  -1  -1 21190.4 1325.49  14
  -9  -1   1 20286.3 1385.72  14
   9   1   1 19023.4 1017.88  10
   9   1  -1 19516.7 1029.58  10
   9  -1  -1 19925.6 1107.80  23
   9  -1  -1 21784.9 1307.12  10
   9  -1   1 22703.3 1331.59  10
  -9   1   2 11535.0 971.354  14
   9  -1   2 10850.8 915.414  10
   9   1   2 11599.2 942.634  13
  -9  -1  -2 10293.5 831.691  14
   9  -1   2 11766.2 1012.70  13
  -9  -1   2 11492.6 1036.77  14
   9   1  -2 11037.5 756.700  10
   9  -1  -2 10439.9 793.816  23
   9  -1  -2 12923.6 995.143  10
  -9   1   3 81103.5 2609.32  14
  -9  -1   3 83111.2 2733.61  14
   9   1  -3 74417.3 1886.68  10
   9  -1   3 84805.0 2619.44  13
   9   1   3 83174.2 2402.79  13
   9  -1  -3 78345.6 2105.93  23
   9   1   4 31034.0 1369.27  13
  -9   1   4 32974.7 1633.55  14
   9   1   4 33675.8 1519.34  26
   9  -1  -4 36158.1 1543.55  10
   9  -1  -4 32296.1 1282.85  23
   9   1  -4 29419.6 1105.78  10
   9  -1   4 37052.8 1663.09  13
  -9  -1   4 34676.4 1687.61  14
   9   1   5 118486. 2401.57  13
  -9  -1   5 138000. 3154.08  14
   9  -1   5 144878. 3098.57  13
  -9   1   5 136227. 3141.37  14
   9  -1  -5 150827. 2947.58  10
   9   1   5 131027. 2759.34  26
  -9   1   6 64489.8 2022.46  14
  -9  -1   6 60410.8 1899.28  14
   9  -1   6 66083.1 1831.19  21
   9  -1  -6 65647.8 1760.38  10
   9  -1   6 60589.5 1843.09  13
   0  -2   0 483224. 8221.90   3
   0  -2   0 504132. 9033.47   1
   0  -2   1 374105. 7093.49   4
   0  -2  -1 400231. 8312.48   3
   0  -2   1 405268. 6504.05   3
   0   2  -1 367804. 6073.29   2
   0  -2  -1 405757. 8168.46   1
   0  -2   1 411241. 8143.85   1
   0   2   1 395409. 5332.96   2
   0  -2   2 86464.8 3382.97   4
   0   2  -2 82186.9 3093.54   2
   0   2   2 91136.6 2800.38   2
   0  -2  -2 92614.6 3952.30   1
   0  -2   2 86351.8 2295.56   3
   0  -2   2 91432.2 3872.85   1
   0  -2  -3 488364. 10818.5   3
   0   2   3 515457. 7598.63   2
   0  -2   3 509010. 9197.31   1
   0  -2  -3 521117. 9312.28   1
   0  -2   3 545538. 9013.80   4
   0  -2  -4 43795.4 2694.54   1
   0  -2   4 43458.6 2647.51   1
   0   2   4 46413.0 2612.45   2
   0  -2  -4 41923.6 3379.87   3
   0  -2   4 49943.6 2927.89   4
   0  -2  -5 195453. 7682.14   3
   0  -2  -5 213167. 5699.47   1
   0  -2   5 215665. 6626.08   4
   0  -2  -6 419.303 427.813   3
   0  -2   6 873.760 490.005   4
   0   2   6 1088.29 451.267   4
   0   2   7 151932. 5947.02   4
   0  -2  -7 159395. 3526.12   5
   0  -2  -7 142638. 7374.94   3
   0   2   8 55395.0 3957.31   4
   0  -2   8 66247.9 2505.97   6
   0  -2  -8 59259.5 2367.64   5
   0  -2  -8 56998.7 4840.25   3
   0  -2   8 62040.3 4415.15   4
   0  -2  -9 160707. 8562.01   3
   0  -2   9 176868. 4415.13   6
   0  -2  -9 166744. 4211.26   5
   0  -2   9 181123. 8115.68   4
   0   2   9 153641. 7121.18   4
   0  -2  10 67031.9 5313.26   4
   0  -2  10 66803.5 2892.69   6
   0  -2 -10 66742.6 2822.63   5
   0   2  10 68585.3 5160.97   4
   0  -2 -11 182656. 4528.91  25
   0   2  11 207894. 5609.72  26
   0  -2  11 198496. 5256.46   6
   0  -2 -11 206245. 5181.11   5
   0  -2  11 204618. 9800.84   4
   0  -2  11 223433. 5698.14  19
   0  -2 -12 40665.2 2234.82  25
   0  -2  12 42356.6 2536.97   6
   0   2  12 44812.6 2752.09  26
   0  -2  12 39240.4 4557.69   4
   0  -2 -12 45513.0 2529.98   5
   0  -2  12 42525.6 2144.12  26
   0  -2  12 45599.9 2756.44  19
   0   2  13 236033. 6622.52  26
   0  -2  13 244212. 5237.43  26
   0  -2 -13 259120. 6093.36   5
   0  -2  13 254457. 6855.94  19
   0  -2  14 32990.8 1930.68  26
   0   2  14 33623.4 2546.30  26
   0  -2  14 33088.3 2520.13  19
   0  -2  15 133268. 3699.38  26
   0  -2  15 133058. 5009.11  19
   0   2  15 140345. 5056.33  26
   0   2  16 39800.8 2523.57  26
   0  -2  16 33491.3 1702.20  26
   0  -2  16 38373.9 2585.41  19
   0  -2  17 8640.12 734.083  26
   0   2  17 13341.3 1307.94  26
   0  -2  18 1301.37 280.701  22
   0   2  18 1216.13 325.026  26
   1  -2   0-24.8808 234.675   1
   1   2   0 55.8054 192.154   2
   1  -2   1 345229. 7134.64   1
   1  -2  -1 342152. 7181.34   1
   1  -2   1 338099. 4663.60   4
   1  -2   2 145782. 4682.78   1
   1  -2  -2 146518. 4794.44   1
   1   2   2 144755. 5083.36   2
  -1  -2   2 134290. 5562.96   4
   1  -2   2 157139. 3724.98   4
   1   2  -2 130630. 5179.20   2
   1  -2   3 144861. 4037.18   4
   1  -2  -3 142377. 5608.35   3
   1  -2   3 129314. 4488.22   1
   1  -2  -3 136862. 4735.25   1
  -1   2   3 124816. 2210.45   4
   1   2  -3 130753. 5370.60   2
   1   2   3 124621. 4846.61   2
  -1  -2   3 126556. 5476.03   4
  -1   2   4 205473. 4052.89   4
   1  -2  -4 216450. 7435.86   3
   1  -2  -4 205863. 5929.28   1
   1   2   4 192782. 6414.98   2
   1  -2   4 201279. 5774.86   1
  -1  -2   4 194001. 7005.15   4
   1  -2   4 221267. 5601.93   4
   1  -2  -5 102771. 4209.70   1
   1  -2   5 107663. 4332.28   1
  -1  -2   5 105111. 5413.50   4
   1   2   5 92742.4 4764.04   2
   1  -2   5 105102. 4262.86   4
  -1   2   5 105053. 3554.31   4
  -1  -2  -6 104571. 6308.78   3
   1  -2   6 109133. 4311.63   1
  -1  -2   6 109965. 5849.42   4
   1  -2   6 115736. 4877.35   4
   1   2   6 99676.8 5359.94   2
   1  -2  -6 112286. 4316.54   1
  -1   2   6 105986. 4124.64   4
   1  -2   7 239486. 7670.51   4
   1  -2  -7 226812. 4162.02   5
  -1  -2  -7 220780. 9687.44   3
  -1   2   7 231095. 6863.45   4
  -1  -2  -7 243054. 4433.61   5
  -1  -2   7 229944. 8951.16   4
   1  -2   7 235378. 4513.68   6
   1  -2  -8 28436.4 1609.23   5
   1   2   8 25297.8 2947.43   4
   1  -2   8 28408.9 1696.95   6
  -1  -2   8 28893.7 3375.43   4
  -1  -2  -8 31816.2 1735.93   5
   1  -2   8 28732.3 2888.62   4
  -1  -2  -8 25115.1 3438.80   3
   1  -2  -9 67226.3 2657.32   5
  -1  -2  -9 77031.8 2901.56   5
   1  -2   9 69558.3 2878.22   6
   1   2   9 60918.8 4893.11   4
  -1  -2  -9 63195.5 5643.16   3
  -1  -2   9 69608.2 2706.12   6
   1  -2   9 68152.9 4787.39   4
  -1  -2   9 67904.8 5495.44   4
  -1  -2  10 8757.94 1026.05   6
  -1  -2  10 9908.06 2306.40   4
   1  -2  10 8936.32 1863.91   4
   1  -2 -10 9197.40 1058.26   5
  -1  -2 -10 8185.48 2061.56   3
   1  -2  10 8755.74 1083.55   6
   1   2  10 7946.92 1889.51   4
  -1  -2 -10 10672.2 1160.07   5
   1  -2  11 32407.7 2186.36   6
  -1  -2  11 31625.7 1850.98  26
   1   2  11 24919.5 3607.50   4
  -1   2  11 32841.4 2273.77  26
  -1  -2  11 29564.6 4077.41   4
   1  -2 -11 28947.6 1953.31   5
  -1  -2 -11 27071.0 3908.84   3
  -1  -2 -11 28832.7 1886.27  25
  -1  -2  11 33520.1 2383.15  19
   1   2  11 32067.0 2283.37  26
  -1  -2  11 32466.2 2048.56   6
   1  -2  11 34857.1 3858.14   4
   1  -2  12 13097.7 1130.61  26
  -1   2  12 14695.6 1601.35  26
  -1  -2  12 14714.8 3001.73   4
   1   2  12 14481.9 1618.74  26
  -1  -2  12 14354.5 1409.88   6
   1  -2  12 13329.4 2470.08   4
   1  -2 -12 14725.4 1457.67   5
  -1  -2  12 14283.8 1311.21  26
  -1  -2 -12 11958.0 1251.18  25
  -1  -2  12 14040.3 1647.07  19
   1   2  13 17715.5 1823.83  26
  -1  -2  13 18228.3 1929.93  19
   1  -2 -13 18750.6 1656.47   5
   1  -2  13 18388.6 1751.63  19
  -1   2  13 18240.7 1833.68  26
  -1  -2  13 18511.2 1523.72  26
   1  -2  13 19441.4 1405.88  26
  -1  -2 -13 15228.8 1415.70  25
  -1  -2  14 8864.49 1396.67  19
   1   2  14 10732.9 1453.90  26
  -1  -2 -14 7675.39 982.071  25
  -1   2  14 9343.49 1204.68  20
   1  -2 -14 11512.1 1283.83   5
   1  -2  14 9218.23 952.585  26
   1  -2  14 9535.07 1287.22  19
  -1  -2  14 9227.98 1092.40  26
  -1   2  14 9834.59 1387.78  26
   1  -2  15 55395.5 2232.72  26
   1   2  15 61539.6 3315.43  26
  -1   2  15 62371.9 2831.27  20
  -1   2  15 59372.2 3280.08  26
  -1  -2  15 54679.1 3361.87  19
  -1  -2  15 57396.0 2564.37  26
   1  -2  15 58183.2 3153.97  19
   1   2  16 16936.9 1604.82  26
   1  -2  16 14510.4 1033.67  26
   1  -2  16 16070.0 1583.50  19
  -1  -2  16 14805.5 1196.51  26
  -1   2  16 17014.4 1638.47  26
  -1   2  16 15387.7 1231.65  20
   1   2  17 35360.3 2046.54  26
   1  -2  17 32317.2 2026.63  19
  -1  -2  17 30621.3 1513.03  22
  -1   2  17 35445.4 2114.86  26
  -1  -2  18 11522.7 760.345  22
   1   2  18 13922.1 1040.20  26
   1  -2  18 14025.1 885.126  22
  -1   2  18 13314.1 1030.76  26
   2  -2   0 168760. 5251.01   1
   2   2   0 192667. 7363.41   2
   2  -2  -1 41582.9 2633.84   1
   2  -2   1 42287.0 2613.35   1
   2   2   1 45968.1 3564.60   2
   2   2  -1 41962.2 3505.17   2
   2  -2   1 44168.1 1513.21   4
   2  -2   2 47707.2 1948.66   4
   2  -2  -2 45830.0 2793.06   1
   2  -2   2 44391.6 2688.87   1
   2   2   2 46702.8 3662.87   2
   2  -2  -2 45231.9 1844.20   2
   2   2  -2 39803.1 3518.26   2
   2  -2   3 60584.0 2550.34   4
   2  -2  -3 63511.1 3348.44   1
   2  -2   3 56679.6 3073.92   1
   2   2   3 56847.9 4102.90   2
   2  -2  -3 60505.1 2949.19   2
   2   2  -3 54719.9 4273.56   2
   2  -2   4 5485.42 868.956   4
  -2  -2   4 4476.54 1307.28   4
   2  -2   4 4909.61 902.261   1
   2   2   4 5575.15 1317.84   2
   2   2  -4 5161.04 1336.69   2
   2  -2  -4 3739.55 829.802   1
   2  -2   5 17243.8 1717.30   4
   2   2  -5 14751.3 2423.46   2
   2   2   5 14512.8 2201.34   2
   2  -2   5 19031.5 1831.60   1
  -2  -2   5 16575.5 2660.21   4
   2  -2  -5 19434.8 1918.75   1
   2   2  -6 770.934 691.766   2
   2   2   6 1473.16 724.919   2
   2  -2  -6 1156.64 423.892   1
   2  -2   6 1057.84 467.697   4
  -2  -2   6-124.084 279.410   4
   2  -2   6 1193.62 411.091   1
   2  -2  -6 1268.62 297.284   5
   2  -2   7 807.055 304.296   6
   2  -2   7 1166.16 579.820   4
   2   2  -7 1105.56 681.870   2
   2   2   7 513.753 497.109   2
   2  -2  -7 1174.79 311.673   5
  -2  -2   7 626.562 615.106   4
   2  -2  -8 16757.7 1232.26   5
   2  -2   8 16128.8 1352.04   6
   2   2  -8 15321.6 2956.18   2
  -2  -2   8 16061.5 2971.91   4
  -2  -2  -8 16404.6 2961.30   3
   2   2   8 14798.4 2638.67   2
   2  -2   8 16686.7 2192.26   4
   2  -2   9 4445.36 767.751   6
   2  -2   9 4033.89 1138.54   4
  -2  -2   9 4101.37 654.674   6
  -2  -2  -9 2983.49 1266.50   3
  -2  -2   9 3111.24 1424.04   4
   2  -2  -9 3182.59 596.309   5
   2   2  -9 4293.74 1436.17   2
   2   2 -10 21409.9 3737.87   2
  -2  -2 -10 19455.4 3349.60   3
   2   2  10 17526.7 3027.63   4
  -2  -2  10 22582.0 1633.81  26
   2   2  10 23452.2 1938.60  26
  -2  -2  10 20567.9 1513.46   6
   2  -2  10 20220.0 2729.17   4
   2  -2  10 21196.9 1668.60  21
  -2   2  10 22317.1 1882.03  26
  -2  -2  10 21062.2 1967.09  19
   2  -2 -10 20306.2 1579.08   5
  -2  -2  10 22351.3 3820.30   4
   2   2  11 23477.8 3654.29   4
  -2  -2  11 30938.3 1909.10   6
   2   2 -11 29904.4 4563.85   2
  -2  -2 -11 24171.9 3756.51   3
   2   2  11 30341.8 2318.34  26
   2  -2  11 29994.8 2097.23  21
  -2  -2  11 29989.1 1993.06  26
  -2  -2  11 27012.5 2346.35  19
  -2  -2 -11 22910.8 1779.61  25
  -2  -2  11 29369.2 4511.87   4
   2  -2 -11 28539.5 1991.89   5
  -2   2  11 32081.0 2358.92  26
   2  -2  11 31723.6 3589.10   4
   2  -2  11 31825.2 1740.15  17
   2   2  12 1897.80 610.580  26
   2  -2  12 1942.54 446.713  17
  -2   2  12 1929.37 597.823  26
  -2  -2  12 2239.99 573.030  26
  -2  -2  12 1646.16 715.369  19
   2  -2 -12 1891.71 556.617   5
  -2  -2 -12 1627.48 510.985  25
  -2  -2  13 16705.9 1965.00  19
   2  -2 -13 17639.5 1634.96   5
  -2   2  13 18784.4 1906.14  26
  -2  -2  13 19309.0 1681.69  26
  -2   2  13 18273.7 1768.27  20
  -2  -2 -13 14841.0 1431.82  25
   2   2  13 18588.0 1910.24  26
   2  -2  13 19878.6 1361.00  17
  -2  -2  14 606.911 315.225  26
   2   2  14 250.265 261.324  26
  -2   2  14 380.233 322.994  26
  -2  -2 -14 402.989 265.346  25
  -2   2  14 505.948 318.789  20
   2  -2  14 761.031 431.434  19
   2  -2 -14 552.059 316.513   5
  -2   2  15 5673.33 1012.61  26
  -2  -2  15 4701.77 772.623  26
   2   2  15 5337.58 959.939  26
   2  -2 -15 5290.17 841.827   5
   2  -2  15 4334.35 823.174  19
  -2   2  15 4750.38 826.841  20
  -2   2  16-294.204 221.800  20
   2   2  16 185.193 209.999  26
  -2  -2  16 242.955 179.360  22
  -2   2  16 188.854 215.735  26
   2  -2  16 45.3733 206.567  19
  -2  -2  16 402.989 215.018  26
  -2  -2  17 686.121 215.079  22
  -2   2  17 478.085 207.427  20
  -2  -2  17 553.587 196.143  26
   2  -2  17 323.131 243.137  19
  -2   2  17 602.902 278.958  26
   2   2  17 699.143 288.783  26
   2   2  18 14.7737 53.6521  26
   2  -2  18-32.0709 110.998  19
   3   2   0 303.137 270.382   2
   3  -2   0 1032.36 478.020   1
   3   2  -1 29601.0 3397.88   2
   3   2   1 28810.8 3314.19   2
   3  -2  -1 28968.5 2468.24   1
   3  -2   1 29313.7 2468.14   1
   3  -2  -2 78895.5 4099.59   1
   3  -2   2 67995.1 3780.94   1
   3  -2   2 82844.9 2814.06   4
   3   2   2 80920.7 5633.44   2
   3   2  -2 75886.8 5548.01   2
   3  -2   3 210543. 5124.69   4
   3  -2  -3 207346. 6728.18   1
   3  -2   3 200905. 6480.62   1
   3   2   3 183576. 8674.82   2
   3   2  -3 176402. 8805.61   2
   3  -2   4 158835. 4967.62   4
   3  -2  -4 161411. 6048.35   1
   3  -2   4 145915. 5589.23   1
   3   2   4 142130. 7747.54   2
   3   2  -4 135993. 8111.87   2
   3  -2   5 358238. 8237.03   4
   3  -2   5 338929. 8457.45   1
   3  -2  -5 373626. 9300.63   1
   3   2   5 309194. 11674.0   2
   3   2  -5 332559. 13298.9   2
   3  -2   6 127566. 5346.34   4
   3  -2  -6 135726. 5619.03   1
   3  -2   6 123385. 5088.04   1
   3   2  -6 119889. 8404.48   2
   3  -2   7 389917. 10106.3   4
   3   2   7 317617. 12697.7   2
   3  -2  -7 382639. 5633.70   5
   3   2  -7 275464. 13316.7   2
   3   2  -8 71470.5 6993.65   2
   3  -2  -8 72136.6 2660.65   5
   3   2   8 62482.1 5815.48   2
   3  -2   8 76672.7 4777.24   4
   3   2  -9 176104. 11511.7   2
  -3  -2   9 173041. 4929.27  26
  -3   2   9 181029. 5590.79  26
   3   2   9 183526. 5400.77  26
   3   2   9 152883. 9521.93   2
   3  -2  -9 172201. 4411.76   5
  -3  -2  -9 173240. 10576.6   3
   3  -2   9 177593. 4593.54  21
  -3  -2   9 193721. 4463.32  20
   3  -2   9 176185. 4742.45  13
   3  -2   9 176722. 7711.22   4
   3  -2  10 6776.96 984.815  21
   3   2  10 6204.69 1080.16  26
   3   2  10 5037.86 1688.81   4
   3  -2  10 5626.91 1393.33   4
  -3  -2  10 6753.57 870.507  20
  -3  -2 -10 6103.83 2021.22   3
   3   2 -10 5758.32 2110.91   2
   3  -2 -10 5815.90 870.284   5
  -3  -2  10 5076.50 882.539  26
  -3   2  10 8848.96 1290.06  26
   3   2  11 7138.98 1178.78  26
  -3   2  11 6029.11 1116.17  26
   3  -2  11 5845.31 943.232  21
  -3  -2  11 7051.69 892.400  20
  -3  -2  11 5693.97 960.747  26
  -3   2  11 5559.23 1016.34  20
   3  -2 -11 6163.13 948.054   5
   3   2  12 3009.52 766.488  26
  -3  -2 -12 1978.73 561.462  25
  -3   2  12 2611.59 698.864  20
   3  -2  12 2798.89 671.025  21
  -3   2  12 3067.33 791.350  26
  -3  -2  12 2845.86 556.006  20
  -3  -2  12 2355.27 605.058  26
   3  -2 -12 2309.07 576.116   5
   3  -2  12 2350.36 504.037  17
  -3   2  13 11456.7 1562.94  26
   3   2  13 12476.8 1585.90  26
  -3  -2  13 12426.5 1117.37  20
  -3   2  13 12279.8 1465.32  20
  -3  -2  13 12391.3 1415.17  26
  -3  -2 -13 10828.8 1225.16  25
   3  -2  13 11973.4 1092.34  17
   3  -2 -13 11749.4 1315.43   5
  -3  -2 -14 2197.63 517.764  25
  -3   2  14 2863.82 755.489  26
   3  -2  14 3542.02 577.118  17
  -3  -2  14 2832.24 642.572  26
   3  -2 -14 2822.05 615.040   5
  -3   2  14 2227.74 633.750  20
   3   2  14 2961.17 749.935  26
  -3  -2  15 51509.8 2533.21  26
   3  -2  15 54162.4 2584.91  19
  -3   2  15 54849.3 3067.07  26
   3   2  15 59002.6 2987.69  26
   3  -2  15 50436.4 1888.83  17
  -3   2  15 56544.0 2707.06  20
   3  -2 -15 58428.0 2584.91   5
  -3  -2  16 15763.0 1205.43  26
  -3   2  16 18821.8 1581.27  26
   3   2  16 18819.7 1484.05  26
  -3   2  16 16838.4 1285.41  20
   3  -2  16 17194.9 1340.45  19
   3  -2  17 119038. 3061.42  19
  -3   2  17 92131.5 2730.40  26
   3   2  17 110593. 2936.21  26
  -3  -2  17 103372. 2532.61  18
   4   2   0 275464. 11511.6   2
   4  -2   0 256077. 8365.52   1
   4   2   1 388673. 13673.1   2
   4  -2   1 361009. 9971.53   1
   4   2  -1 391361. 13840.3   2
   4  -2  -1 364854. 9985.40   1
   4   2   2 116065. 7645.74   2
   4   2  -2 116265. 7721.45   2
   4  -2  -2 106107. 5424.33   1
   4  -2   2 110461. 5543.14   1
   4  -2  -3 241863. 8276.34   1
   4  -2   3 234466. 8110.86   1
   4   2   3 237155. 11082.8   2
   4   2  -3 245684. 11538.3   2
   4  -2  -4 31943.9 3061.93   1
   4  -2   4 31348.7 2937.46   1
   4   2  -4 31661.4 4395.28   2
   4   2   4 29884.6 4030.25   2
   4  -2   5 5784.94 1309.15   1
   4   2  -5 9694.38 2475.18   2
   4   2   5 4890.43 1644.09   2
   4  -2  -5 8024.42 1546.29   1
   4   2   6 4656.75 1713.46   2
   4  -2   6 4271.07 1014.92   4
   4  -2   6 3562.65 918.016   1
   4   2  -6 5020.39 1959.68   2
   4  -2  -6 5809.57 1322.40   1
   4  -2   7 13941.6 2008.00   4
   4  -2   7 14848.9 1309.79  13
   4   2   7 14707.1 2965.95   2
   4   2  -7 13231.9 3179.70   2
  -4  -2   7 16236.6 1366.70  20
   4  -2   8 42734.7 2346.34  13
  -4   2   8 39848.1 2835.28  26
   4   2  -8 45611.2 6207.14   2
   4  -2  -8 43621.2 2164.58   5
  -4  -2   8 43418.8 2308.80  20
   4   2   8 44373.4 2723.46  26
  -4   2   8 39222.1 2461.15  20
   4   2   8 43090.6 5222.89   2
   4  -2  -8 39593.2 1836.88   8
  -4  -2   8 40323.5 2602.50  26
   4  -2   8 42581.6 3630.36   4
  -4   2   9 65149.9 3313.38  20
   4  -2   9 66589.7 3084.84  13
   4   2   9 69049.6 3571.11  26
   4  -2   9 68954.6 3020.81  21
   4  -2  -9 70857.3 2896.34   5
  -4  -2   9 72154.9 3028.37  20
  -4   2   9 72155.9 3988.97  26
  -4  -2   9 63507.7 3386.41  26
   4  -2  -9 67363.2 2419.70   8
   4   2   9 66692.0 6628.35   2
   4   2  -9 68751.3 7834.52   2
   4  -2   9 67958.6 4774.71   4
   4  -2  10 35567.1 2263.22  21
   4  -2 -10 35179.0 2155.00   5
   4   2  10 39005.3 2737.58  26
  -4  -2  10 37302.2 2198.67  20
  -4   2  10 35449.0 2496.33  20
  -4   2  10 38116.9 2932.22  26
   4  -2 -10 34429.3 1680.11   8
  -4  -2  10 31879.7 2416.82  26
  -4   2  11 236701. 7334.70  26
   4  -2  11 218113. 5728.26  21
  -4  -2  11 214502. 6252.25  26
  -4   2  11 221419. 6303.86  20
  -4  -2  11 235654. 5502.45  20
   4  -2 -11 208796. 5441.42   5
   4   2  11 235961. 6842.19  26
   4  -2 -12 61718.5 2957.75   5
   4   2  12 74966.3 3797.69  26
  -4  -2  12 63402.9 3329.91  26
  -4   2  12 69117.4 3892.03  26
  -4  -2  12 71099.4 2913.93  20
  -4   2  12 64120.1 3335.51  20
   4  -2  12 62471.2 3126.66  21
  -4  -2 -12 50579.9 2699.23  25
   4  -2  12 68550.3 2747.50  17
  -4  -2 -13 125452. 3903.62  25
   4  -2 -13 146157. 4414.98   5
  -4   2  13 167014. 5799.25  26
  -4   2  13 149206. 4907.91  20
  -4  -2  13 141701. 4785.66  26
   4   2  13 168570. 5536.79  26
   4  -2  13 150476. 3843.01  17
  -4  -2  14 35454.9 2217.64  26
  -4   2  14 42774.3 2739.36  26
   4   2  14 40983.4 2514.82  26
  -4   2  14 36373.3 2248.80  20
  -4  -2 -14 31770.8 1718.03  25
   4  -2 -14 35468.0 2042.04   5
   4  -2  14 34902.3 1704.59  17
  -4  -2  15 69869.3 2754.30  26
  -4   2  15 76085.4 3182.09  26
   4  -2  15 77862.3 2734.10  19
   4   2  15 85210.8 3196.98  26
   4  -2  15 70618.7 2138.78  17
  -4   2  15 76049.0 2928.71  20
   4  -2 -15 82456.5 2771.19   5
   4   2  16 2782.17 503.478  26
  -4  -2  16 2086.29 381.656  26
  -4   2  16 2653.22 470.485  20
   4  -2  16 2722.59 462.591  19
  -4  -2  16 2211.96 412.114  18
  -4   2  16 1984.95 418.489  26
   5  -2   0 306.524 332.670   1
   5   2   0 565.566 600.174   2
   5   2  -1 2724.24 1240.82   2
   5  -2   1 4208.57 1232.37   1
   5   2   1 2191.63 1186.27   2
   5  -2  -1 3340.78 1105.05   1
   5   2   2 4067.27 1523.59   2
   5   2  -2 6747.52 2041.34   2
   5  -2   2 4940.33 1367.07   1
   5  -2  -2 4675.46 1316.36   1
   5   2  -3 237.058 424.124   2
   5   2   3 681.217 721.058   2
   5  -2  -3 488.608 478.060   1
   5  -2   3-23.7980 249.677   1
   5   2  -4 4840.47 1826.83   2
  -5  -2   4 3694.33 813.991  26
  -5  -2   4 5088.13 754.919  14
  -5  -2  -4 4403.56 789.913  14
   5   2   4 5018.62 1639.96   2
   5  -2  -4 4408.03 1257.61   1
   5  -2   4 4042.21 1176.88   1
   5  -2  -4 4345.29 630.784   8
   5  -2   4 4732.06 818.606  23
   5  -2   4 4851.20 728.714  10
   5  -2  -5 24489.3 2949.38   1
   5  -2   5 24771.1 2864.18   1
  -5  -2   5 28250.7 1764.54  14
  -5  -2   5 25685.1 2160.48  26
   5  -2   5 27973.9 1824.93  10
   5  -2   5 26296.6 1970.53  23
  -5  -2  -5 23092.8 1870.85  14
   5   2   5 27618.6 4156.97   2
   5   2  -5 30475.6 4767.63   2
   5  -2  -5 27681.2 1599.32   8
  -5  -2   6 13585.3 1218.97  14
   5   2   6 10662.2 2660.74   2
  -5  -2   6 11515.7 1494.03  26
   5  -2   6 12761.1 1280.51  13
   5   2  -6 12259.6 3042.59   2
   5  -2   6 11171.1 1310.78  23
  -5  -2  -6 12512.5 1385.42  14
   5  -2   6 12153.0 1248.47  10
  -5   2   6 12600.3 1310.43  20
   5  -2  -6 12497.7 1101.24   8
  -5  -2   7 27990.3 2007.91  20
   5  -2   7 26920.4 1921.02  13
  -5  -2   7 29470.8 1791.63  14
  -5  -2   7 25121.0 2272.20  26
  -5   2   7 25586.8 2405.64  26
  -5  -2  -7 28950.3 2191.60  14
  -5   2   7 25929.3 1973.47  20
   5   2   7 24802.1 4052.30   2
   5  -2  -7 25713.1 1586.23   8
   5   2  -7 31093.8 5067.10   2
   5  -2  -8 515.435 270.282   8
   5  -2   8 193.762 217.449  13
  -5   2   8-158.174 202.458  26
   5   2   8 848.846 414.674  26
  -5   2   8 1169.29 488.428  20
  -5  -2   8 586.728 365.745  26
  -5  -2   8 429.089 328.893  20
   5  -2  -8 571.854 294.449   5
  -5  -2   8 1192.11 361.941  14
   5  -2  -9 1410.83 420.819   5
   5  -2  -9 404.050 218.728   8
  -5  -2   9 586.618 378.074  26
  -5   2   9 557.322 359.062  26
   5  -2   9 186.749 292.066  13
   5   2   9 221.233 270.190  26
   5  -2   9 76.7870 275.767  21
  -5   2   9 522.433 336.174  20
   5  -2  10 6501.68 1029.28  13
  -5   2  10 5848.36 1167.92  26
   5   2  10 4841.22 957.730  26
   5  -2 -10 5235.30 826.110   5
   5  -2 -10 5502.08 691.000   8
  -5   2  10 5179.53 944.813  20
   5  -2  10 5076.49 864.577  21
  -5  -2  10 5000.56 1017.04  26
  -5   2  11 911.441 464.043  26
   5  -2  11 743.408 399.113  21
  -5  -2  11 211.549 327.899  26
   5  -2 -11 865.376 336.147   5
  -5   2  11 742.907 440.861  20
   5  -2  11 434.539 296.469  17
   5   2  11 91.4509 223.156  26
  -5  -2  12-530.023 326.305  26
   5  -2 -12 29.9115 149.262   5
   5  -2  12 302.534 275.018  21
  -5   2  12 179.908 253.284  20
  -5  -2 -12 738.287 323.001  25
  -5   2  12 157.411 261.125  26
   5   2  12 621.807 362.571  26
   5  -2  12 143.394 204.194  17
  -5  -2  13 157.341 202.997  26
   5   2  13 290.008 263.413  26
  -5   2  13 358.988 251.811  26
  -5   2  13 22.5204 146.754  20
   5  -2 -13 134.960 137.431   5
  -5  -2 -13 332.534 195.589  25
   5  -2  13 285.644 213.396  17
   5  -2 -14 835.262 302.690   5
   5   2  14 1004.49 330.985  26
  -5   2  14 918.664 339.444  26
  -5   2  14 250.116 181.815  14
  -5  -2 -14 171.072 114.615  25
  -5   2  14 564.853 291.898  20
   5  -2  14 511.771 213.871  17
  -5  -2  14 678.583 288.844  26
  -5  -2  15 351.032 175.112  26
   5   2  15 430.748 194.742  26
  -5  -2  15 275.410 139.244  18
   5  -2  15 363.520 147.603  17
  -5   2  15 626.494 249.897  20
   5  -2  15 557.269 209.196  19
   6  -2   0 71253.7 5519.05   1
  -6  -2   0 66883.7 3094.74  14
  -6  -2   0 62815.6 3608.23  26
   6  -2   0 63661.6 2429.54   8
   6   2   0 64728.8 6286.73   2
   6  -2  -1 75254.9 5669.45   1
  -6  -2  -1 72702.3 3239.61  14
  -6  -2   1 75488.2 3271.23  14
  -6   2   1 55139.5 2827.69  14
  -6  -2   1 67453.5 3772.51  26
   6  -2   1 75335.0 5683.37   1
   6   2   1 75049.9 6803.40   2
   6   2  -1 77997.5 6946.46   2
   6  -2  -1 69166.6 2631.71   8
   6  -2   1 65074.2 2381.70   8
   6  -2  -2 76887.3 5742.56   1
  -6  -2   2 72076.5 3912.57  26
  -6  -2  -2 72322.9 3257.99  14
  -6  -2   2 79737.1 3348.17  14
   6  -2   2 75108.7 3366.80  23
   6  -2   2 71623.7 3082.21  10
   6   2   2 79623.4 7056.19   2
   6   2  -2 87508.9 7383.47   2
   6  -2   2 73122.4 2447.18   8
   6  -2   2 80712.7 5857.01   1
   6  -2  -2 75054.2 2792.62   8
  -6  -2  -3 149360. 4766.47  14
  -6  -2   3 169300. 4850.43  14
   6  -2   3 154429. 4889.98  23
  -6  -2   3 148782. 5645.28  26
   6   2   3 161577. 10072.4   2
   6  -2  -3 156988. 4096.37   8
   6  -2   3 155574. 4566.43  10
  -6  -2  -4 8127.99 1134.52  14
  -6  -2   4 8931.75 1104.52  14
   6  -2   4 9170.55 1113.09  10
  -6  -2   4 7784.38 1297.25  26
   6  -2   4 8142.71 1137.99  23
   6  -2  -4 8125.39 945.731   8
  -6  -2   5 7126.06 1256.11  26
  -6  -2  -5 9002.56 1207.02  14
  -6  -2   5 8566.21 1069.35  14
   6   2   5 6762.44 826.627  10
   6  -2   5 8824.80 1123.70  10
   6  -2   5 7182.40 1094.51  23
   6  -2  -5 8653.48 971.131   8
  -6  -2   6 4659.48 772.339  14
  -6  -2  -6 5402.58 923.445  14
   6  -2   6 4770.95 831.098  13
   6   2   6 4711.54 768.458  13
  -6   2   6 4695.21 809.901  20
  -6  -2   6 4596.79 1032.15  26
   6  -2  -6 4239.40 689.622   8
   6  -2   6 4829.33 842.870  10
  -6  -2   7 15348.3 1354.36  14
  -6   2   7 14589.1 1769.37  26
   6   2   7 14282.3 1301.37  13
   6  -2   7 14651.4 1466.05  13
  -6   2   7 13945.2 1418.42  20
   6  -2  -7 13440.0 1219.77   5
  -6  -2   7 13799.7 1739.09  26
   6  -2  -7 13827.5 1193.38   8
   6  -2  -8 36298.2 2024.53   5
  -6  -2   8 37491.6 2033.25  14
  -6  -2   8 37193.0 2804.11  26
   6   2   8 31987.2 1897.62  13
   6  -2   8 37692.8 2364.32  13
   6   2   8 39889.7 2654.09  26
   6  -2  -8 34322.6 1827.18   8
  -6   2   8 33348.7 2229.42  20
  -6   2   8 36540.5 2825.03  26
  -6  -2   9 78512.6 2756.37  14
   6  -2   9 77880.4 3372.16  13
  -6   2   9 74375.2 3923.37  26
   6  -2   9 81084.4 2868.50  12
   6  -2  -9 75308.7 2934.36   5
   6  -2   9 75226.5 3170.30  21
  -6   2   9 71812.5 3274.48  20
  -6  -2   9 74934.9 3887.45  26
   6  -2  -9 75626.2 2558.70   8
   6  -2   9 76634.8 2888.97  17
   6   2   9 82223.0 3734.99  26
   6  -2 -10 27105.2 1725.54   5
  -6  -2  10 25920.2 2171.36  26
  -6   2  10 30571.2 2371.41  26
   6  -2  10 28863.6 1947.33  21
  -6   2  10 25801.9 1924.37  20
   6  -2 -10 26788.7 1403.90   8
   6   2  10 32378.6 2272.10  26
   6  -2  10 28575.0 1722.40  17
  -6  -2  11 50145.4 2817.49  26
  -6   2  11 53771.0 2906.68  26
   6  -2  11 54049.7 2547.97  21
  -6  -2  11 46849.9 2048.45  18
  -6   2  11 48789.7 2517.19  20
   6   2  11 56291.7 2822.69  26
   6  -2  11 51061.7 2182.85  17
   6  -2 -11 48076.5 2230.79   5
  -6   2  12 10659.9 1081.56  14
   6  -2  12 12230.8 1134.37  21
  -6  -2 -12 10226.8 847.919  25
   6  -2  12 11391.2 964.978  17
  -6  -2  12 11544.3 1245.68  26
  -6  -2  12 10144.0 878.492  18
   6  -2 -12 11377.9 1019.83   5
  -6   2  12 11593.0 1158.18  20
   6   2  12 13668.3 1270.91  26
  -6   2  12 12422.7 1204.51  26
   6   2  13 70209.4 2518.42  26
  -6   2  13 59824.9 2153.77  14
  -6   2  13 47155.2 1898.82  26
  -6   2  13 63153.3 2414.71  20
  -6  -2  13 51307.5 1634.79  18
   6  -2  13 62515.8 2005.36  17
  -6  -2  13 63368.4 2488.81  26
  -6  -2  14 7029.43 649.140  26
   6   2  14 9115.19 717.223  26
  -6   2  14 8826.56 758.781  20
   6  -2  14 9489.14 663.564  17
  -7  -2   0 148.975 233.560  14
   7   2   0 221.272 159.386  10
   7  -2   0 351.584 281.986  23
   7  -2   1 23003.4 1750.13  10
  -7  -2  -1 22305.4 1902.12  14
  -7   2   1 22978.3 1840.72  14
  -7  -2   1 24721.9 1974.83  14
   7  -2   1 22698.5 1832.55  23
   7   2   1 21524.1 1417.83  10
   7   2  -1 16679.2 1329.94  10
   7  -2  -1 22620.5 1526.34   8
  -7  -2  -2 14399.2 1526.93  14
  -7  -2   2 11647.0 1365.20  14
  -7   2   2 12224.4 1393.15  14
  -7  -2   2 13442.7 1740.68  26
   7   2   2 14339.9 1144.52  10
   7  -2   2 14280.6 1376.90  10
   7  -2  -2 13242.7 1192.62   8
   7  -2   2 14531.0 1474.79  23
   7   2   3 176481. 3998.51  10
  -7  -2  -3 180695. 5359.97  14
  -7  -2   3 188831. 5282.79  14
  -7   2   3 165599. 5268.41  14
  -7  -2   3 188434. 6463.55  26
   7  -2   3 181723. 5197.54  23
   7  -2   3 198256. 5107.33  10
   7  -2  -3 182870. 4392.67   8
  -7  -2  -4 86583.2 3657.87  14
  -7  -2   4 90366.8 3583.08  14
  -7   2   4 82438.5 3758.79  14
   7   2   4 81471.1 2711.73  10
   7  -2   4 96526.4 3578.95  10
   7  -2   4 89969.5 3635.78  23
  -7  -2   4 89328.4 4460.80  26
   7  -2  -4 89192.5 3065.41   8
  -7  -2   5 144244. 5655.06  26
  -7  -2  -5 134279. 4474.11  14
  -7  -2   5 133071. 4225.01  14
  -7   2   5 124479. 4673.58  14
   7   2   5 126785. 3804.44  13
   7  -2   5 145892. 4391.29  10
   7  -2  -5 133212. 3682.88   8
   7  -2   5 130942. 4377.43  23
   7  -2   5 141717. 4344.75  13
  -7  -2   6 52799.4 3318.79  26
  -7  -2  -6 52165.2 2679.95  14
  -7  -2   6 53375.2 2573.20  14
  -7   2   6 47342.1 2836.75  14
   7   2   6 50244.8 2303.94  13
   7  -2   6 55397.6 2706.09  13
   7  -2  -6 51393.8 2235.91   8
   7  -2   6 49384.6 2080.27  17
  -7  -2   7 175520. 5883.45  26
  -7  -2   7 174311. 4399.36  14
  -7   2   7 162273. 5097.51  14
   7   2   7 160509. 3898.89  13
   7  -2   7 181507. 4822.39  13
   7   2   7 186063. 5204.66  26
   7  -2  -7 171161. 4003.76   5
   7  -2   7 163416. 3800.43  17
   7  -2  -7 169282. 3869.44   8
  -7  -2   8 36717.7 2568.52  26
  -7  -2   8 35856.7 1864.13  14
  -7   2   8 34654.1 2279.75  14
   7   2   8 33537.5 1674.78  13
   7  -2   8 38338.5 2173.17  13
   7   2   8 39783.2 2330.18  26
   7  -2   8 39249.0 1863.32  12
   7  -2  -8 34235.9 1768.09   5
   7  -2   8 37929.6 2077.00  21
  -7   2   8 35687.3 2025.03  20
   7  -2   8 34244.5 1712.65  17
  -7  -2   9 153153. 3462.76  14
  -7   2   9 146230. 4420.06  14
  -7  -2   9 163743. 5067.60  26
   7  -2   9 162217. 4270.29  13
   7   2   9 173142. 4579.77  26
   7  -2  -9 144508. 3521.48   5
   7  -2   9 158032. 4080.00  21
  -7   2   9 151693. 4032.33  20
   7  -2   9 142630. 3389.61  17
  -7   2  10 15208.8 1295.70  14
  -7  -2  10 16050.2 1454.00  26
   7   2  10 16420.9 1307.32  26
   7  -2 -10 15169.6 1086.00   5
  -7   2  10 14667.4 1176.44  20
   7  -2  10 15969.5 1221.09  21
   7  -2  10 14608.6 1033.75  17
   7   2  11 10964.2 956.127  26
  -7   2  11 9379.46 905.691  14
  -7  -2  11 9972.68 1012.98  26
   7  -2  11 10314.2 903.971  21
   7  -2  11 8776.25 725.001  17
  -7  -2 -11 7783.83 551.037  25
  -7  -2  12 1565.75 329.998  26
  -7   2  12 1089.23 268.466  14
   7   2  12 1254.48 279.410  26
   7  -2  12 1500.19 275.655  17
  -8  -2   0 23362.8 1797.20  14
   8  -2   0 23963.5 1668.26  23
   8  -2   0 25969.0 1666.46  10
  -8  -2  -1 40283.6 2354.82  14
  -8  -2   1 42363.3 2434.88  14
   8  -2   1 42499.6 2221.43  23
   8  -2   1 43613.2 2156.58  10
   8  -2  -1 40358.8 2175.66  23
   8  -2  -1 42505.7 2139.54  10
   8  -2  -2 23147.0 1646.14  23
  -8  -2   2 23278.3 1782.80  14
  -8   2   2 22851.7 1686.28  14
  -8  -2  -2 21679.6 1702.34  14
   8  -2   2 24351.1 1601.90  10
   8  -2  -2 22073.3 1559.29  10
   8  -2   2 21801.3 1575.40  23
  -8  -2  -3 83024.2 3214.59  14
  -8  -2   3 82521.1 3236.92  14
  -8   2   3 79864.5 3191.27  14
   8  -2   3 85727.1 3070.49  23
   8  -2  -3 90388.6 3199.20  23
   8  -2   3 92448.3 3082.37  10
  -8  -2  -4 11063.7 1087.55  14
  -8  -2   4 9622.14 1067.86  14
  -8   2   4 8925.86 1066.87  14
   8  -2   4 10494.9 1016.83  10
   8   2   4 10134.5 915.505  13
   8  -2   4 9745.39 1008.38  13
  -8  -2  -5 413.477 220.039  14
  -8  -2   5 367.522 207.153  14
  -8   2   5 267.837 234.087  14
   8   2   5 338.845 179.172  13
   8  -2   5 383.371 248.705  13
   8   2   5 520.764 273.979  26
   8   2   6 1.82921 122.774  26
  -8  -2   6 61.9405 140.575  14
  -8   2   6 312.166 235.999  14
   8   2   6 280.070 153.427  13
   8  -2   6 243.000 177.285  13
   8  -2  -6 249.712 147.379   5
  -8  -2   6-152.161 231.296  26
   8  -2   7 1563.93 334.056  12
  -8  -2   7 952.812 375.029  26
  -8  -2   7 1620.63 382.118  14
  -8   2   7 1349.64 396.960  14
   8   2   7 1187.16 338.759  26
   8  -2   7 1480.36 344.039  21
   8  -2   7 2036.26 425.183  13
  -8  -2   8 13919.2 918.628  14
  -8   2   8 14572.5 1158.27  14
  -8  -2   8 15408.4 1263.16  26
   8  -2   8 14563.6 1000.26  21
   8   2   8 15926.1 1094.69  26
   8  -2   9 31045.0 1305.44  21
  -8   2   9 30924.6 1498.45  14
  -8  -2   9 29410.2 1224.65   9
   8   2   9 31148.0 1348.04  26
   9  -2   0 47.0158 90.5792  10
  -9  -2   0 49.6495 116.138  14
   9  -2   0-177.031 137.048  23
   9  -2   0 179.676 131.829  13
  -9  -2  -1 3975.81 538.748  14
  -9  -2   1 4254.06 586.129  14
   9  -2   1 4291.38 505.361  13
   9   2   1 2758.48 351.993  13
   9  -2   1 3514.00 469.329  10
   9  -2  -1 3659.21 483.008  10
   9  -2  -1 3828.78 485.150  23
  -9  -2  -2 3441.46 460.332  14
  -9  -2   2 4147.87 576.511  14
   9  -2   2 3548.97 454.094  13
   9  -2  -2 4536.43 513.255  10
   9  -2  -2 4125.03 490.958  23
  -9  -2   3 4790.05 601.087  14
   9  -2   3 4765.09 509.644  13
   9  -2  -3 5162.70 526.714  23
   9  -2  -3 4454.72 488.256  10
   9   2   3 5306.52 578.757  26
  -9  -2   4 17324.0 1059.57  14
   9  -2   4 16332.3 885.975  13
   9  -2  -4 17149.1 909.745  23
   9   2   4 18389.6 1010.18  26
   9  -2  -4 17732.7 909.919  10
   9  -2   4 16549.9 858.123  21
   9  -2   5 9609.40 610.344  21
   9   2   5 9281.98 658.811  26
   9  -2  -5 9774.26 615.464  23
   9  -2  -5 8850.18 584.604  10
  -9  -2   5 9074.73 697.232  14
   0  -3   0 98.9746 218.206   1
   0   3   0 710.049 233.477   2
   0  -3   0 390.557 316.595   3
   0   3   1 84.9822 112.957   2
   0  -3  -1 31.8354 199.440   1
   0  -3   1-92.4947 217.850   1
   0  -3   1 56.2027 156.073   3
   0  -3  -1 252.359 314.853   3
   0   3  -1 495.072 226.380   2
   0  -3  -2 270.399 312.379   3
   0   3   2 126.280 136.334   2
   0  -3   2 86.4931 212.554   1
   0  -3  -2 495.459 401.326   1
   0  -3   2 125.948 233.003   3
   0   3  -2 295.574 227.145   2
   0  -3   3 166.145 185.757   4
   0   3   3 68.2138 109.320   2
   0  -3  -3-141.399 309.870   3
   0   3  -3 364.119 296.699   2
   0  -3   3 25.6260 301.800   1
   0  -3   4-84.4070 174.309   1
   0  -3   4 379.317 326.422   4
   0  -3  -4 842.454 559.182   3
   0   3  -4 21.7998 150.145   2
   0  -3  -4 455.469 406.082   1
   0  -3   5 608.517 449.320   4
   0  -3  -5 350.051 304.820   1
   0  -3  -5 534.435 473.115   3
   0   3  -5-153.878 218.722   2
   0  -3   6 594.478 472.473   4
   0  -3  -6 211.687 437.528   3
   0  -3  -6 232.720 157.683   5
   0  -3   7 9.71333 245.696   4
   0  -3  -7 19.4417 141.058   5
   0  -3  -7-139.279 346.592   3
   0  -3   8 1076.72 669.229   4
   0  -3  -8 2072.37 1035.36   3
   0  -3  -8 609.845 256.133   5
   0  -3   9 607.927 541.403   4
   0  -3  -9 923.641 711.730   3
   0  -3   9 254.581 244.760   6
   0  -3  -9 1853.45 453.625   5
   0  -3  10 160.823 253.748  19
   0  -3  10 61.5184 183.781   4
   0  -3  10 44.1465 166.088   6
   0  -3 -10 328.582 269.423   5
   0  -3 -10 24.7123 153.374  25
   0  -3  11-29.1279 177.661   6
   0  -3  11 1044.42 774.280   4
   0   3  11 974.389 362.095  26
   0  -3 -11 225.284 144.326  25
   0  -3  11-183.869 246.915  19
   0  -3 -11 1204.88 395.507   5
   0  -3  12 770.429 394.755   6
   0   3  12 821.613 364.379  26
   0  -3 -12-124.878 179.657  25
   0  -3  12 539.872 377.193  19
   0  -3  13 31.7192 224.056  19
   0   3  13-552.244 305.028  26
   0   3  14 119.434 164.304  26
   0  -3 -14 182.171 160.564  24
   0  -3  14 119.849 298.560  19
   0   3  15 397.686 235.648  26
   0  -3  15-178.608 247.383  19
   0  -3 -15 0.62742 104.918  24
   0  -3  15 216.183 177.540  18
   0   3  16 16.7663 115.963  26
   0  -3  16 186.765 192.566  22
   0   3  16 482.665 238.681  20
   0  -3  17 126.959 130.523  22
   0   3  17-10.5303 73.9670  26
   1   3   0-174.502 213.588   2
   1  -3   0-14.8681 248.489   1
   1   3  -1 55057.0 3305.30   2
   1   3   1 56972.4 3188.30   2
   1  -3  -1 52414.8 3558.76   1
   1  -3   1 52461.8 3533.10   1
   1   3   2 146290. 5193.48   2
   1  -3  -2 132695. 5707.17   1
   1  -3   2 129901. 5561.88   1
   1  -3   2 135527. 4411.72   4
   1   3   3 15056.8 1741.50   2
   1  -3  -3 13963.2 1864.01   1
  -1  -3  -3 12910.4 2043.36   3
   1  -3   3 13386.7 1799.33   1
   1  -3   3 14559.5 1582.22   4
   1   3  -3 10522.5 1756.13   2
  -1  -3  -4 269794. 9902.91   3
   1  -3   4 266151. 8097.98   1
   1   3   4 298427. 8122.08   2
   1  -3  -4 272011. 8281.51   1
   1  -3   4 307787. 7771.57   4
  -1  -3   4 273356. 9765.32   4
   1   3  -4 264036. 9379.47   2
  -1  -3   5 7636.40 1731.90   4
  -1  -3   5 8184.01 844.749   7
   1  -3   5 9603.22 1472.63   4
  -1  -3  -5 9813.21 1981.56   3
   1   3  -5 6981.94 1649.30   2
   1   3   5 7662.23 1413.87   2
   1  -3  -5 9795.51 1549.78   1
   1  -3   5 8102.92 1430.05   1
   1   3  -6 412801. 13291.8   2
   1  -3  -6 440190. 10236.5   1
   1  -3   6 437481. 10325.1   1
  -1  -3   6 403258. 6187.60   7
  -1  -3  -6 438645. 13636.5   3
   1   3   6 431415. 11149.2   2
   1  -3  -6 402427. 5474.62   5
  -1  -3   6 415221. 13141.6   4
   1  -3   6 442637. 10772.4   4
  -1  -3   7 862.107 655.939   4
   1  -3   7 1345.81 659.753   4
  -1  -3  -7 207.127 454.423   3
   1   3  -7 226.268 413.079   2
   1  -3   7 1015.67 366.402   6
   1  -3  -7 655.829 248.570   5
   1   3  -8 196087. 9981.45   2
   1   3   8 207484. 8459.56   4
  -1  -3  -8 225964. 10796.3   3
   1  -3   8 222799. 5324.73   6
   1  -3  -8 209563. 4620.18   5
  -1  -3   8 215738. 10324.6   4
   1  -3   8 237820. 9012.24   4
  -1  -3   9 1158.28 831.428   4
   1  -3   9 172.497 340.791   4
  -1  -3  -9 519.834 583.776   3
   1  -3  -9 109.348 180.258   5
   1  -3   9 284.328 226.712   6
  -1  -3  -9 353.248 216.715  25
   1   3  -9 1135.01 786.528   2
   1   3 -10 29515.3 4240.66   2
  -1  -3 -10 26265.4 3913.95   3
   1   3  10 30177.4 1977.70  26
   1  -3  10 29190.0 2165.58   6
   1  -3 -10 28930.8 1740.47  25
  -1  -3 -10 28967.1 1839.07  25
   1  -3  10 29392.5 1672.15  17
   1  -3 -10 29234.7 1894.04   5
  -1  -3  10 29878.8 2154.43  19
   1  -3  10 34785.3 2049.61  19
  -1  -3  10 30191.1 2177.36   6
  -1  -3  10 30841.9 4235.87   4
   1  -3  10 32190.6 3736.32   4
   1  -3  11 5154.65 940.808   6
   1  -3  11 5794.60 1733.54   4
   1  -3 -11 5051.48 727.078  24
  -1   3  11 5921.98 920.457  26
  -1  -3 -11 4451.49 1597.78   3
   1   3  11 5144.51 874.756  26
  -1  -3 -11 4343.92 762.950  25
  -1  -3  11 4792.14 895.243   6
   1  -3 -11 5814.52 877.531   5
  -1  -3  11 5585.43 993.306  19
   1  -3  11 5274.43 862.120  19
   1   3 -11 2584.19 1245.20   2
   1  -3  11 5550.81 739.643  17
   1  -3 -12 5988.80 744.627  24
  -1   3  12 5922.21 935.493  26
   1   3  12 6651.09 979.411  26
  -1  -3  12 6210.71 1017.46   6
  -1  -3 -12 5965.09 896.072  25
   1  -3 -12 6623.67 950.370   5
  -1  -3  12 6614.87 1089.30  19
   1  -3  12 5427.68 906.897  19
   1  -3  12 6158.77 1068.32   6
   1  -3 -13 798.966 340.970   5
  -1   3  13 608.696 309.690  26
   1   3  13 401.249 266.447  26
  -1  -3  13 557.644 338.732   6
   1  -3 -13 257.842 178.158  24
  -1  -3  13 293.921 352.495  19
   1  -3  13-5.46370 171.929  19
  -1  -3 -13 292.227 206.075  25
  -1   3  14 44590.9 2520.91  26
   1   3  14 43674.3 2452.83  26
  -1  -3  14 39898.7 2662.87  19
   1  -3  14 42260.9 2480.68  19
   1   3  15 5489.07 819.473  26
  -1  -3  15 5798.54 800.599  18
  -1   3  15 6416.30 998.592  20
   1  -3  15 5232.29 857.612  19
  -1   3  15 4932.88 781.392  26
  -1  -3  15 6353.48 822.193  22
  -1   3  16 86384.4 2924.06  26
   1   3  16 87349.9 2904.41  26
   1  -3  16 96973.8 2895.05  22
  -1   3  16 92929.5 3219.74  20
   1  -3  16 89310.0 3132.07  19
  -1  -3  16 86593.2 2684.07  22
  -1  -3 -16 96496.6 2173.86  24
  -1  -3  16 85678.3 2574.09  18
  -1  -3  17 864.261 248.845  22
  -1   3  17 966.014 245.962  26
   1   3  17 1135.01 267.496  26
   1  -3  17 986.043 270.029  22
  -1  -3  17 684.149 172.631  18
   2   3   0 856957. 15317.3   2
   2  -3   0 854251. 14762.9   1
   2   3  -1 7517.08 1490.52   2
   2  -3  -1 9168.55 1555.41   1
   2   3   1 8261.89 1490.20   2
   2  -3   1 9069.28 1502.42   1
   2  -3  -2 753984. 14109.9   1
   2  -3   2 697587. 13290.0   1
   2   3   2 762803. 14564.3   2
   2   3  -2 684414. 14909.9   2
   2  -3   3 501.935 390.188   1
   2   3  -3 132.006 313.563   2
   2   3   3 144.881 285.608   2
   2  -3  -3 406.018 343.337   1
   2  -3  -4 93209.5 5102.56   1
  -2  -3   4 90454.0 2755.75   7
   2  -3   4 88696.7 4783.63   1
   2   3   4 93375.0 5422.19   2
   2  -3   4 89838.2 3830.67   4
   2   3  -4 84013.2 6110.62   2
   2  -3   5 769.204 403.473   4
   2   3   5 276.834 351.855   2
  -2  -3   5 167.801 166.389   7
   2  -3   5 530.712 233.649   6
   2   3  -5-48.6567 383.329   2
   2  -3  -5 280.126 312.875   1
   2  -3  -5 324.872 134.880   5
   2  -3   5 719.059 447.926   1
   2   3  -6 1107.83 774.908   2
   2  -3   6 387.639 330.223   1
   2   3   6 268.835 330.745   2
   2  -3   6 729.736 425.932   4
  -2  -3  -6 1002.25 691.053   3
   2  -3  -6 491.064 212.911   5
   2  -3   6 275.934 207.726   6
  -2  -3   6 1338.13 389.010   7
   2  -3  -6 78.9425 202.785   1
  -2  -3  -7 19885.0 3200.29   3
   2  -3   7 19829.8 1527.85   6
   2  -3  -7 20293.0 1369.72   5
  -2  -3   7 22920.4 3662.71   4
   2  -3   7 24921.6 2618.82   4
   2   3   7 21100.5 2923.32   2
   2   3  -7 18364.7 3214.42   2
   2   3  -8 113401. 8393.24   2
  -2  -3  -8 133314. 8585.61   3
   2  -3   8 120776. 4003.25   6
   2   3   8 116828. 7280.14   2
   2  -3  -8 118192. 3538.50   5
  -2  -3   8 119234. 8611.57   4
   2  -3   8 132086. 6437.13   4
  -2  -3   9 1429.23 1010.16   4
  -2  -3  -9 1438.97 919.465   3
   2  -3   9 1907.90 553.973   6
   2  -3  -9 1793.57 405.398   8
   2  -3   9 340.415 381.294   4
   2   3   9 902.525 349.438  26
   2  -3  -9 2032.36 417.984  24
   2  -3   9 1517.85 430.297  21
  -2  -3   9 2235.38 635.741  19
   2   3  -9 2737.14 1349.07   2
   2  -3  -9 1843.53 444.284   5
   2  -3   9 2065.11 503.218  12
   2  -3   9 1830.35 452.243  17
   2   3 -10 332595. 15199.6   2
  -2  -3 -10 373152. 14921.7   3
   2   3  10 348959. 7034.98  26
  -2  -3  10 380420. 7640.50   6
   2  -3 -10 339035. 5314.38  24
  -2  -3 -10 306710. 6225.57  25
   2  -3  10 355084. 6489.85  21
   2  -3 -10 348411. 6661.48   5
  -2  -3  10 375492. 16180.6   4
   2  -3  10 370066. 6290.45  17
   2  -3 -10 352776. 5826.39   8
   2  -3  10 356163. 11936.0   4
   2  -3  10 362442. 7645.59   6
  -2  -3 -11 7046.86 985.338  25
   2   3  11 5618.26 919.748  26
   2  -3 -11 4732.46 806.755   5
   2  -3  11 4560.46 719.019  17
  -2  -3  11 4718.62 884.754   6
  -2   3  12 273544. 6472.37  26
  -2  -3  12 273594. 6491.27   6
   2   3  12 276223. 6479.15  26
  -2  -3 -12 264975. 5931.44  25
   2  -3 -12 270935. 6052.22   5
   2  -3  12 276281. 5402.86  17
  -2  -3  13 1102.50 376.529  22
  -2  -3  13 1554.83 472.546   6
  -2   3  13 941.464 399.078  26
   2   3  13 1298.83 474.275  26
  -2  -3 -13 1250.47 443.211  25
   2  -3  13 2073.35 583.653  19
   2  -3 -13 1174.71 399.419   5
   2  -3  13 1236.32 402.997  17
  -2   3  14 138335. 4403.36  26
   2   3  14 147336. 4421.21  26
  -2  -3  14 137445. 3879.57  22
  -2   3  14 146978. 5219.91  20
   2  -3 -14 157055. 4191.31   5
  -2  -3 -14 145993. 4072.86  25
   2  -3  14 139088. 3306.42  17
   2  -3  14 150903. 4361.19  19
  -2   3  15 277.847 197.722  26
   2   3  15 297.625 212.258  26
  -2  -3  15 302.727 170.021  22
   2  -3  15 433.467 193.183  22
  -2   3  15 381.191 270.092  20
   2  -3  15 182.759 200.613  19
  -2   3  16 30962.6 1609.99  26
   2   3  16 34576.0 1707.49  26
  -2   3  16 35372.3 1941.57  20
   2  -3  16 36556.2 1814.40  19
   2  -3  16 37100.7 1654.08  22
  -2  -3  16 35517.4 1521.77  22
  -2  -3 -16 37105.9 1394.82  24
  -2  -3  16 33235.9 1613.07  18
   2   3  17 204.791 110.340  26
   2  -3  17 66.6870 115.536  22
  -2  -3  17 39.7890 81.0747  18
   3  -3   0 101.073 209.040   1
   3   3   0 194.643 380.102   2
   3  -3  -1 4244.98 1128.31   1
   3  -3   1 5001.00 1215.71   1
   3   3   1 3521.05 1122.90   2
   3   3  -1 3446.35 1155.95   2
   3  -3  -2 21346.8 2530.37   1
   3  -3   2 18186.5 2297.54   1
   3   3   2 17132.5 2516.57   2
   3   3  -2 16667.5 2656.52   2
   3  -3  -3 5019.98 1246.61   1
  -3  -3   3 5019.10 658.041   7
   3  -3   3 5262.72 1257.24   1
   3   3   3 4456.66 1298.67   2
   3   3  -3 4261.90 1393.31   2
  -3  -3   4 25476.9 1560.63   7
   3  -3  -4 27161.4 2950.01   1
   3  -3  -4 27525.0 1292.44   5
   3   3   4 25947.8 3299.02   2
   3   3  -4 25558.4 3690.06   2
   3  -3   4 27749.0 2880.07   1
   3   3   5 358.548 408.950   2
   3  -3  -5 333.525 356.566   1
  -3  -3   5 7.04843 101.507   7
   3  -3   5 555.756 453.240   1
   3  -3   5-43.9827 129.554   6
   3  -3  -5 165.387 142.680   5
   3  -3   6 68885.3 4453.18   1
  -3  -3   6 69522.9 2830.64   7
   3  -3   6 71864.7 2806.01   6
   3  -3  -6 83238.1 5140.48   1
   3   3   6 81233.6 6086.97   2
   3  -3  -6 79389.1 2582.26   5
   3   3  -6 72180.7 6839.20   2
   3   3   7 23.0934 265.297   2
  -3  -3   7 280.509 219.852   7
   3  -3   7 3.54158 114.356   6
   3  -3  -7 215.724 182.792   5
  -3  -3  -8 57723.0 3081.19  14
   3   3   8 62330.8 2821.81  26
  -3  -3  -8 64001.9 6173.90   3
   3  -3   8 61182.6 2396.79  12
   3  -3   8 64625.0 2570.78  21
   3  -3  -8 64786.2 2518.56   8
   3  -3   8 67649.1 2683.80  17
   3   3   8 66109.0 5836.25   2
   3   3  -8 61270.2 6831.49   2
   3  -3  -8 63819.2 2645.57   5
   3  -3  -9 4282.33 673.148   8
   3  -3  -9 4122.82 712.737   5
  -3  -3  -9 5111.49 1754.99   3
  -3  -3   9 3999.12 676.074  22
   3  -3   9 5604.37 805.652  21
   3   3  -9 3134.35 1521.58   2
   3  -3   9 4207.70 665.002  12
   3   3   9 4287.86 766.970  26
   3  -3   9 4131.35 693.494  17
   3  -3 -10 5569.18 738.510   8
   3  -3  10 6628.61 832.117  12
   3   3  10 5432.25 887.049  26
  -3  -3  10 5054.77 784.689  22
   3  -3 -10 5144.36 824.366   5
   3  -3  10 5773.92 852.254  21
  -3  -3  10 6435.04 955.277  26
   3  -3  10 6355.19 886.422  17
  -3  -3  10 5489.75 878.317   6
   3  -3 -11 4818.64 651.215   8
  -3  -3  11 4615.72 764.170  26
   3   3  11 4861.71 864.105  26
  -3  -3 -11 3828.03 748.153  25
   3  -3  11 4301.45 765.306  21
  -3  -3  11 4055.25 703.989  22
   3  -3 -11 3846.02 711.575   5
   3  -3  11 4758.04 760.722  17
  -3  -3 -12 18654.1 1583.37  25
  -3  -3  12 18290.5 1539.61  26
  -3  -3  12 17942.4 1427.97  22
   3   3  12 19191.3 1710.84  26
   3  -3 -12 19207.5 1584.56   5
  -3   3  12 18490.7 1956.48  20
   3  -3  12 19618.5 1485.99  17
  -3  -3  13 338.462 213.432  26
  -3   3  13 454.371 265.873  26
   3   3  13 360.885 271.225  26
  -3   3  13 253.492 291.609  20
   3  -3  13 288.463 243.421  19
  -3  -3 -13 68.2717 180.252  25
   3  -3 -13 247.188 205.367   5
  -3  -3  13 125.000 147.472  22
   3  -3  13 197.588 203.164  17
  -3  -3 -14 15839.7 1281.99  25
  -3   3  14 14155.7 1329.03  26
   3   3  14 14871.6 1351.46  26
   3  -3  14 13258.5 1040.45  17
  -3  -3  14 15748.3 1129.11  22
   3  -3  14 15492.3 1185.78  22
   3  -3 -14 15783.6 1272.24   5
  -3   3  14 14501.1 1579.08  20
   3  -3  14 16118.9 1306.87  19
  -3  -3 -15 599.765 203.665  25
  -3  -3  15 637.372 315.955  18
   3  -3  15 377.074 182.880  22
   3  -3  15 604.193 266.607  19
   3  -3 -15 1166.73 303.647   5
  -3   3  15 650.458 300.546  20
   3   3  15 775.839 281.175  26
   3  -3  15 650.540 215.078  17
   3   3  16 14708.7 981.779  26
   3  -3  16 12749.6 751.895  22
  -3   3  16 15663.7 1169.70  20
   3  -3  16 15828.3 1018.85  19
  -3  -3  16 15873.8 1036.51  18
   4  -3   0 121120. 6533.71   1
   4   3   0 118063. 7325.21   2
   4   3  -1 353.383 441.366   2
   4  -3   1 1829.78 807.032   1
   4  -3  -1 626.114 516.887   1
   4   3   1 241.091 331.805   2
   4  -3  -2 53180.1 4361.18   1
   4  -3   2 53525.4 4397.43   1
   4   3   2 55545.5 5100.10   2
   4   3  -2 51623.3 5122.78   2
   4  -3  -3 4084.07 1230.58   1
   4  -3   3 4735.21 1313.35   1
  -4  -3   3 6062.13 753.769   7
   4   3   3 3637.08 1371.53   2
   4   3  -3 3904.75 1462.77   2
  -4  -3   4 21845.7 1501.69   7
   4  -3   4 19353.2 2631.85   1
   4   3   4 22271.2 3334.18   2
   4   3  -4 22106.5 3616.78   2
   4  -3  -4 26645.3 3140.88   1
  -4  -3  -5 8128.22 1075.80  14
   4   3   5 9958.99 2245.96   2
   4  -3  -5 10225.9 1961.13   1
   4  -3   5 10897.7 1933.92   1
   4  -3  -5 9689.63 893.738   5
   4   3  -5 10758.9 2640.64   2
   4  -3  -5 10235.6 1001.64   8
  -4  -3   5 10253.4 1065.34   7
   4  -3  -6 357.990 195.594   5
   4  -3  -6 298.774 271.559   8
   4   3   6-1065.37 760.498   2
  -4  -3  -6 87.1397 169.396  14
   4  -3   6-138.415 138.527  13
  -4  -3   6 1000.07 381.859  26
   4  -3  -6-210.242 334.011   1
   4   3  -6 938.512 886.912   2
  -4  -3   6 833.788 357.128   7
   4  -3   6 53.0449 250.780  17
   4  -3  -7 575.856 292.512   8
   4   3   7 43.5309 484.187   2
  -4  -3  -7-274.561 249.566  14
   4  -3   7 109.196 164.383  21
   4  -3   7 162.331 169.844  13
  -4  -3   7 193.647 207.413  26
   4   3   7 519.745 288.322  26
   4  -3  -7 204.821 192.418   5
   4   3  -7 434.642 623.769   2
   4  -3   7 296.643 243.304  17
   4  -3  -8 2942.82 571.347   8
  -4  -3  -8 2244.19 607.740  14
   4  -3   8 2971.49 565.351  13
  -4  -3   8 2834.63 662.198  26
   4  -3   8 2765.10 540.084  12
   4   3   8 2635.65 594.008  26
   4  -3   8 2774.12 590.870  21
   4  -3  -8 2480.21 534.100   5
   4  -3   8 2710.21 593.379  17
   4   3   9 208.764 224.701  26
   4  -3   9 89.6559 237.873  12
   4  -3  -9 375.450 237.498   8
  -4  -3  -9-234.886 254.998  14
  -4  -3   9 422.451 323.250  26
   4  -3   9 658.973 336.631  21
  -4   3   9-515.485 382.190  20
   4  -3  -9 29.7431 144.744   5
   4  -3   9 147.557 257.552  17
  -4  -3  10 55670.5 2933.51  26
   4   3  10 56747.2 2941.88  26
   4  -3  10 55481.8 2591.47  21
   4  -3  10 58201.2 2416.43  12
   4  -3 -10 54847.7 2650.20   5
  -4   3  10 53844.3 3271.55  20
   4  -3 -10 57484.4 2406.05   8
   4  -3  10 60245.4 2741.55  17
   4  -3 -11 673.009 311.661   8
  -4  -3  11 407.804 251.419  26
   4   3  11 932.968 352.417  26
   4  -3  11 455.717 306.063  21
  -4   3  11-69.9196 224.427  20
   4  -3 -11 997.196 365.083   5
   4  -3  11 835.954 412.484  17
   4   3  12 56059.4 2793.00  26
  -4  -3  12 51403.2 2587.51  26
  -4  -3 -12 52717.4 2534.60  25
   4  -3 -12 51105.1 2439.64   5
  -4   3  12 49406.5 3040.45  20
   4  -3  12 53269.5 2414.86  17
  -4  -3  13 5405.13 761.352  26
   4  -3  13 5803.00 752.141  17
   4   3  13 5465.23 823.332  26
  -4  -3 -13 6409.13 829.830  25
  -4   3  13 5344.16 927.410  20
   4  -3 -13 4756.01 704.646   5
   4  -3  13 5617.25 740.523  19
  -4  -3  14 15842.4 1256.78  18
  -4  -3  14 13854.8 1044.40  26
   4   3  14 17381.4 1299.33  26
  -4  -3 -14 18601.8 1216.87  25
  -4   3  14 17022.2 1497.68  20
   4  -3 -14 17584.8 1214.71   5
   4  -3  14 17333.1 1175.91  19
   4  -3  14 16047.6 1083.79  17
  -4  -3  15 968.206 294.744  18
   4   3  15 825.186 262.453  26
  -4   3  15 857.178 303.214  20
   4  -3  15 568.817 204.444  19
   4  -3  15 734.508 221.183  17
  -4   3  16 22246.0 1119.98  20
  -4  -3  16 23595.2 1001.43  18
   5  -3   0 88.3037 128.093   8
  -5  -3   0-155.355 188.295  14
   5   3   0-107.555 254.745   2
  -5  -3   0 310.240 254.457  26
   5  -3   1-284.284 165.154   8
   5  -3  -1 457.064 235.066   8
  -5  -3  -1-197.199 208.815  14
  -5  -3   1-285.248 231.873  14
   5   3   1-312.471 498.064   2
  -5  -3   1-32.7352 142.052  26
   5   3  -1 51.8866 255.751   2
   5  -3  -1-275.570 371.365   1
   5  -3   1-394.152 431.320   1
  -5  -3  -2 128244. 4315.09  14
  -5  -3   2 133481. 4108.16  14
  -5  -3   2 139093. 3692.80   7
   5  -3  -2 130977. 7422.19   1
   5  -3   2 124972. 7251.62   1
  -5  -3   2 123985. 4430.95  26
   5  -3   2 129094. 3768.30  23
   5  -3   2 108645. 3000.05  10
   5   3   2 126843. 8363.18   2
   5   3  -2 123059. 8366.00   2
   5  -3  -2 125604. 3502.38   8
   5  -3   3 13373.5 2343.83   1
  -5  -3  -3 14634.0 1480.79  14
  -5  -3   3 12193.8 1216.59  14
  -5  -3   3 12914.6 1137.27   7
  -5  -3   3 13243.1 1464.46  26
   5   3   3 12712.7 2612.38   2
   5  -3   3 12155.6 1011.71  10
   5  -3   3 13873.7 1266.94  23
   5   3  -3 14044.1 2865.06   2
   5  -3  -3 12844.3 1162.22   8
   5  -3   3 12686.4 1083.34  17
   5  -3  -3 11547.8 2201.81   1
  -5  -3  -4 385352. 7703.14  14
  -5  -3   4 419265. 7049.75  14
   5  -3  -4 451131. 13709.4   1
  -5  -3   4 375633. 7953.88  26
   5  -3   4 429741. 13161.0   1
   5  -3   4 396745. 5892.31  10
   5  -3   4 420237. 7066.91  23
   5   3   4 441310. 15746.0   2
   5   3  -4 455052. 17148.8   2
   5  -3  -4 403869. 6621.62   8
   5  -3   4 397848. 6268.15  17
   5  -3  -5 2746.54 560.102   8
   5  -3  -5 1496.74 820.559   1
   5   3   5 802.449 755.090   2
  -5  -3  -5 1655.22 519.377  14
  -5  -3   5 1195.84 360.355  14
   5  -3   5 342.686 480.702   1
  -5  -3   5 2058.64 596.690  26
   5  -3   5 1420.81 381.657  13
   5  -3   5 1245.45 441.171  23
   5   3  -5 457.718 609.574   2
   5  -3  -5 1539.01 368.770   5
   5  -3   5 1088.51 325.241  10
   5  -3   5 1372.87 439.363  17
  -5  -3  -6 471383. 8625.30  14
  -5  -3   6 492897. 7456.10  14
  -5  -3   6 455541. 8849.84  26
   5  -3   6 472676. 6956.39  13
   5  -3  -6 516644. 7174.70   5
  -5   3   6 447854. 8213.28  20
   5  -3  -6 492367. 7367.35   8
   5  -3   6 493924. 7479.51  17
   5  -3  -7 1746.15 464.773   8
  -5  -3  -7 1437.22 487.156  14
  -5  -3   7 1793.24 439.445  14
   5  -3   7 1914.44 452.613  13
  -5  -3   7 1543.92 527.527  26
   5   3   7 1483.72 492.542  26
  -5   3   7 1406.13 526.071  20
   5  -3   7 1406.65 427.881  21
   5  -3  -7 1358.63 407.875   5
  -5  -3   7 1995.99 560.250  18
   5  -3   7 1313.39 409.123  17
  -5  -3  -8 191337. 5501.64  14
  -5  -3   8 185238. 5607.66  26
   5  -3   8 181850. 4519.47  13
   5   3   8 184491. 5225.90  26
   5  -3   8 185378. 4369.13  12
   5  -3  -8 193734. 4724.55   5
  -5  -3   8 170703. 4795.95  18
   5  -3   8 181431. 4536.89  21
  -5   3   8 178237. 5440.50  20
   5  -3  -8 187013. 4505.01   8
   5  -3   8 197895. 4928.04  17
   5  -3  -9 866.442 334.749   8
  -5   3   9 582.048 366.542  20
  -5  -3  -9 729.588 353.025  14
   5  -3   9 1139.15 336.955  12
   5   3   9 851.457 397.322  26
   5  -3  -9 694.401 297.876   5
   5  -3   9 664.405 305.615  21
  -5  -3   9 880.460 403.399  26
  -5  -3   9 1097.55 392.939  18
   5  -3   9 901.529 391.514  17
  -5  -3  10 54818.7 2861.12  26
   5   3  10 53887.6 2765.81  26
   5  -3  10 55709.9 2280.77  12
   5  -3  10 54410.3 2489.45  21
  -5   3  10 48240.0 2820.29  20
  -5  -3  10 48842.9 2521.26  18
   5  -3 -10 53337.7 2229.06   8
   5  -3  10 56922.3 2592.55  17
   5  -3 -10 52135.0 2428.92   5
   5   3  11 4210.56 757.778  26
  -5  -3  11 4052.16 727.953  26
   5  -3 -11 4483.80 682.991   5
  -5   3  11 4223.23 831.046  20
  -5  -3  11 4386.92 723.100  18
   5  -3 -11 4520.84 601.635   8
   5  -3  11 4423.71 710.740  21
   5  -3  11 4673.87 732.750  17
   5   3  12 885.720 340.262  26
  -5  -3  12 878.770 319.560  26
  -5  -3 -12 1164.70 359.215  25
  -5   3  12 815.718 360.825  20
  -5  -3  12 1543.27 426.012  18
   5  -3 -12 1189.13 341.223   5
   5  -3  12 1202.76 358.467  17
  -5  -3  13 1154.65 325.932  18
   5   3  13 1212.92 324.439  26
  -5   3  13 1574.86 452.195  20
  -5  -3  13 618.287 286.629  26
   5  -3  13 1219.50 285.668  19
  -5  -3 -13 1597.71 359.815  25
  -5  -3  13 1413.33 318.769   9
   5  -3 -13 1026.65 285.879   5
   5  -3  13 1253.57 320.462  17
   5   3  14 50909.3 1792.46  26
  -5  -3 -14 54043.3 1560.32  25
  -5   3  14 50973.9 2092.82  20
  -5  -3  14 52460.2 1795.69  18
   5  -3  14 51580.3 1673.17  17
  -6  -3   0 125142. 4495.69  14
   6  -3   0 119166. 3406.60   8
   6  -3   1 4079.73 625.271   8
   6  -3  -1 3847.99 627.343   8
  -6  -3  -1 4214.75 832.333  14
  -6  -3   1 4430.22 840.378  14
  -6  -3   1 3199.69 769.698  26
   6  -3   1 5224.86 840.544  23
   6  -3   1 4458.18 667.345  10
  -6  -3  -2 163599. 5231.81  14
  -6  -3   2 173171. 5104.92  14
  -6  -3   2 165693. 5533.68  26
   6  -3   2 176286. 4784.36  23
   6  -3   2 163106. 4019.07  10
   6  -3  -2 170583. 4306.81   8
  -6  -3  -3 6690.66 1071.73  14
  -6  -3   3 7114.31 1031.05  14
  -6  -3   3 7530.80 1192.64  26
   6  -3   3 6727.03 823.400  10
   6  -3   3 6911.31 970.362  23
   6  -3  -3 6741.71 883.774   8
  -6  -3  -4 48108.9 2808.79  14
  -6  -3   4 49517.7 2594.99  14
  -6  -3   4 48895.9 3037.94  26
   6  -3   4 47170.6 2216.93  13
   6  -3   4 48351.8 2213.30  10
   6  -3   4 51684.0 2630.12  23
   6  -3  -4 48179.4 2342.42   8
   6  -3   4 45497.5 2103.97  17
   6  -3  -5 2769.41 591.703   8
   6  -3   5 2608.36 550.319  17
  -6  -3  -5 2295.59 590.780  14
  -6  -3   5 3212.52 640.165  14
   6  -3   5 3007.44 564.097  13
  -6  -3   5 2943.53 752.073  26
   6  -3   5 2869.94 638.318  23
   6  -3  -5 3299.90 551.524   5
   6  -3   5 2761.62 552.947  10
   6  -3  -6 688.096 348.888   8
  -6  -3  -6 203.524 252.960  14
  -6  -3   6 600.456 295.907  14
   6  -3   6 490.702 249.450  13
  -6  -3   6 412.376 341.174  26
   6  -3   6 518.002 282.086  17
   6  -3  -7 537.449 290.392   8
  -6  -3  -7 445.569 276.169  14
  -6  -3   7 803.693 326.846  14
   6  -3   7 1278.47 390.122  13
  -6  -3   7 149.135 235.505  26
   6  -3   7 667.128 306.439  21
   6  -3  -7 426.909 220.939   5
   6   3   7 336.929 310.293  26
   6  -3   7 363.686 241.151  17
  -6  -3  -8 8033.33 1034.35  14
  -6  -3   8 10018.7 970.725  14
  -6  -3   8 9718.79 1253.08  26
   6  -3   8 8056.11 921.213  13
   6   3   8 8466.97 1068.38  26
   6  -3   8 9592.30 966.743  12
   6  -3  -8 8852.35 939.932   5
   6  -3   8 8235.43 942.702  21
  -6   3   8 9630.42 1132.16  20
   6  -3  -8 9210.53 957.109   8
   6  -3   8 8553.60 967.342  17
   6  -3   9 4787.72 661.603  12
   6  -3   9 3859.57 657.901  21
  -6   3   9 4171.46 740.298  20
  -6  -3   9 3973.24 751.398  26
   6  -3  -9 3593.15 581.648   5
   6  -3  -9 4123.11 618.115   8
   6   3   9 3805.82 694.499  26
   6  -3   9 4535.51 698.181  17
  -6  -3  10 109611. 3656.23  26
   6   3  10 108638. 3475.75  26
   6  -3  10 118103. 2869.68  12
   6  -3  10 107493. 3171.17  21
  -6   3  10 101709. 3465.03  20
   6  -3 -10 104480. 3030.06   5
   6  -3 -10 110314. 2815.28   8
   6  -3  10 105616. 3167.57  17
   6  -3 -11 521.990 183.774   8
  -6  -3  11 200.093 159.022  26
   6   3  11 579.775 244.866  26
   6  -3  11 331.469 211.890  21
  -6   3  11-62.9819 166.178  20
  -6  -3 -11 300.096 209.829  25
  -6  -3  11 358.675 171.772  18
   6  -3  11 371.752 234.343  17
   6  -3 -11 388.094 183.596   5
  -6   3  12 108207. 3283.85  14
  -6  -3  12 94451.0 2543.99  26
   6   3  12 113775. 2865.18  26
  -6   3  12 105164. 2952.88  20
  -6  -3  12 104617. 2577.41   9
  -6  -3 -12 119202. 2547.08  25
   6  -3  12 108783. 2662.94  17
   6   3  13 63.1965 76.1762  26
  -6   3  13 210.795 143.245  14
  -6  -3  13 201.061 126.096   9
  -6   3  13 108.017 108.129  20
   6  -3  13 440.570 167.141  17
  -7  -3   0 78.6933 210.724  14
   7  -3   0 59.0353 227.378  23
   7  -3   0 167.440 164.423  10
   7  -3   0 158.732 221.698   8
   7  -3  -1 3474.25 590.738   8
  -7  -3  -1 4495.89 879.792  14
  -7  -3   1 4493.86 854.167  14
   7  -3   1 4012.00 722.187  23
   7  -3   1 4377.53 667.193  10
   7  -3  -1 3813.23 696.616  23
   7  -3  -1 4213.90 660.508  10
   7  -3  -2-141.552 206.049   8
  -7  -3  -2 104.843 270.483  14
  -7  -3   2 315.361 319.054  14
  -7   3   2 689.444 329.458  14
  -7  -3   2 373.942 262.074   9
   7  -3   2 854.360 362.122  23
   7  -3   2 634.018 264.502  10
   7  -3  -3 2712.86 529.484   8
  -7  -3  -3 2378.51 631.035  14
  -7  -3   3 2223.46 573.158  14
  -7   3   3 2957.40 733.253  14
   7  -3   3 2618.50 513.363  13
  -7  -3   3 2730.86 571.325   9
   7  -3   3 2617.27 570.857  23
   7  -3   3 2304.76 483.758  10
   7  -3  -4 796.379 344.871   8
   7  -3  -4 346.717 172.073   5
  -7  -3  -4 302.668 255.518  14
  -7  -3   4 704.153 347.539  14
  -7   3   4 555.940 333.353  14
   7  -3   4 1084.34 333.199  13
  -7  -3   4 933.062 379.088  26
   7  -3   4 1090.19 376.862  23
   7  -3   4 698.974 272.040  10
   7  -3  -5 207.235 178.381   8
  -7  -3  -5 119.074 199.039  14
  -7  -3   5 137.657 185.336  14
  -7   3   5 171.633 182.206  14
   7  -3   5 193.299 166.610  13
  -7  -3   5 505.521 319.352  26
   7  -3  -5 308.375 166.084   5
   7  -3  -6 1152.12 360.471   8
  -7  -3  -6 859.677 340.031  14
  -7  -3   6 1282.02 401.271  14
  -7   3   6 427.565 349.829  14
   7  -3   6 989.334 322.607  13
   7   3   6 1077.28 398.738  26
   7  -3   6 1359.19 365.347  21
   7  -3  -6 894.725 269.608   5
  -7  -3   6 1396.62 467.071  26
   7  -3   6 1361.87 349.854  17
   7  -3  -7 435.617 221.160   8
  -7  -3  -7 151.990 152.019  14
  -7  -3   7 534.338 241.040  14
  -7   3   7-464.034 299.286  14
   7  -3   7 241.894 174.488  13
   7  -3   7 247.934 209.531  21
   7   3   7-27.2692 132.731  26
  -7  -3   7 211.308 214.500  26
   7  -3   7 302.033 258.836  12
   7  -3  -7 532.562 221.225   5
   7  -3   7 338.826 235.896  17
   7  -3  -8 452.929 242.225   8
  -7  -3   8 166.321 139.890  14
  -7   3   8-198.162 216.243  14
  -7  -3   8 458.840 258.379  26
   7   3   8 1582.74 394.721  26
   7  -3   8 483.026 224.725  12
   7  -3   8 449.068 218.142  21
   7  -3  -8 389.092 173.506   5
   7  -3   8 1046.10 300.008  17
  -7   3   9 319.056 236.799  14
   7   3   9 633.795 259.892  26
   7  -3   9 733.254 226.695  12
   7  -3   9 829.012 268.212  21
  -7  -3   9 316.448 202.592  26
   7  -3   9 473.676 197.264  17
  -7   3  10 454.166 232.448  14
   7   3  10 826.421 244.180  26
  -7  -3 -10 439.064 169.706  25
   7  -3  10 386.407 182.899  21
  -7  -3  10 665.105 228.628   9
  -7  -3  10 191.998 136.769  26
   7  -3  10 335.933 172.218  17
  -7   3  11 265.536 163.321  14
   7   3  11 437.097 146.936  26
  -7  -3  11 162.584 131.907   9
   7  -3  11 348.485 138.017  17
  -8  -3   0 243651. 5428.97  14
   8  -3   0 254938. 4223.52  10
   8  -3   0 255027. 4797.51  23
  -8  -3  -1 338.872 254.072  14
  -8  -3   1 383.775 264.046  14
   8  -3   1 270.119 161.647  13
   8  -3   1 126.326 155.712  23
   8  -3  -1 302.228 198.972  23
   8  -3  -1 451.212 181.711  10
   8  -3   1 535.049 203.109  10
  -8  -3  -2 119492. 3646.03  14
  -8  -3   2 115647. 3652.62  14
   8  -3   2 122114. 2851.34  13
   8  -3   2 120556. 2887.79  10
   8  -3   2 124087. 3309.48  23
   8  -3  -2 123599. 3298.18  23
   8  -3  -2 122674. 2900.24  10
  -8  -3  -3 4350.45 690.235  14
  -8  -3   3 4127.01 679.624  14
   8  -3   3 4200.46 525.391  13
   8  -3  -3 4573.95 633.177  23
   8  -3  -3 4901.16 582.107  10
  -8  -3  -4 36863.6 1818.76  14
  -8  -3   4 40539.4 1967.65  14
  -8   3   4 38786.9 1870.90  14
   8  -3   4 39104.7 1557.60  13
   8  -3  -4 42558.6 1853.35  23
   8  -3  -4 38171.4 1549.81  10
   8  -3   4 38917.1 1551.23  21
   8   3   4 39835.5 1844.51  26
   8   3   5 135.330 141.676  26
  -8  -3  -5 261.476 165.646  14
  -8  -3   5 887.896 285.641  14
  -8   3   5 611.104 253.459  14
   8  -3   5 170.627 123.645  13
   8  -3  -5 522.541 186.037  10
   8  -3  -5 25.7716 122.172  23
   8  -3   5 294.649 155.859  21
   8  -3   5 195.056 170.674  12
  -8  -3   5 142.152 158.915   9
   8  -3  -6 1047.40 240.109  10
  -8  -3  -6 938.363 237.542  14
  -8  -3   6 800.827 248.596  14
  -8   3   6 803.235 269.323  14
   8  -3   6 1061.55 235.349  13
   8   3   6 1063.41 279.221  26
   8  -3   6 694.438 236.390  12
   8  -3  -6 929.624 255.308  23
   8  -3   6 841.084 234.489  21
  -8  -3   6 1266.26 279.855   9
  -8  -3   7 6514.30 555.541  14
  -8   3   7 7585.18 754.990  14
   8   3   7 8063.63 684.172  26
   8  -3   7 8150.01 600.235  12
   8  -3  -7 8749.81 689.227  23
   8  -3  -7 6858.88 520.539  10
   8  -3   7 7912.88 606.000  21
  -8  -3   7 7989.85 622.568   9
  -8   3   8 35187.0 1427.66  14
   8   3   8 34078.4 1223.88  26
   8  -3  -8 35989.0 1209.25  23
  -8  -3   8 35091.4 1152.83   9
  -9  -3   0 160.895 77.3775  14
   9  -3   0 341.914 119.429  12
  -9  -3  -1-57.5797 89.3943  14
  -9  -3   1 72.2815 93.7074  14
   9  -3   1 139.161 85.6144  12
  -9  -3   2 42765.0 1447.96  14
   9  -3  -2 46327.9 1289.59  23
   0  -4   0 214354. 8189.84   1
   0  -4   0 230058. 7294.80   3
   0  -4   1 488825. 5608.54   7
   0  -4  -1 520573. 11737.0   3
   0  -4  -1 494498. 12528.9   1
   0  -4   1 489693. 12365.7   1
   0  -4   2 14176.8 1022.35   7
   0  -4  -2 15872.7 2209.03   3
   0  -4   2 13842.2 2082.50   1
   0  -4  -2 15911.1 2257.16   1
   0  -4   3 230926. 4380.23   7
   0  -4  -3 266439. 9618.92   3
   0  -4  -3 265597. 9171.69   1
   0  -4   3 241341. 8711.77   1
   0  -4  -4 15493.7 2226.21   1
   0  -4  -4 17333.0 2544.50   3
   0  -4   4 12982.9 1138.41   7
   0  -4   5 10993.4 2095.04   4
   0  -4  -5 13554.7 2376.51   3
   0  -4   5 10731.6 1075.00   7
   0  -4  -5 12214.2 877.459   5
   0  -4  -6 35107.0 4003.71   3
   0  -4  -6 33381.0 1590.94   5
   0  -4   6 40144.5 4186.48   4
   0  -4  -7 23818.8 3413.40   3
   0  -4  -7 21921.1 1379.13   5
   0  -4   7 21316.0 3085.33   4
   0  -4   8 1395.23 872.733   4
   0  -4  -8 1195.63 377.276   8
   0  -4  -8 3943.58 1430.78   3
   0  -4  -8 3319.74 544.418  25
   0  -4   8 3120.93 560.793  12
   0  -4   8 1452.27 454.796  22
   0  -4  -8 1421.86 452.965   9
   0  -4  -8 1567.95 414.914   5
   0  -4   8 1635.60 501.756  18
   0  -4   8 2105.67 492.356  17
   0  -4   9 83414.4 2961.61  12
   0  -4   9 81288.3 3836.62   6
   0  -4   9 76958.7 3199.93  22
   0  -4   9 78878.0 3163.80  19
   0  -4   9 72379.9 3130.79  18
   0  -4   9 72727.8 6205.71   4
   0  -4   9 76562.3 2774.83  17
   0  -4  -9 81386.8 2781.74  25
   0  -4  -9 70530.0 2845.97   8
   0  -4 -10 23780.1 1556.30  25
   0  -4  10 23809.0 2137.27   6
   0  -4  10 21474.7 1738.14  22
   0  -4  10 22524.2 1759.12  19
   0  -4  10 20976.1 1728.29  18
   0  -4 -10 20914.2 1525.25   8
   0  -4  11 351013. 8288.29   6
   0  -4  11 347506. 7133.90  19
   0  -4  11 336470. 6821.31  18
   0  -4 -11 367103. 6178.01  25
   0  -4 -11 324264. 5966.28   8
   0  -4  11 357837. 7177.23  22
   0  -4  12 138951. 5167.57   6
   0  -4 -12 143106. 3678.97  24
   0  -4  12 141041. 4503.60  22
   0  -4  12 139042. 4548.92  19
   0  -4  12 139010. 4263.32  18
   0  -4  13 169840. 5498.18   6
   0  -4 -13 174104. 3789.34  24
   0  -4  13 165475. 4755.07  22
   0  -4  13 175265. 4375.08  18
   0  -4 -14 75866.4 2262.20  24
   0  -4  14 71101.1 2899.61  22
   0  -4  14 73253.8 2467.80  18
   0  -4  15 75342.9 2329.43  16
   0  -4 -15 81082.4 1971.94  24
   0  -4  15 77596.3 2686.31  22
   0  -4  16 3470.80 389.003  16
   0   4  16 2838.93 451.902  20
   0  -4  16 3970.83 511.363  22
  -1  -4   0-248.275 333.196   3
   1  -4   0-96.2844 271.037   1
  -1  -4   1 16087.1 1061.25   7
  -1  -4  -1 14626.4 2117.10   3
  -1  -4   1 16023.6 1840.94   3
   1  -4  -1 11944.9 2003.56   1
   1  -4   1 11820.9 1973.48   1
   1  -4   2 3313.45 489.203   7
  -1  -4   2 2711.53 464.830   7
   1  -4  -2 3029.00 988.622   1
   1  -4   2 1877.45 772.546   1
  -1  -4   3 20750.3 1347.14   7
   1  -4   3 17340.5 1209.36   7
  -1  -4  -3 20512.1 2776.35   3
   1  -4  -3 21190.8 2669.55   1
   1  -4   3 18544.8 2437.83   1
   1  -4  -4 30079.1 3193.93   1
   1  -4   4 28511.0 3015.35   1
  -1  -4   4 31418.6 1780.06   7
  -1  -4  -4 35749.2 3781.31   3
   1  -4  -5 165573. 7319.60   1
   1  -4   5 166196. 7191.12   1
  -1  -4   5 162667. 4366.15   7
   1  -4  -5 151782. 3175.99   5
  -1  -4  -6 177623. 9173.24   3
  -1  -4   6 156869. 4483.44   7
   1  -4  -6 167015. 7109.31   1
   1  -4   6 175221. 7265.54   1
   1  -4  -6 153149. 3465.49   5
   1  -4   7 127835. 3680.91  15
   1  -4  -7 143231. 3459.98  24
  -1  -4  -7 155163. 8814.31   3
   1  -4   7 137997. 4492.58   6
  -1  -4   7 144171. 8845.43   4
  -1  -4   7 136921. 4072.31  22
   1  -4  -7 139046. 3550.33   5
  -1  -4  -8 19720.6 1484.97   8
  -1  -4  -8 21809.8 3424.03   3
   1  -4   8 22762.9 1501.64  12
   1  -4   8 19686.6 1790.70   6
   1  -4  -8 20583.0 1327.72  25
   1  -4  -8 21157.5 1386.61  24
  -1  -4   8 19972.3 1616.63  22
   1  -4   8 22360.7 1662.08  22
   1  -4  -8 21562.4 1486.55   5
  -1  -4   8 19080.4 1607.63  19
  -1  -4  -8 19752.8 1356.94  25
  -1  -4   8 20901.8 1707.39  18
  -1  -4   8 21691.9 3542.28   4
   1  -4   8 20917.3 1521.42  17
   1  -4  -8 18268.1 1404.69   8
  -1  -4   9 31513.3 2157.86  19
  -1  -4   9 34776.2 2173.40  22
  -1  -4  -9 38253.8 4605.34   3
   1  -4   9 38368.3 2001.62  12
   1  -4   9 34773.0 2470.20   6
   1  -4  -9 35189.2 1803.28  25
  -1  -4  -9 35546.3 1903.83  25
   1  -4  -9 35750.5 1851.00  24
   1  -4   9 35074.7 2165.91  22
   1  -4  -9 38360.9 2068.89   5
  -1  -4   9 34776.6 2251.96  18
  -1  -4   9 36206.7 4718.87   4
   1  -4   9 32881.5 1933.75  17
   1  -4  -9 33972.6 1964.25   8
  -1  -4  -9 33251.4 1934.52   8
   1  -4 -10 543.435 318.533   8
  -1  -4 -10 1072.86 361.881   8
   1  -4  10 1014.89 377.423  12
  -1  -4 -10 620.089 256.422  25
   1  -4  10 1494.91 540.861   6
   1  -4 -10 890.950 352.272  24
   1  -4  10 774.366 322.689  22
   1  -4  10 701.927 340.222  19
  -1  -4  10 182.594 187.701  22
   1  -4 -10 1432.67 430.842   5
  -1  -4  10 1356.49 474.834  18
  -1  -4  10 1787.48 611.648   6
   1  -4  10 1311.11 421.650  17
  -1  -4  11 8239.14 1151.00  18
  -1  -4  11 8473.14 1290.53   6
   1  -4  11 8295.65 1258.66   6
  -1  -4 -11 8889.12 993.950  25
   1  -4 -11 9507.34 939.304  24
  -1  -4  11 9362.15 1165.88  22
   1  -4  11 9237.13 1168.95  22
   1  -4 -11 9669.79 1076.73   5
   1  -4  11 9275.05 1133.33  19
   1  -4  11 8814.31 981.199  17
   1  -4 -11 7819.28 932.299   8
  -1  -4 -11 7849.98 926.748   8
  -1  -4 -12 1609.59 417.466  25
  -1  -4  12 1268.23 461.470   6
   1  -4  12 2331.25 669.666   6
   1  -4 -12 1776.46 416.710  24
   1  -4  12 1505.77 496.807  22
   1  -4  12 1723.00 527.636  19
  -1  -4  12 1988.52 584.828  18
   1  -4  12 1358.78 360.265  17
  -1  -4  12 1656.96 529.463  22
  -1  -4  13 3280.45 761.694   6
  -1  -4 -13 2833.08 548.914  25
   1  -4 -13 2779.35 457.804  24
  -1  -4  13 2131.93 565.865  22
   1  -4  13 2343.85 589.568  22
   1  -4  13 2973.58 625.424  19
  -1  -4  13 2836.48 645.435  18
  -1  -4  14 9932.42 870.573  16
  -1  -4 -14 11170.6 903.258  24
  -1  -4  14 9345.11 1018.01  22
   1  -4  14 10220.6 1087.33  22
   1  -4  14 8827.57 1007.40  19
  -1  -4  14 10631.1 1064.63  18
   1  -4 -14 10688.3 785.373  24
  -1  -4  15 19421.9 981.017  16
  -1  -4 -15 19711.9 1027.87  24
   1  -4  15 19728.2 1328.34  22
  -1   4  15 19579.4 1630.18  20
  -1  -4  15 19228.2 1275.34  22
  -1  -4  15 19432.2 1181.26  18
   1  -4  16 19636.9 1009.58  16
  -1  -4 -16 17112.1 717.702  24
  -1  -4  16 18552.8 1003.11  22
   1  -4  16 20291.7 1095.77  22
  -1   4  16 15605.7 1122.42  20
  -1  -4  16 13846.6 705.121  18
   2   4   0 3373.64 956.506   2
   2  -4   0 5752.22 1420.64   1
   2   4   1 4666.60 1106.41   2
   2   4  -1 3743.38 1038.92   2
   2  -4  -1 5845.19 1425.85   1
   2  -4   1 4646.20 1307.53   1
  -2  -4   2 29761.1 1554.01   7
   2   4   2 27255.9 2674.77   2
   2  -4  -2 28370.9 3232.02   1
   2   4  -2 25613.6 2864.21   2
   2  -4   2 28098.1 3148.07   1
  -2  -4   3 22443.4 1425.35   7
  -2  -4  -3 24051.3 3204.51   3
   2   4   3 21024.5 2407.48   2
   2  -4  -3 20382.2 2776.78   1
   2  -4   3 17896.0 2523.15   1
   2   4  -3 22162.1 2790.28   2
  -2  -4   4 16913.7 1335.12   7
  -2  -4  -4 16129.6 2739.36   3
   2   4   4 15703.7 2129.84   2
   2  -4  -4 16706.2 2465.18   1
   2  -4   4 14858.8 2249.70   1
   2   4  -4 18852.7 2887.68   2
   2   4   5 4917.66 1230.66   2
  -2  -4   5 6222.19 884.433   7
   2  -4   5 5260.54 771.415   6
   2  -4  -5 4507.44 1237.22   1
   2   4  -5 5649.93 1675.31   2
   2  -4  -5 5144.82 606.853   5
   2  -4   5 4701.72 1252.61   1
  -2  -4  -5 6709.26 1822.44   3
   2  -4  -6 2924.87 985.096   1
   2   4   6 3144.93 1000.94   2
  -2  -4  -6 4226.69 1491.30   3
  -2  -4   6 2672.68 637.732   7
   2  -4   6 2940.90 612.674   6
   2   4  -6 1994.94 1043.53   2
   2  -4  -6 3452.91 550.532   5
   2  -4   7 866.667 379.992  15
   2  -4  -7 872.121 310.819   8
  -2  -4  -7 800.810 307.255   8
  -2  -4  -7 834.975 791.416   3
   2  -4   7 948.700 356.848  12
   2  -4   7 734.850 384.665   6
   2  -4  -7 1088.05 323.448  24
  -2  -4   7 578.218 284.565  22
   2  -4   7 988.008 342.432  22
   2  -4   7 1209.84 330.248  21
   2   4  -7 1115.54 865.615   2
   2  -4  -7 983.930 361.747   5
  -2  -4   7 997.004 435.919  18
   2  -4   7 1107.14 427.498  17
   2  -4  -8 1775.57 443.618   5
   2  -4  -8 2325.60 517.793   8
  -2  -4  -8 2224.49 544.830   8
  -2  -4  -8 2770.89 1250.40   3
   2  -4   8 2118.90 489.570  12
   2  -4   8 2026.67 563.358   6
   2  -4  -8 1929.20 452.125  24
  -2  -4   8 1754.68 512.732  22
   2  -4   8 1768.28 510.213  22
  -2  -4   8 1501.32 451.713   9
  -2  -4   8 3190.03 687.913  18
   2  -4   8 1801.20 502.752  17
  -2  -4  -9 11346.9 1138.27   8
   2  -4   9 11613.3 1079.81  12
   2  -4   9 11779.8 1424.86   6
  -2  -4  -9 11109.9 1094.22  25
   2  -4  -9 12340.5 1080.61  24
  -2  -4   9 11452.9 1256.98  22
   2  -4   9 12114.9 1255.68  22
   2  -4  -9 11682.8 1177.85   5
  -2  -4   9 12582.5 1215.67   9
  -2  -4   9 12103.8 1380.95  18
   2  -4   9 12412.6 1249.98  17
   2  -4  -9 11519.6 1164.63   8
  -2  -4 -10 11604.0 1122.38   8
   2  -4  10 13504.5 1177.88  12
   2  -4  10 11761.0 1448.15   6
  -2  -4  10 12381.2 1536.92   6
  -2  -4 -10 12487.4 1195.14  25
  -2  -4  10 10177.3 1188.52  22
   2  -4 -10 12594.9 1062.69  24
   2  -4  10 11752.4 1253.64  22
   2  -4 -10 11725.5 1198.21   5
  -2  -4  10 11984.2 1382.46  18
   2  -4  10 11190.4 1165.10  17
   2  -4 -10 11366.5 1133.59   8
   2  -4 -11 2882.84 551.814   8
  -2  -4 -11 3966.18 656.822  25
   2  -4  11 4273.33 670.085  12
  -2  -4  11 3322.66 807.748   6
   2  -4 -11 4197.72 611.100  24
  -2  -4  11 3321.75 675.707  22
   2  -4  11 3507.46 710.565  22
   2  -4 -11 3991.05 696.333   5
   2  -4  11 3191.86 635.116  19
  -2  -4  11 4034.66 827.257  18
   2  -4  11 3322.79 621.113  17
   2  -4 -12 4613.28 658.729   8
   2   4  12 3929.44 656.666  26
  -2  -4  12 4922.21 926.640   6
   2  -4  12 4702.84 802.346  22
  -2  -4  12 3920.51 712.897  22
   2  -4 -12 4577.12 710.264   5
   2  -4  12 4843.25 767.782  19
  -2  -4 -12 5513.73 772.052  25
   2  -4 -12 4804.07 589.273  24
  -2  -4  12 4476.76 818.522  18
   2  -4  12 5321.15 755.965  17
   2   4  13 10219.6 993.445  26
  -2  -4  13 13672.1 1386.57   6
  -2  -4 -13 14226.2 1170.50  25
  -2  -4  13 12599.0 1182.24  22
   2  -4  13 12953.5 1238.87  22
   2  -4 -13 13039.6 1131.74   5
   2  -4  13 13105.0 1201.30  19
  -2  -4  13 11358.6 1233.21  18
   2  -4  13 12503.8 1036.09  17
  -2  -4  14 1442.02 407.933  18
   2   4  14 1588.30 353.814  26
  -2  -4 -14 1311.67 340.608  25
   2  -4  14 1486.41 400.926  22
  -2   4  14 1433.36 511.641  20
   2  -4  14 1535.72 403.341  19
   2  -4  14 2012.75 373.989  17
  -2  -4  14 1318.79 357.129  22
  -2  -4 -15 4245.18 474.876  24
   2  -4  15 3723.29 519.606  22
  -2   4  15 3910.19 691.486  20
   2  -4  15 3588.64 513.365  19
  -2  -4  15 4343.21 579.320  18
  -2  -4  15 4264.81 518.340  22
   2  -4  16 664.260 191.320  16
   2  -4  16 553.270 157.738  22
  -2  -4 -16 841.623 166.935  24
  -2   4  16 585.021 220.266  20
  -2  -4  16 662.054 176.188  18
   3   4   0-1129.47 629.812   2
   3  -4   0 620.689 570.172   1
   3  -4  -1 41877.4 4114.56   1
   3  -4   1 36948.3 3864.17   1
   3   4   1 35604.5 3555.48   2
   3   4  -1 34304.3 3634.17   2
  -3  -4   2 3175.84 531.437   7
   3   4   2 1476.11 739.905   2
   3  -4  -2 1381.87 750.624   1
   3  -4   2 913.422 684.344   1
   3   4  -2 1793.85 853.499   2
  -3  -4   3 153682. 3871.73   7
   3  -4  -3 153112. 7898.56   1
   3  -4   3 147631. 7588.85   1
   3   4   3 144041. 7203.82   2
   3   4  -3 147995. 8334.33   2
  -3  -4   4 74679.6 2852.10   7
   3   4   4 67040.5 5020.59   2
   3  -4  -4 71675.7 5434.56   1
   3  -4   4 64530.0 4991.91   1
   3   4  -4 66868.8 5891.48   2
   3  -4   5 204709. 4586.17  15
  -3  -4  -5 231407. 5634.11  14
   3  -4   5 222609. 4900.81  17
  -3  -4   5 234723. 5399.41   7
  -3  -4   5 226431. 5539.52  18
   3  -4   5 222617. 4622.69  12
   3  -4  -5 216032. 4355.37  24
   3   4   5 219812. 9184.15   2
   3  -4  -5 225780. 9596.60   1
   3  -4   5 207956. 8749.90   1
   3   4  -5 229585. 11590.7   2
   3  -4  -5 220620. 4812.27   8
   3  -4   6 42822.5 2175.93  15
  -3  -4  -6 51002.8 2715.66  14
  -3  -4   6 51165.9 2676.67   7
  -3  -4  -6 56140.3 5682.63   3
   3  -4   6 49366.2 2232.14  12
   3  -4   6 47030.2 2430.78   6
   3  -4  -6 46934.4 2076.78  24
   3   4   6 52547.2 4475.47   2
  -3  -4   6 46617.4 2221.88  22
   3  -4  -6 47924.8 2081.33   5
   3  -4   6 49138.5 2045.83  21
   3  -4  -6 47257.2 4214.65   1
  -3  -4   6 45425.6 2570.58  18
   3   4  -6 49265.2 5561.07   2
   3  -4   6 48569.7 2353.18  17
   3  -4  -6 45815.6 2249.55   8
   3   4   7 225967. 9641.18   2
   3  -4   7 201991. 4887.36  15
  -3  -4  -7 223421. 5980.68  14
  -3  -4   7 235167. 5870.67   7
  -3  -4  -7 259817. 12364.8   3
   3  -4   7 223280. 4762.52  12
   3  -4   7 231581. 5669.40   6
   3  -4  -7 223391. 4514.15  24
  -3  -4   7 235890. 5182.62  22
   3  -4  -7 235977. 4917.72   5
   3  -4   7 236139. 4686.49  21
  -3  -4   7 218129. 5717.08  18
   3   4  -7 229696. 12584.3   2
   3  -4   7 237526. 5333.68  17
   3  -4  -7 227034. 5075.63   8
  -3  -4  -8 38312.5 2099.27   8
   3  -4   8 37705.1 1977.70  12
   3  -4   8 40390.7 2449.15   6
   3  -4  -8 37669.1 1851.92  24
  -3  -4   8 40175.7 2188.28  22
   3  -4   8 39599.7 1993.41  21
   3  -4  -8 40377.0 2117.60   5
  -3  -4   8 35356.3 2334.06  18
   3  -4   8 41244.4 2276.04  17
   3  -4  -8 37971.7 2099.38   8
  -3  -4  -9 91693.9 3194.62   8
   3   4   9 81910.0 3070.20  26
   3  -4   9 91226.8 3048.04  12
   3  -4  -9 90322.3 2835.50  24
  -3  -4   9 91787.9 3305.00  22
   3  -4   9 88648.0 3182.86  22
   3  -4   9 88807.7 3061.70  21
   3  -4  -9 90629.7 3260.06   5
  -3  -4   9 84996.6 3629.11  18
   3  -4   9 92946.4 3455.70  17
   3  -4  -9 83764.7 3119.21   8
  -3  -4 -10 56880.1 2432.10   8
   3   4  10 47573.5 2344.65  26
   3  -4  10 54881.3 2323.12  12
  -3  -4  10 57813.8 3103.20   6
  -3  -4 -10 52259.3 2431.88  25
   3  -4 -10 54061.2 2096.79  24
  -3  -4  10 56200.3 2550.74  22
   3  -4  10 53948.7 2491.53  22
   3  -4 -10 56960.8 2576.88   5
  -3  -4  10 53043.5 2537.89   9
  -3  -4  10 52129.9 2847.75  18
   3  -4  10 56206.0 2691.68  17
   3  -4 -10 50778.1 2373.41   8
   3   4  11 21748.5 1566.65  26
   3  -4  11 26340.5 1543.33  12
  -3  -4  11 25047.6 1936.92   6
  -3  -4  11 24645.9 1620.27  22
   3  -4  11 23507.3 1618.21  22
   3  -4 -11 25687.4 1698.01   5
  -3  -4  11 23832.5 1573.75   9
  -3  -4  11 22402.1 1847.35  18
   3  -4 -11 22757.9 1506.15   8
   3  -4  11 25407.2 1760.76  17
  -3  -4 -11 24888.0 1648.49  25
   3   4  12 4764.53 687.759  26
  -3  -4  12 5709.74 728.378  22
   3  -4  12 5631.11 758.878  22
   3  -4 -12 5559.08 756.410   5
  -3  -4 -12 6143.50 797.841  25
  -3   4  12 4641.48 981.364  20
   3  -4  12 5302.56 734.649  19
  -3  -4  12 5296.41 864.103  18
   3  -4 -12 4996.39 649.410   8
   3  -4  12 5170.11 751.867  17
   3   4  13 9052.46 883.785  26
  -3  -4 -13 12133.1 1019.85  25
  -3  -4  13 10222.9 866.917  22
   3  -4  13 9385.72 884.242  22
  -3   4  13 9466.81 1299.11  20
   3  -4 -13 10493.6 955.222   5
   3  -4  13 10306.8 951.812  19
  -3  -4  13 9855.08 1093.45  18
   3  -4  13 10050.8 919.567  17
   3   4  14 10085.4 809.716  26
   3  -4  14 12918.8 876.986  22
  -3  -4  14 12913.9 798.536  22
  -3  -4 -14 14655.4 996.535  25
  -3   4  14 12084.7 1276.35  20
   3  -4  14 11163.3 858.551  19
  -3  -4  14 13635.9 1116.30  18
   3  -4  14 13555.4 896.325  17
   3  -4  15 97265.4 2377.17  16
  -3  -4 -15 98681.1 2050.17  24
  -3   4  15 90070.8 2851.24  20
  -3  -4  15 97490.7 2434.89  18
  -4  -4   0 91377.4 3487.47  14
   4  -4   0 87286.3 6251.03   1
  -4  -4   0 82913.9 3079.50   9
   4   4   0 77074.2 5909.05   2
   4  -4   0 83408.5 2626.65   8
  -4  -4  -1 216764. 5481.30  14
  -4  -4   1 209240. 5205.50  14
   4  -4  -1 202875. 9525.57   1
   4  -4   1 213419. 9754.45   1
   4   4   1 190270. 9143.35   2
  -4  -4  -1 196893. 4519.78   9
  -4  -4   1 196123. 4859.34   9
   4   4  -1 187461. 9337.82   2
   4  -4  -1 197397. 4269.49   8
  -4  -4  -2 44177.3 2510.67  14
  -4  -4   2 44121.0 2320.70  14
  -4  -4   2 43436.8 2057.84   7
   4  -4  -2 44568.7 4464.33   1
   4  -4   2 41044.8 4270.28   1
   4   4   2 38223.0 4095.28   2
  -4  -4  -2 40697.9 1978.95   9
  -4  -4   2 40559.0 2274.31   9
   4   4  -2 41144.6 4501.40   2
   4  -4   2 42428.3 2047.44  17
   4  -4  -2 43705.9 2083.34   8
   4  -4   3 141607. 3719.33  15
  -4  -4  -3 157051. 4821.34  14
  -4  -4   3 150519. 4191.89  14
   4  -4  -3 165043. 8604.38   1
  -4  -4   3 156600. 4031.30   7
   4  -4   3 151499. 8133.10   1
   4  -4   3 144221. 3319.26  23
   4   4   3 130669. 7593.58   2
  -4  -4   3 152642. 4081.97  18
   4   4  -3 147388. 8850.05   2
   4  -4   3 137718. 3826.09  17
   4  -4  -3 147769. 3988.04   8
   4  -4   4 18446.5 1376.90  15
  -4  -4  -4 21029.1 1792.14  14
  -4  -4   4 21858.3 1553.76  14
  -4  -4   4 22803.7 1609.88   7
   4   4  -4 18715.9 3318.43   2
   4  -4   4 20833.0 1277.54  23
   4  -4  -4 20789.4 3054.72   1
   4  -4   4 19097.7 2810.24   1
   4   4   4 17897.0 2801.67   2
  -4  -4   4 21113.3 1614.78  18
   4  -4   4 20124.1 1504.57  17
   4  -4  -4 20775.4 1542.27   8
   4  -4   5 16670.6 1337.18  15
  -4  -4  -5 21648.3 1835.68  14
  -4  -4   5 21670.1 1644.50   7
   4  -4   5 21431.9 1534.46  12
   4   4   5 22060.8 3119.68   2
   4  -4  -5 20266.5 3010.87   1
   4  -4   5 22569.8 1402.19  21
   4  -4   5 18106.6 2694.90   1
  -4  -4   5 20353.9 1668.79  18
   4   4  -5 23518.6 3953.91   2
   4  -4   5 19969.3 1546.70  17
   4  -4  -5 19693.6 1530.51   8
   4  -4   6 5351.50 777.906  16
   4  -4   6 5239.15 770.756  15
  -4  -4  -6 6092.79 992.617  14
  -4  -4   6 5527.81 890.758   7
   4  -4   6 5889.96 813.549  12
   4  -4  -6 5718.46 725.110   5
   4  -4   6 5901.47 752.959  21
  -4  -4   6 5453.57 901.105  18
   4  -4  -6 5988.71 861.368   8
   4  -4   6 6119.97 889.374  17
   4  -4   7 10802.3 1106.30  15
  -4  -4  -7 11849.4 1371.53  14
   4   4   7 10887.9 1113.56  26
   4  -4   7 12975.6 1174.40  12
   4  -4  -7 12313.1 1128.06   5
   4  -4   7 12550.6 1121.58  21
  -4  -4   7 11889.2 1338.36  18
   4  -4  -7 14060.9 1289.87   8
   4  -4   7 13068.3 1311.94  17
  -4  -4  -8 13220.8 1455.73  14
   4   4   8 12170.4 1197.19  26
   4  -4   8 13400.9 1186.47  12
   4  -4  -8 13494.1 1211.01   5
   4  -4   8 13750.6 1190.76  21
  -4  -4   8 13331.0 1426.77  18
   4  -4  -8 13823.2 1278.23   8
   4  -4   8 14403.1 1396.88  17
  -4  -4  -9 87373.1 3057.38   8
   4   4   9 72964.2 2923.69  26
   4  -4   9 81991.1 2828.44  12
   4  -4   9 84016.6 2935.75  21
   4  -4  -9 85762.6 3054.81   5
  -4   4   9 70742.9 3651.11  20
  -4  -4   9 69107.2 3190.26  18
   4  -4  -9 83021.3 3031.19   8
   4  -4   9 85605.3 3335.22  17
  -4  -4 -10 58756.6 2340.36   8
   4   4  10 50730.2 2398.67  26
   4  -4  10 56178.7 2237.88  12
   4  -4 -10 55981.6 2448.72   5
  -4   4  10 50678.9 3060.28  20
  -4  -4  10 50281.6 2662.68  18
   4  -4 -10 56877.0 2407.81   8
   4  -4  10 58849.9 2708.92  17
   4   4  11 147842. 3897.12  26
   4  -4  11 171821. 3635.28  12
  -4  -4 -11 174585. 4127.73  25
   4  -4 -11 156499. 3918.64   5
  -4   4  11 148557. 5074.41  20
  -4  -4  11 161004. 4071.57   9
  -4  -4  11 162427. 4606.58  18
   4  -4 -11 154506. 3680.57   8
   4  -4  11 164196. 4303.48  17
   4   4  12 32755.2 1694.15  26
  -4  -4 -12 39403.6 1824.89  25
   4  -4 -12 36173.8 1736.20   5
  -4   4  12 35015.1 2291.32  20
  -4  -4  12 35038.9 1637.99   9
  -4  -4  12 34563.6 1967.04  18
   4  -4 -12 34781.9 1517.19   8
   4  -4  12 35887.8 1847.42  17
   4  -4  13 78678.8 2403.21  16
  -4   4  13 79322.8 3107.86  20
   4  -4 -13 84866.5 2374.16   5
  -4  -4  13 80343.1 2679.83  18
   4  -4  13 76888.5 2356.73  17
   4  -4  14 21362.4 1037.18  16
  -4  -4 -14 24178.3 1081.09  25
  -4   4  14 20255.0 1324.40  20
  -4  -4  14 21316.1 1163.13  18
   4  -4  14 20089.3 983.689  17
  -4   4  15 44710.0 1484.01  20
  -4  -4  15 48270.8 1297.77  18
   5  -4   0 37.6148 207.661   8
  -5  -4   0-56.1861 182.674  14
   5  -4   0 222.008 176.925  23
  -5  -4   0 305.065 249.426   9
  -5  -4  -1 18947.9 1758.90  14
  -5  -4   1 18449.3 1672.79  14
   5  -4   1 17972.8 1298.35  23
  -5  -4  -1 18953.2 1434.26   9
  -5  -4   1 17827.9 1519.94   9
   5  -4  -1 17641.8 1341.69   8
   5  -4   2 18087.5 1288.96  15
  -5  -4  -2 21984.9 1915.80  14
  -5  -4   2 21393.3 1751.07  14
  -5  -4   2 22732.6 1537.94   7
   5  -4   2 20558.8 1386.36  23
  -5  -4   2 19530.4 1622.21   9
   5  -4  -2 19838.1 1470.78   8
   5  -4   3 5030.01 692.375  15
   5  -4  -3 3935.07 696.548   8
  -5  -4  -3 3532.05 777.023  14
  -5  -4   3 4142.94 772.099  14
  -5  -4   3 4323.12 695.659   7
   5  -4   3 4623.07 664.760  23
  -5  -4   3 3922.72 767.834   9
   5  -4   3 3640.84 638.780  17
   5  -4   4 1165.96 378.613  15
   5  -4  -4 1489.31 448.789   8
  -5  -4  -4 1121.52 510.738  14
  -5  -4   4 1206.66 432.058  14
  -5  -4   4 1359.45 392.949   7
   5  -4   4 1425.76 369.255  23
   5  -4   4 1455.83 473.760  17
   5  -4   5 3708.19 600.308  15
   5  -4  -5 4191.57 705.321   8
  -5  -4  -5 5615.32 982.118  14
  -5  -4   5 4306.00 713.558  14
  -5  -4   5 6159.37 851.460   7
   5  -4   5 4040.51 710.164  12
   5  -4   5 4599.71 671.811  21
  -5  -4   5 3969.71 689.710  18
   5  -4   5 3914.69 705.601  17
   5  -4   6 500.297 331.105  15
   5  -4  -6 98.3314 225.380   8
  -5  -4  -6 96.5517 204.907  14
   5   4   6-48.2756 154.396  26
   5  -4   6 321.496 214.949  21
   5  -4  -6 147.846 142.223   5
   5  -4   6 289.463 251.600  12
  -5  -4   6 89.2446 235.953  18
   5  -4   6 885.589 401.119  17
  -5  -4  -7 5778.06 948.221  14
   5   4   7 5459.73 798.462  26
   5  -4   7 5972.18 803.265  12
   5  -4   7 7166.55 848.978  21
  -5  -4   7 6174.67 895.455  18
   5  -4  -7 5991.21 745.410   5
   5  -4  -7 6370.16 882.437   8
   5  -4   7 6018.66 871.660  17
   5  -4  -8 3473.89 638.573   8
  -5  -4  -8 2781.77 679.313  14
   5   4   8 3247.54 605.279  26
   5  -4   8 2991.67 555.049  12
   5  -4   8 3595.47 606.909  21
  -5   4   8 3443.08 740.905  20
   5  -4  -8 3573.77 580.940   5
  -5  -4   8 3283.74 654.714  18
   5  -4   8 3032.91 614.804  17
   5  -4  -9 3265.09 590.174   8
  -5  -4  -9 2880.64 534.561   8
   5   4   9 2710.25 528.744  26
   5  -4   9 3300.33 570.114  12
   5  -4   9 3152.87 555.283  21
  -5   4   9 2634.10 622.724  20
   5  -4  -9 2870.11 538.399   5
  -5  -4   9 3318.78 639.604  18
   5  -4   9 3419.96 676.008  17
   5  -4 -10 933.599 307.037   8
  -5  -4 -10 1410.55 330.718   8
   5   4  10 937.082 307.633  26
   5  -4  10 1042.88 306.238  12
   5  -4  10 1126.27 322.916  21
  -5   4  10 1524.94 465.225  20
   5  -4 -10 1343.93 328.958   5
  -5  -4  10 1352.98 411.272   9
  -5  -4  10 1006.46 339.789  18
   5  -4  10 1141.21 393.659  17
   5  -4 -11 2606.99 420.271   8
   5   4  11 2417.74 449.684  26
   5  -4  11 3209.36 435.400  12
  -5  -4 -11 3288.58 510.967  25
  -5   4  11 2418.67 531.498  20
  -5  -4  11 2886.10 520.302   9
   5  -4 -11 2660.29 434.062   5
  -5  -4  11 2450.16 485.401  18
   5  -4  11 2441.98 502.124  17
   5  -4 -12 2142.63 301.782   8
   5   4  12 1512.69 305.167  26
  -5  -4 -12 2472.63 391.905  25
  -5   4  12 1860.59 422.439  20
  -5  -4  12 1859.60 351.012   9
  -5  -4  12 2007.72 379.464  18
   5  -4  12 2291.29 428.036  17
  -5  -4 -13 878.575 204.254  25
  -5   4  13 638.746 215.366  20
  -5  -4  13 820.263 212.217  18
   5  -4  13 1227.73 269.893  17
  -6  -4   0 46018.9 2751.09  14
  -6  -4   0 46593.8 2088.43   7
   6  -4   0 46187.7 2150.49  23
  -6  -4   0 45740.3 2160.59   9
   6  -4   0 43664.4 2000.25   8
  -6  -4  -1 101097. 4103.27  14
  -6  -4   1 93907.9 3812.04  14
  -6  -4   1 102390. 3068.32   7
   6  -4   1 97133.8 3114.88  23
   6  -4  -1 94305.0 3092.50  23
  -6  -4   1 94978.6 3297.83   9
   6  -4   1 94401.6 2770.55   8
   6  -4  -1 91823.1 3018.30   8
  -6  -4  -2 28323.3 2185.40  14
  -6  -4   2 26545.5 1984.62  14
  -6  -4   2 28230.0 1621.93   7
   6  -4   2 26514.4 1635.72  23
  -6  -4   2 27115.9 1834.53   9
   6  -4  -2 22109.5 1531.33   8
  -6  -4  -3 42538.8 2653.49  14
  -6  -4   3 38672.6 2312.84  14
   6  -4   3 40381.1 1995.99  23
  -6  -4   3 38440.3 2230.55   9
   6  -4  -3 40179.9 2096.02   8
   6  -4  -4 802.289 303.444   8
  -6  -4  -4 377.232 298.599  14
  -6  -4   4 843.144 353.310  14
   6  -4   4 759.182 276.972  21
  -6  -4   4 217.421 260.195   9
   6  -4  -5 1548.80 427.170   8
  -6  -4  -5 1258.86 487.423  14
  -6  -4   5 1912.56 474.983  14
  -6  -4   5 992.195 369.914  26
   6   4   5 1332.46 398.078  26
   6  -4   5 1248.84 413.609  12
   6  -4   5 1266.33 342.835  21
  -6  -4   5 1028.45 438.071   9
   6  -4   5 1045.67 373.210  17
   6  -4  -6 2297.00 506.665   8
  -6  -4  -6 2947.18 661.036  14
  -6  -4   6 3704.64 614.211  14
  -6  -4   6 2169.31 513.078  26
   6   4   6 2513.42 521.750  26
   6  -4   6 2556.27 528.960  12
   6  -4   6 2476.49 485.881  21
  -6  -4   6 2917.71 626.629   9
   6  -4   6 2329.86 500.697  17
   6  -4  -7 442.289 251.620   8
  -6  -4  -7 251.703 235.942  14
   6   4   7 514.218 225.165  26
   6  -4   7 350.946 237.156  12
   6  -4   7 280.449 182.895  21
  -6  -4   7 239.243 287.094   9
   6  -4   7 228.301 191.153  17
   6  -4  -8 300.066 221.712   8
   6   4   8 510.401 236.424  26
   6  -4   8 667.850 290.685  12
   6  -4   8 280.895 207.709  21
   6  -4  -8 73.8228 111.370   5
  -6  -4   8 526.260 309.402   9
   6  -4   8 207.017 149.532  17
  -6  -4  -9 39504.6 1541.41   8
   6   4   9 35923.4 1699.41  26
   6  -4   9 39543.6 1599.50  12
   6  -4   9 38760.4 1625.66  21
   6  -4  -9 35223.7 1467.60   5
  -6  -4   9 37515.7 1861.18   9
   6  -4  -9 38583.1 1665.87   8
   6  -4   9 35897.2 1752.98  17
   6   4  10 35995.6 1514.87  26
   6  -4  10 40032.9 1386.08  12
  -6  -4 -10 39947.6 1572.26  25
  -6  -4  10 39231.4 1713.23   9
   6  -4 -10 38831.9 1473.45   8
   6  -4  10 38288.8 1653.72  17
  -6  -4 -11 59020.3 1659.56  25
  -6  -4  11 55725.2 1737.83   9
   6  -4 -11 49939.0 1334.42   8
   6  -4  11 53282.2 1733.43  17
  -6   4  12 29595.0 1334.59  14
  -6  -4 -12 30608.8 936.736  25
   6  -4  12 33035.5 1111.68  17
  -7  -4   0 108.316 247.695  14
   7  -4   0 94.8101 162.070  23
  -7  -4  -1 9207.02 1142.08  14
  -7  -4   1 9250.96 1120.27  14
   7  -4   1 9078.21 886.932  23
   7  -4  -1 9490.49 910.127  23
   7  -4  -1 9014.58 847.371   8
   7  -4  -2 707.172 266.887   8
  -7  -4  -2 668.918 335.758  14
  -7  -4   2 793.836 357.351  14
   7  -4   2 525.012 224.688  23
   7  -4  -2 806.067 290.324  23
  -7  -4   2 768.221 279.481   9
  -7  -4  -3 95325.4 3546.08  14
  -7  -4   3 91675.6 3267.15  14
   7  -4  -3 95275.5 2830.42  23
  -7  -4   3 94921.3 2891.14   9
   7  -4  -3 90871.8 2750.54   8
  -7  -4  -4 40367.6 2200.79  14
  -7  -4   4 38973.7 2013.16  14
  -7   4   4 37149.5 2019.68  14
   7  -4   4 39795.4 1888.48  12
   7  -4  -4 40199.1 1799.85  23
  -7  -4   4 40121.8 1900.93   9
   7  -4  -4 40249.1 1817.49   8
   7   4   4 38964.8 1876.23  26
  -7  -4  -5 157390. 4079.38  14
  -7  -4   5 152607. 3683.58  14
  -7   4   5 142744. 3984.51  14
   7   4   5 151114. 3547.46  26
   7  -4   5 153728. 3551.13  12
   7  -4   5 157860. 3054.87  21
  -7  -4   5 150254. 3635.30   9
   7  -4  -5 154718. 3483.45   8
  -7  -4  -6 41383.8 1940.86  14
  -7  -4   6 42956.5 1747.35  14
  -7   4   6 41350.4 2116.12  14
   7   4   6 42783.1 1795.15  26
   7  -4   6 43304.6 1776.80  12
   7  -4   6 43161.5 1549.50  21
  -7  -4   6 41548.7 1861.95   9
   7  -4  -6 43035.9 1760.97   8
  -7   4   7 196503. 4439.35  14
   7   4   7 197562. 3583.83  26
   7  -4   7 206552. 3542.68  12
   7  -4   7 198732. 3166.15  21
  -7  -4   7 200608. 3854.55   9
   7  -4  -7 209123. 3598.27   8
   7  -4   7 188939. 3008.10  17
  -7  -4  -8 41151.5 1295.96   8
  -7   4   8 43479.0 1939.31  14
   7   4   8 38827.4 1437.96  26
   7  -4   8 48199.8 1509.07  12
   7  -4   8 43288.1 1352.53  21
  -7  -4   8 45372.7 1688.79   9
   7  -4  -8 47643.8 1558.45   8
   7  -4   8 41410.2 1335.05  17
  -7   4   9 52424.8 1897.82  14
  -7  -4   9 56749.5 1665.75   9
  -7  -4  -9 54189.1 1478.28  25
  -8  -4   0 32780.9 1673.15  14
   8  -4   0 31514.8 1293.64  12
   8  -4   0 34174.8 1350.80  23
  -8  -4  -1 51341.7 2080.52  14
  -8  -4   1 49825.8 2007.52  14
   8  -4  -1 49715.5 1527.87  12
   8  -4   1 49728.4 1670.06  12
   8  -4  -1 51471.5 1648.56  23
  -8  -4  -2 24905.6 1412.30  14
  -8  -4   2 24043.1 1347.32  14
   8   4   2 22089.4 1084.61  26
   8  -4  -2 21630.6 902.892  12
   8  -4   2 24367.8 1176.82  12
   8  -4  -2 24594.7 1117.82  23
  -8  -4  -3 28622.8 1442.91  14
  -8  -4   3 28507.7 1381.23  14
   8   4   3 26921.1 1150.96  26
   8  -4   3 29434.1 1261.22  12
   8  -4  -3 29663.0 1186.22  23
  -8  -4  -4 636.417 208.904  14
  -8  -4   4 600.859 195.118  14
   8   4   4 293.256 121.759  26
   8  -4   4 408.887 153.202  12
   8  -4  -4 652.578 173.579  23
   8  -4   5 336.636 155.721  12
   8  -4  -5 188.287 94.9958  23
   8  -4   6 593.280 154.831  12
   0  -5   0 6.57276 83.1115   7
   0  -5  -1 225.188 148.958   7
   0  -5   1 53.0881 138.758   7
   0  -5  -2-137.404 128.616   7
   0  -5   2 269.103 157.444   7
   0  -5   3 228.959 204.788   7
   0  -5   4 91.3972 213.504  16
   0  -5   4 262.640 182.697  15
   0  -5  -4 550.237 280.583   8
   0  -5   4-233.958 190.871   7
   0  -5   4 24.3727 197.173  12
   0  -5  -4 72.9311 157.280  24
   0  -5   4 239.178 208.547  22
   0  -5  -4-181.144 286.914   9
   0  -5   4 107.684 159.141  18
   0  -5  -4 90.7743 263.374  17
   0  -5   4 38.1877 211.902  17
   0  -5   5 223.044 240.800  16
   0  -5   5 157.958 206.282  15
   0  -5  -5 212.343 176.529   8
   0  -5   5 95.3567 227.698  12
   0  -5  -5 100.457 162.141  24
   0  -5   5 70.6072 266.166  22
   0  -5  -5-18.6538 212.718   9
   0  -5   5 182.162 191.984  18
   0  -5   5 330.862 283.371  17
   0  -5   6 77.7559 197.367  16
   0  -5   6 437.114 336.227  15
   0  -5  -6 12.2890 253.502   8
   0  -5   6 76.8356 185.747  12
   0  -5  -6 29.9706 152.756  24
   0  -5   6 60.8206 190.366  22
   0  -5  -6-147.724 241.584   9
   0  -5   6 601.131 316.158  18
   0  -5   6 140.878 216.114  17
   0  -5   7 108.640 286.660  16
   0  -5  -7 500.940 233.816   8
   0  -5   7 313.777 290.069  12
   0  -5  -7 142.558 103.052  25
   0  -5  -7 102.524 119.670  24
   0  -5   7 134.934 190.311  22
   0  -5  -7 203.930 328.534   9
   0  -5   7 350.564 267.024  18
   0  -5   7 192.602 236.610  17
   0  -5   8 90.9673 285.666  16
   0  -5  -8 118.774 182.018   8
   0  -5  -8 224.680 150.016  25
   0  -5  -8-24.5561 142.566  24
   0  -5   8 152.439 178.311  22
   0  -5  -8-27.9605 221.194   9
   0  -5   8-57.2981 184.636  18
   0  -5   8 433.867 246.351  17
   0  -5   9 658.750 294.402  16
   0  -5  -9 320.198 258.348   8
   0  -5  -9 52.1726 117.802  25
   0  -5   9 369.133 299.456   6
   0  -5  -9 76.7863 216.818  24
   0  -5   9 51.9646 176.881  22
   0  -5   9 210.163 241.966  18
   0  -5   9 88.4401 188.709  17
   0  -5  10 9.23839 226.191  16
   0  -5 -10 200.938 233.109   8
   0  -5 -10 185.505 152.815  25
   0  -5  10 252.612 277.172   6
   0  -5 -10 263.516 197.682  24
   0  -5  10-12.6813 156.788  22
   0  -5  10 134.351 212.183  18
   0  -5  10 119.429 164.564  17
   0  -5  11 195.385 211.749  16
   0  -5 -11 264.564 211.684   8
   0  -5  11 1130.50 408.239   6
   0  -5 -11 75.7326 179.394  24
   0  -5  11 363.334 292.221  22
   0  -5  11 281.951 254.939  18
   0  -5  12 73.6981 169.180  16
   0  -5 -12 252.337 142.580   8
   0  -5 -12 297.896 185.151  24
   0  -5  12-86.4643 189.766  22
   0  -5  12 105.739 151.904  18
   0  -5  12 207.605 230.424   6
   0  -5  13 307.010 210.210  16
   0  -5 -13 28.4040 105.165  24
   0  -5  13 24.4577 186.347  22
   0  -5  13 400.070 178.746  18
   0  -5  14-17.6297 121.436  16
   0  -5 -14 264.511 141.207  24
   0  -5  14 133.869 121.094  22
   0  -5  15-34.4186 63.8746  16
   0  -5 -15 243.231 83.9766  24
   0  -5  15 159.793 106.049  22
   0   5  15 146.444 132.201  20
   1  -5   0 352.703 421.684   1
  -1  -5   0 120.050 100.154   7
   1  -5  -1 34482.4 3737.29   1
   1  -5   1 33263.4 3620.64   1
  -1  -5   1 36226.7 1774.08   7
   1  -5   1 32711.7 1639.66   7
   1  -5  -2 60914.9 4953.85   1
   1  -5   2 57873.5 4743.94   1
  -1  -5   2 59551.7 2356.78   7
  -1  -5  -2 66329.9 4866.39   3
   1  -5   2 52342.7 2190.78   7
  -1  -5  -3 177156. 4178.49   8
   1  -5   3 185672. 3773.23  15
  -1  -5   3 185361. 4395.97   7
   1  -5  -3 177366. 8468.49   1
  -1  -5  -3 193121. 8716.73   3
   1  -5   3 166125. 7948.39   1
   1  -5   3 190713. 4037.99  12
   1  -5  -3 179138. 3705.46  24
   1  -5  -3 169315. 4254.40   9
  -1  -5  -3 176536. 4194.45   9
  -1  -5   3 184595. 4353.90   9
  -1  -5  -3 179930. 4253.42  18
  -1  -5   3 184068. 4504.65  18
  -1  -5  -3 181452. 4296.20  17
  -1  -5   3 191428. 4248.90  17
   1  -5   3 194415. 4560.06  17
   1  -5  -3 173773. 4118.27   8
  -1  -5   3 186016. 4181.85  16
   1  -5   3 191135. 4459.87  16
  -1  -5  -4 60517.2 2510.74   8
   1  -5   4 62865.6 2309.02  15
  -1  -5   4 60952.3 2641.15   7
  -1  -5  -4 66152.6 5255.91   3
   1  -5  -4 60903.8 4877.34   1
   1  -5   4 60524.9 2345.86  12
   1  -5   4 56836.7 4626.21   1
  -1  -5  -4 61785.1 2180.66  24
  -1  -5   4 62312.2 2654.70  22
   1  -5   4 63895.6 2600.81  22
   1  -5  -4 57619.1 2576.93   9
  -1  -5  -4 59522.7 2496.20   9
  -1  -5   4 62027.2 2539.69   9
  -1  -5  -4 59253.6 2548.84  18
   1  -5   4 58799.8 2297.98  18
  -1  -5   4 64386.7 2774.81  18
   1  -5  -4 61173.4 2232.11  24
  -1  -5   4 65646.3 2515.77  17
   1  -5   4 63223.3 2679.02  17
   1  -5  -4 57951.7 2456.96   8
  -1  -5   4 65919.2 2574.87  16
   1  -5   4 64479.9 2714.22  16
   1  -5   5 147738. 4264.17  16
  -1  -5  -5 140772. 3909.47   8
   1  -5   5 153047. 3770.40  15
  -1  -5  -5 152801. 8387.61   3
  -1  -5   5 142799. 4272.41   7
   1  -5   5 143418. 3724.07  12
   1  -5  -5 143025. 7336.93   1
   1  -5  -5 148586. 3600.51  24
  -1  -5  -5 145966. 3523.13  24
  -1  -5   5 148706. 4285.92  22
   1  -5   5 146753. 4129.00  22
   1  -5  -5 137188. 4120.39   9
  -1  -5  -5 142941. 3925.62   9
  -1  -5   5 145675. 3916.31   9
   1  -5   5 143177. 3665.72  18
  -1  -5   5 152849. 4408.56  18
  -1  -5   5 150629. 3838.43  17
   1  -5   5 151566. 4209.11  17
   1  -5  -5 131209. 3808.37   8
  -1  -5   5 147353. 3992.13  16
   1  -5   6 38795.8 2244.14  16
  -1  -5  -6 39136.8 2102.58   8
   1  -5   6 41574.9 2072.57  15
  -1  -5   6 40436.0 2309.41  22
  -1  -5  -6 45484.2 4615.04   3
   1  -5   6 39098.0 1996.87  12
  -1  -5  -6 42485.6 1762.67  25
   1  -5  -6 41573.2 1949.70  24
  -1  -5  -6 41391.3 1962.22  24
   1  -5   6 39973.1 2242.64  22
   1  -5  -6 37818.7 2227.17   9
  -1  -5  -6 38244.9 2094.68   9
  -1  -5   6 40374.3 2068.00   9
   1  -5   6 40408.4 1989.78  18
  -1  -5   6 43671.2 2433.85  18
  -1  -5   6 41965.1 2019.09  17
   1  -5   6 38281.1 2128.93  17
   1  -5  -6 38287.9 2088.24   8
  -1  -5   6 39751.5 2132.77  16
  -1  -5  -7 149788. 4138.83   8
   1  -5   7 141965. 4384.50  16
  -1  -5  -7 153988. 3897.37  24
   1  -5   7 160533. 4199.39  15
   1  -5   7 151709. 3956.87  12
   1  -5   7 152233. 4972.40   6
  -1  -5  -7 158197. 3553.00  25
   1  -5  -7 159115. 3874.01  24
  -1  -5   7 149627. 4530.13  22
   1  -5   7 145793. 4426.01  22
   1  -5  -7 145881. 4402.07   9
  -1  -5  -7 151279. 4217.60   9
  -1  -5   7 158124. 3974.03   9
   1  -5   7 158423. 4013.90  18
  -1  -5   7 153471. 4667.01  18
  -1  -5   7 155617. 3833.17  17
   1  -5   7 149885. 4221.80  17
   1  -5  -7 146914. 4093.82   8
  -1  -5   7 153146. 4247.81  16
  -1  -5   8 58772.4 2625.42  16
   1  -5   8 55351.6 2762.26  16
   1  -5   8 59817.1 2485.51  12
   1  -5   8 58122.0 3118.48   6
  -1  -5  -8 61171.7 2273.24  25
   1  -5  -8 60557.4 2418.83  24
  -1  -5  -8 61209.9 2504.66  24
  -1  -5   8 58395.5 2851.34  22
   1  -5   8 56135.7 2794.67  22
  -1  -5  -8 56689.9 2582.11   9
   1  -5   8 64517.4 2546.20  18
  -1  -5   8 59735.2 2946.89  18
  -1  -5   8 60959.6 2345.98  17
   1  -5   8 57222.3 2599.20  17
   1  -5  -8 60309.5 2645.70   8
  -1  -5  -8 57758.8 2553.54   8
  -1  -5   9 73865.7 2928.34  16
   1  -5   9 70908.5 3135.84  16
   1  -5   9 78545.9 2845.35  12
  -1  -5   9 83628.9 3943.57   6
   1  -5   9 74028.4 3588.43   6
   1  -5  -9 78290.9 2743.74  24
  -1  -5  -9 76653.9 2585.39  25
  -1  -5  -9 83136.9 2932.27  24
  -1  -5   9 72227.0 3176.57  22
   1  -5   9 74455.8 3221.89  22
  -1  -5   9 77298.6 3353.41  18
   1  -5   9 77739.8 2977.05  17
   1  -5  -9 77969.4 2949.98   8
  -1  -5  -9 78126.1 2931.15   8
  -1  -5  10 3890.70 659.110  16
   1  -5  10 3625.03 699.496  16
   1  -5 -10 3667.03 650.324   8
  -1  -5 -10 4063.51 650.575   8
  -1  -5 -10 3824.76 589.849  25
  -1  -5  10 4260.36 913.474   6
   1  -5  10 4992.07 941.463   6
  -1  -5 -10 4954.35 726.233  24
   1  -5 -10 3639.12 598.283  24
  -1  -5  10 2913.49 653.269  22
   1  -5  10 3386.52 695.224  22
  -1  -5  10 4874.81 841.506  18
   1  -5  10 4103.40 696.767  17
  -1  -5  11 65.0729 157.620  16
   1  -5  11 796.324 394.300  16
   1  -5 -11 686.463 282.800   8
  -1  -5 -11 1048.67 332.296   8
  -1  -5 -11 648.446 271.471  25
  -1  -5  11 533.661 337.584   6
   1  -5  11 427.263 323.128   6
   1  -5 -11 931.723 307.220  24
  -1  -5 -11 1057.15 355.652  24
  -1  -5  11 868.027 386.838  22
   1  -5  11 505.229 294.051  22
  -1  -5  11 374.662 210.086  18
   1  -5  11 800.852 300.090  17
  -1  -5  12 2662.12 480.586  16
   1  -5  12 2244.50 546.260  16
   1  -5 -12 2599.97 472.793   8
  -1  -5 -12 2473.78 434.591   8
  -1  -5 -12 2381.65 434.974  25
   1  -5  12 3293.48 699.443   6
  -1  -5 -12 2937.55 510.783  24
  -1  -5  12 2477.03 623.374   6
   1  -5 -12 2954.35 461.273  24
  -1  -5  12 2465.28 558.113  22
   1  -5  12 2784.68 597.977  22
  -1  -5  12 2404.35 524.343  18
   1  -5  12 2907.30 466.386  17
   1  -5  13 9654.90 940.879  16
  -1  -5  13 8587.51 1024.53   6
  -1  -5 -13 9613.46 794.366  24
  -1  -5  13 8680.24 903.982  22
   1  -5  13 8498.54 919.279  22
  -1  -5  13 8833.46 855.767  18
   1  -5 -13 9277.16 720.793  24
  -1  -5  13 8821.61 737.806  16
   1  -5  14 8902.18 774.661  16
   1  -5 -14 8320.94 562.523  24
  -1  -5 -14 9001.48 662.776  24
  -1  -5  14 8796.16 773.884  22
   1  -5  14 9058.65 802.926  22
  -1  -5  14 8387.74 673.092  18
  -1  -5  14 7893.36 546.548  16
  -1  -5 -15 15144.0 663.173  24
   1  -5  15 17042.6 852.543  22
  -1   5  15 13391.6 956.046  20
   1  -5  15 17981.1 840.362  16
  -2  -5   0 25336.3 1515.55   7
  -2  -5   0 23020.2 1465.88  11
   2  -5   0 23938.8 1519.09   9
  -2  -5   0 25297.9 1655.38   9
  -2  -5   0 24518.0 1538.95  18
  -2  -5   0 26092.5 1615.92  17
   2  -5   0 24203.1 1491.06  17
   2  -5   0 23802.3 3208.47   1
   2  -5   0 32366.5 1660.48  16
  -2  -5  -1 327874. 6159.89  14
  -2  -5   1 321317. 5466.29   7
   2  -5   1 318724. 5151.37  12
  -2  -5  -1 318094. 5534.62  11
   2  -5  -1 324205. 5186.21  24
  -2  -5   1 324086. 5489.60  11
   2  -5  -1 311028. 5644.69   9
  -2  -5  -1 325267. 5807.69   9
  -2  -5   1 326510. 5997.72   9
  -2  -5  -1 321977. 5505.29  18
  -2  -5   1 328701. 5766.18  18
  -2  -5  -1 335643. 5918.26  17
  -2  -5   1 334569. 5757.75  17
   2  -5   1 332974. 5768.01  17
   2  -5  -1 319790. 11833.1   1
   2  -5  -1 320849. 5241.43   8
   2  -5   1 301610. 11460.6   1
   2  -5   1 323123. 5340.68  16
  -2  -5  -2 134905. 4073.46  14
  -2  -5   2 133309. 3595.41   7
  -2  -5  -2 145081. 7731.67   3
   2  -5   2 128581. 3377.37  12
  -2  -5  -2 129592. 3609.77  11
   2  -5  -2 129747. 3305.02  24
  -2  -5   2 133215. 3598.42  11
   2  -5  -2 123495. 3650.18   9
  -2  -5  -2 127279. 3609.86   9
  -2  -5   2 132467. 3887.64   9
  -2  -5  -2 130809. 3540.99  18
  -2  -5   2 134560. 3842.34  18
  -2  -5   2 139328. 3666.51  17
   2  -5   2 138700. 3874.12  17
   2  -5  -2 128924. 3500.63   8
   2  -5  -2 126775. 7474.16   1
  -2  -5   2 128245. 3263.73  16
   2  -5   2 127563. 7286.96   1
   2  -5   2 129196. 3533.69  16
   2  -5  -3 111409. 6964.08   1
   2  -5   3 109843. 6617.92   1
   2  -5   3 118698. 3173.45  15
  -2  -5  -3 113489. 3878.96  14
  -2  -5   3 115852. 3467.95   7
  -2  -5  -3 120797. 7348.15   3
   2  -5   3 113732. 3267.49  12
   2  -5  -3 113976. 3143.66  24
   2  -5  -3 108043. 3522.95   9
  -2  -5  -3 111524. 3363.09   9
  -2  -5   3 115942. 3691.81   9
  -2  -5  -3 112029. 3356.08  18
  -2  -5   3 116250. 3741.62  18
  -2  -5   3 119740. 3379.62  17
   2  -5   3 116376. 3673.62  17
   2  -5  -3 113488. 3404.16   8
  -2  -5   3 112963. 3127.95  16
   2  -5   3 117856. 3519.11  16
  -2  -5  -4 23161.1 1645.57   8
   2  -5   4 23441.4 1476.06  15
   2  -5  -4 23958.7 3185.76   1
  -2  -5  -4 22535.3 1771.17  14
   2  -5   4 22129.9 2937.31   1
  -2  -5   4 23010.8 1639.76   7
  -2  -5  -4 25990.4 3550.28   3
   2  -5   4 22635.1 1637.38   6
   2  -5   4 22531.3 1505.99  12
   2  -5  -4 23305.5 1444.54  24
  -2  -5  -4 23000.0 1338.09  24
   2  -5  -4 22265.7 1649.39   9
  -2  -5  -4 22222.8 1511.40   9
  -2  -5   4 23303.7 1677.91   9
  -2  -5  -4 22844.3 1575.69  18
  -2  -5   4 23991.9 1768.62  18
  -2  -5   4 24790.9 1548.16  17
   2  -5   4 22783.7 1684.08  17
   2  -5  -4 22493.5 1584.70   8
  -2  -5   4 24086.4 1473.71  16
   2  -5   4 22534.9 1621.66  16
   2  -5   5 19644.1 1589.65  16
  -2  -5  -5 20145.6 1530.30   8
   2  -5   5 22257.5 1493.42  15
   2  -5  -5 18661.1 2737.80   1
   2  -5   5 18067.4 2610.63   1
  -2  -5   5 22193.3 1693.74   7
   2  -5   5 19974.1 1596.76   6
   2  -5   5 20641.0 1460.38  12
  -2  -5  -5 20747.9 3193.87   3
   2  -5  -5 21012.6 1394.54  24
  -2  -5   5 22355.2 1615.35  22
   2  -5   5 21155.2 1485.54  22
   2  -5  -5 19358.1 1574.09   9
  -2  -5  -5 20557.2 1462.58   9
  -2  -5   5 22430.6 1662.50   9
  -2  -5   5 21033.5 1711.34  18
  -2  -5   5 22013.3 1433.62  17
   2  -5   5 20829.1 1604.99  17
   2  -5  -5 19532.0 1509.28   8
  -2  -5   5 21107.6 1408.76  16
   2  -5   6 2780.38 628.450   6
  -2  -5   6 3042.57 580.265  16
   2  -5   6 2368.24 618.083  16
   2  -5   6 3193.45 619.516  15
   2  -5  -6 2346.05 560.864   8
  -2  -5  -6 3079.99 621.347   8
  -2  -5   6 3102.61 675.709   7
   2  -5   6 2792.60 572.000  12
   2  -5  -6 3130.36 570.083  24
   2  -5  -6 3155.57 688.030   9
  -2  -5   6 2981.36 631.707  22
   2  -5   6 3050.38 596.448  22
  -2  -5  -6 2355.64 511.860   9
  -2  -5   6 3363.75 674.274   9
  -2  -5   6 3201.46 675.552  18
  -2  -5   6 3252.38 547.144  17
   2  -5   6 2398.11 585.444  17
   2  -5   7 26358.0 1893.93  16
  -2  -5  -7 25692.4 1740.94   8
   2  -5   7 28462.9 1815.51  15
   2  -5   7 25241.0 1626.96  12
   2  -5   7 25278.0 1934.11   6
  -2  -5  -7 26917.9 1546.16  25
   2  -5  -7 26373.9 1581.88  24
  -2  -5   7 27611.6 1883.33  22
   2  -5   7 26140.4 1773.73  22
  -2  -5   7 27613.2 1824.84   9
  -2  -5   7 25557.8 1959.09  18
   2  -5   7 25129.5 1804.62  17
   2  -5  -7 24927.7 1714.79   8
  -2  -5   7 27723.0 1635.40  16
   2  -5   8 11085.3 1255.38  16
  -2  -5  -8 10403.2 1099.26   8
   2  -5   8 10217.1 1038.36  12
   2  -5   8 10511.3 1270.51   6
  -2  -5  -8 10843.5 998.173  25
   2  -5  -8 11503.9 1042.49  24
  -2  -5   8 10288.5 1156.94  22
   2  -5   8 10570.6 1148.86  22
   2  -5  -8 11576.8 998.591   5
  -2  -5   8 11794.7 1158.90   9
  -2  -5   8 12324.0 1385.00  18
   2  -5   8 9967.84 1140.40  17
   2  -5  -8 10771.7 1112.89   8
  -2  -5   8 10980.0 1027.25  16
   2  -5   9 117866. 4035.82  16
   2  -5   9 121989. 3464.30  12
   2  -5   9 117649. 4298.50   6
  -2  -5  -9 125557. 3394.22  25
   2  -5  -9 126572. 3386.88  24
  -2  -5   9 123528. 3933.64  22
   2  -5   9 122652. 3908.51  22
  -2  -5   9 130172. 3632.46   9
   2  -5  -9 134882. 3473.45   5
  -2  -5   9 119183. 4203.35  18
   2  -5   9 121708. 3883.96  17
   2  -5  -9 116363. 3592.80   8
  -2  -5   9 127392. 3360.69  16
  -2  -5  -9 123988. 3666.30   8
   2  -5  10 48346.4 2535.84  16
   2  -5  10 50962.4 2157.75  12
  -2  -5  10 57110.4 3095.31   6
   2  -5  10 47752.2 2691.99   6
  -2  -5 -10 53226.4 2168.87  25
  -2  -5  10 51401.1 2482.67  22
   2  -5  10 49687.3 2447.44  22
   2  -5 -10 58254.5 2262.54   5
   2  -5 -10 53139.9 2111.87  24
  -2  -5  10 51387.6 2697.93  18
   2  -5  10 49708.9 2403.49  17
   2  -5 -10 51083.8 2297.64   8
  -2  -5 -10 53720.8 2301.27   8
   2  -5  11 83292.3 3227.43  16
  -2  -5  11 88741.8 3675.25   6
  -2  -5 -11 95272.1 2791.44  25
   2  -5 -11 89168.9 2557.73  24
  -2  -5  11 86267.0 3032.63  22
   2  -5  11 88232.3 3131.31  22
  -2  -5  11 89355.4 3381.30  18
   2  -5  11 84240.1 2887.50  17
   2  -5 -11 82757.1 2717.75   8
  -2  -5 -11 89181.1 2716.83   8
   2  -5  12 33624.7 1905.36  16
  -2  -5  12 30961.8 1982.36   6
  -2  -5 -12 34523.7 1584.27  25
   2  -5 -12 32201.1 1384.80  24
  -2  -5 -12 36255.9 1680.09  24
  -2  -5  12 33313.9 1728.70  22
   2  -5  12 32796.8 1760.54  22
  -2  -5  12 32142.9 1874.41  18
   2  -5  12 32709.4 1587.28  17
   2  -5 -12 27677.8 1425.30   8
   2  -5  13 145292. 3531.22  16
  -2  -5  13 133517. 3554.16   6
   2  -5 -13 128735. 2345.07  24
  -2  -5 -13 147402. 3020.89  24
  -2  -5  13 134708. 3045.90  22
   2  -5  13 138313. 3164.37  22
  -2  -5  13 147335. 3503.43  18
   2  -5  13 130513. 2652.12  17
   2  -5  14 34664.8 1446.16  16
  -2  -5 -14 33607.9 1225.75  24
   2  -5  14 30474.6 1210.18  22
  -2   5  14 29188.2 1672.36  20
  -2  -5  14 33810.5 1366.73  18
  -2  -5 -15 35852.4 949.644  24
  -2   5  15 30658.6 1289.00  20
   3  -5   0 354.069 235.667   8
   3  -5   0-313.283 386.633   1
  -3  -5   0 274.181 232.975  14
   3  -5   0 672.299 268.472  12
  -3  -5   0-457.712 240.747  11
   3  -5   0 196.355 196.386   9
  -3  -5   0-85.4915 242.419   9
  -3  -5   0 213.251 192.667  18
   3  -5   0 254.676 211.543  17
   3  -5   1 1042.21 316.424  16
   3  -5  -1 602.351 280.441   8
  -3  -5  -1 584.611 312.496  14
  -3  -5   1 1003.04 359.309  14
   3  -5  -1 27.0585 286.083   1
  -3  -5   1 522.676 230.900   7
   3  -5   1 849.515 642.286   1
   3  -5   1 204.728 216.171  12
  -3  -5  -1 297.055 212.703  11
  -3  -5   1 691.756 284.941  11
   3  -5  -1 610.973 236.057   9
  -3  -5  -1 619.362 337.942   9
  -3  -5   1 485.888 262.485   9
  -3  -5  -1 781.177 314.168  18
  -3  -5   1 579.672 275.849  18
   3  -5   1 1111.02 375.013  17
  -3  -5  -2 4607.22 823.593  14
   3  -5  -2 3837.35 640.702   8
  -3  -5   2 4323.22 656.701   7
   3  -5  -2 3644.77 1282.99   1
   3  -5   2 3834.91 655.290  12
  -3  -5  -2 4412.91 1430.98   3
   3  -5   2 4250.54 1443.73   1
  -3  -5   2 4296.26 647.319  11
   3  -5  -2 3965.46 702.268   9
  -3  -5  -2 4745.83 685.060  18
  -3  -5   2 4451.18 733.801  18
  -3  -5  -2 4583.75 710.973   9
  -3  -5   2 4840.95 792.321   9
   3  -5   2 4638.40 761.954  17
   3  -5   2 4431.53 665.610  16
   3  -5   3 34192.5 1803.20  15
  -3  -5  -3 34697.4 2244.46  14
  -3  -5   3 33798.1 1910.94   7
  -3  -5  -3 33771.9 4098.70   3
   3  -5   3 33573.4 1867.87  12
  -3  -5   3 34391.7 1833.33  11
   3  -5  -3 30982.2 1926.56   9
  -3  -5  -3 33319.9 1855.36   9
  -3  -5   3 35088.0 2145.04   9
  -3  -5  -3 31788.7 1748.63  18
  -3  -5   3 34335.7 2064.54  18
   3  -5  -3 34165.7 4001.02   1
  -3  -5   3 38655.9 1975.93  17
   3  -5   3 35412.0 3861.57   1
   3  -5   3 33630.6 2011.31  17
   3  -5  -3 32346.3 1873.52   8
   3  -5   3 31195.5 1761.76  16
   3  -5   4 45444.4 2133.20  15
  -3  -5  -4 47261.5 2676.75  14
  -3  -5   4 45675.9 2311.02   7
  -3  -5  -4 56002.7 5343.80   3
   3  -5   4 44895.1 2197.86  12
  -3  -5   4 47625.9 2210.58  11
  -3  -5  -4 43882.0 2085.17   9
  -3  -5   4 44760.9 2447.36   9
  -3  -5   4 46166.6 2462.80  18
  -3  -5   4 48421.1 2145.08  17
   3  -5   4 44417.0 2360.78  17
   3  -5  -4 43112.7 2219.22   8
   3  -5   4 42098.1 2127.42  16
   3  -5   5 52421.5 2370.99  15
  -3  -5  -5 52324.1 2855.12  14
  -3  -5   5 49897.3 2513.89   7
   3  -5   5 50515.2 2342.18  12
   3  -5  -5 51413.9 2232.75  24
  -3  -5  -5 51864.0 2212.78   9
  -3  -5   5 48794.2 2573.34   9
  -3  -5   5 51651.7 2693.31  18
   3  -5   5 45470.6 2426.10  17
   3  -5  -5 49216.9 2393.41   8
   3  -5   5 50514.9 2406.62  16
   3  -5   6 9842.51 1104.32  16
  -3  -5  -6 9605.47 1095.24   8
   3  -5   6 9540.93 1048.58  15
  -3  -5  -6 9537.72 1258.87  14
  -3  -5   6 8438.31 1074.99   7
   3  -5   6 9185.47 1006.42  12
   3  -5  -6 10164.9 994.170  24
  -3  -5   6 9109.30 1125.07   9
  -3  -5   6 9122.40 1154.19  18
   3  -5   6 9516.94 1138.91  17
   3  -5  -6 8831.29 1032.96   8
   3  -5   7 36099.5 2133.26  16
  -3  -5  -7 38640.6 2137.81   8
   3  -5   7 38720.2 2107.39  15
   3  -5  -7 39843.7 1943.77  24
   3  -5   7 35430.1 1928.71  12
   3  -5   7 35448.7 2129.73   6
  -3  -5   7 37232.8 2228.51   9
  -3  -5   7 38867.9 2381.43  18
   3  -5   7 34872.6 2154.05  17
   3  -5  -7 37096.7 2087.18   8
   3  -5   8 16001.1 1440.89  16
  -3  -5  -8 15541.7 1332.77   8
   3  -5   8 16583.3 1294.68  12
   3  -5  -8 16921.7 1245.84  24
  -3  -5   8 16655.5 1433.70   9
  -3  -5   8 16525.3 1533.55  18
   3  -5   8 15407.8 1418.40  17
   3  -5  -8 15270.8 1315.83   8
   3  -5   9 11767.1 1217.64  16
  -3  -5  -9 13867.3 1202.61   8
   3  -5   9 13022.4 1098.48  12
  -3  -5  -9 13544.4 1124.02  25
   3  -5  -9 12980.1 1041.46  24
   3  -5  -9 11566.3 975.521   5
  -3  -5   9 13382.5 1222.21   9
  -3  -5   9 12868.7 1341.78  18
   3  -5   9 14368.1 1353.11  17
   3  -5  -9 13430.0 1203.16   8
   3  -5  10 576.736 243.633  16
   3  -5 -10 808.155 300.564   8
  -3  -5 -10 573.016 257.512   8
   3  -5  10 1116.32 345.599  12
  -3  -5  10 1472.11 451.196   6
  -3  -5 -10 516.313 237.236  25
   3  -5 -10 698.325 244.973  24
   3  -5  10 517.894 198.814  22
  -3  -5  10 725.703 294.738   9
   3  -5 -10 822.538 248.009   5
  -3  -5  10 1039.31 428.323  18
   3  -5  10 332.258 315.162  17
   3  -5  11 3120.19 598.462  16
   3  -5 -11 2859.30 493.105   8
  -3  -5 -11 3068.81 460.773   8
   3  -5  11 2904.82 463.493  12
  -3  -5 -11 3385.78 510.282  25
  -3  -5  11 2728.83 564.152   6
   3  -5  11 3318.76 491.483  22
  -3  -5  11 2920.74 459.725   9
  -3  -5  11 3267.22 632.030  18
   3  -5 -11 2923.52 452.693   5
   3  -5  11 3738.92 627.982  17
   3  -5  12 38.4073 146.926  16
   3  -5 -12 245.108 153.194   8
  -3  -5 -12 82.8850 137.328  25
  -3  -5 -12 174.041 149.229  24
  -3   5  12 18.6727 203.500  20
  -3  -5  12 298.264 219.610  18
   3  -5  12 228.567 183.243  17
   3  -5  13 1622.21 331.077  16
  -3  -5 -13 1386.03 277.491  25
  -3  -5  13 1698.47 253.522  11
  -3  -5 -13 1725.24 311.959  24
  -3   5  13 1338.70 386.829  20
  -3  -5  13 1616.48 341.912  18
   3  -5  13 1380.87 276.523  17
  -3  -5 -14 5894.90 451.222  24
  -3   5  14 4629.58 551.123  20
  -3  -5  14 6347.14 526.637  18
   3  -5  14 6088.79 499.212  16
  -4  -5   0 80636.3 3406.57  14
   4  -5   0 73855.3 2669.11  12
  -4  -5   0 76621.9 3055.85   9
  -4  -5   0 77809.0 2605.75  18
   4  -5   0 74528.9 2569.24   8
  -4  -5  -1 84011.1 3532.20  14
  -4  -5   1 83908.9 3433.38  14
  -4  -5   1 85682.8 2934.66   7
   4  -5  -1 83910.5 2721.71  12
   4  -5   1 82513.3 2894.41  12
  -4  -5  -1 79366.6 3005.34   9
  -4  -5   1 83220.7 3264.23   9
  -4  -5   1 82934.8 2788.17  18
   4  -5   1 82969.7 2831.53  17
   4  -5  -1 82522.8 2834.42   8
  -4  -5  -2 10409.0 1285.33  14
  -4  -5   2 9498.34 1127.18  14
  -4  -5   2 9346.84 990.615   7
   4  -5   2 9700.62 1028.36  12
  -4  -5  -2 9257.33 993.158   9
  -4  -5   2 9191.61 1118.46   9
  -4  -5   2 8507.81 942.197  18
   4  -5   2 8417.95 979.135  17
   4  -5  -2 9301.89 998.174   8
   4  -5   3 32792.3 1797.17  15
  -4  -5  -3 31757.4 2260.28  14
  -4  -5   3 31251.4 1837.75   7
   4  -5   3 33664.0 1937.76  12
  -4  -5  -3 31484.6 1748.22   9
  -4  -5   3 32320.6 2096.17   9
  -4  -5   3 31181.8 1885.95  18
   4  -5   3 29992.9 1891.34  17
   4  -5  -3 30699.9 1845.41   8
   4  -5   4 9288.69 981.507  15
  -4  -5  -4 9909.69 1283.00  14
  -4  -5   4 9118.31 1019.94   7
   4  -5   4 8710.65 1004.72  12
  -4  -5   4 9105.56 1127.23   9
  -4  -5   4 8688.54 1032.95  18
   4  -5   4 8592.65 1047.08  17
   4  -5  -4 8366.02 992.606   8
   4  -5   5 944.491 316.476  16
   4  -5   5 707.177 329.523  15
   4  -5  -5 1003.73 393.151   8
  -4  -5  -5 1010.77 480.525  14
  -4  -5   5 776.671 306.475   7
   4  -5   5 739.534 332.890  12
  -4  -5   5 930.954 437.595   9
  -4  -5   5 676.184 307.452  18
   4  -5   5 900.496 370.661  17
   4  -5   6 3013.93 544.242  16
   4  -5   6 2148.86 526.342  15
   4  -5  -6 2518.26 566.984   8
  -4  -5  -6 2019.31 600.722  14
  -4  -5   6 2570.37 591.119   7
   4  -5   6 2580.90 576.985  12
  -4  -5   6 2437.62 583.963   9
  -4  -5   6 2677.77 615.530  18
   4  -5   6 2544.43 616.980  17
  -4  -5  -7 13618.5 1240.91   8
   4  -5   7 12601.3 1136.21  12
  -4   5   7 9663.02 1190.33  20
  -4  -5   7 12083.7 1271.76   9
  -4  -5   7 13181.1 1296.51  18
   4  -5   7 11494.7 1210.02  17
   4  -5  -7 11419.0 1126.30   8
   4  -5   7 13512.9 1148.72  16
  -4  -5  -8 23861.9 1571.60   8
   4  -5   8 24913.5 1528.60  12
  -4   5   8 23016.3 1827.68  20
  -4  -5   8 25774.3 1763.38   9
  -4  -5   8 24843.9 1733.67  18
   4  -5  -8 24265.5 1587.84   8
   4  -5   8 25490.0 1766.84  17
   4  -5   8 25658.8 1561.21  16
  -4  -5  -9 28701.4 1585.30   8
  -4  -5   9 29659.4 1858.28   6
   4  -5   9 25764.4 1447.48  12
  -4  -5  -9 27984.9 1531.06  25
  -4   5   9 25265.0 1870.52  20
  -4  -5   9 27533.0 1719.94   9
  -4  -5   9 28757.4 1802.08  18
   4  -5  -9 27749.5 1614.75   8
   4  -5   9 27421.6 1768.33  17
   4  -5   9 29876.0 1632.68  16
   4  -5  10 5695.08 639.377  12
  -4  -5 -10 5604.62 651.748  25
  -4   5  10 5640.85 846.073  20
  -4  -5  10 6419.89 755.141   9
  -4  -5  10 5878.06 780.676  18
   4  -5 -10 5480.67 665.060   8
   4  -5  10 6259.77 817.077  17
  -4  -5 -10 6127.59 674.804   8
   4  -5  10 6067.48 706.394  16
   4  -5  11 39902.9 1461.98  12
  -4  -5 -11 43187.1 1645.45  25
  -4   5  11 35197.5 1941.13  20
  -4  -5  11 39459.8 1565.44   9
  -4  -5  11 39233.5 1823.00  18
   4  -5 -11 39098.4 1561.03   8
   4  -5  11 40250.6 1840.86  17
  -4  -5 -11 42569.4 1449.56   8
   4  -5  11 41560.6 1655.87  16
  -4  -5 -12 11165.3 745.068  25
  -4  -5 -12 10349.2 711.269  24
  -4   5  12 8235.48 835.850  20
  -4  -5  12 10477.1 829.563  18
   4  -5 -12 9167.49 617.139   8
   4  -5  12 11011.9 828.312  17
   4  -5  12 10087.8 706.551  16
  -4  -5 -13 7946.46 526.138  25
  -4  -5 -13 7074.47 482.520  24
  -4  -5  13 7495.46 573.442  18
   4  -5  13 6830.26 508.276  17
   5  -5   0-37.5456 128.482   8
  -5  -5   0 287.375 181.682   7
   5  -5   0 409.687 242.345  12
  -5  -5   0 424.653 274.971   9
   5  -5   1 12792.0 1074.72  15
  -5  -5  -1 13083.5 1442.11  14
  -5  -5   1 12713.4 1336.64  14
  -5  -5   1 12603.2 1113.42   7
   5  -5  -1 12277.5 1058.52  12
   5  -5   1 13193.7 1172.01  12
  -5  -5  -1 13033.6 1154.45   9
  -5  -5   1 13384.5 1276.20   9
   5  -5  -1 13065.9 1093.40   8
   5  -5   2 41482.0 1915.85  15
  -5  -5  -2 37170.7 2422.44  14
  -5  -5   2 40167.9 2288.58  14
  -5  -5   2 40150.8 1995.45   7
   5  -5   2 41550.1 2128.99  12
  -5  -5  -2 39937.2 1893.96   9
  -5  -5   2 41865.2 2300.60   9
   5  -5  -2 40648.6 1998.11   8
   5  -5   3 125335. 3340.54  15
  -5  -5  -3 130084. 4555.31  14
  -5  -5   3 130220. 3938.49  14
  -5  -5   3 125556. 3538.54   7
   5  -5   3 130201. 3792.97  12
  -5  -5   3 127823. 4021.46   9
   5  -5  -3 127552. 3607.36   8
   5  -5   3 123883. 3439.53  17
   5  -5   4 14273.9 1143.27  15
  -5  -5  -4 16116.2 1579.27  14
  -5  -5   4 15358.9 1287.17  14
  -5  -5   4 14482.2 1224.42   7
   5  -5   4 14735.3 1279.32  12
  -5  -5   4 15641.7 1413.32   9
  -5  -5   4 15142.4 1148.08  18
   5  -5  -4 15092.0 1265.67   8
   5  -5   4 14446.6 1234.00  17
   5  -5   5 192285. 4072.92  15
  -5  -5  -5 187206. 5316.70  14
  -5  -5   5 182345. 4318.73   7
   5  -5   5 190788. 4492.67  12
  -5  -5   5 185003. 4787.41   9
  -5  -5   5 190193. 4182.85  18
   5  -5  -5 191154. 4456.03   8
   5  -5   5 185345. 4416.35  17
  -5  -5  -6 70021.4 3110.68  14
   5  -5   6 68961.9 2615.63  12
  -5  -5   6 68504.3 2860.98   9
  -5  -5   6 72550.5 2566.96  18
   5  -5  -6 70134.1 2654.56   8
   5  -5   6 67948.8 2682.34  17
  -5  -5  -7 117144. 3363.74   8
   5  -5   7 111066. 3149.95  12
  -5  -5   7 109646. 3497.32   9
  -5  -5   7 113456. 3155.95  18
   5  -5  -7 114217. 3262.78   8
   5  -5   7 114001. 3430.26  17
  -5  -5  -8 35986.0 1714.69   8
   5  -5   8 34755.2 1636.21  12
  -5  -5   8 35517.3 1894.92   9
  -5  -5   8 35678.4 1701.96  18
   5  -5  -8 35443.6 1719.88   8
   5  -5   8 36234.4 1892.79  17
  -5  -5  -9 88704.4 2399.44   8
   5  -5   9 84233.1 2315.95  12
  -5  -5  -9 88363.5 2439.65  25
  -5  -5  -9 76775.5 1905.12  24
  -5  -5   9 88716.6 2743.80   9
  -5  -5   9 87185.2 2484.02  18
   5  -5  -9 85886.1 2464.76   8
   5  -5   9 86031.1 2753.59  17
   5  -5  10 10349.5 719.145  12
  -5  -5 -10 10387.3 767.055  25
  -5  -5 -10 9806.34 630.291  24
  -5   5  10 7229.57 667.400  20
  -5  -5  10 11137.3 860.521   9
  -5  -5  10 10557.9 787.715  18
   5  -5 -10 9943.54 754.233   8
   5  -5  10 10540.6 880.596  17
  -5  -5 -10 10966.0 701.650   8
   5  -5  11 4134.56 378.990  12
  -5  -5 -11 5664.76 496.340  25
  -5  -5 -11 3821.88 349.001  24
  -5  -5  11 4607.70 456.362   9
  -5  -5  11 4980.63 468.223  18
   5  -5 -11 4470.40 415.141   8
   5  -5  11 5267.24 550.417  17
  -5  -5 -12 267.622 97.3305  25
   5  -5  12 432.780 144.304  17
   6  -5   0 47482.2 1750.16  15
  -6  -5   0 50114.2 2563.77  14
  -6  -5   0 48745.9 1988.25   7
   6  -5   0 48775.3 2043.52  12
   6  -5   0 52352.9 1852.68  23
  -6  -5   0 48634.9 1984.83   9
   6  -5   0 48612.1 1772.67   8
   6  -5   1 88348.1 2400.97  15
   6  -5  -1 93026.6 2461.91  15
  -6  -5  -1 94590.5 3597.06  14
  -6  -5   1 91364.4 3366.25  14
  -6  -5  -1 97280.7 2809.31   7
  -6  -5   1 94270.0 2724.04   7
   6  -5  -1 91908.7 2668.27  12
   6  -5   1 92964.1 2910.01  12
   6  -5   1 100686. 2557.56  23
   6  -5  -1 98670.5 2571.66  23
  -6  -5   1 92855.9 2915.30   9
   6  -5  -1 91952.3 2596.76   8
   6  -5   2 36701.3 1519.23  15
  -6  -5  -2 38294.1 2272.50  14
  -6  -5   2 34472.1 1986.14  14
  -6  -5  -2 38953.6 1783.70   7
  -6  -5   2 38040.3 1725.44   7
   6  -5   2 38095.4 1895.90  12
   6  -5  -2 38212.5 1577.91  23
  -6  -5   2 38262.5 1932.45   9
   6  -5  -2 36499.4 1705.85   8
   6  -5   3 66273.3 1984.83  15
  -6  -5  -3 68844.5 3049.68  14
  -6  -5   3 65790.6 2627.91  14
  -6  -5   3 67972.5 2288.10   7
   6  -5   3 72019.1 2606.05  12
   6  -5  -3 69980.3 2113.83  23
  -6  -5   3 66068.2 2558.08   9
   6  -5  -3 69941.0 2399.21   8
  -6  -5  -4 13450.8 1324.11  14
  -6  -5   4 13973.9 1129.13  14
   6  -5   4 13875.5 1129.84  12
   6  -5  -4 13547.3 906.907  23
  -6  -5   4 14502.7 1199.58   9
   6  -5  -4 11961.6 1002.84   8
  -6  -5  -5 8590.63 1027.46  14
   6  -5   5 8034.95 843.899  12
   6  -5  -5 8152.70 673.091  23
  -6  -5   5 7705.38 855.995   9
   6  -5  -5 7747.28 792.412   8
   6  -5   5 8026.30 729.640  17
   6  -5  -6 2196.06 413.912   8
  -6  -5  -6 1905.23 469.094  14
  -6  -5  -6 2198.30 464.721   8
   6  -5   6 2038.66 406.884  12
  -6  -5   6 2213.71 449.799   9
   6  -5   6 1695.41 350.858  17
  -6  -5  -7 14987.0 1028.82   8
   6  -5   7 14862.6 993.588  12
  -6  -5   7 16060.6 1123.95   9
   6  -5  -7 16177.0 1046.58   8
   6  -5   7 15430.0 999.036  17
  -6  -5  -8 14022.2 861.122   8
   6  -5   8 14278.4 870.137  12
  -6  -5   8 15050.6 1003.29   9
   6  -5  -8 15831.4 938.248   8
   6  -5   8 15162.3 916.099  17
   6  -5   9 31380.7 1103.90  12
  -6  -5  -9 32918.8 1180.38  25
  -6  -5   9 31087.5 1273.75   9
   6  -5  -9 32979.1 1182.20   8
   6  -5   9 30682.8 1177.46  17
  -6   5  10 11354.4 774.159  14
  -6  -5 -10 13641.0 634.679  25
  -6  -5  10 13463.6 677.436   9
   6  -5  10 12634.0 630.170  17
  -7  -5   0 66.9925 150.360  14
   7  -5   0 81.2556 110.135  12
  -7  -5  -1 4355.72 639.862  14
  -7  -5   1 4397.16 616.115  14
   7  -5  -1 4588.11 472.905  12
   7  -5   1 4809.70 551.087  12
   7  -5  -1 4998.55 477.259  23
  -7  -5  -2 1565.64 403.232  14
  -7  -5   2 1398.14 344.729  14
   7  -5   2 1252.95 309.637  12
   7  -5  -2 1184.30 225.647  23
  -7  -5   2 1239.21 249.898   9
   7  -5  -2 1390.59 255.170   8
  -7  -5  -3 2149.43 455.841  14
  -7  -5   3 1851.17 356.497  14
   7  -5   3 2516.13 398.818  12
   7  -5  -3 2000.72 277.928  23
  -7  -5   3 2467.73 361.081   9
   7  -5  -3 2458.51 353.873   8
  -7  -5  -4 5202.60 659.258  14
  -7  -5   4 4425.40 473.412  14
   7  -5   4 5216.48 566.995  12
   7  -5  -4 4430.16 387.535  23
  -7  -5   4 5329.36 527.715   9
   7  -5  -4 5502.99 513.017   8
   7  -5  -5 1553.13 277.989   8
  -7  -5  -5 1111.69 269.314   8
   7  -5   5 1539.55 292.486  12
  -7  -5   5 1547.62 299.255   9
   7  -5  -6 554.879 165.125   8
  -7  -5  -6 250.266 136.878   8
   7  -5   6 297.716 151.414  12
  -7  -5   6 390.871 153.477   9
   7  -5   7 2259.06 276.043  12
  -7  -5  -7 1677.46 227.790  25
  -7  -5   7 2095.11 273.636   9
   0  -6   0 266882. 4188.44  15
   0  -6   0 285694. 5051.65   7
   0  -6   0 270776. 5229.85  11
   0  -6   0 260015. 5373.62   9
   0  -6   0 267717. 5292.79  18
   0  -6   0 286984. 5498.25  17
   0  -6   0 272400. 4749.02   8
   0  -6   1 2165.61 396.790  15
   0  -6  -1 2043.05 465.518   8
   0  -6  -1 2244.09 435.032   7
   0  -6   1 2031.64 441.551   7
   0  -6   1 1558.95 397.235  11
   0  -6  -1 2810.16 456.931  24
   0  -6  -1 1641.71 423.540  11
   0  -6  -1 2419.87 552.413   9
   0  -6   1 1276.34 388.922   9
   0  -6  -1 1918.48 445.381  18
   0  -6   1 1757.18 459.873  18
   0  -6  -1 1619.29 440.753  17
   0  -6   1 2090.99 521.964  17
   0  -6   1 1501.92 415.098  16
   0  -6   2 211808. 3871.44  15
   0  -6   2 200395. 4546.30   7
   0  -6  -2 205870. 3930.97  24
   0  -6   2 212399. 4709.29  11
   0  -6  -2 208415. 4827.48   9
   0  -6   2 200026. 4630.13   9
   0  -6  -2 213584. 4835.80  18
   0  -6   2 206503. 4662.14  18
   0  -6  -2 206065. 4630.21  17
   0  -6   2 218426. 4881.65  17
   0  -6   2 204276. 4643.79  16
   0  -6  -2 199736. 4493.89   8
   0  -6   3 836.658 357.627  16
   0  -6   3 340.554 160.569  15
   0  -6  -3 1135.13 384.976   8
   0  -6   3 701.512 291.359   7
   0  -6   3 978.321 366.567  11
   0  -6  -3 751.109 278.432  24
   0  -6  -3 1054.64 410.016   9
   0  -6   3 849.056 324.677   9
   0  -6   3 850.863 360.551  18
   0  -6  -3 1221.81 382.859  17
   0  -6   3 721.219 281.912  17
   0  -6   4 184140. 3775.07  15
   0  -6   4 193297. 4726.31  11
   0  -6  -4 174883. 3843.61  24
   0  -6  -4 184480. 4641.55   9
   0  -6   4 175377. 4181.62   9
   0  -6   4 178746. 4433.39  18
   0  -6   4 184478. 4534.82  17
   0  -6  -4 178643. 4423.54   8
   0  -6   4 184383. 4560.52  16
   0  -6   5 3150.71 619.720  16
   0  -6   5 3598.39 583.054  15
   0  -6  -5 3206.58 603.780   8
   0  -6  -5 3570.45 576.631  24
   0  -6  -5 2869.83 614.051   9
   0  -6   5 2830.04 548.184   9
   0  -6   5 2954.60 569.988  18
   0  -6   5 3192.03 604.757  17
   0  -6   6 850.783 375.332  16
   0  -6  -6 1265.60 442.817   8
   0  -6  -6 400.506 214.959  24
   0  -6  -6 381.515 319.716   9
   0  -6   6 581.287 296.251  18
   0  -6   6 627.527 332.523  17
   0  -6  -7 10113.3 967.708  24
   0  -6  -7 9241.38 1038.21   9
   0  -6   7 9149.62 998.923  18
   0  -6   7 9447.33 990.428  17
   0  -6  -7 9654.49 1026.94   8
   0  -6   7 9543.64 1051.03  16
   0  -6   8 111927. 3994.41   6
   0  -6  -8 112488. 3142.67  24
   0  -6   8 106073. 3283.48  18
   0  -6   8 110384. 3177.45  17
   0  -6  -8 110719. 3349.20   8
   0  -6   8 107667. 3383.03  16
   0  -6   9 7428.19 1017.10   6
   0  -6  -9 8133.52 831.226  24
   0  -6   9 7234.62 813.646  18
   0  -6   9 7697.45 793.033  17
   0  -6  -9 7936.69 858.649   8
   0  -6   9 7803.27 886.747  16
   0  -6  10 139181. 4173.42   6
   0  -6 -10 148948. 3345.62  24
   0  -6  10 141091. 3315.11  18
   0  -6 -10 146636. 3399.60   8
   0  -6  10 142359. 3543.23  16
   0  -6  11 11045.8 1094.09   6
   0  -6 -11 11226.3 849.309  24
   0  -6  11 10634.3 791.704  18
   0  -6 -11 10389.2 816.515   8
   0  -6  11 11242.8 914.923  16
   0  -6  12 205315. 4189.68   6
   0  -6 -12 213193. 3285.28  24
   0  -6 -12 203434. 3007.99   8
   0  -6  12 209191. 3432.04  16
   0  -6  13 729.666 176.826  16
   0  -6 -13 716.522 178.445  24
  -1  -6   0 225.186 179.482   8
  -1  -6   0 229.108 153.615   7
   1  -6   0 278.889 229.950  11
  -1  -6   0 369.423 197.845  11
   1  -6   0 39.0539 215.645   9
  -1  -6   0 167.490 178.966   9
   1  -6   0-26.4378 190.237  18
  -1  -6   0 386.169 241.040  18
  -1  -6   0 322.264 265.984  17
   1  -6   0 736.198 357.749  17
  -1  -6  -1 4469.16 673.323   8
  -1  -6  -1 5115.14 698.201   7
  -1  -6   1 4248.04 659.212   7
   1  -6   1 4774.98 661.884  12
   1  -6  -1 5177.69 708.079  11
  -1  -6  -1 4541.59 725.076  11
   1  -6   1 4617.35 662.842  11
  -1  -6   1 5060.25 762.981  11
   1  -6  -1 5013.49 768.552   9
  -1  -6  -1 4667.12 741.295   9
   1  -6  -1 4913.47 728.488  18
   1  -6   1 4554.62 697.284   9
   1  -6   1 4371.25 678.479  18
  -1  -6  -1 5019.80 749.545  18
  -1  -6   1 4377.21 715.879  18
  -1  -6   1 4372.26 711.263   9
  -1  -6  -1 5476.47 794.912  17
  -1  -6   1 4738.26 731.064  17
   1  -6  -1 4695.84 718.137  17
   1  -6   1 4930.65 754.455  17
   1  -6  -1 4922.80 667.492   8
   1  -6   1 4416.98 689.491  16
  -1  -6  -2 21919.2 1516.29   8
   1  -6   2 22758.4 1325.75  15
  -1  -6  -2 25598.4 1511.41   7
  -1  -6   2 22374.0 1565.76   7
   1  -6   2 23857.3 1471.80  12
   1  -6  -2 23740.3 1395.80  24
   1  -6   2 23206.2 1502.39  11
  -1  -6   2 24414.4 1662.15  11
  -1  -6  -2 24588.5 1273.25  24
   1  -6  -2 23436.7 1653.10   9
   1  -6   2 22248.2 1495.06   9
  -1  -6  -2 24719.1 1677.32   9
  -1  -6   2 25292.5 1706.60   9
  -1  -6  -2 23464.0 1608.95  18
   1  -6   2 23360.2 1509.90  18
  -1  -6   2 23951.3 1651.89  18
  -1  -6  -2 23697.6 1643.21  17
   1  -6  -2 23913.6 1548.09  17
  -1  -6   2 25419.1 1660.95  17
   1  -6   2 24654.5 1668.55  17
   1  -6  -2 23700.2 1512.78   8
  -1  -6   2 23248.6 1539.17  16
   1  -6   2 23615.8 1591.30  16
  -1  -6   3 689.007 288.467  16
   1  -6   3 974.564 370.788  16
   1  -6   3 583.205 232.081  15
   1  -6  -3 809.278 330.833   8
  -1  -6  -3 900.596 341.764   8
  -1  -6  -3 576.382 234.916   7
  -1  -6   3 796.962 344.981   7
   1  -6   3 504.490 274.120  12
  -1  -6   3 582.981 307.180  11
   1  -6   3 809.312 302.944  11
   1  -6  -3 816.907 264.148  24
  -1  -6  -3 651.760 239.868  24
   1  -6  -3 966.929 375.941   9
   1  -6   3 263.901 272.011   9
  -1  -6  -3 852.252 359.702   9
  -1  -6   3 604.988 257.250   9
   1  -6   3 767.990 285.143  18
  -1  -6   3 807.238 367.518  18
   1  -6  -3 533.292 319.822  17
  -1  -6   3 682.911 374.776  17
   1  -6   3 358.903 265.409  17
  -1  -6  -4 66859.8 2738.77   8
   1  -6   4 64012.9 2315.76  15
  -1  -6  -4 73533.3 2498.34   7
  -1  -6   4 62762.7 2730.42   7
   1  -6   4 67954.4 2571.99  12
   1  -6  -4 65976.4 2417.48  24
  -1  -6   4 72121.3 2882.71  11
   1  -6   4 67696.3 2692.68  11
  -1  -6  -4 67125.0 2321.29  24
   1  -6  -4 66384.3 2840.02   9
  -1  -6  -4 67321.5 2749.75   9
  -1  -6   4 65323.9 2705.24   9
   1  -6   4 64040.6 2480.15  18
  -1  -6   4 66142.5 2812.92  18
  -1  -6   4 67274.8 2663.29  17
   1  -6   4 69721.9 2859.63  17
   1  -6  -4 66073.9 2652.55   8
  -1  -6   4 67511.6 2667.25  16
   1  -6   4 67532.9 2799.81  16
   1  -6   5 10924.0 982.951  15
  -1  -6  -5 11420.3 944.216   7
   1  -6   5 9485.27 986.396  12
   1  -6  -5 10137.3 965.982  24
  -1  -6  -5 9149.54 884.344  24
   1  -6  -5 9030.39 1053.46   9
  -1  -6  -5 9336.16 1042.18   9
  -1  -6   5 8711.28 984.677   9
   1  -6   5 9438.95 950.239  18
  -1  -6   5 8941.45 1053.29  18
  -1  -6   5 10087.2 1031.91  17
   1  -6   5 10101.4 1092.30  17
   1  -6  -5 9113.07 1001.23   8
  -1  -6   5 8977.14 990.530  16
   1  -6   5 9953.60 1087.23  16
  -1  -6  -5 9779.68 1060.14   8
   1  -6   6 56054.7 2233.61  15
   1  -6   6 55050.4 2341.34  12
   1  -6   6 54047.6 2688.67   6
   1  -6  -6 56679.1 2284.14  24
  -1  -6  -6 54518.0 2196.18  24
   1  -6  -6 54540.3 2585.19   9
  -1  -6  -6 57536.7 2531.89   9
  -1  -6   6 55406.8 2320.29   9
   1  -6   6 54931.9 2219.69  18
  -1  -6   6 55689.6 2598.09  18
  -1  -6   6 55617.1 2334.07  17
   1  -6   6 56431.8 2528.00  17
   1  -6  -6 54794.0 2455.64   8
  -1  -6   6 54207.1 2377.42  16
  -1  -6  -6 54492.1 2462.72   8
   1  -6   6 53201.8 2504.00  16
  -1  -6   7 673.236 294.177  16
   1  -6   7 413.344 207.632  16
   1  -6  -7 579.453 251.886   8
  -1  -6  -7 176.063 202.014   8
   1  -6   7 208.880 251.903  12
   1  -6   7 102.936 160.934   6
   1  -6  -7 210.382 166.091  24
  -1  -6  -7 48.3415 162.125  24
  -1  -6  -7 32.0095 191.877   9
  -1  -6   7 222.227 222.394   9
   1  -6   7 97.7954 131.765  18
  -1  -6   7 274.051 211.655  18
  -1  -6   7 361.900 249.246  17
   1  -6   7 205.271 199.049  17
   1  -6   8 53161.6 2660.34   6
   1  -6  -8 58724.8 2251.38  24
  -1  -6  -8 57987.6 2232.44  24
  -1  -6  -8 59926.0 2414.13   9
   1  -6   8 53590.8 2025.50  18
  -1  -6   8 56845.5 2531.40  18
  -1  -6   8 54334.5 2080.10  17
   1  -6   8 57374.9 2412.52  17
   1  -6  -8 55628.7 2355.86   8
  -1  -6  -8 54240.7 2352.68   8
  -1  -6   8 54885.6 2256.58  16
   1  -6   8 53935.5 2453.49  16
  -1  -6   9 322.549 201.450  16
   1  -6   9 473.910 300.450  16
   1  -6  -9 429.841 265.332   8
  -1  -6  -9 351.046 234.601   8
  -1  -6  -9 67.6540 92.9517  25
  -1  -6   9 361.365 260.371   6
   1  -6   9-67.6529 140.549   6
   1  -6  -9 309.883 201.562  24
  -1  -6  -9 348.036 215.755  24
  -1  -6   9 248.351 223.230  18
  -1  -6   9 310.672 182.612  17
   1  -6   9 233.250 187.388  17
  -1  -6  10 76757.0 3049.55   6
   1  -6  10 73689.4 2924.16   6
   1  -6 -10 82462.8 2410.30  24
  -1  -6 -10 80913.7 2434.38  24
  -1  -6  10 78879.9 2666.28  18
   1  -6  10 80619.5 2461.96  17
   1  -6 -10 80367.6 2497.51   8
  -1  -6 -10 70918.3 2328.12   8
  -1  -6  10 80552.5 2402.47  16
   1  -6  10 80451.0 2747.24  16
  -1  -6  11 678.768 210.525  16
   1  -6  11 664.247 287.809  16
   1  -6 -11 440.884 179.559   8
  -1  -6 -11 650.999 238.749   8
  -1  -6  11 422.836 225.858   6
   1  -6  11 959.670 319.460   6
   1  -6 -11 506.958 189.687  24
  -1  -6 -11 757.085 246.828  24
  -1  -6  11 272.704 173.696  18
   1  -6  11 605.389 211.645  17
  -1  -6  12 187.240 116.121  16
   1  -6  12 374.883 174.632  16
   1  -6 -12 226.422 123.647   8
  -1  -6 -12 533.319 162.720   8
  -1  -6  12 189.913 140.635   6
   1  -6 -12 302.736 160.049  24
  -1  -6 -12 449.449 172.878  24
  -1  -6  12 153.842 119.522  18
   1  -6  12 541.587 149.606  17
   1  -6  13 322.888 139.642  16
  -1  -6  13 366.154 146.440  11
  -1  -6 -13 354.886 125.357  24
  -1  -6  13 130.570 76.9692  18
  -2  -6   0 6339.26 794.471   8
  -2  -6   0 6321.38 817.740   7
   2  -6   0 6864.36 749.275  12
   2  -6   0 7595.06 783.914  11
  -2  -6   0 7050.70 875.782  11
   2  -6   0 7096.71 871.985   9
  -2  -6   0 7448.10 959.938   9
  -2  -6   0 6665.81 865.599  18
   2  -6   0 7269.33 875.629  17
   2  -6  -1 312.513 208.768   8
  -2  -6  -1 104.997 162.240   8
  -2  -6  -1 182.560 152.428   7
  -2  -6   1 318.343 200.285   7
   2  -6   1 226.633 255.504  12
  -2  -6  -1 172.868 231.718  11
   2  -6   1-84.6697 132.654  11
  -2  -6   1 270.305 156.331  11
   2  -6  -1 2.07144 195.735   9
   2  -6   1 428.494 305.420   9
   2  -6   1-44.3677 142.369  18
  -2  -6  -1 491.036 292.163   9
  -2  -6   1 396.588 331.694   9
  -2  -6  -1 47.7173 185.467  18
  -2  -6   1 165.507 168.713  18
  -2  -6   1 370.677 290.269  17
   2  -6  -1 216.037 265.051  17
   2  -6   1-170.818 222.847  17
   2  -6   1 649.741 274.607  16
  -2  -6  -2 9733.63 1046.72   8
   2  -6   2 9450.60 892.246  15
  -2  -6  -2 10635.0 1034.97   7
  -2  -6   2 9311.07 1009.58   7
   2  -6   2 10091.2 989.786  12
   2  -6   2 10539.1 939.986  11
  -2  -6   2 10410.0 1059.98  11
   2  -6  -2 9388.80 1064.43   9
   2  -6   2 10295.4 999.792   9
  -2  -6  -2 10179.6 1085.58   9
  -2  -6   2 9675.95 1094.85   9
   2  -6   2 8229.48 854.427  18
  -2  -6  -2 9289.36 994.337  18
  -2  -6   2 9354.26 1052.96  18
  -2  -6   2 10457.5 1074.48  17
   2  -6  -2 9799.11 937.143  17
   2  -6   2 10122.9 1099.56  17
   2  -6  -2 9783.31 979.901   8
   2  -6   2 10645.0 1038.73  16
   2  -6   3 63.2045 142.176  16
   2  -6   3 68.4065 150.431  15
   2  -6  -3 746.178 342.465   8
  -2  -6  -3 456.943 268.162   8
  -2  -6  -3 422.482 228.383   7
  -2  -6   3 270.074 200.137   7
   2  -6   3 10.7017 188.342  12
   2  -6   3-218.104 162.986  11
  -2  -6   3 94.2688 156.585  11
   2  -6  -3 251.988 256.657   9
  -2  -6  -3-10.7720 142.063  18
  -2  -6  -3 22.1311 209.813   9
  -2  -6   3 765.638 396.501   9
  -2  -6   3 166.905 170.426  18
  -2  -6   3 333.463 283.097  17
   2  -6   3 122.138 193.451  17
   2  -6   4 1060.76 369.350  16
   2  -6   4 1187.68 369.419  15
   2  -6  -4 1678.78 469.037   8
  -2  -6  -4 1415.62 437.898   8
  -2  -6   4 595.277 283.733   7
   2  -6   4 1609.06 412.404  12
  -2  -6   4 1018.77 355.773  11
   2  -6   4 718.624 264.096  11
   2  -6  -4 1478.06 407.498  24
  -2  -6  -4 903.304 267.703  24
   2  -6  -4 1434.61 474.765   9
  -2  -6  -4 1220.85 406.791   9
  -2  -6   4 1368.53 444.253   9
  -2  -6   4 1386.22 430.384  18
  -2  -6   4 750.857 337.064  17
   2  -6   4 1354.82 427.426  17
  -2  -6   5 1899.69 422.454  16
   2  -6   5 1974.69 482.782  16
   2  -6   5 1995.00 448.816  15
   2  -6  -5 1656.69 423.705   8
  -2  -6  -5 2114.68 534.143   8
  -2  -6   5 2274.83 540.492   7
   2  -6   5 1803.92 463.529  12
  -2  -6   5 1909.03 482.820  11
   2  -6   5 2257.28 472.379  11
   2  -6  -5 1971.94 445.924  24
  -2  -6  -5 1741.69 384.067  24
   2  -6  -5 1723.57 494.519   9
  -2  -6  -5 2309.92 536.062   9
  -2  -6   5 2216.74 558.708   9
  -2  -6   5 2038.64 554.106  18
  -2  -6   5 2655.06 519.801  17
   2  -6   5 1959.57 508.315  17
  -2  -6   6 1108.76 314.906  16
   2  -6   6 609.566 327.511  16
   2  -6   6 890.048 347.634  15
   2  -6  -6 777.824 348.517   8
  -2  -6  -6 329.403 255.187   8
   2  -6   6 929.364 374.973  12
   2  -6   6 147.518 174.238   6
  -2  -6   6 421.956 248.864  11
   2  -6  -6 428.507 249.899  24
  -2  -6  -6 407.782 230.406  24
  -2  -6  -6 534.068 270.193   9
  -2  -6   6 169.915 207.427   9
  -2  -6   6 606.085 329.434  18
  -2  -6   6 301.116 204.537  17
   2  -6   6 687.216 342.910  17
  -2  -6   7 911.872 294.880  16
   2  -6   7 977.169 365.225  16
   2  -6  -7 1033.40 354.883   8
  -2  -6  -7 945.719 361.007   8
   2  -6   7 840.749 358.762  12
   2  -6   7 997.005 357.029   6
   2  -6  -7 775.063 304.955  24
  -2  -6  -7 1247.69 337.802  24
  -2  -6  -7 724.029 272.326   9
  -2  -6   7 2219.78 484.895   9
  -2  -6   7 798.285 359.004  18
  -2  -6   7 791.221 297.512  17
   2  -6   7 958.645 383.232  17
  -2  -6   8 299.656 176.952  16
   2  -6   8 277.369 255.906  16
   2  -6  -8 488.895 267.393   8
  -2  -6  -8 386.508 234.783   8
   2  -6   8 429.122 260.463  12
  -2  -6  -8 265.149 146.511  25
   2  -6   8-40.4790 103.617   6
   2  -6  -8 662.246 268.825  24
  -2  -6  -8 1319.84 343.253  24
  -2  -6   8 241.697 190.716   9
  -2  -6   8 501.436 241.476  18
   2  -6   8 392.221 278.298  17
  -2  -6   9 1324.59 296.028  16
   2  -6   9 1201.55 375.957  16
   2  -6  -9 1440.15 391.344   8
  -2  -6  -9 1236.78 347.151   8
   2  -6   9 1507.36 376.925  12
  -2  -6   9 1232.95 405.866   6
  -2  -6  -9 1203.98 281.427  25
   2  -6   9 1221.07 391.046   6
   2  -6  -9 995.213 296.418  24
  -2  -6  -9 1457.86 357.566  24
  -2  -6   9 1268.30 322.900   9
  -2  -6   9 1206.25 376.002  18
   2  -6   9 1368.79 386.167  17
   2  -6  10 1805.67 417.967  16
   2  -6 -10 2158.84 407.685   8
  -2  -6 -10 1569.56 351.357   8
  -2  -6  10 1905.68 454.695   6
  -2  -6 -10 1563.54 293.626  25
   2  -6 -10 1560.43 324.397  24
  -2  -6 -10 1406.23 322.463  24
  -2  -6  10 1608.76 403.410  18
   2  -6  10 1402.35 355.599  17
   2  -6  11 998.687 303.825  16
   2  -6 -11 750.140 224.805   8
  -2  -6 -11 739.580 209.311   8
  -2  -6  11 877.079 276.069   6
  -2  -6  11 702.774 204.759  11
  -2  -6 -11 793.260 236.926  24
  -2  -6  11 705.793 263.153  18
   2  -6  11 723.814 244.133  17
  -2  -6  12 21529.5 982.837  11
   2  -6  12 19642.2 882.435  11
  -2  -6 -12 21338.4 964.566  24
  -2  -6  12 20197.5 1034.98  18
   2  -6  12 16702.7 806.059  17
   2  -6 -12 18871.5 832.877   8
  -2  -6 -12 18893.8 751.179   8
   2  -6  12 22018.0 1103.16  16
   2  -6  13 1338.48 225.610  16
  -2  -6 -13 1033.42 186.446  24
  -2  -6  13 1005.28 180.690  18
  -3  -6   0-289.556 229.775   8
  -3  -6   0 1302.84 433.179  14
  -3  -6   0 609.921 258.739   7
   3  -6   0 220.510 213.924  12
   3  -6   0 448.448 303.698   9
  -3  -6   0 835.101 355.824   9
  -3  -6   0-11.1705 121.152  18
   3  -6   0 158.568 208.486  17
   3  -6  -1 956.789 304.407   8
  -3  -6   1 494.704 258.604   8
  -3  -6  -1 575.800 289.920   8
  -3  -6  -1 815.503 379.021  14
  -3  -6  -1 724.200 287.360   7
  -3  -6   1 1270.91 386.867   7
   3  -6   1 731.563 337.775  12
  -3  -6   1 759.410 306.056  11
  -3  -6  -1 796.004 375.885   9
  -3  -6   1 935.350 357.821   9
  -3  -6  -1 523.506 242.525  18
  -3  -6   1 729.442 301.166  18
   3  -6   1 798.096 334.046  17
  -3  -6  -2 20655.0 1520.15   8
   3  -6   2 24578.7 1459.00  15
  -3  -6  -2 21692.0 1699.92  14
  -3  -6  -2 21957.9 1510.01   7
  -3  -6   2 20029.9 1454.22   7
   3  -6   2 20833.5 1412.64  12
  -3  -6   2 26855.0 1625.63  11
  -3  -6  -2 20525.0 1510.15   9
  -3  -6   2 21615.8 1647.54   9
  -3  -6  -2 21330.8 1437.13  18
  -3  -6   2 21859.9 1539.06  18
   3  -6   2 21764.0 1521.97  17
   3  -6  -2 20722.9 1389.41   8
   3  -6   2 19968.8 1306.64  16
   3  -6   3 3979.50 606.526  15
   3  -6  -3 3527.50 602.027   8
  -3  -6  -3 3556.20 643.195   8
  -3  -6   3 3331.46 609.017   7
   3  -6   3 3553.55 622.290  12
  -3  -6   3 3691.46 605.546  11
  -3  -6  -3 3457.00 610.092   9
  -3  -6   3 3726.49 717.359   9
  -3  -6   3 3747.83 658.552  18
   3  -6   3 4019.47 674.423  17
   3  -6   3 3577.44 579.875  16
  -3  -6  -4 170586. 4437.57   8
   3  -6   4 175678. 3936.36  15
  -3  -6   4 160889. 4223.19   7
   3  -6   4 174506. 4148.39  12
  -3  -6   4 178607. 4109.42  11
  -3  -6  -4 174437. 4091.77   9
  -3  -6   4 177228. 4610.28   9
  -3  -6   4 173341. 4439.52  18
   3  -6   4 176134. 4433.28  17
   3  -6  -4 176734. 4177.16   8
   3  -6   4 171065. 3994.80  16
   3  -6   5 538.974 290.677  16
   3  -6   5 460.907 214.644  15
   3  -6  -5 379.235 284.257   8
  -3  -6  -5 299.027 228.212   8
  -3  -6   5 405.356 234.332   7
   3  -6   5 480.806 351.257  12
  -3  -6   5 190.390 168.018  11
  -3  -6  -5 923.565 300.050   9
  -3  -6   5 266.229 314.127   9
  -3  -6   5 115.971 193.970  18
   3  -6   5 791.398 362.717  17
  -3  -6  -6 237156. 5089.44   8
   3  -6   6 246997. 4675.61  15
   3  -6   6 240002. 4781.81  12
  -3  -6  -6 248919. 4040.34  25
  -3  -6   6 247193. 4639.24  11
  -3  -6  -6 238783. 3914.70  24
  -3  -6  -6 243200. 4400.72   9
  -3  -6   6 238628. 5124.86   9
  -3  -6   6 237892. 5144.40  18
   3  -6   6 234668. 5090.69  17
   3  -6  -6 243872. 4861.41   8
   3  -6   6 235626. 4728.25  16
   3  -6   7-16.8828 142.253  16
   3  -6  -7 493.389 249.807   8
  -3  -6  -7 43.2533 240.854   8
   3  -6   7 307.999 230.035  12
  -3  -6  -7 345.165 151.855  25
  -3  -6   7 118.294 143.867  11
  -3  -6  -7 472.297 195.729  24
  -3  -6   7 265.337 249.781   9
  -3  -6   7 511.517 278.605  18
   3  -6   7 152.046 218.108  17
   3  -6   8 148011. 3462.97  12
  -3  -6  -8 160060. 3149.44  25
  -3  -6   8 158454. 3419.10  11
  -3  -6  -8 146884. 3036.57  24
  -3  -6   8 154580. 3673.81   9
  -3  -6   8 150228. 3862.75  18
   3  -6   8 155676. 3922.88  17
   3  -6  -8 154996. 3613.44   8
   3  -6   8 153986. 3667.29  16
  -3  -6  -8 160983. 3761.36   8
   3  -6   9 1691.15 400.974  16
   3  -6  -9 1676.93 364.696   8
  -3  -6  -9 1464.88 355.286   8
   3  -6   9 1036.32 311.586  12
  -3  -6   9 1656.55 404.265   6
  -3  -6  -9 1375.24 288.513  25
  -3  -6   9 1330.32 310.015  11
  -3  -6  -9 1408.53 304.224  24
  -3  -6   9 1538.71 367.546   9
  -3  -6   9 1328.57 364.016  18
   3  -6   9 1574.19 385.084  17
  -3  -6  10 40763.9 1815.93   6
  -3  -6 -10 44492.9 1454.99  25
  -3  -6  10 43146.0 1473.72  11
  -3  -6 -10 43451.4 1491.36  24
  -3  -6  10 41212.7 1403.70   9
  -3  -6  10 42214.5 1797.40  18
   3  -6  10 44459.5 1807.45  17
   3  -6 -10 44283.8 1630.05   8
  -3  -6 -10 44815.8 1616.04   8
   3  -6  10 44654.1 1727.26  16
  -3  -6 -11 3780.20 384.549  25
  -3  -6  11 3423.65 352.214  11
  -3  -6 -11 3877.49 412.425  24
  -3   6  11 2254.10 418.042  20
  -3  -6  11 4302.56 512.825  18
   3  -6  11 4430.18 499.487  17
   3  -6 -11 3835.25 415.408   8
  -3  -6 -11 4097.25 397.889   8
   3  -6  11 4193.71 478.820  16
   3  -6  12 264.954 118.497  16
  -3  -6 -12 301.738 117.967  24
  -3   6  12 61.9485 105.634  20
  -3  -6  12 274.229 126.502  18
   3  -6  12 100.876 89.5679  17
  -4  -6   0 292629. 5301.57   8
  -4  -6   0 280161. 5827.82  14
  -4  -6   0 290815. 5340.02   7
   4  -6   0 289670. 4747.90  12
  -4  -6   0 294257. 5639.85   9
  -4  -6   0 294730. 4932.01  18
   4  -6  -1 69.9793 132.420   8
   4  -6   1-251.100 194.315  15
  -4  -6   1 260.183 219.528   8
  -4  -6  -1 209.693 254.781   8
  -4  -6  -1 78.6341 162.303  14
  -4  -6   1 13.5391 110.181  14
  -4  -6  -1 110.194 152.487   7
  -4  -6   1-11.3787 101.917   7
   4  -6   1 371.187 266.678  12
  -4  -6  -1 196.529 239.931   9
  -4  -6   1 81.5963 238.472   9
  -4  -6  -1 307.405 166.220  18
  -4  -6   1 264.794 180.248  18
   4  -6   1 309.429 171.052  17
  -4  -6  -2 105001. 3318.42   8
   4  -6   2 97267.1 2851.23  15
  -4  -6  -2 98164.3 3615.57  14
  -4  -6  -2 110048. 3290.27   7
  -4  -6   2 95957.1 3043.96   7
   4  -6   2 98155.1 2958.63  12
  -4  -6  -2 98814.6 3080.49   9
  -4  -6   2 101738. 3418.56   9
  -4  -6   2 102531. 3039.62  18
   4  -6   2 106386. 3021.68  17
   4  -6  -2 103996. 2925.01   8
   4  -6   3 895.009 310.537  15
   4  -6  -3 1268.25 338.224   8
  -4  -6  -3 951.977 355.951   8
  -4  -6  -3 911.333 332.007   7
  -4  -6  -3 574.672 309.650  14
  -4  -6   3 616.138 262.659   7
   4  -6   3 715.384 317.120  12
  -4  -6   3 1833.28 368.608  11
  -4  -6  -3 424.265 216.083   9
  -4  -6   3 582.505 320.801   9
  -4  -6   3 468.509 249.431  18
   4  -6   3 838.848 316.064  17
  -4  -6  -4 34546.2 1920.95   8
   4  -6   4 35244.2 1702.87  15
  -4  -6   4 31232.9 1745.20   7
   4  -6   4 35084.1 1833.14  12
  -4  -6   4 34919.6 1594.92  11
  -4  -6  -4 34086.4 1618.85   9
  -4  -6   4 33693.7 1942.87   9
  -4  -6   4 35390.0 1813.35  18
   4  -6   4 35766.0 1845.93  17
   4  -6  -4 35258.2 1765.20   8
   4  -6   5 721.839 235.077  16
   4  -6   5 695.186 251.261  15
   4  -6  -5 1168.21 370.984   8
  -4  -6  -5 820.523 312.965   8
  -4  -6   5 757.139 276.150   7
   4  -6   5 489.245 271.795  12
  -4  -6   5 974.699 262.692  11
  -4  -6   5 547.438 343.967   9
  -4  -6   5 297.770 188.063  18
   4  -6   5 594.511 300.747  17
  -4  -6  -6 4257.79 656.877   8
   4  -6   6 3314.20 568.329  12
  -4  -6   6 4177.96 509.021  11
  -4  -6  -6 3541.90 473.799  25
  -4  -6   6 3605.17 629.802   9
  -4  -6   6 3103.68 534.106  18
   4  -6   6 3769.92 630.633  17
   4  -6  -6 4085.79 599.735   8
   4  -6   6 3353.68 469.657  16
   4  -6   7 340.440 169.890  16
   4  -6  -7 442.322 212.970   8
  -4  -6  -7 457.083 269.533   8
   4  -6   7 687.020 274.082  12
  -4  -6  -7 567.293 198.490  25
  -4  -6   7 336.075 164.368   9
  -4  -6   7 528.679 253.127  18
   4  -6   7 411.772 238.793  17
  -4  -6  -8 33268.8 1554.74   8
   4  -6   8 31818.3 1479.17  12
  -4  -6  -8 32290.1 1303.23  25
  -4  -6  -8 29948.0 1096.35  24
  -4  -6   8 31392.9 1547.16   9
  -4  -6   8 30516.2 1499.09  18
   4  -6   8 30973.3 1594.49  17
   4  -6  -8 32311.3 1493.36   8
   4  -6   8 30805.7 1281.65  16
   4  -6   9 972.679 228.683  16
   4  -6  -9 1003.33 255.798   8
  -4  -6  -9 771.003 240.093   8
   4  -6   9 946.295 271.000  12
  -4  -6  -9 943.056 206.195  25
  -4  -6  -9 980.406 196.001  24
  -4  -6   9 1123.88 278.353   9
  -4  -6   9 1321.52 308.203  18
   4  -6   9 842.557 272.168  17
  -4  -6 -10 83639.5 1725.54  25
  -4  -6  10 74728.2 1696.74   9
  -4  -6  10 82860.3 2035.42  18
   4  -6 -10 80416.1 1866.84   8
   4  -6  10 86928.9 2179.52  17
  -4  -6 -10 82298.9 1780.75   8
   4  -6 -11 918.698 162.873   8
  -4  -6 -11 730.055 136.032  25
  -4  -6  11 1335.64 226.804  18
   4  -6  11 1151.07 221.820  17
   5  -6   0 151.913 169.433  15
  -5  -6   0 187.513 169.583   8
  -5  -6   0 211.577 179.234  14
  -5  -6   0 94.3877 108.784   7
   5  -6   0-79.5763 130.377  12
  -5  -6   0 228.662 178.456   9
  -5  -6   1 3517.79 535.305   8
  -5  -6  -1 3931.29 602.428   8
   5  -6   1 3561.16 495.362  15
   5  -6  -1 3342.62 447.151   8
   5  -6  -1 3491.96 499.137  15
  -5  -6  -1 3501.92 665.219  14
  -5  -6   1 3009.72 575.873  14
  -5  -6  -1 3690.14 559.873   7
  -5  -6   1 2842.18 495.258   7
   5  -6   1 3549.57 530.371  12
  -5  -6  -1 3492.39 544.983   9
  -5  -6   1 3366.04 554.967   9
   5  -6  -2 1011.81 276.290   8
   5  -6   2 811.995 251.193  15
  -5  -6  -2 1170.10 350.429   8
  -5  -6  -2 1032.08 357.825  14
  -5  -6   2 1313.26 363.424  14
  -5  -6  -2 910.169 289.452   7
  -5  -6   2 1129.04 306.107   7
   5  -6   2 971.687 309.547  12
  -5  -6  -2 827.601 261.862   9
  -5  -6   2 916.111 343.101   9
   5  -6  -3 763.843 262.704   8
   5  -6   3 1090.99 301.679  15
  -5  -6  -3 858.717 340.028   8
  -5  -6  -3 773.258 341.059  14
  -5  -6  -3 922.895 280.507   7
  -5  -6   3 1140.77 302.165   7
   5  -6   3 1364.13 368.544  12
  -5  -6   3 1297.13 373.787   9
   5  -6   3 1108.33 290.428  17
  -5  -6  -4 3868.56 595.919   8
   5  -6   4 4073.90 531.469  15
  -5  -6  -4 4200.25 576.492   7
  -5  -6   4 3640.94 526.349   7
   5  -6   4 4124.39 595.179  12
  -5  -6   4 4497.58 653.273   9
  -5  -6   4 4160.63 496.580  18
   5  -6  -4 4144.06 547.197   8
   5  -6   4 3673.73 504.440  17
   5  -6  -5 223.516 163.293   8
  -5  -6  -5 146.841 208.364   8
  -5  -6  -5 327.300 170.399   7
   5  -6   5 328.964 239.004  12
  -5  -6   5 183.131 178.285   9
  -5  -6   5 327.238 155.077  18
   5  -6   5 92.4981 136.585  17
  -5  -6  -6 14147.7 1032.38   8
  -5  -6  -6 14047.3 957.438   7
   5  -6   6 12996.2 944.768  12
  -5  -6  -6 12269.4 768.952  25
  -5  -6   6 13025.4 997.787   9
  -5  -6   6 13025.5 823.718  18
   5  -6  -6 13533.5 925.556   8
   5  -6   6 12356.7 892.491  17
   5  -6  -7 112.166 139.909   8
  -5  -6  -7-60.0308 124.372   8
  -5  -6  -7 73.4111 77.5500   7
   5  -6   7 286.735 192.586  12
  -5  -6  -7 302.922 148.741  25
  -5  -6   7 17.0092 139.056   9
  -5  -6   7 286.978 116.613  18
   5  -6   7 87.2473 123.939  17
   5  -6   8 3710.66 434.845  12
  -5  -6  -8 4449.52 402.482  25
  -5  -6   8 3745.39 461.552   9
  -5  -6   8 4076.10 396.631  18
   5  -6  -8 4267.33 461.032   8
   5  -6   8 3937.27 456.318  17
  -5  -6  -8 4090.06 456.633   8
   5  -6  -9 1060.25 199.757   8
  -5  -6  -9 914.485 195.517   8
   5  -6   9 798.405 188.227  12
  -5  -6  -9 716.088 142.933  25
  -5  -6   9 694.327 170.724   9
   5  -6   9 681.719 182.972  17
  -6  -6   0 27845.2 1254.59   8
   6  -6   0 31822.2 1159.69  15
  -6  -6   0 27744.9 1447.34  14
  -6  -6   0 30100.9 1288.78   7
   6  -6   0 29718.2 1123.09  12
  -6  -6   0 29862.9 1172.00   9
   6  -6   1 748.328 185.440  15
   6  -6  -1 1258.30 248.167  15
  -6  -6   1 1259.24 259.392   8
  -6  -6  -1 1375.11 322.235   8
  -6  -6  -1 1246.06 323.708  14
  -6  -6   1 668.444 241.128  14
  -6  -6  -1 723.712 201.944   7
   6  -6   1 904.705 229.391  12
  -6  -6   1 999.240 242.500   9
  -6  -6  -2 58691.0 1912.42   8
   6  -6   2 60562.9 1542.89  15
   6  -6  -2 62500.2 1607.61  15
  -6  -6  -2 57406.4 2154.43  14
  -6  -6  -2 62895.1 1857.73   7
   6  -6   2 60642.7 1795.84  12
  -6  -6   2 61609.5 1875.75   9
   6  -6  -2 62855.9 1526.32   8
  -6  -6  -3 2920.92 436.667   8
   6  -6  -3 3887.25 398.280  15
   6  -6   3 3482.03 446.909  12
  -6  -6   3 4116.61 489.733   9
   6  -6  -3 4137.24 412.929   8
  -6  -6  -4 26935.9 1261.80   8
   6  -6  -4 26747.4 988.084  15
   6  -6   4 28588.2 1230.09  12
  -6  -6   4 27881.0 1248.67   9
   6  -6  -4 29624.5 1104.61   8
   6  -6  -5 264.565 120.536   8
   6  -6  -5 84.6962 65.5633  15
  -6  -6  -5-23.8024 130.749   8
  -6  -6  -5 19.7198 54.2308  25
  -6  -6   5 49.2659 121.048   9
  -6  -6  -6 2657.61 359.339   8
   6  -6  -6 2060.29 234.693  15
   6  -6   6 2836.07 351.960  12
  -6  -6   6 2436.94 336.392   9
   6  -6  -6 2878.92 319.650   8
   6  -6   7 3025.82 309.180  12
  -6  -6   7 3381.05 340.547   9
   6  -6  -7 3894.68 328.398   8
  -6  -6  -7 2899.18 306.452   8
   0  -7   0 370.976 242.203   9
   0  -7   0 319.204 258.508  18
   0  -7   0-89.5084 229.959  17
   0  -7   1 696.269 237.732  15
   0  -7  -1 215.256 179.174   8
   0  -7   1 177.933 199.551  11
   0  -7  -1 137.142 225.032   9
   0  -7   1-108.511 251.005   9
   0  -7   1 517.749 274.011  18
   0  -7   1 186.803 291.417  17
   0  -7   2 768.713 225.768  15
   0  -7  -2 161.198 159.200   8
   0  -7   2 775.821 295.099  11
   0  -7  -2 148.606 206.181   9
   0  -7   2 128.374 157.005   9
   0  -7   2 136.508 148.247  18
   0  -7   2 443.138 288.526  17
   0  -7   3 305.883 199.431  15
   0  -7  -3 38.2260 145.130   8
   0  -7   3 378.302 219.612  11
   0  -7  -3 88.0629 172.832   9
   0  -7   3 251.015 180.573   9
   0  -7   3-44.5642 138.256  18
   0  -7   3 308.827 228.383  17
   0  -7  -4 87.9457 151.094   8
   0  -7   4 181.014 172.959  11
   0  -7  -4 115.681 125.761  24
   0  -7  -4 94.4100 219.956   9
   0  -7   4 216.183 200.909   9
   0  -7   4 421.560 258.340  18
   0  -7   4 141.766 204.352  17
   0  -7  -5 281.683 193.856   8
   0  -7   5 183.411 166.357  11
   0  -7  -5 108.164 139.855  24
   0  -7  -5 71.2103 143.636   9
   0  -7   5 353.064 224.353   9
   0  -7   5 180.796 135.159  18
   0  -7   5 100.381 218.893  17
   0  -7   5 240.926 225.883  16
   0  -7   6 127.980 182.335  16
   0  -7  -6 219.856 138.005   8
   0  -7   6-29.4810 103.622   6
   0  -7   6 203.992 176.561  11
   0  -7  -6 86.9593 135.851  24
   0  -7  -6-19.9959 149.297   9
   0  -7   6 1.44310 123.810  18
   0  -7   6-34.4249 187.397  17
   0  -7   7 323.887 225.489  16
   0  -7  -7 63.1192 154.656   8
   0  -7   7 284.318 176.048   6
   0  -7   7-40.9407 113.318  11
   0  -7  -7 117.313 167.726  24
   0  -7   7 49.8576 113.214  18
   0  -7   7 126.628 200.536  17
   0  -7   8-34.6068 132.218  16
   0  -7  -8 289.232 169.906   8
   0  -7   8-253.676 164.507   6
   0  -7   8 58.1327 123.014  11
   0  -7  -8 130.982 123.915  24
   0  -7   8 152.001 125.338  18
   0  -7   8 206.116 159.656  17
   0  -7   9 91.5940 111.981  16
   0  -7  -9 181.718 138.242   8
   0  -7   9 6.55148 70.3635   6
   0  -7   9 73.7032 110.586  11
   0  -7  -9 41.7718 102.703  24
   0  -7   9 238.592 142.545  18
   0  -7   9 84.2540 116.458  17
   0  -7 -10 119.529 111.071   8
   0  -7  10 28.3453 96.2856  11
   0  -7 -10 6.88444 104.787  24
   0  -7  10 116.784 78.7107  17
   0  -7  10 79.0404 87.3230  16
   0  -7 -11 68.6261 64.6996   8
   0  -7  11 132.528 74.9885  11
   1  -7   0 98.4158 138.000  15
  -1  -7   0 503.374 224.330   7
   1  -7   0 243.513 262.711   9
  -1  -7   0 390.329 247.259   9
  -1  -7   0 222.787 243.800  18
   1  -7   0 216.962 234.811  17
   1  -7   1 1211.07 300.896  15
   1  -7  -1 1598.28 340.085  15
   1  -7  -1 2657.32 432.428   8
  -1  -7  -1 1886.68 417.104   8
  -1  -7  -1 1371.13 370.017   7
  -1  -7   1 2157.62 449.077   7
   1  -7   1 1486.16 364.054  11
  -1  -7   1 1690.28 431.187  11
   1  -7  -1 1868.79 501.027   9
   1  -7   1 1740.34 434.808   9
  -1  -7  -1 1449.89 412.048  18
  -1  -7  -1 2118.94 495.156   9
  -1  -7   1 1367.70 391.469   9
  -1  -7   1 1654.36 428.008  18
  -1  -7   1 2070.18 491.515  17
   1  -7  -1 2145.50 487.807  17
   1  -7   1 1604.23 437.363  17
   1  -7   2 2601.50 430.375  15
   1  -7  -2 2559.40 410.391  15
   1  -7  -2 2774.37 468.579   8
  -1  -7  -2 2812.97 495.597   8
  -1  -7  -2 2679.23 467.290   7
  -1  -7   2 2672.55 519.649   7
   1  -7   2 2849.47 492.612  11
  -1  -7   2 2402.28 507.609  11
   1  -7  -2 2585.76 548.003   9
   1  -7   2 3124.81 543.608   9
  -1  -7  -2 2674.04 536.758   9
  -1  -7   2 2534.80 542.128   9
   1  -7   2 2929.17 511.344  18
  -1  -7   2 2539.55 536.461  18
   1  -7  -2 2586.67 502.620  17
  -1  -7   2 3022.92 610.818  17
   1  -7   2 2739.40 551.254  17
   1  -7   3 78152.6 2294.81  15
   1  -7   3 75361.0 2550.80  11
  -1  -7   3 77431.9 2745.51  11
  -1  -7  -3 79691.9 2133.75  24
   1  -7  -3 80760.7 2881.47   9
   1  -7   3 81128.8 2535.72   9
  -1  -7  -3 80211.4 2861.08   9
  -1  -7   3 77056.7 2735.26   9
   1  -7   3 76095.4 2529.23  18
  -1  -7   3 78259.6 2766.19  18
  -1  -7   3 79759.8 2793.89  17
   1  -7   3 78891.9 2789.39  17
   1  -7  -3 80437.2 2538.39   8
  -1  -7  -3 79204.3 2641.03   8
   1  -7   4 23804.9 1264.77  15
   1  -7   4 22908.6 1385.34  11
  -1  -7   4 24611.5 1530.02  11
  -1  -7  -4 25621.0 1250.38  24
   1  -7  -4 24770.3 1579.68   9
  -1  -7  -4 23416.5 1525.41   9
  -1  -7   4 23543.4 1454.25   9
   1  -7   4 22910.6 1343.54  18
  -1  -7   4 23136.4 1490.09  18
  -1  -7   4 24182.9 1505.10  17
   1  -7   4 23516.9 1499.08  17
   1  -7  -4 23550.2 1393.87   8
  -1  -7  -4 25747.2 1513.79   8
   1  -7   4 21694.0 1410.83  16
   1  -7   5 95997.4 2894.50   6
   1  -7   5 100771. 2865.97  11
  -1  -7   5 101275. 3023.22  11
  -1  -7  -5 104288. 2544.66  24
   1  -7  -5 107052. 3235.05   9
  -1  -7  -5 106839. 3111.03   9
  -1  -7   5 99452.8 2827.53   9
   1  -7   5 102735. 2702.76  18
  -1  -7   5 102424. 3044.60  18
  -1  -7   5 101452. 2923.30  17
   1  -7   5 100713. 3020.07  17
   1  -7  -5 102684. 2889.14   8
  -1  -7  -5 106920. 3050.40   8
   1  -7   5 98169.6 2939.76  16
   1  -7   6 38642.7 1828.52   6
   1  -7   6 44054.4 1827.27  11
  -1  -7   6 44505.2 1933.59  11
  -1  -7  -6 45305.3 1675.23  24
  -1  -7  -6 48713.4 1997.06   9
  -1  -7   6 42801.3 1717.87   9
   1  -7   6 44640.4 1678.41  18
  -1  -7   6 43059.7 1904.15  18
  -1  -7   6 44775.3 1828.00  17
   1  -7   6 43728.9 1916.96  17
   1  -7  -6 46142.4 1898.02   8
  -1  -7  -6 45195.2 1936.47   8
   1  -7   6 42432.6 1874.36  16
  -1  -7   7 67904.6 2538.42   6
   1  -7   7 62255.2 2253.81   6
   1  -7  -7 77098.6 2238.91  24
   1  -7   7 72089.3 2238.49  11
  -1  -7   7 71743.1 2342.19  11
  -1  -7  -7 72381.4 2047.58  24
  -1  -7  -7 74628.1 2340.31   9
   1  -7   7 67301.1 1863.51  18
  -1  -7   7 70346.3 2310.63  18
  -1  -7   7 72063.2 2138.75  17
   1  -7   7 70861.2 2305.93  17
   1  -7  -7 76044.5 2343.06   8
  -1  -7  -7 76847.3 2425.04   8
   1  -7   7 69500.7 2294.40  16
  -1  -7   8 14420.1 1109.08   6
   1  -7   8 14026.4 1013.15   6
   1  -7  -8 17551.2 1017.69  24
   1  -7   8 15752.7 990.238  11
  -1  -7   8 15803.0 1028.52  11
  -1  -7  -8 15880.1 921.931  24
  -1  -7   8 15846.1 1025.67  18
  -1  -7   8 14300.5 860.684  17
   1  -7   8 15638.8 1004.60  17
   1  -7  -8 16701.6 1049.75   8
  -1  -7  -8 17419.7 1091.60   8
   1  -7   8 15429.4 1020.59  16
  -1  -7   9 34407.2 1584.11   6
   1  -7   9 39176.1 1436.06  11
  -1  -7   9 39568.8 1505.35  11
  -1  -7  -9 39232.2 1347.31  24
  -1  -7   9 37947.2 1423.55  18
   1  -7   9 35887.9 1372.09  17
   1  -7  -9 40618.7 1481.64   8
  -1  -7  -9 41331.1 1494.93   8
   1  -7   9 38557.6 1484.83  16
   1  -7  10 8211.51 575.739  11
  -1  -7  10 8328.10 614.790  11
  -1  -7 -10 8403.19 566.746  24
  -1  -7  10 7772.28 553.308  18
   1  -7  10 7153.54 514.864  17
   1  -7 -10 8565.70 589.221   8
  -1  -7 -10 9132.38 610.715   8
   1  -7  10 8434.22 620.979  16
   1  -7 -11 366.662 102.430   8
  -1  -7  11 478.463 130.364  11
  -1  -7 -11 221.606 85.8635  24
   1  -7  11 245.223 104.071  16
   2  -7   0 37128.6 1632.98  15
  -2  -7   0 36440.5 1841.96   7
   2  -7   0 37954.5 1824.58   9
  -2  -7   0 38384.6 1991.93   9
  -2  -7   0 37778.4 1911.97  18
   2  -7   0 36083.4 1749.36  17
  -2  -7   0 39881.3 1668.99   8
   2  -7   1 214827. 3924.52  15
   2  -7  -1 212602. 3927.73  15
  -2  -7  -1 218052. 4424.59   7
  -2  -7   1 205044. 4417.04   7
   2  -7  -1 214669. 4456.43   9
   2  -7   1 220626. 4244.76   9
  -2  -7  -1 221366. 4735.82   9
  -2  -7   1 218387. 4733.23   9
  -2  -7  -1 222773. 4612.02  18
  -2  -7   1 218022. 4591.05  18
   2  -7  -1 214709. 4144.21  17
   2  -7   1 212795. 4321.34  17
   2  -7  -1 215453. 3682.97   8
  -2  -7  -1 224028. 4190.22   8
   2  -7   2 25376.5 1343.00  15
  -2  -7  -2 25768.8 1479.37   7
  -2  -7   2 23753.2 1513.24   7
   2  -7   2 25346.2 1351.11  12
  -2  -7   2 26110.5 1559.01  11
   2  -7  -2 24990.4 1543.36   9
   2  -7   2 26825.1 1394.25   9
  -2  -7  -2 27046.8 1637.78   9
  -2  -7   2 24724.9 1581.09   9
  -2  -7   2 25872.2 1589.40  18
   2  -7  -2 25963.6 1387.33  17
   2  -7   2 25139.9 1510.04  17
   2  -7  -2 25821.3 1346.81   8
  -2  -7  -2 25810.2 1473.14   8
   2  -7   3 61309.8 2070.88  15
  -2  -7  -3 64050.7 2254.41   7
  -2  -7   3 52348.5 2234.02   7
   2  -7   3 60467.5 2133.72  12
   2  -7   3 61316.4 2020.37  11
  -2  -7   3 62378.2 2370.62  11
  -2  -7  -3 65647.5 2481.34   9
  -2  -7   3 60777.9 2425.64   9
  -2  -7   3 60244.8 2398.60  18
   2  -7   3 59266.2 2326.19  17
   2  -7  -3 62156.5 2144.86   8
  -2  -7  -3 63295.2 2339.13   8
   2  -7   4 13986.4 985.841  15
  -2  -7  -4 14034.6 1002.35   7
   2  -7   4 13850.1 1040.15  12
   2  -7   4 13776.2 948.287  11
  -2  -7   4 13782.2 1097.74  11
  -2  -7  -4 14219.9 1120.31   9
  -2  -7   4 13436.1 1114.85   9
  -2  -7   4 13678.7 1127.25  18
   2  -7   4 13565.7 1123.46  17
   2  -7  -4 14614.7 1064.47   8
  -2  -7  -4 14473.3 1124.71   8
   2  -7   5 2804.94 484.965  16
   2  -7   5 3262.62 483.121  15
   2  -7  -5 2657.93 469.328   8
  -2  -7  -5 2214.81 473.634   8
  -2  -7  -5 2170.37 366.867   7
   2  -7   5 2889.11 439.657  11
  -2  -7   5 3094.55 517.449  11
  -2  -7  -5 2246.61 433.543   9
  -2  -7   5 2879.47 523.108   9
  -2  -7   5 2454.93 478.949  18
   2  -7   5 2375.88 480.806  17
   2  -7   6 2084.82 409.386  16
   2  -7  -6 2099.14 409.712   8
  -2  -7  -6 2509.50 462.604   8
   2  -7   6 1956.28 346.778  11
  -2  -7   6 2264.27 427.703  11
  -2  -7  -6 2038.34 317.986  24
  -2  -7  -6 1782.59 374.956   9
  -2  -7   6 2280.28 426.630   9
  -2  -7   6 2347.96 448.725  18
   2  -7   6 2319.62 457.508  17
   2  -7   7 4136.55 464.499  11
  -2  -7   7 4698.79 569.344  11
  -2  -7  -7 4433.16 453.059  24
  -2  -7  -7 3953.41 481.036   9
  -2  -7   7 4138.84 498.179   9
  -2  -7   7 3866.01 540.282  18
   2  -7   7 4770.67 608.619  17
   2  -7  -7 4192.55 541.048   8
  -2  -7  -7 4419.02 583.635   8
   2  -7   7 4218.75 539.379  16
  -2  -7   8 2556.13 438.710   6
   2  -7   8 3078.94 364.254  11
  -2  -7   8 3005.26 419.813  11
  -2  -7  -8 2942.08 355.126  24
  -2  -7   8 2623.37 343.167   9
  -2  -7   8 2780.63 423.185  18
   2  -7   8 3297.68 461.789  17
   2  -7  -8 3655.84 469.992   8
  -2  -7  -8 3088.06 453.716   8
   2  -7   8 3181.63 441.958  16
  -2  -7   9 95065.1 2083.24  11
  -2  -7  -9 86922.9 1750.85  24
  -2  -7   9 97402.4 2233.55  18
   2  -7   9 94051.0 2186.35  17
   2  -7  -9 101011. 2179.31   8
  -2  -7  -9 109232. 2292.96   8
   2  -7   9 96957.0 2187.66  16
  -2  -7  10 19287.6 805.945  11
  -2  -7 -10 16227.2 665.159  24
  -2  -7  10 19718.6 860.506  18
   2  -7  10 17041.1 771.627  17
   2  -7 -10 19886.3 816.788   8
  -2  -7 -10 20930.5 827.243   8
   2  -7  10 20065.9 870.168  16
   3  -7   0 28.0704 136.317  15
  -3  -7   0 401.900 187.887   8
  -3  -7   0 179.369 151.142   7
  -3  -7   0 52.0629 175.678   9
  -3  -7   0 128.442 155.294  18
   3  -7   0 141.423 149.528  17
   3  -7   1 8148.59 753.876  15
   3  -7  -1 8346.02 770.981  15
  -3  -7  -1 8565.38 853.945   7
  -3  -7   1 7325.80 809.538   7
   3  -7   1 7206.19 661.199  12
  -3  -7  -1 8401.77 888.778   9
  -3  -7   1 7862.03 870.235   9
  -3  -7   1 8158.41 836.019  18
   3  -7   1 7557.45 751.419  17
  -3  -7  -1 8255.22 787.408   8
   3  -7   2 8761.17 792.028  15
  -3  -7  -2 8600.48 842.419   7
  -3  -7   2 8043.95 848.195   7
   3  -7   2 8275.85 748.109  12
  -3  -7  -2 9457.95 896.303   9
  -3  -7   2 8690.59 911.423   9
  -3  -7   2 9317.30 880.677  18
   3  -7   2 8678.20 817.186  17
   3  -7  -2 8525.33 708.906   8
  -3  -7  -2 8443.42 815.781   8
   3  -7   3 19729.3 1151.55  15
  -3  -7  -3 19478.0 1214.30   7
  -3  -7   3 17912.4 1244.76   7
   3  -7   3 20012.6 1168.64  12
  -3  -7  -3 20105.4 1266.88   9
  -3  -7   3 19720.8 1329.24   9
  -3  -7   3 19406.8 1259.53  18
   3  -7   3 19365.4 1214.75  17
   3  -7  -3 20113.8 1128.22   8
  -3  -7  -3 19764.0 1249.79   8
   3  -7   4 4530.69 558.116  15
  -3  -7  -4 4368.11 555.560   7
   3  -7   4 4096.73 550.319  12
  -3  -7   4 4406.17 566.675  11
  -3  -7  -4 4915.10 618.404   9
  -3  -7   4 4580.26 626.127   9
  -3  -7   4 4405.12 596.481  18
   3  -7   4 3933.14 563.576  17
   3  -7  -4 4801.83 564.927   8
  -3  -7  -4 4553.94 614.292   8
  -3  -7  -5 24616.6 1224.88   7
   3  -7   5 24593.5 1302.45  12
  -3  -7   5 25223.7 1266.56  11
  -3  -7  -5 26248.2 1270.19   9
  -3  -7   5 25033.0 1378.64   9
  -3  -7   5 25525.6 1373.51  18
   3  -7   5 24189.1 1333.84  17
   3  -7  -5 25169.5 1266.96   8
  -3  -7  -5 26222.6 1405.12   8
  -3  -7  -6 12503.6 807.397   7
   3  -7   6 11399.1 864.736  12
  -3  -7   6 11891.6 819.503  11
  -3  -7  -6 11835.1 749.050   9
  -3  -7   6 12534.3 916.929   9
  -3  -7   6 12825.3 933.970  18
   3  -7   6 11296.4 880.173  17
   3  -7  -6 12458.8 868.620   8
  -3  -7  -6 12884.3 944.184   8
  -3  -7   7 8318.54 625.445  11
  -3  -7   7 7923.88 662.765   9
  -3  -7   7 7896.17 689.091  18
   3  -7   7 8347.77 716.101  17
   3  -7  -7 8620.41 689.336   8
  -3  -7  -7 8503.27 719.939   8
  -3  -7   8 5945.84 466.156  11
  -3  -7   8 5516.20 463.259   9
  -3  -7   8 5820.82 545.601  18
   3  -7   8 6724.20 599.005  17
   3  -7  -8 6562.75 547.329   8
  -3  -7  -8 7113.51 596.736   8
  -3  -7   9 16050.0 792.286  18
   3  -7   9 15914.6 791.243  17
   3  -7  -9 16220.5 748.010   8
  -3  -7  -9 17655.8 795.357   8
  -4  -7   0 9030.60 690.780   8
   4  -7   0 8747.12 728.253  15
  -4  -7   0 8379.75 791.598   7
  -4  -7   0 7976.12 782.910   9
  -4  -7  -1 44927.7 1615.22   8
   4  -7   1 47138.1 1666.39  15
   4  -7  -1 46382.2 1666.75  15
  -4  -7  -1 46367.0 1824.16   7
  -4  -7   1 43077.5 1784.47   7
   4  -7   1 44977.7 1433.22  12
  -4  -7  -1 44947.0 1791.45   9
  -4  -7   1 45145.6 1853.89   9
  -4  -7  -2 14146.8 944.740   8
   4  -7   2 14732.6 924.837  15
   4  -7  -2 13470.3 897.838  15
  -4  -7  -2 14690.2 1011.20   7
  -4  -7   2 12703.9 958.831   7
   4  -7   2 13409.2 836.831  12
  -4  -7  -2 14285.9 966.990   9
  -4  -7   2 12984.8 991.721   9
  -4  -7   2 13275.1 890.707  18
   4  -7   2 13798.1 823.339  17
   4  -7  -2 13938.2 761.699   8
   4  -7   3 887.098 245.415  15
   4  -7  -3 1465.49 268.484   8
  -4  -7  -3 984.192 272.815   8
  -4  -7  -3 1026.33 267.091   7
   4  -7   3 893.783 237.437  12
  -4  -7  -3 1265.40 293.698   9
  -4  -7   3 1695.13 376.562   9
  -4  -7   3 754.327 221.601  18
   4  -7   3 917.278 247.297  17
   4  -7   4 3355.70 436.795  15
  -4  -7  -4 2897.87 415.212   7
   4  -7   4 3215.11 448.883  12
  -4  -7  -4 2981.63 373.353   9
  -4  -7   4 3133.17 468.403   9
  -4  -7   4 3108.59 424.024  18
   4  -7   4 2818.01 412.744  17
   4  -7  -4 3829.27 434.298   8
  -4  -7  -4 2915.27 443.310   8
   4  -7   5 7312.85 640.683  12
  -4  -7   5 7692.77 683.878   9
  -4  -7   5 7117.15 608.668  18
   4  -7   5 6572.92 589.414  17
   4  -7  -5 7467.69 591.621   8
  -4  -7  -5 7989.91 690.777   8
   4  -7  -6 277.270 131.610   8
  -4  -7  -6 257.307 147.536   8
   4  -7   6 306.936 165.413  12
  -4  -7   6 253.829 162.832   9
  -4  -7   6 253.127 133.631  18
   4  -7   6 231.054 119.108  17
  -4  -7   7 2864.04 362.759   9
  -4  -7   7 2725.19 324.538  18
   4  -7   7 2615.33 336.659  17
   4  -7  -7 3470.30 360.946   8
  -4  -7  -7 3323.29 380.236   8
   4  -7  -8 1004.58 177.294   8
  -4  -7  -8 1004.02 178.338   8
  -4  -7   8 827.401 157.804  18
   4  -7   8 1025.84 189.842  17
   5  -7   0 187.292 94.2564  15
  -5  -7   0 210.540 123.799   9
   5  -7   1 11535.5 682.004  15
   5  -7  -1 12290.2 701.875  15
  -5  -7  -1 12317.5 685.422   9
  -5  -7   1 12399.4 769.629   9
  -5  -7  -1 10436.8 637.445   8
   5  -7   2 2327.87 307.175  15
   5  -7  -2 2327.70 313.776  15
  -5  -7  -2 2029.70 303.889   8
   5  -7   2 2046.56 260.440  12
  -5  -7   2 2081.65 329.372   9
   5  -7  -3 64547.3 1535.08  15
   5  -7   3 60463.9 1428.87  12
  -5  -7   3 64452.2 1720.64   9
  -5  -7  -3 58517.1 1559.15   8
   5  -7  -4 17189.0 755.236  15
   5  -7   4 16107.8 737.658  12
  -5  -7   4 15905.5 817.527   9
   5  -7  -4 16140.9 624.821   8
  -5  -7  -4 15639.1 784.572   8
   5  -7  -5 156002. 2086.21  15
   5  -7   5 141738. 2076.64  12
  -5  -7   5 155551. 2364.44   9
  -5  -7  -5 137920. 2198.30   8
  -5  -7  -6 18191.8 712.280   8
   0  -8   0 13008.1 936.570   9
   0  -8  -1 158762. 3312.44   9
   0  -8   1 151480. 3133.14   9
   0  -8  -2 19565.2 1150.91   9
   0  -8   2 18731.1 1038.54   9
   0  -8  -2 16970.6 802.993   8
   0  -8  -3 44347.6 1703.59   9
   0  -8   3 41910.1 1439.89   9
   0  -8  -3 41943.1 1324.09   8
   0  -8  -4 36437.2 1486.96   9
   0  -8   4 32564.7 1108.60   9
   0  -8  -4 34412.6 1208.89   8
   0  -8  -5 906.553 208.801   8
   0  -8  -6 849.945 189.735   8
   0  -8  -7 895.506 177.130   8
   1  -8   0 316.548 123.975  15
   1  -8   0 30.4979 103.381   9
  -1  -8   0 150.147 163.659   9
   1  -8   1 2493.89 310.227  15
   1  -8  -1 2174.95 276.014  15
   1  -8  -1 2211.46 378.735   9
   1  -8   1 2314.11 367.183   9
  -1  -8  -1 2251.43 418.428   9
  -1  -8   1 2701.61 430.465   9
   1  -8   2 3921.98 436.484   9
  -1  -8  -2 4751.05 568.769   9
  -1  -8   2 4495.37 540.638   9
   1  -8   2 3928.47 510.929  17
  -1  -8  -2 4515.69 424.167   8
  -1  -8  -3 19563.3 1108.89   9
  -1  -8   3 19172.7 1022.57   9
   1  -8   3 17987.1 1042.50  17
   1  -8  -3 17899.2 820.910   8
  -1  -8  -3 18542.3 883.832   8
  -1  -8  -4 20547.9 1092.40   9
  -1  -8   4 21024.0 979.413   9
  -1  -8   4 19832.8 1027.72  18
   1  -8   4 20105.9 1058.03  17
   1  -8  -4 19908.3 878.328   8
  -1  -8  -4 20893.6 937.823   8
  -1  -8   5 68892.9 1786.48  18
   1  -8   5 68808.8 1844.28  17
   1  -8  -5 70774.1 1631.45   8
  -1  -8  -5 73209.8 1706.46   8
  -1  -8   6 9584.30 606.298  18
   1  -8   6 10032.7 649.268  17
   1  -8  -6 10150.5 589.330   8
  -1  -8  -6 10364.2 617.565   8
   1  -8  -7 48711.7 1176.68   8
  -1  -8  -7 53189.3 1257.72   8
   2  -8   0 1453.15 252.230  15
  -2  -8   0 1341.75 302.223   9
   2  -8   1 9766.42 629.020  15
   2  -8  -1 9127.19 589.720  15
  -2  -8  -1 9904.56 777.747   9
  -2  -8   1 9872.29 772.414   9
   2  -8  -2 2767.53 318.194  15
  -2  -8  -2 3022.56 447.785   9
  -2  -8   2 2835.56 418.965   9
   2  -8   2 2946.93 397.925  17
  -2  -8  -2 2997.17 326.797   8
   2  -8  -3 4037.35 364.209  15
  -2  -8  -3 4238.43 496.870   9
  -2  -8   3 4619.91 492.448   9
   2  -8   3 4370.02 474.545  17
   2  -8  -3 3852.75 327.800   8
  -2  -8  -3 4141.71 394.552   8
   2  -8  -4 668.554 143.861  15
   2  -8  -4 1116.29 191.302   8
  -2  -8  -4 1013.20 202.007   8
  -2  -8  -4 1208.30 242.503   9
  -2  -8   4 1089.38 243.778   9
  -2  -8   4 1091.99 249.707  18
   2  -8   4 1038.42 243.871  17
  -2  -8   5 1984.61 269.941   9
  -2  -8   5 2248.41 313.019  18
   2  -8   5 2373.89 324.380  17
   2  -8  -5 2064.23 253.098   8
  -2  -8  -5 2624.00 311.683   8
   2  -8  -6 153.206 65.4392   8
  -2  -8  -6 60.0257 68.6930   8
  -2  -8   6 47.8961 80.1513  18
   2  -8   6 143.665 97.9794  17
   3  -8   0-23.5146 80.2787  15
  -3  -8   0 273.613 158.183   9
   3  -8   1 21094.4 869.694  15
   3  -8  -1 21122.5 856.847  15
  -3  -8  -1 21728.0 1004.34   9
  -3  -8   1 20719.5 988.817   9
   3  -8  -2 3755.59 356.449  15
  -3  -8  -2 4040.28 417.849   9
  -3  -8   2 4245.84 441.685   9
   3  -8  -3 54176.1 1245.25  15
  -3  -8  -3 55776.1 1402.70   9
  -3  -8   3 58602.0 1539.43   9
  -3  -8  -3 51181.8 1135.89   8
   3  -8  -4 10600.1 503.324  15
   3  -8   4 10235.2 537.733  17
  -3  -8  -4 11237.1 530.840   8
   4  -8   0 33221.7 869.814  15
   0   0   0    0.00    0.00   0
TITL AgNA_1 in Pbca
REM Pbca (#61, found as Pcab in ba-c setting)
CELL 1.54184   7.694477   6.986850  15.128411  90.0000  90.0000  90.0000
ZERR    3.00   0.000137   0.000142   0.000332   0.0000   0.0000   0.0000
LATT  1
SYMM -x+1/2,-y, z+1/2
SYMM -x, y+1/2,-z+1/2
SYMM  x+1/2,-y+1/2,-z
SFAC C N O Ag
UNIT 18.00 6.00 24.00 6.00
TREF
HKLF 4
END
;
loop_
_symmetry_equiv_pos_as_xyz
'x, y, z'
'-x+1/2, -y, z+1/2'
'x+1/2, -y+1/2, -z'
'-x, y+1/2, -z+1/2'
'-x, -y, -z'
'x-1/2, y, -z-1/2'
'-x-1/2, y-1/2, z'
'x, -y-1/2, z-1/2'
loop_
_atom_site_label
_atom_site_fract_x
_atom_site_fract_y
_atom_site_fract_z
_atom_site_U_iso_or_equiv
_atom_site_adp_type
_atom_site_calc_flag
_atom_site_refinement_flags
_atom_site_occupancy
_atom_site_type_symbol
Ag1 0.10577(4) 0.08308(4) 0.29167(2) 0.01067(17) Uani d . 1 Ag
O1 0.1939(4) 0.1331(4) 0.4400(2) 0.0111(6) Uani d . 1 O
O2 0.5849(4) 0.0158(4) 0.6742(2) 0.0099(6) Uani d . 1 O
O3 0.0939(4) 0.1324(5) 0.6077(2) 0.0142(6) Uani d . 1 O
O4 0.3051(4) 0.2347(5) 0.6911(2) 0.0157(6) Uani d . 1 O
N1 0.2458(4) 0.1534(4) 0.6263(2) 0.0054(6) Uani d U 1 N
C1 0.3299(5) 0.0698(5) 0.4712(3) 0.0075(8) Uani d . 1 C
C2 0.5383(5) 0.0150(5) 0.5957(3) 0.0069(7) Uani d . 1 C
C3 0.3757(5) 0.0777(5) 0.5626(3) 0.0072(8) Uani d . 1 C
loop_
_atom_site_aniso_label
_atom_site_aniso_U_11
_atom_site_aniso_U_22
_atom_site_aniso_U_33
_atom_site_aniso_U_12
_atom_site_aniso_U_13
_atom_site_aniso_U_23
Ag1 0.0063(2) 0.0150(2) 0.0106(2) -0.00068(10) -0.00118(9) -0.00105(9)
O1 0.0101(14) 0.0104(12) 0.0128(14) 0.0056(11) -0.0025(11) -0.0030(11)
O2 0.0075(13) 0.0118(14) 0.0104(15) -0.0002(11) -0.0018(11) 0.0004(11)
O3 0.0079(14) 0.0127(14) 0.0221(18) 0.0010(11) -0.0011(11) 0.0034(13)
O4 0.0143(14) 0.0151(14) 0.0177(14) -0.0022(12) 0.0017(13) -0.0052(12)
N1 0.0055(10) 0.0030(9) 0.0075(10) 0.0003(8) -0.0037(8) 0.0014(7)
C1 0.006(2) 0.0032(15) 0.013(2) 0.0005(13) 0.0016(15) -0.0002(13)
C2 0.0056(18) 0.0047(16) 0.0103(18) -0.0025(13) 0.0012(14) -0.0006(13)
C3 0.0044(18) 0.0072(18) 0.010(2) 0.0012(13) 0.0021(14) 0.0013(13)
loop_
_atom_type_symbol
_atom_type_description
_atom_type_scat_dispersion_real
_atom_type_scat_dispersion_imag
_atom_type_scat_source
C C 0.0181 0.0091 'International Tables Vol C Tables 4.2.6.8 and 6.1.1.4'
Ag Ag 0.1306 4.282 'International Tables Vol C Tables 4.2.6.8 and 6.1.1.4'
N N 0.0311 0.018 'International Tables Vol C Tables 4.2.6.8 and 6.1.1.4'
O O 0.0492 0.0322 'International Tables Vol C Tables 4.2.6.8 and 6.1.1.4'
loop_
_geom_angle_atom_site_label_1
_geom_angle_atom_site_label_2
_geom_angle_atom_site_label_3
_geom_angle
_geom_angle_site_symmetry_1
_geom_angle_site_symmetry_3
O1 Ag1 O2 156.36(11) . 2_554
O1 Ag1 O4 108.94(11) . 8_565
O2 Ag1 O4 94.06(11) 2_554 8_565
O1 Ag1 O2 65.06(10) . 5_656
O2 Ag1 O2 130.23(10) 2_554 5_656
O4 Ag1 O2 71.77(10) 8_565 5_656
C1 O1 Ag1 123.6(3) . .
C2 O2 Ag1 122.0(2) . 2
C2 O2 Ag1 117.8(2) . 5_656
Ag1 O2 Ag1 110.16(11) 2 5_656
N1 O4 Ag1 119.6(3) . 8_566
O3 N1 O4 127.1(4) . .
O3 N1 C3 117.1(3) . .
O4 N1 C3 115.7(3) . .
O1 C1 C3 124.6(4) . .
O1 C1 C2 116.3(4) . 5_656
C3 C1 C2 119.0(4) . 5_656
O2 C2 C3 126.3(4) . .
O2 C2 C1 115.9(3) . 5_656
C3 C2 C1 117.7(4) . 5_656
C2 C3 C1 123.2(4) . .
C2 C3 N1 118.3(4) . .
C1 C3 N1 118.4(4) . .
loop_
_geom_bond_atom_site_label_1
_geom_bond_atom_site_label_2
_geom_bond_site_symmetry_2
_geom_bond_distance
Ag1 O1 . 2.370(3)
Ag1 O2 2_554 2.406(3)
Ag1 O4 8_565 2.508(3)
Ag1 O2 5_656 2.531(3)
O1 C1 . 1.230(5)
O2 C2 . 1.241(5)
O2 Ag1 2 2.406(3)
O2 Ag1 5_656 2.531(3)
O3 N1 . 1.211(5)
O4 N1 . 1.221(5)
O4 Ag1 8_566 2.508(3)
N1 C3 . 1.486(5)
C1 C3 . 1.428(6)
C1 C2 5_656 1.551(5)
C2 C3 . 1.417(5)
C2 C1 5_656 1.551(5)
loop_
_geom_torsion_atom_site_label_1
_geom_torsion_atom_site_label_2
_geom_torsion_atom_site_label_3
_geom_torsion_atom_site_label_4
_geom_torsion
_geom_torsion_site_symmetry_1
_geom_torsion_site_symmetry_4
O2 Ag1 O1 C1 125.1(3) 2_554 .
O4 Ag1 O1 C1 -68.8(3) 8_565 .
O2 Ag1 O1 C1 -10.5(3) 5_656 .
Ag1 O4 N1 O3 -8.0(5) 8_566 .
Ag1 O4 N1 C3 170.0(2) 8_566 .
Ag1 O1 C1 C3 -171.9(3) . .
Ag1 O1 C1 C2 11.0(5) . 5_656
Ag1 O2 C2 C3 42.7(5) 2 .
Ag1 O2 C2 C3 -175.3(3) 5_656 .
Ag1 O2 C2 C1 -135.0(3) 2 5_656
Ag1 O2 C2 C1 6.9(4) 5_656 5_656
O2 C2 C3 C1 -179.0(4) . .
C1 C2 C3 C1 -1.3(6) 5_656 .
O2 C2 C3 N1 0.3(6) . .
C1 C2 C3 N1 178.0(3) 5_656 .
O1 C1 C3 C2 -175.6(4) . .
C2 C1 C3 C2 1.3(6) 5_656 .
O1 C1 C3 N1 5.0(6) . .
C2 C1 C3 N1 -178.0(3) 5_656 .
O3 N1 C3 C2 -150.3(4) . .
O4 N1 C3 C2 31.5(5) . .
O3 N1 C3 C1 29.0(5) . .
O4 N1 C3 C1 -149.2(3) . .
