#------------------------------------------------------------------------------
#$Date: 2019-11-07 21:19:47 +0200 (Thu, 07 Nov 2019) $
#$Revision: 223480 $
#$URL: file:///home/coder/svn-repositories/cod/cif/7/23/22/7232273.cif $
#------------------------------------------------------------------------------
#
# This file is available in the Crystallography Open Database (COD),
# http://www.crystallography.net/
#
# All data on this site have been placed in the public domain by the
# contributors.
#
data_7232273
loop_
_publ_author_name
'Fayzullin, Robert R.'
'Shteingolts, Sergey A.'
'Lodochnikova, Olga A.'
'Mamedova, Vera L.'
'Korshin, Dmitry E.'
'Mamedov, Vakhid A.'
_publ_section_title
;
 Intermolecular head-to-head interaction of carbonyl groups in bicyclic
 hydrogen-bonded synthon based on \b-hydroxy ketones
;
_journal_issue                   10
_journal_name_full               CrystEngComm
_journal_page_first              1587
_journal_paper_doi               10.1039/C8CE02132E
_journal_volume                  21
_journal_year                    2019
_chemical_formula_moiety         'C15 H12 Br N O4'
_chemical_formula_sum            'C15 H12 Br N O4'
_chemical_formula_weight         350.17
_chemical_melting_point          375
_chemical_name_systematic
(2RS,3RS)-2-bromo-3-hydroxy-3-(2-nitrophenyl)-1-phenylpropan-1-one
_space_group_crystal_system      triclinic
_space_group_IT_number           2
_space_group_name_Hall           '-P 1'
_space_group_name_H-M_alt        'P -1'
_symmetry_space_group_name_Hall  '-P 1'
_symmetry_space_group_name_H-M   'P -1'
_atom_sites_solution_hydrogens   geom
_audit_creation_method           SHELXL-2018/3
_audit_update_record
;
2018-12-16 deposited with the CCDC.
2019-01-31 downloaded from the CCDC.
;
_cell_angle_alpha                92.370(4)
_cell_angle_beta                 103.440(4)
_cell_angle_gamma                94.136(4)
_cell_formula_units_Z            2
_cell_length_a                   7.746(2)
_cell_length_b                   7.881(2)
_cell_length_c                   12.467(4)
_cell_measurement_reflns_used    5076
_cell_measurement_temperature    293(2)
_cell_measurement_theta_max      27.50
_cell_measurement_theta_min      2.60
_cell_volume                     737.0(4)
_computing_cell_refinement       'APEX2 v2014.11-0 (Bruker AXS)'
_computing_data_collection       'APEX2 v2014.11-0 (Bruker AXS)'
_computing_data_reduction        'APEX2 v2014.11-0 (Bruker AXS)'
_computing_molecular_graphics
;
WinGX (Farrugia, 2012); Olex2 (Dolomanov et al., 2009);
ORTEP-3 (Farrugia, 2012); PLATON (Spek, 2009)
;
_computing_publication_material  'enCIFer (Allen, 2004)'
_computing_structure_refinement  'SHELXL-2018/3 (Sheldrick, 2015)'
_computing_structure_solution    'SHELXS-2013/1 (Sheldrick, 2008)'
_diffrn_ambient_temperature      293(2)
_diffrn_measured_fraction_theta_full 0.999
_diffrn_measured_fraction_theta_max 0.999
_diffrn_measurement_device_type  'Bruker APEX-II CCD'
_diffrn_measurement_method       '\w scans'
_diffrn_radiation_probe          x-ray
_diffrn_radiation_type           MoK\a
_diffrn_radiation_wavelength     0.71073
_diffrn_reflns_av_R_equivalents  0.0389
_diffrn_reflns_av_unetI/netI     0.0324
_diffrn_reflns_Laue_measured_fraction_full 0.999
_diffrn_reflns_Laue_measured_fraction_max 0.999
_diffrn_reflns_limit_h_max       9
_diffrn_reflns_limit_h_min       -9
_diffrn_reflns_limit_k_max       9
_diffrn_reflns_limit_k_min       -9
_diffrn_reflns_limit_l_max       15
_diffrn_reflns_limit_l_min       -15
_diffrn_reflns_number            11025
_diffrn_reflns_point_group_measured_fraction_full 0.999
_diffrn_reflns_point_group_measured_fraction_max 0.999
_diffrn_reflns_theta_full        25.242
_diffrn_reflns_theta_max         25.677
_diffrn_reflns_theta_min         1.682
_diffrn_source                   'sealed tube'
_exptl_absorpt_coefficient_mu    2.803
_exptl_absorpt_correction_T_max  0.7459
_exptl_absorpt_correction_T_min  0.3569
_exptl_absorpt_correction_type   multi-scan
_exptl_absorpt_process_details   SADABS-2014/5
_exptl_crystal_colour            colourless
_exptl_crystal_density_diffrn    1.578
_exptl_crystal_description       prism
_exptl_crystal_F_000             352
_exptl_crystal_recrystallization_method
'slow evaporation of an ethanol solution at r.t.'
_exptl_crystal_size_max          0.525
_exptl_crystal_size_mid          0.513
_exptl_crystal_size_min          0.278
_refine_diff_density_max         0.761
_refine_diff_density_min         -0.751
_refine_diff_density_rms         0.072
_refine_ls_extinction_method     none
_refine_ls_goodness_of_fit_ref   1.049
_refine_ls_hydrogen_treatment    constr
_refine_ls_matrix_type           full
_refine_ls_number_parameters     191
_refine_ls_number_reflns         2789
_refine_ls_number_restraints     0
_refine_ls_restrained_S_all      1.049
_refine_ls_R_factor_all          0.0537
_refine_ls_R_factor_gt           0.0442
_refine_ls_shift/su_max          0.000
_refine_ls_shift/su_mean         0.000
_refine_ls_structure_factor_coef Fsqd
_refine_ls_weighting_details
'w=1/[\s^2^(Fo^2^)+(0.0523P)^2^+0.9680P] where P=(Fo^2^+2Fc^2^)/3'
_refine_ls_weighting_scheme      calc
_refine_ls_wR_factor_gt          0.1129
_refine_ls_wR_factor_ref         0.1188
_reflns_Friedel_coverage         0.000
_reflns_number_gt                2340
_reflns_number_total             2789
_reflns_threshold_expression     'I > 2\s(I)'
_cod_data_source_file            c8ce02132e2.cif
_cod_data_source_block           v519
_cod_depositor_comments
'Adding full bibliography for 7232272--7232275.cif.'
_cod_database_code               7232273
_shelx_shelxl_version_number     2018/3
_shelx_space_group_comment
;
The symmetry employed for this shelxl refinement is uniquely defined
by the following loop, which should always be used as a source of
symmetry information in preference to the above space-group names.
They are only intended as comments.
;
_shelx_estimated_absorpt_t_min   0.321
_shelx_estimated_absorpt_t_max   0.510
_shelx_res_file
;
TITL v519 in P-1
    shelx.res
    created by SHELXL-2018/3 at 13:31:31 on 29-Nov-2018
CELL 0.71073   7.74640   7.88120  12.46730  92.3698 103.4398  94.1357
ZERR    2.00   0.00220   0.00220   0.00350   0.0036   0.0036   0.0035
LATT   1
SFAC  C    H    N    O    BR
UNIT  30 24 2 8 2
MERG   2
OMIT    -2.00  51.36
OMIT     0  -1   1
OMIT    -3  -1   1
MORE -1
EQIV $1 -x+1, -y, -z+1
HTAB O3 O1_$1
EQIV $2 -x+2, -y+1, -z+2
HTAB C33 O11_$2
EQIV $3 -x+2, -y, -z+1
HTAB C36 O3_$3
FMAP   2
PLAN    8
SIZE     0.278   0.513   0.525
ACTA
BOND   $H
CONF
LIST   4
L.S.  20
TEMP    20.15
WGHT    0.052300    0.968000
FVAR       0.26477
BR1   5    0.773190    0.511627    0.567372    11.00000    0.05789    0.03988 =
         0.08844    0.00032   -0.00847    0.00113
O1    4    0.496676    0.177935    0.476982    11.00000    0.02925    0.05401 =
         0.04250    0.00123    0.00500   -0.00479
O3    4    0.839859   -0.001539    0.590648    11.00000    0.03133    0.03909 =
         0.05702   -0.00341    0.00530   -0.00112
AFIX 147
H3    2    0.739366   -0.050072    0.578224    11.00000   -1.50000
AFIX   0
O11   4    0.868944    0.487729    0.883240    11.00000    0.11024    0.18830 =
         0.09618   -0.03761    0.03560    0.06797
O12   4    0.783145    0.225333    0.857772    11.00000    0.07599    0.22503 =
         0.08771   -0.02032    0.05268   -0.02191
N1    3    0.887062    0.340870    0.853331    11.00000    0.04833    0.13948 =
         0.03548   -0.02489    0.01508    0.00579
C1    1    0.627151    0.216075    0.442061    11.00000    0.03142    0.03408 =
         0.03730    0.00349    0.00179    0.00298
C2    1    0.801018    0.276314    0.525211    11.00000    0.02926    0.04021 =
         0.03656    0.00207    0.00497    0.00063
AFIX  13
H2    2    0.900819    0.272490    0.489413    11.00000   -1.20000
AFIX   0
C3    1    0.834943    0.170241    0.626988    11.00000    0.02572    0.04348 =
         0.03051   -0.00146    0.00685    0.00511
AFIX  13
H31   2    0.740144    0.180123    0.666450    11.00000   -1.20000
AFIX   0
C11   1    0.623390    0.207215    0.322657    11.00000    0.04306    0.03542 =
         0.03477    0.00323    0.00425    0.00227
C12   1    0.459533    0.194055    0.247318    11.00000    0.04896    0.06781 =
         0.04137    0.00451    0.00000   -0.00012
AFIX  43
H12   2    0.355546    0.195747    0.272381    11.00000   -1.20000
AFIX   0
C13   1    0.449870    0.178496    0.135613    11.00000    0.07876    0.08687 =
         0.04154    0.00491   -0.00961   -0.00310
AFIX  43
H13   2    0.339498    0.170369    0.085598    11.00000   -1.20000
AFIX   0
C14   1    0.602461    0.174939    0.097823    11.00000    0.10961    0.07591 =
         0.03790   -0.00318    0.01738   -0.00488
AFIX  43
H14   2    0.594925    0.164013    0.022278    11.00000   -1.20000
AFIX   0
C15   1    0.765189    0.187329    0.170374    11.00000    0.08512    0.08435 =
         0.05603   -0.00399    0.03262   -0.00214
AFIX  43
H15   2    0.868231    0.184222    0.144401    11.00000   -1.20000
AFIX   0
C16   1    0.776378    0.204592    0.283109    11.00000    0.05150    0.06591 =
         0.04762    0.00036    0.01195    0.00345
AFIX  43
H16   2    0.887385    0.214476    0.332499    11.00000   -1.20000
AFIX   0
C31   1    1.014657    0.230707    0.702464    11.00000    0.02550    0.03921 =
         0.03080    0.00015    0.00608    0.00419
C32   1    1.040456    0.313544    0.805285    11.00000    0.03223    0.06598 =
         0.03080   -0.00373    0.00873    0.00726
C33   1    1.205899    0.376412    0.867819    11.00000    0.04370    0.08454 =
         0.03597   -0.01687   -0.00016    0.00572
AFIX  43
H33   2    1.216957    0.433844    0.936068    11.00000   -1.20000
AFIX   0
C34   1    1.353744    0.352902    0.827784    11.00000    0.02990    0.06786 =
         0.05050   -0.00344   -0.00316   -0.00079
AFIX  43
H34   2    1.466404    0.392751    0.869260    11.00000   -1.20000
AFIX   0
C35   1    1.334117    0.270283    0.726252    11.00000    0.02594    0.06995 =
         0.05288   -0.00328    0.00945    0.00684
AFIX  43
H35   2    1.433898    0.254327    0.698717    11.00000   -1.20000
AFIX   0
C36   1    1.166931    0.210516    0.664512    11.00000    0.03307    0.05757 =
         0.03730   -0.00947    0.00992    0.00691
AFIX  43
H36   2    1.156325    0.155256    0.595636    11.00000   -1.20000
AFIX   0
HKLF    4




REM  v519 in P-1
REM wR2 = 0.1188, GooF = S = 1.049, Restrained GooF = 1.049 for all data
REM R1 = 0.0442 for 2340 Fo > 4sig(Fo) and 0.0537 for all 2789 data
REM 191 parameters refined using 0 restraints

END

WGHT      0.0523      0.9679

REM Highest difference peak  0.761,  deepest hole -0.751,  1-sigma level  0.072
Q1    1   0.7289  0.4608  0.6232  11.00000  0.05    0.76
Q2    1   0.9047  0.1984  0.9401  11.00000  0.05    0.57
Q3    1   0.8064  0.4333  0.5164  11.00000  0.05    0.41
Q4    1   0.7677  0.3804  0.8155  11.00000  0.05    0.35
Q5    1   0.7443  0.0499  0.5990  11.00000  0.05    0.33
Q6    1   0.7630  0.6120  0.5686  11.00000  0.05    0.33
Q7    1   0.6288  0.2152  0.3786  11.00000  0.05    0.33
Q8    1   0.8182  0.2308  0.5750  11.00000  0.05    0.33
;
_shelx_res_checksum              43377
_shelx_hkl_file
;
   1   0   0    8.25    0.48
   1   0   0    8.60    0.47
   2   0   0  379.29   20.21
   2   0   0  379.79   20.22
   2   0   0  403.27   20.21
   2   0   0  394.46   20.20
  -3   0   0  248.53   13.43
   3   0   0  275.70   13.43
   3   0   0  259.92   13.44
   3   0   0  251.73   13.44
   3   0   0  253.13   13.43
   3   0   0  263.05   13.44
  -4   0   0   35.26    1.96
   4   0   0   37.11    1.98
   4   0   0   36.18    1.96
   4   0   0   37.25    1.97
   4   0   0   41.28    1.96
   4   0   0   36.55    1.98
  -5   0   0   74.32    3.99
   5   0   0   79.79    4.00
   5   0   0   77.79    4.01
   5   0   0   75.30    4.01
   5   0   0   73.95    3.98
  -6   0   0    1.31    0.20
  -6   0   0    1.00    0.26
   6   0   0    1.09    0.23
   6   0   0    0.94    0.14
   6   0   0    1.42    0.21
  -7   0   0   28.22    1.57
  -7   0   0   26.67    1.51
   7   0   0   27.07    1.56
   7   0   0   27.84    1.53
  -8   0   0    3.55    0.46
   8   0   0    4.03    0.48
   8   0   0    3.50    0.37
  -9   0   0    1.75    0.45
   9   0   0    2.22    0.48
   9   0   0    1.83    0.35
 -10   0   0    0.76    0.49
  10   0   0    0.26    0.50
  10  -1   0    0.10    0.54
 -10   1   0    0.59    0.49
   9  -1   0    4.12    0.57
  -9   1   0    3.92    0.54
   8  -1   0    0.86    0.26
   8  -1   0    0.59    0.36
  -8   1   0    0.87    0.29
  -8   1   0    0.15    0.34
   7  -1   0   55.19    3.00
   7  -1   0   56.11    2.95
  -7   1   0   54.70    2.95
   6  -1   0   11.18    0.73
   6  -1   0   12.06    0.76
   6  -1   0   11.69    0.69
  -6   1   0   11.50    0.69
   5  -1   0    4.37    0.38
   5  -1   0    4.01    0.25
   5  -1   0    3.95    0.31
   5  -1   0    3.73    0.33
  -5   1   0    3.68    0.28
  -5   1   0    4.23    0.30
   4  -1   0   15.22    0.75
   4  -1   0   14.66    0.80
   4  -1   0   14.97    0.78
   4  -1   0   13.66    0.79
  -4   1   0   12.56    0.76
  -4   1   0   13.33    0.77
   3  -1   0   21.13    1.09
   3  -1   0   20.55    1.08
   3  -1   0   20.28    1.05
  -3   1   0   19.33    1.07
  -3   1   0   18.71    1.06
   2  -1   0   96.94    4.81
   2  -1   0   95.83    4.83
   2  -1   0   98.56    4.84
  -2   1   0   88.96    4.82
  -2   1   0   83.28    4.82
   1  -1   0  324.08   16.58
   1  -1   0  331.37   16.59
  -1   1   0  303.80   16.57
  -1   1   0  317.38   16.56
   0  -1   0  140.93    7.37
   0  -1   0  134.32    7.37
   0   1   0  149.81    7.37
  -1  -1   0    1.19    0.09
   2   1   0  361.33   19.63
   2   1   0  371.74   19.62
   2   1   0  387.12   19.63
   2   1   0  364.21   19.63
   2   1   0  406.18   19.63
   3   1   0    3.81    0.25
   3   1   0    3.86    0.27
   3   1   0    4.19    0.24
   3   1   0    3.88    0.24
   4   1   0   94.54    4.94
   4   1   0   92.89    4.95
   4   1   0   94.42    4.95
   4   1   0   95.05    4.94
   4   1   0   96.38    4.93
  -5  -1   0   28.31    1.52
   5   1   0   27.37    1.52
   5   1   0   28.51    1.49
   5   1   0   27.69    1.52
  -6  -1   0   38.50    2.06
  -6  -1   0   36.43    2.02
   6   1   0   37.19    2.05
   6   1   0   37.56    2.04
   6   1   0   39.47    2.01
  -7  -1   0    0.72    0.28
   7   1   0    0.56    0.28
   7   1   0    1.18    0.25
   7   1   0    0.57    0.16
  -8  -1   0    1.27    0.37
   8   1   0    1.45    0.35
   8   1   0    1.13    0.30
  -9  -1   0   13.47    1.04
   9   1   0   13.58    0.92
   9   1   0   13.46    1.04
  10  -2   0   -0.27    0.65
 -10   2   0    0.36    0.52
   9  -2   0    0.88    0.47
  -9   2   0    0.94    0.39
  -9   2   0    0.70    0.44
   8  -2   0    1.23    0.41
  -8   2   0    1.06    0.40
  -8   2   0    1.13    0.34
   7  -2   0    0.98    0.32
  -7   2   0    0.38    0.25
   6  -2   0   66.80    3.71
   6  -2   0   72.23    3.73
  -6   2   0   70.71    3.68
   5  -2   0    3.01    0.29
   5  -2   0    2.42    0.26
  -5   2   0    3.11    0.27
  -5   2   0    2.01    0.21
   4  -2   0   26.24    1.32
   4  -2   0   25.54    1.26
   4  -2   0   24.41    1.31
  -4   2   0   23.44    1.29
  -4   2   0   20.80    1.27
   3  -2   0   10.22    0.58
   3  -2   0   10.50    0.58
  -3   2   0    9.45    0.54
  -3   2   0    9.84    0.55
   2  -2   0  120.98    6.15
   2  -2   0  114.45    6.14
  -2   2   0  119.24    6.13
  -2   2   0  116.81    6.13
   1  -2   0    4.82    0.28
   1  -2   0    4.76    0.28
   1  -2   0    4.09    0.26
  -1   2   0    3.97    0.25
  -1   2   0    4.02    0.25
  -1   2   0    3.86    0.24
   0  -2   0  144.46    7.39
   0  -2   0  149.11    7.37
   0  -2   0  132.17    7.39
   0   2   0  139.56    7.38
   0   2   0  142.78    7.38
  -1  -2   0  320.85   16.57
  -1  -2   0  302.27   16.57
   1   2   0  326.64   16.56
   1   2   0  322.87   16.56
   1   2   0  322.31   16.56
  -2  -2   0  244.82   13.40
  -2  -2   0  252.23   13.42
   2   2   0  254.82   13.41
   2   2   0  278.49   13.41
   2   2   0  260.74   13.42
  -3  -2   0   84.39    4.44
  -3  -2   0   84.08    4.46
   3   2   0   85.29    4.44
   3   2   0   84.54    4.46
   3   2   0   86.63    4.45
   3   2   0   86.37    4.45
  -4  -2   0   20.11    1.12
  -4  -2   0   20.45    1.08
   4   2   0   19.60    1.09
   4   2   0   20.16    1.08
   4   2   0   19.39    1.07
  -5  -2   0    1.59    0.26
  -5  -2   0    2.34    0.23
   5   2   0    2.01    0.20
   5   2   0    2.50    0.20
   5   2   0    2.01    0.19
   5   2   0    1.92    0.23
  -6  -2   0    0.76    0.28
  -6  -2   0    0.45    0.22
   6   2   0    0.42    0.15
   6   2   0    0.63    0.21
   6   2   0    0.12    0.15
  -7  -2   0    1.19    0.30
  -7  -2   0    0.95    0.35
   7   2   0    1.02    0.20
   7   2   0    1.10    0.26
  -8  -2   0   -0.08    0.39
   8   2   0   -0.09    0.19
   8   2   0   -0.19    0.26
  -9  -2   0    1.54    0.51
   9   2   0    1.86    0.38
 -10  -2   0    0.04    0.51
  10   2   0   -0.01    0.39
 -10   3   0    1.05    0.54
   9  -3   0    0.93    0.50
  -9   3   0    0.92    0.46
  -9   3   0    0.50    0.50
   8  -3   0    9.24    0.96
  -8   3   0    9.92    0.87
  -8   3   0   11.59    0.81
   7  -3   0    0.55    0.29
   7  -3   0    0.52    0.34
  -7   3   0    0.51    0.26
   6  -3   0   30.88    1.73
   6  -3   0   32.17    1.75
  -6   3   0   30.26    1.69
   5  -3   0   10.57    0.66
   5  -3   0   10.32    0.69
  -5   3   0   10.92    0.63
  -5   3   0    9.94    0.60
   4  -3   0  120.24    6.21
   4  -3   0  119.81    6.22
  -4   3   0  113.53    6.17
  -4   3   0  120.69    6.19
   3  -3   0   10.74    0.63
   3  -3   0   10.53    0.65
  -3   3   0   11.62    0.62
  -3   3   0   10.86    0.61
   2  -3   0   75.18    3.92
   2  -3   0   78.74    3.88
   2  -3   0   71.28    3.91
   2  -3   0   73.14    3.90
  -2   3   0   74.58    3.90
  -2   3   0   74.55    3.90
   1  -3   0  206.37   10.66
   1  -3   0  201.26   10.66
   1  -3   0  204.01   10.64
  -1   3   0  205.96   10.64
  -1   3   0  208.69   10.63
  -1   3   0  202.30   10.64
   0  -3   0  508.67   26.25
   0  -3   0  484.12   26.26
   0  -3   0  507.39   26.24
   0   3   0  510.85   26.24
   0   3   0  516.53   26.24
  -1  -3   0    1.95    0.23
  -1  -3   0    2.80    0.21
   1   3   0    2.20    0.16
   1   3   0    2.44    0.18
   1   3   0    2.47    0.18
  -2  -3   0   52.13    2.79
  -2  -3   0   53.63    2.83
  -2  -3   0   49.09    2.84
   2   3   0   57.66    2.81
   2   3   0   54.04    2.82
   2   3   0   55.35    2.82
  -3  -3   0  120.34    6.40
  -3  -3   0  119.33    6.43
   3   3   0  125.33    6.42
   3   3   0  125.30    6.41
   3   3   0  124.63    6.40
  -4  -3   0   26.07    1.44
  -4  -3   0   25.22    1.39
   4   3   0   26.27    1.40
   4   3   0   25.24    1.38
   4   3   0   26.03    1.39
   4   3   0   27.02    1.42
  -5  -3   0   23.38    1.27
  -5  -3   0   22.84    1.34
   5   3   0   23.22    1.30
   5   3   0   23.54    1.28
  -6  -3   0    0.31    0.29
   6   3   0    0.37    0.23
   6   3   0   -0.04    0.17
  -7  -3   0   17.00    1.23
   7   3   0   20.63    1.14
   7   3   0   18.77    1.09
  -8  -3   0    0.61    0.41
   8   3   0    0.07    0.23
   8   3   0    0.50    0.32
  -9  -3   0   -0.51    0.45
   9   3   0    0.29    0.37
   9  -4   0    2.33    0.60
  -9   4   0    2.19    0.50
  -9   4   0    1.91    0.56
   8  -4   0    3.92    0.57
  -8   4   0    3.46    0.45
  -8   4   0    3.49    0.57
   7  -4   0    3.72    0.44
   7  -4   0    3.47    0.48
  -7   4   0    3.24    0.40
   6  -4   0    0.16    0.30
   6  -4   0    0.23    0.26
  -6   4   0    0.48    0.24
   5  -4   0    6.29    0.50
   5  -4   0    6.73    0.56
  -5   4   0    6.40    0.43
  -5   4   0    6.26    0.47
   4  -4   0   45.99    2.52
   4  -4   0   46.63    2.51
  -4   4   0   46.78    2.49
  -4   4   0   48.31    2.48
   3  -4   0    3.14    0.30
   3  -4   0    3.07    0.30
   3  -4   0    3.68    0.30
  -3   4   0    3.44    0.27
  -3   4   0    4.14    0.29
   2  -4   0  186.60    9.38
   2  -4   0  181.01    9.38
   2  -4   0  173.45    9.36
  -2   4   0  174.35    9.35
  -2   4   0  183.48    9.35
   1  -4   0   35.64    1.85
   1  -4   0   32.97    1.82
   1  -4   0   33.33    1.85
  -1   4   0   34.82    1.82
  -1   4   0   34.85    1.83
  -1   4   0   35.08    1.81
   0  -4   0  250.12   13.53
   0  -4   0  257.81   13.48
   0  -4   0  264.78   13.52
   0   4   0  263.16   13.50
   0   4   0  262.81   13.50
  -1  -4   0    5.95    0.41
  -1  -4   0    6.16    0.49
   1   4   0    6.30    0.38
   1   4   0    6.23    0.38
   1   4   0    5.77    0.35
  -2  -4   0   51.39    2.94
  -2  -4   0   53.42    2.91
   2   4   0   57.92    2.89
   2   4   0   56.10    2.87
   2   4   0   55.21    2.89
  -3  -4   0   24.40    1.34
  -3  -4   0   23.31    1.38
   3   4   0   24.31    1.32
   3   4   0   24.63    1.32
   3   4   0   24.84    1.30
  -4  -4   0    6.17    0.49
  -4  -4   0    5.61    0.55
   4   4   0    6.25    0.44
   4   4   0    6.38    0.42
  -5  -4   0   46.05    2.56
  -5  -4   0   47.45    2.53
   5   4   0   45.42    2.48
   5   4   0   48.04    2.50
  -6  -4   0    6.49    0.58
  -6  -4   0    5.81    0.53
   6   4   0    6.87    0.54
   6   4   0    6.52    0.48
  -7  -4   0    2.25    0.46
   7   4   0    2.20    0.30
  -8  -4   0   -0.28    0.44
  -8  -4   0   -0.68    0.42
   8   4   0    0.18    0.27
  -9  -4   0    0.43    0.49
   9   4   0    0.13    0.30
   9  -5   0    1.67    0.63
  -9   5   0    3.01    0.68
  -9   5   0    2.83    0.55
   8  -5   0    0.18    0.47
  -8   5   0   -0.21    0.48
  -8   5   0    0.24    0.38
   7  -5   0    2.70    0.49
  -7   5   0    3.73    0.43
   6  -5   0   10.05    0.76
   6  -5   0   10.59    0.84
  -6   5   0   10.40    0.72
   5  -5   0    0.06    0.27
   5  -5   0    0.13    0.23
  -5   5   0   -0.16    0.22
  -5   5   0    0.19    0.18
   4  -5   0   26.09    1.50
   4  -5   0   25.51    1.46
  -4   5   0   26.47    1.44
  -4   5   0   27.73    1.45
   3  -5   0    4.88    0.40
   3  -5   0    3.46    0.37
   3  -5   0    5.03    0.40
  -3   5   0    4.60    0.36
  -3   5   0    4.77    0.37
   2  -5   0   76.41    3.84
   2  -5   0   77.67    3.83
   2  -5   0   69.98    3.80
  -2   5   0   63.33    3.78
  -2   5   0   75.24    3.81
  -2   5   0   73.27    3.80
   1  -5   0    2.30    0.26
   1  -5   0    1.84    0.17
   1  -5   0    1.94    0.25
  -1   5   0    1.50    0.17
  -1   5   0    1.66    0.19
   0  -5   0    0.97    0.23
   0   5   0    0.56    0.14
   0   5   0    0.82    0.15
  -1  -5   0   35.43    1.90
  -1  -5   0   34.65    1.94
   1   5   0   33.44    1.85
   1   5   0   35.01    1.87
   1   5   0   36.26    1.87
  -2  -5   0   21.85    1.24
   2   5   0   21.92    1.22
   2   5   0   22.50    1.22
   2   5   0   22.17    1.19
  -3  -5   0    2.92    0.30
  -3  -5   0    2.67    0.40
   3   5   0    3.62    0.28
   3   5   0    2.22    0.25
  -4  -5   0   14.99    0.97
  -4  -5   0   15.42    1.08
   4   5   0   15.74    0.91
   4   5   0   16.86    0.93
  -5  -5   0    4.42    0.43
  -5  -5   0    3.19    0.51
   5   5   0    3.83    0.34
   5   5   0    4.86    0.45
  -6  -5   0    7.96    0.73
  -6  -5   0    8.09    0.73
   6   5   0    7.65    0.57
   6   5   0    7.79    0.62
  -7  -5   0    3.16    0.51
  -7  -5   0    3.97    0.63
   7   5   0    4.21    0.42
  -8  -5   0    0.33    0.47
   8   5   0    0.10    0.30
   8  -6   0    2.11    0.59
  -8   6   0    1.54    0.45
  -8   6   0    1.98    0.60
   7  -6   0    0.34    0.46
  -7   6   0    0.07    0.38
   6  -6   0    6.34    0.58
   6  -6   0    6.28    0.63
  -6   6   0    6.90    0.55
   5  -6   0    0.41    0.28
   5  -6   0    0.71    0.34
  -5   6   0   -0.09    0.27
   4  -6   0    7.61    0.66
   4  -6   0    6.69    0.54
   4  -6   0    7.03    0.54
  -4   6   0    7.08    0.54
  -4   6   0    6.41    0.53
   3  -6   0   10.95    0.70
   3  -6   0   11.12    0.77
   3  -6   0    9.83    0.65
  -3   6   0   10.41    0.67
  -3   6   0    9.85    0.66
   2  -6   0   20.31    1.10
   2  -6   0   19.94    1.14
   2  -6   0   16.86    1.08
  -2   6   0   18.07    1.06
  -2   6   0   18.60    1.05
   1  -6   0    8.41    0.63
   1  -6   0    8.45    0.66
  -1   6   0    7.33    0.54
  -1   6   0    7.50    0.51
  -1   6   0    8.80    0.52
   0  -6   0  103.22    5.54
   0  -6   0  108.75    5.53
   0   6   0  103.92    5.51
   0   6   0  103.83    5.49
  -1  -6   0   12.24    0.90
  -1  -6   0   11.60    0.79
   1   6   0   10.86    0.69
   1   6   0   12.87    0.73
   1   6   0   12.03    0.73
  -2  -6   0   34.05    1.91
  -2  -6   0   32.22    1.80
   2   6   0   31.64    1.76
   2   6   0   32.06    1.76
  -3  -6   0   32.82    2.02
  -3  -6   0   33.94    1.90
   3   6   0   35.62    1.87
   3   6   0   33.84    1.86
  -4  -6   0    8.32    0.78
  -4  -6   0    7.95    0.69
   4   6   0    8.21    0.59
   4   6   0    9.12    0.63
  -5  -6   0    6.95    0.74
  -5  -6   0    6.02    0.57
   5   6   0    5.92    0.51
   5   6   0    6.70    0.56
  -6  -6   0    0.65    0.71
  -6  -6   0    0.63    0.41
   6   6   0    0.82    0.30
   6   6   0    0.26    0.25
  -7  -6   0    5.43    0.62
   7   6   0    5.83    0.53
   7   6   0    6.71    0.68
  -8   7   0    3.36    0.70
   7  -7   0    0.95    0.55
  -7   7   0    1.20    0.53
  -7   7   0    0.77    0.42
   6  -7   0    5.93    0.66
  -6   7   0    5.75    0.57
   5  -7   0    0.24    0.40
  -5   7   0    0.55    0.33
   4  -7   0   11.87    0.77
   4  -7   0   10.90    0.94
  -4   7   0   10.16    0.75
  -4   7   0   10.74    0.77
   3  -7   0    0.82    0.39
   3  -7   0    1.32    0.32
  -3   7   0    0.80    0.29
  -3   7   0    0.96    0.28
   2  -7   0   21.06    1.19
   2  -7   0   19.63    1.23
  -2   7   0   18.62    1.12
  -2   7   0   18.87    1.14
   1  -7   0    3.95    0.45
   1  -7   0    3.63    0.43
  -1   7   0    3.51    0.33
  -1   7   0    3.16    0.35
   0  -7   0   41.76    2.17
   0  -7   0   41.08    2.19
   0   7   0   38.37    2.09
   0   7   0   37.35    2.11
   0   7   0   36.20    2.08
  -1  -7   0    2.07    0.37
  -1  -7   0    1.89    0.45
   1   7   0    1.87    0.29
   1   7   0    1.90    0.27
  -2  -7   0   11.05    1.03
  -2  -7   0   10.79    0.81
   2   7   0   11.13    0.72
   2   7   0    9.62    0.70
  -3  -7   0    3.22    0.62
  -3  -7   0    2.74    0.42
   3   7   0    2.41    0.32
   3   7   0    2.64    0.33
  -4  -7   0    2.82    0.45
  -4  -7   0    2.51    0.66
   4   7   0    2.91    0.34
   4   7   0    2.05    0.33
  -5  -7   0   12.28    0.99
   5   7   0   13.57    0.91
   5   7   0   12.44    0.84
  -6  -7   0    0.97    0.46
   6   7   0    0.50    0.31
   6   7   0    1.21    0.35
   7   7   0    2.68    0.44
   7  -8   0    1.07    0.61
  -7   8   0    0.36    0.64
   6  -8   0    2.29    0.58
  -6   8   0    1.86    0.48
   5  -8   0    0.49    0.48
  -5   8   0    0.22    0.41
   4  -8   0   10.92    0.77
   4  -8   0    9.58    0.83
  -4   8   0    9.64    0.79
  -4   8   0    9.65    0.80
   3  -8   0    0.88    0.47
   3  -8   0    0.97    0.38
  -3   8   0    0.66    0.35
  -3   8   0    0.84    0.33
   2  -8   0   35.46    1.87
   2  -8   0   34.23    1.90
  -2   8   0   28.88    1.78
  -2   8   0   29.89    1.79
   1  -8   0    0.30    0.40
   1  -8   0    1.05    0.45
  -1   8   0    0.58    0.28
  -1   8   0    0.75    0.32
   0  -8   0    9.67    0.84
   0  -8   0   10.21    0.94
   0   8   0    7.50    0.70
  -1  -8   0   13.39    1.02
  -1  -8   0   14.39    1.14
   1   8   0   12.15    0.87
   1   8   0   13.72    0.90
  -2  -8   0    4.63    0.55
  -2  -8   0    5.54    0.68
   2   8   0    3.91    0.45
   2   8   0    4.28    0.43
  -3  -8   0    7.63    0.87
  -3  -8   0    7.32    0.68
   3   8   0    7.76    0.66
   3   8   0    7.43    0.66
  -4  -8   0    0.41    0.46
   4   8   0    0.40    0.32
   4   8   0    0.50    0.33
  -5  -8   0    5.02    0.63
   5   8   0    3.95    0.48
   5   8   0    4.55    0.47
   6   8   0    0.16    0.36
   6  -9   0    4.38    0.93
   5  -9   0   -0.07    0.52
  -5   9   0    0.45    0.49
   4  -9   0    6.54    0.73
  -4   9   0    6.33    0.63
  -4   9   0    5.28    0.58
   3  -9   0    0.28    0.42
   3  -9   0    0.12    0.53
  -3   9   0   -0.08    0.39
  -3   9   0    0.02    0.38
   2  -9   0    8.95    0.73
   2  -9   0    7.85    0.77
  -2   9   0    7.02    0.62
  -2   9   0    6.10    0.63
   1  -9   0    6.19    0.69
   1  -9   0    7.33    0.70
  -1   9   0    4.42    0.54
   0  -9   0    5.89    0.67
   0  -9   0    6.42    0.70
   0   9   0    4.72    0.54
  -1  -9   0    5.39    0.67
  -1  -9   0    6.03    0.71
   1   9   0    5.36    0.56
  -2  -9   0    5.65    0.69
   2   9   0    4.74    0.48
   2   9   0    4.48    0.52
  -3  -9   0    9.10    0.83
   3   9   0    8.03    0.78
   3   9   0    7.56    0.68
  -4  -9   0    1.40    0.57
   4   9   0    1.27    0.39
   4   9   0    1.30    0.41
   4 -10   0    1.54    0.65
  -4  10   0    0.48    0.52
   3 -10   0   -0.02    0.45
   3 -10   0    0.48    0.59
  -3  10   0    0.03    0.46
  -3  10   0   -1.02    0.47
   2 -10   0    2.31    0.61
   2 -10   0    1.76    0.62
  -2  10   0    1.59    0.47
   1 -10   0    1.16    0.62
   1 -10   0    1.26    0.61
  -1  10   0    0.59    0.46
   0 -10   0    7.90    0.80
   0  10   0    5.30    0.63
  -1 -10   0    2.15    0.64
   1  10   0    2.42    0.50
  -2 -10   0    4.76    0.81
   3  10   0    3.14    0.50
   3  10  -1    0.44    0.40
   2  10  -1    3.08    0.61
  -2 -10   1    3.84    0.70
   1  10  -1    1.10    0.47
  -1 -10   1    0.92    0.60
  -1 -10   1    0.45    0.68
   0  10  -1    4.82    0.62
   0 -10   1    6.45    0.76
   0 -10   1    8.78    0.85
  -1  10  -1   -0.41    0.44
   1 -10   1    0.22    0.55
   1 -10   1   -0.26    0.62
  -2  10  -1    1.68    0.51
   2 -10   1    1.62    0.56
   2 -10   1    2.52    0.68
  -3  10  -1    0.04    0.46
  -3  10  -1    0.39    0.46
   3 -10   1   -0.09    0.63
  -4  10  -1    1.35    0.55
  -4  10  -1    1.74    0.57
   4 -10   1    1.84    0.68
   4   9  -1    3.13    0.47
   4   9  -1    3.80    0.49
  -4  -9   1    4.80    0.66
   3   9  -1    4.96    0.55
   3   9  -1    4.27    0.49
  -3  -9   1    6.23    0.69
  -3  -9   1    4.89    0.89
   2   9  -1    5.34    0.51
   2   9  -1    5.65    0.57
  -2  -9   1    5.99    0.82
  -2  -9   1    6.56    0.70
   1   9  -1    2.21    0.44
  -1  -9   1    1.79    0.55
  -1  -9   1    3.15    0.65
   0   9  -1    4.33    0.54
   0  -9   1    5.52    0.70
   0  -9   1    5.44    0.64
  -1   9  -1   -0.36    0.38
   1  -9   1    0.18    0.46
   1  -9   1    0.61    0.54
  -2   9  -1    7.57    0.70
  -2   9  -1    8.50    0.77
   2  -9   1    9.67    0.85
   2  -9   1    9.86    0.85
  -3   9  -1    2.03    0.45
  -3   9  -1    1.41    0.44
   3  -9   1    1.51    0.59
  -4   9  -1    5.74    0.63
  -4   9  -1    5.15    0.60
   4  -9   1    7.31    0.77
  -5   9  -1    0.48    0.49
   5  -9   1    0.07    0.55
   6   8  -1    1.77    0.38
   5   8  -1    4.24    0.46
   5   8  -1    4.29    0.49
  -5  -8   1    5.41    0.64
   4   8  -1    1.27    0.32
   4   8  -1    0.67    0.33
  -4  -8   1    2.60    0.79
  -4  -8   1    0.56    0.44
   3   8  -1    3.96    0.44
   3   8  -1    4.36    0.44
  -3  -8   1    4.58    0.56
  -3  -8   1    5.70    0.81
   2   8  -1   10.01    0.76
   2   8  -1   10.07    0.80
  -2  -8   1   15.30    1.22
  -2  -8   1   11.08    0.91
   1   8  -1    1.09    0.28
   1   8  -1    0.84    0.31
  -1  -8   1    1.15    0.52
  -1  -8   1    1.14    0.42
   0   8  -1   18.80    1.25
   0  -8   1   22.91    1.43
   0  -8   1   21.26    1.35
  -1   8  -1    0.14    0.31
   1  -8   1    0.80    0.46
   1  -8   1    0.02    0.37
  -2   8  -1   26.52    1.65
  -2   8  -1   27.47    1.63
   2  -8   1   31.68    1.70
   2  -8   1   30.45    1.77
  -3   8  -1    0.04    0.33
  -3   8  -1   -0.04    0.33
   3  -8   1    0.36    0.33
   3  -8   1   -0.11    0.46
  -4   8  -1    5.46    0.56
  -4   8  -1    6.91    0.58
   4  -8   1    7.48    0.72
  -5   8  -1    1.36    0.44
   5  -8   1    1.54    0.54
  -6   8  -1    1.27    0.48
   6  -8   1    1.71    0.59
  -7   8  -1    2.60    0.65
  -7  -7   1    1.88    0.79
   6   7  -1    1.04    0.33
   6   7  -1    0.58    0.30
  -6  -7   1    0.90    0.80
  -6  -7   1    0.32    0.46
   5   7  -1    2.29    0.33
   5   7  -1    2.14    0.36
  -5  -7   1    2.11    0.72
  -5  -7   1    1.78    0.43
   4   7  -1    4.28    0.42
   4   7  -1    4.38    0.41
  -4  -7   1    4.24    0.50
  -4  -7   1    4.56    0.75
   3   7  -1    0.48    0.25
   3   7  -1    0.61    0.26
  -3  -7   1    0.47    0.55
  -3  -7   1    0.77    0.35
   2   7  -1   11.82    0.76
   2   7  -1   11.08    0.74
  -2  -7   1   11.44    0.84
  -2  -7   1   10.98    0.93
   1   7  -1    1.24    0.28
   1   7  -1    1.21    0.25
  -1  -7   1    1.18    0.44
  -1  -7   1    1.62    0.35
   0   7  -1   34.22    1.99
   0   7  -1   34.61    1.95
   0   7  -1   36.60    1.97
   0  -7   1   38.07    2.03
   0  -7   1   38.63    2.07
  -1   7  -1    8.37    0.71
  -1   7  -1    9.11    0.68
   1  -7   1    9.81    0.72
   1  -7   1   10.19    0.85
  -2   7  -1   16.94    1.07
  -2   7  -1   16.97    1.05
   2  -7   1   19.71    1.11
   2  -7   1   18.43    1.19
  -3   7  -1    0.07    0.27
  -3   7  -1   -0.17    0.26
   3  -7   1   -0.12    0.38
  -4   7  -1   20.99    1.25
  -4   7  -1   20.86    1.25
   4  -7   1   22.22    1.39
   4  -7   1   20.29    1.26
  -5   7  -1    8.17    0.67
  -5   7  -1    6.40    0.73
   5  -7   1    7.97    0.72
   5  -7   1    7.41    0.69
  -6   7  -1    9.15    0.78
   6  -7   1    8.42    0.79
   6  -7   1    9.31    0.82
  -7   7  -1    2.15    0.48
   7  -7   1    2.77    0.62
  -8   7  -1    0.79    0.66
   7   6  -1    3.33    0.42
  -7  -6   1    3.14    0.53
  -7  -6   1    4.16    0.77
   6   6  -1    0.36    0.28
   6   6  -1    0.17    0.24
  -6  -6   1    0.55    0.41
  -6  -6   1    1.06    0.60
   5   6  -1    2.76    0.32
   5   6  -1    3.38    0.36
  -5  -6   1    2.74    0.58
  -5  -6   1    2.40    0.41
   4   6  -1   24.56    1.33
   4   6  -1   24.25    1.32
  -4  -6   1   21.78    1.56
  -4  -6   1   21.92    1.37
   3   6  -1   17.75    1.00
   3   6  -1   17.39    1.01
  -3  -6   1   15.92    1.24
  -3  -6   1   16.90    1.04
   2   6  -1   61.54    3.30
   2   6  -1   63.89    3.31
  -2  -6   1   60.70    3.41
  -2  -6   1   62.90    3.33
   1   6  -1    4.21    0.37
   1   6  -1    4.68    0.39
   1   6  -1    3.43    0.32
  -1  -6   1    4.59    0.50
  -1  -6   1    3.99    0.39
   0   6  -1   34.45    1.87
   0   6  -1   34.02    1.88
   0   6  -1   33.81    1.86
   0  -6   1   36.25    1.96
   0  -6   1   35.76    1.92
  -1   6  -1   11.03    0.69
  -1   6  -1   11.46    0.72
  -1   6  -1   11.34    0.68
   1  -6   1   12.13    0.81
   1  -6   1   12.33    0.77
  -2   6  -1   14.63    0.86
  -2   6  -1   14.57    0.87
   2  -6   1   15.46    0.96
   2  -6   1   13.62    0.85
   2  -6   1   15.41    0.90
  -3   6  -1   22.78    1.27
  -3   6  -1   22.28    1.26
   3  -6   1   21.72    1.28
   3  -6   1   23.51    1.36
  -4   6  -1   11.69    0.75
  -4   6  -1   11.43    0.77
   4  -6   1   12.61    0.73
   4  -6   1   11.12    0.86
   4  -6   1   11.24    0.78
  -5   6  -1    3.86    0.38
  -5   6  -1    2.71    0.33
   5  -6   1    2.44    0.39
   5  -6   1    3.38    0.46
  -6   6  -1    2.44    0.39
   6  -6   1    2.69    0.49
   6  -6   1    2.17    0.43
  -7   6  -1    0.43    0.38
   7  -6   1   -0.25    0.47
   7  -6   1    0.30    0.42
  -8   6  -1    0.73    0.45
   8  -6   1    0.88    0.57
   8   5  -1   -0.34    0.28
  -8  -5   1   -0.47    0.45
  -8  -5   1    0.82    0.57
   7   5  -1    1.16    0.31
  -7  -5   1    1.05    0.51
  -7  -5   1    1.17    0.45
   6   5  -1   22.27    1.26
   6   5  -1   21.95    1.23
  -6  -5   1   20.72    1.33
  -6  -5   1   21.63    1.45
   5   5  -1    9.13    0.59
   5   5  -1    9.33    0.62
  -5  -5   1    9.12    0.71
  -5  -5   1    7.74    0.73
   4   5  -1   22.46    1.22
   4   5  -1   22.87    1.23
  -4  -5   1   20.66    1.37
  -4  -5   1   21.14    1.26
   3   5  -1    2.40    0.24
   3   5  -1    2.04    0.22
  -3  -5   1    1.55    0.38
  -3  -5   1    1.66    0.26
   2   5  -1   68.09    3.48
   2   5  -1   68.41    3.48
   2   5  -1   63.89    3.45
  -2  -5   1   68.97    3.50
  -2  -5   1   60.71    3.55
   1   5  -1    0.53    0.15
   1   5  -1    0.24    0.13
   1   5  -1    0.52    0.11
  -1  -5   1    0.38    0.18
  -1  -5   1    0.41    0.29
   0   5  -1   31.24    1.67
   0   5  -1   31.45    1.65
   0   5  -1   30.85    1.66
   0  -5   1   32.71    1.70
   0  -5   1   30.40    1.72
   0  -5   1   29.85    1.64
  -1   5  -1   12.97    0.73
  -1   5  -1   12.45    0.70
  -1   5  -1   12.18    0.71
   1  -5   1   12.59    0.71
   1  -5   1   12.55    0.79
   1  -5   1   12.91    0.76
  -2   5  -1   94.05    4.95
  -2   5  -1   95.87    4.96
   2  -5   1   98.11    4.99
   2  -5   1   90.62    4.96
  -3   5  -1   10.53    0.64
  -3   5  -1   10.62    0.63
   3  -5   1   10.11    0.66
   3  -5   1   10.67    0.72
  -4   5  -1   17.58    1.00
  -4   5  -1   18.33    1.01
   4  -5   1   17.30    1.04
   4  -5   1   18.65    1.00
   4  -5   1   16.26    1.07
  -5   5  -1    9.40    0.62
  -5   5  -1    9.83    0.66
   5  -5   1    9.08    0.72
   5  -5   1    9.24    0.74
   5  -5   1   10.43    0.63
  -6   5  -1    6.89    0.54
   6  -5   1    6.81    0.60
   6  -5   1    6.40    0.59
  -7   5  -1   19.06    1.18
   7  -5   1   18.52    1.25
   7  -5   1   19.86    1.34
  -8   5  -1   -0.23    0.42
   8  -5   1    0.30    0.50
   8  -5   1    0.17    0.43
  -9   5  -1    2.05    0.54
   9   4  -1    1.92    0.34
  -9  -4   1    2.03    0.57
   8   4  -1    1.19    0.29
   8   4  -1    2.10    0.41
  -8  -4   1    0.90    0.49
   7   4  -1   10.04    0.75
   7   4  -1    8.10    0.61
  -7  -4   1    7.11    0.69
   6   4  -1    6.13    0.56
   6   4  -1    5.48    0.48
  -6  -4   1    6.09    0.57
   5   4  -1   25.37    1.39
   5   4  -1   24.59    1.36
  -5  -4   1   25.36    1.48
   4   4  -1   24.76    1.33
   4   4  -1   25.04    1.35
  -4  -4   1   24.08    1.37
  -4  -4   1   23.79    1.41
   3   4  -1    1.45    0.17
   3   4  -1    2.02    0.21
   3   4  -1    1.73    0.19
  -3  -4   1    1.57    0.22
  -3  -4   1    1.18    0.28
   2   4  -1   90.27    4.57
   2   4  -1   92.06    4.55
   2   4  -1   91.69    4.57
  -2  -4   1   81.00    4.62
  -2  -4   1   87.71    4.58
  -2  -4   1   80.86    4.55
   1   4  -1   11.98    0.67
   1   4  -1   12.00    0.67
   1   4  -1   11.82    0.65
  -1  -4   1   12.26    0.64
  -1  -4   1   11.84    0.69
  -1  -4   1   11.05    0.76
   0   4  -1  492.73   25.40
   0   4  -1  494.23   25.41
   0   4  -1  492.36   25.40
   0  -4   1  463.18   25.44
   0  -4   1  486.86   25.42
   0  -4   1  506.66   25.40
  -1   4  -1    0.37    0.10
  -1   4  -1    0.34    0.11
   1  -4   1    0.17    0.16
   1  -4   1    0.09    0.13
   1  -4   1    0.43    0.11
  -2   4  -1   79.87    4.10
  -2   4  -1   76.86    4.07
  -2   4  -1   78.67    4.09
   2  -4   1   78.44    4.11
   2  -4   1   77.57    4.12
  -3   4  -1    8.74    0.52
  -3   4  -1    8.60    0.53
   3  -4   1    9.03    0.52
   3  -4   1    8.35    0.55
   3  -4   1    8.17    0.58
  -4   4  -1    8.75    0.55
  -4   4  -1    8.29    0.53
   4  -4   1    8.89    0.62
   4  -4   1    8.52    0.58
   4  -4   1    9.39    0.55
  -5   4  -1   22.12    1.24
  -5   4  -1   22.26    1.26
   5  -4   1   24.09    1.25
   5  -4   1   21.75    1.32
   5  -4   1   23.06    1.31
  -6   4  -1    6.89    0.57
   6  -4   1    6.83    0.70
   6  -4   1    7.70    0.64
   6  -4   1    8.64    0.57
  -7   4  -1   24.09    1.39
   7  -4   1   24.02    1.43
   7  -4   1   23.01    1.48
  -8   4  -1    0.52    0.37
   8  -4   1    0.78    0.42
   8  -4   1    0.41    0.47
  -9   4  -1    3.34    0.53
  -9   4  -1    3.21    0.64
   9  -4   1    3.29    0.64
   9   3  -1    0.51    0.37
  -9  -3   1   -0.06    0.47
   8   3  -1    5.48    0.50
   8   3  -1    4.68    0.41
  -8  -3   1    4.12    0.57
   7   3  -1   17.46    1.05
   7   3  -1   19.72    1.11
  -7  -3   1   16.95    1.19
   6   3  -1    0.25    0.16
   6   3  -1    0.21    0.18
   6   3  -1    0.14    0.23
  -6  -3   1    0.32    0.29
   5   3  -1    0.27    0.20
   5   3  -1    0.45    0.17
   5   3  -1    0.35    0.19
  -5  -3   1    0.02    0.23
  -5  -3   1    0.18    0.15
   4   3  -1   64.95    3.26
   4   3  -1   61.29    3.29
   4   3  -1   62.62    3.28
  -4  -3   1   62.52    3.31
  -4  -3   1   60.29    3.27
   3   3  -1   -0.03    0.13
   3   3  -1    0.14    0.09
   3   3  -1    0.43    0.12
   3   3  -1    0.24    0.07
  -3  -3   1   -0.14    0.16
  -3  -3   1    0.11    0.08
   2   3  -1   40.26    2.13
   2   3  -1   41.47    2.14
   2   3  -1   44.46    2.11
  -2  -3   1   39.73    2.14
  -2  -3   1   38.40    2.11
  -2  -3   1   37.90    2.16
   1   3  -1   10.64    0.57
   1   3  -1   10.68    0.57
   1   3  -1   10.58    0.55
  -1  -3   1    9.85    0.56
  -1  -3   1   10.39    0.58
  -1  -3   1    8.95    0.63
   0   3  -1  181.21    9.54
   0   3  -1  187.62    9.54
   0   3  -1  181.66    9.53
   0  -3   1  196.74    9.54
   0  -3   1  186.75    9.55
   0  -3   1  166.75    9.56
  -1   3  -1   21.31    1.10
  -1   3  -1   20.79    1.12
  -1   3  -1   20.57    1.11
   1  -3   1   19.33    1.14
   1  -3   1   22.57    1.12
  -2   3  -1   65.56    2.99
  -2   3  -1   55.41    2.99
   2  -3   1   55.27    3.01
   2  -3   1   54.40    3.00
   2  -3   1   54.75    3.00
  -3   3  -1   10.25    0.59
  -3   3  -1    9.80    0.58
   3  -3   1   10.28    0.61
   3  -3   1   10.44    0.63
   3  -3   1   10.77    0.59
  -4   3  -1   61.62    3.41
  -4   3  -1   64.33    3.42
   4  -3   1   71.84    3.43
   4  -3   1   62.83    3.44
   4  -3   1   65.09    3.46
  -5   3  -1   27.81    1.59
  -5   3  -1   29.14    1.61
   5  -3   1   31.97    1.61
   5  -3   1   30.19    1.66
   5  -3   1   29.85    1.65
  -6   3  -1    0.69    0.24
   6  -3   1    0.60    0.26
   6  -3   1    0.21    0.28
   6  -3   1    0.63    0.19
  -7   3  -1    2.87    0.37
   7  -3   1    3.04    0.40
   7  -3   1    2.48    0.43
  -8   3  -1    0.54    0.36
   8  -3   1    0.77    0.45
   8  -3   1    0.62    0.38
  -9   3  -1    1.66    0.46
  -9   3  -1    1.27    0.54
   9  -3   1    2.01    0.57
 -10   3  -1    0.87    0.53
  10   2  -1    1.32    0.41
 -10  -2   1    1.40    0.55
   9   2  -1    0.94    0.34
  -9  -2   1    0.34    0.46
   8   2  -1    0.38    0.20
   8   2  -1    0.46    0.30
  -8  -2   1    0.06    0.39
  -8  -2   1   -0.32    0.38
   7   2  -1    0.74    0.26
   7   2  -1    0.33    0.17
  -7  -2   1    0.19    0.32
  -7  -2   1    0.22    0.26
   6   2  -1   55.26    2.90
   6   2  -1   52.60    2.91
   6   2  -1   55.20    2.94
  -6  -2   1   59.14    2.95
  -6  -2   1   53.38    2.97
   5   2  -1   14.78    0.87
   5   2  -1   14.98    0.83
   5   2  -1   16.82    0.85
  -5  -2   1   14.28    0.91
  -5  -2   1   14.51    0.86
   4   2  -1   53.17    2.89
   4   2  -1   54.20    2.87
   4   2  -1   54.54    2.89
   4   2  -1   58.41    2.87
  -4  -2   1   53.33    2.88
  -4  -2   1   55.22    2.91
   3   2  -1    4.26    0.28
   3   2  -1    4.19    0.30
   3   2  -1    4.46    0.25
  -3  -2   1    4.23    0.27
  -3  -2   1    4.63    0.33
   2   2  -1  229.93   12.09
   2   2  -1  225.66   12.10
   2   2  -1  245.79   12.08
   2   2  -1  230.28   12.09
  -2  -2   1  234.87   12.09
  -2  -2   1  229.73   12.10
   1   2  -1   42.75    2.21
   1   2  -1   43.31    2.21
   1   2  -1   41.32    2.20
  -1  -2   1   41.19    2.20
  -1  -2   1   41.38    2.23
  -1  -2   1   42.49    2.22
   0   2  -1   12.75    0.70
   0   2  -1   12.85    0.69
   0   2  -1   13.86    0.69
   0  -2   1   12.15    0.72
   0  -2   1   13.26    0.70
  -1   2  -1  503.72   26.51
  -1   2  -1  514.93   26.50
  -1   2  -1  510.69   26.52
   1  -2   1  520.51   26.51
   1  -2   1  545.51   26.55
   1  -2   1  469.27   26.51
  -2   2  -1  155.72    8.21
  -2   2  -1  147.57    8.21
   2  -2   1  161.01    8.21
   2  -2   1  164.21    8.22
   2  -2   1  161.36    8.23
  -3   2  -1   52.02    3.01
  -3   2  -1   57.94    3.02
   3  -2   1   60.03    3.04
   3  -2   1   59.20    3.02
   3  -2   1   59.24    3.04
  -4   2  -1   46.12    2.63
  -4   2  -1   49.21    2.62
  -4   2  -1   50.69    2.65
   4  -2   1   52.73    2.68
   4  -2   1   50.43    2.67
   4  -2   1   52.65    2.64
  -5   2  -1   13.84    0.85
  -5   2  -1   14.71    0.87
   5  -2   1   15.86    0.91
   5  -2   1   17.18    0.87
   5  -2   1   15.85    0.93
  -6   2  -1    0.20    0.20
   6  -2   1    0.67    0.25
   6  -2   1    0.36    0.16
   6  -2   1    0.56    0.27
  -7   2  -1    0.58    0.28
   7  -2   1    0.52    0.30
   7  -2   1    0.50    0.20
   7  -2   1    0.71    0.34
  -8   2  -1    0.42    0.33
   8  -2   1    0.05    0.39
  -9   2  -1    4.01    0.60
  -9   2  -1    3.59    0.50
   9  -2   1    3.90    0.61
  10   1  -1    0.26    0.38
 -10  -1   1   -0.84    0.52
   9   1  -1    3.97    0.45
  -9  -1   1    3.99    0.53
   8   1  -1    4.91    0.49
   8   1  -1    4.40    0.45
  -8  -1   1    5.73    0.52
   7   1  -1    3.04    0.36
   7   1  -1    3.11    0.33
  -7  -1   1    2.73    0.36
   6   1  -1  110.39    5.84
   6   1  -1  110.13    5.84
  -6  -1   1  114.15    5.84
  -6  -1   1  110.17    5.81
   5   1  -1    8.53    0.54
   5   1  -1    8.65    0.57
   5   1  -1    8.38    0.51
   5   1  -1    9.33    0.50
  -5  -1   1    8.46    0.51
  -5  -1   1    9.17    0.55
   4   1  -1  118.25    6.21
   4   1  -1  119.01    6.22
   4   1  -1  117.62    6.22
   4   1  -1  125.35    6.20
  -4  -1   1  115.53    6.20
  -4  -1   1  119.12    6.22
   3   1  -1    4.97    0.29
   3   1  -1    5.06    0.31
   3   1  -1    4.94    0.32
   3   1  -1    5.19    0.30
  -3  -1   1    4.60    0.30
   2   1  -1   89.72    4.58
   2   1  -1   89.76    4.57
   2   1  -1   91.46    4.57
   2   1  -1   85.35    4.58
  -2  -1   1   83.68    4.58
  -2  -1   1   87.36    4.59
   1   1  -1  570.17   28.96
  -1  -1   1  546.16   28.93
  -1  -1   1  554.12   28.93
   0   1  -1    9.93    0.63
   0   1  -1   10.05    0.64
   0   1  -1    9.13    0.63
   0  -1   1   12.29    0.64
   0  -1   1   12.08    0.64
  -1   1  -1   75.42    4.48
  -1   1  -1   86.78    4.48
   1  -1   1   82.87    4.48
   1  -1   1   95.34    4.49
   1  -1   1   90.10    4.49
  -2   1  -1   77.61    4.02
  -2   1  -1   74.66    4.03
  -2   1  -1   73.70    4.03
   2  -1   1   81.27    4.03
   2  -1   1   76.72    4.04
   2  -1   1   80.24    4.04
  -3   1  -1   14.63    0.83
  -3   1  -1   14.52    0.82
   3  -1   1   15.39    0.84
   3  -1   1   15.65    0.83
   3  -1   1   15.81    0.85
   3  -1   1   15.82    0.81
  -4   1  -1   63.31    3.47
  -4   1  -1   63.83    3.47
   4  -1   1   68.43    3.49
   4  -1   1   69.07    3.47
   4  -1   1   68.39    3.45
   4  -1   1   64.21    3.49
  -5   1  -1   23.71    1.31
  -5   1  -1   23.59    1.32
   5  -1   1   24.02    1.35
   5  -1   1   25.13    1.36
   5  -1   1   25.44    1.29
  -6   1  -1   23.67    1.32
  -6   1  -1   23.80    1.34
   6  -1   1   24.62    1.37
   6  -1   1   25.26    1.39
  -7   1  -1   24.43    1.39
   7  -1   1   24.42    1.43
   7  -1   1   25.61    1.47
  -8   1  -1    0.03    0.30
   8  -1   1    0.05    0.36
  -9   1  -1    3.71    0.53
   9  -1   1    3.27    0.55
 -10   1  -1   -0.36    0.47
  10  -1   1    0.08    0.56
  10   0  -1    0.12    0.34
  10   0  -1   -0.32    0.49
 -10   0   1    0.04    0.48
   9   0  -1    0.36    0.31
   9   0  -1    0.05    0.40
  -9   0   1   -0.07    0.38
   8   0  -1    4.74    0.49
   8   0  -1    4.91    0.43
  -8   0   1    3.65    0.46
   7   0  -1    2.46    0.35
   7   0  -1    2.98    0.32
  -7   0   1    2.35    0.35
  -7   0   1    3.13    0.28
   6   0  -1   15.16    0.90
   6   0  -1   15.20    0.88
   6   0  -1   14.31    0.83
  -6   0   1   15.57    0.90
  -6   0   1   15.05    0.84
   5   0  -1    5.67    0.38
   5   0  -1    5.34    0.33
   5   0  -1    5.36    0.40
  -5   0   1    5.10    0.34
  -5   0   1    5.62    0.41
   4   0  -1  216.42   10.08
   4   0  -1  186.68   10.10
   4   0  -1  192.85   10.10
   4   0  -1  192.09   10.08
  -4   0   1  192.65   10.10
  -4   0   1  183.22   10.08
   3   0  -1   28.32    1.48
   3   0  -1   26.20    1.48
   3   0  -1   30.92    1.46
   3   0  -1   28.20    1.47
  -3   0   1   26.47    1.46
  -3   0   1   26.85    1.48
   2   0  -1  573.80   28.34
   2   0  -1  558.61   28.33
   2   0  -1  563.37   28.38
  -2   0   1  541.06   28.39
  -2   0   1  493.25   28.33
   1   0  -1    0.60    0.06
  -1   0   1    0.64    0.05
  -1   0   1    0.49    0.06
   0   0  -1  267.59   15.39
   0   0   1  324.53   15.39
   1   0   1    1.95    0.11
   1   0   1    1.87    0.11
   1   0   1    1.56    0.10
   1   0   1    1.42    0.11
   2   0   1    7.17    0.41
   2   0   1    7.38    0.41
   2   0   1    7.39    0.42
   2   0   1    7.74    0.42
   2   0   1    7.36    0.40
   3   0   1  140.55    7.29
   3   0   1  140.49    7.30
   3   0   1  137.21    7.28
   3   0   1  141.93    7.29
   4   0   1    2.51    0.21
   4   0   1    2.65    0.21
   4   0   1    2.49    0.24
   4   0   1    2.08    0.18
   4   0   1    2.40    0.24
  -5   0  -1   53.98    2.94
   5   0   1   58.20    2.96
   5   0   1   55.03    2.96
   5   0   1   55.66    2.92
  -6   0  -1    5.77    0.41
  -6   0  -1    5.43    0.45
   6   0   1    6.94    0.44
   6   0   1    5.58    0.49
   6   0   1    5.30    0.37
   6   0   1    6.07    0.49
  -7   0  -1   18.29    1.13
   7   0   1   20.19    1.12
   7   0   1   20.08    1.17
  -8   0  -1    0.41    0.34
  -8   0  -1    0.31    0.36
   8   0   1    0.61    0.25
   8   0   1    0.45    0.35
  -9   0  -1    0.28    0.41
   9   0   1    0.81    0.45
 -10   0  -1   -0.02    0.46
  10   0   1   -0.81    0.51
  10  -1  -1    2.07    0.58
 -10   1   1    1.88    0.54
   9  -1  -1    5.31    0.59
   9  -1  -1    4.63    0.47
  -9   1   1    4.64    0.57
   8  -1  -1    1.05    0.36
   8  -1  -1    0.56    0.27
  -8   1   1    1.25    0.28
  -8   1   1    0.74    0.36
   7  -1  -1    0.31    0.28
   7  -1  -1    0.50    0.21
  -7   1   1    0.46    0.28
  -7   1   1    0.46    0.21
   6  -1  -1    2.13    0.24
   6  -1  -1    1.88    0.27
  -6   1   1    1.60    0.21
  -6   1   1    1.65    0.27
   5  -1  -1    3.79    0.31
   5  -1  -1    3.20    0.22
   5  -1  -1    3.70    0.34
  -5   1   1    3.66    0.27
  -5   1   1    2.87    0.22
   4  -1  -1   76.54    3.92
   4  -1  -1   77.38    3.89
   4  -1  -1   78.82    3.91
  -4   1   1   67.40    3.88
  -4   1   1   73.12    3.89
   3  -1  -1   54.79    2.73
   3  -1  -1   53.49    2.75
   3  -1  -1   52.94    2.75
   3  -1  -1   54.01    2.75
  -3   1   1   46.86    2.72
  -3   1   1   51.92    2.73
   2  -1  -1  414.59   20.74
   2  -1  -1  396.94   20.75
   2  -1  -1  431.09   20.76
  -2   1   1  380.52   20.73
  -2   1   1  374.31   20.73
   1  -1  -1   86.57    3.92
   1  -1  -1   71.26    3.92
   1  -1  -1   63.92    3.91
  -1   1   1   75.93    3.91
  -1   1   1   78.16    3.91
   0  -1  -1   99.64    5.48
   0  -1  -1  103.36    5.48
   0   1   1  108.84    5.47
   0   1   1  106.64    5.47
   0   1   1  108.26    5.47
  -1  -1  -1  253.95   13.49
  -1  -1  -1  256.12   13.49
   1   1   1  256.57   13.49
   1   1   1  263.19   13.49
   1   1   1  269.93   13.49
   2   1   1   47.19    2.51
   2   1   1   46.46    2.51
   2   1   1   50.04    2.51
   2   1   1   48.35    2.51
   3   1   1    9.67    0.54
   3   1   1    9.88    0.54
   3   1   1    9.45    0.57
   3   1   1    9.73    0.54
   4   1   1   50.67    2.70
   4   1   1   51.33    2.71
   4   1   1   52.47    2.72
   5   1   1   72.77    3.73
   5   1   1   68.94    3.74
   5   1   1   71.83    3.75
   5   1   1   71.14    3.75
   6   1   1    5.16    0.37
   6   1   1    4.81    0.43
   6   1   1    4.96    0.46
   6   1   1    5.36    0.42
  -7  -1  -1   21.76    1.36
  -7  -1  -1   24.56    1.41
   7   1   1   25.75    1.36
   7   1   1   25.15    1.40
   7   1   1   23.83    1.32
  -8  -1  -1    0.90    0.37
   8   1   1    0.98    0.36
   8   1   1    0.99    0.28
  -9  -1  -1    4.82    0.65
   9   1   1    5.16    0.58
  10  -2  -1    1.65    0.59
 -10   2   1    1.78    0.55
   9  -2  -1    0.98    0.32
   9  -2  -1    1.45    0.47
  -9   2   1    1.48    0.47
  -9   2   1    1.45    0.39
   8  -2  -1    1.07    0.39
   8  -2  -1    0.50    0.25
  -8   2   1    0.35    0.37
  -8   2   1    0.73    0.31
   7  -2  -1    4.80    0.47
   7  -2  -1    4.68    0.39
  -7   2   1    4.17    0.38
  -7   2   1    5.14    0.48
   6  -2  -1   52.89    2.88
   6  -2  -1   54.82    2.86
  -6   2   1   54.38    2.88
  -6   2   1   52.59    2.84
   5  -2  -1   18.12    0.93
   5  -2  -1   16.84    0.95
  -5   2   1   14.35    0.87
  -5   2   1   16.93    0.91
   4  -2  -1   39.01    2.02
   4  -2  -1   39.00    2.06
   4  -2  -1   41.50    2.06
   4  -2  -1   40.21    2.07
  -4   2   1   35.27    2.02
  -4   2   1   37.43    2.04
   3  -2  -1    0.30    0.10
   3  -2  -1    0.29    0.11
   3  -2  -1    0.33    0.11
  -3   2   1    0.52    0.09
  -3   2   1    0.33    0.06
   2  -2  -1  207.79   10.42
   2  -2  -1  195.50   10.43
   2  -2  -1  189.51   10.40
   2  -2  -1  203.12   10.42
  -2   2   1  201.73   10.41
  -2   2   1  204.71   10.40
   1  -2  -1  258.00   13.06
   1  -2  -1  230.77   13.07
   1  -2  -1  257.69   13.05
  -1   2   1  254.53   13.05
  -1   2   1  255.56   13.05
   0  -2  -1  503.60   26.74
   0  -2  -1  517.09   26.75
   0   2   1  518.41   26.75
   0   2   1  513.12   26.74
   0   2   1  524.06   26.76
  -1  -2  -1  145.65    7.63
  -1  -2  -1  143.31    7.63
   1   2   1  143.90    7.62
   1   2   1  153.79    7.63
  -2  -2  -1   68.74    3.71
  -2  -2  -1   67.87    3.71
   2   2   1   69.93    3.71
   2   2   1   77.23    3.70
   2   2   1   73.65    3.71
   2   2   1   68.29    3.71
  -3  -2  -1   23.25    1.27
   3   2   1   25.19    1.26
   3   2   1   23.98    1.27
   3   2   1   24.15    1.26
   3   2   1   21.79    1.26
   3   2   1   22.97    1.26
  -4  -2  -1   27.29    1.52
   4   2   1   26.62    1.48
   4   2   1   28.62    1.50
   4   2   1   29.52    1.50
   4   2   1   27.64    1.48
   4   2   1   27.32    1.49
   5   2   1   13.16    0.75
   5   2   1   12.58    0.77
   5   2   1   13.28    0.74
  -6  -2  -1    2.32    0.29
   6   2   1    2.17    0.30
   6   2   1    1.90    0.22
   6   2   1    2.17    0.27
   6   2   1    2.51    0.24
  -7  -2  -1    9.81    0.89
  -7  -2  -1   13.76    0.86
   7   2   1   13.09    0.81
   7   2   1   12.38    0.75
  -8  -2  -1    0.34    0.38
   8   2   1    0.49    0.29
  -9  -2  -1    6.73    0.69
   9  -3  -1    0.14    0.49
  -9   3   1    0.50    0.39
  -9   3   1    0.10    0.45
   8  -3  -1   10.85    1.00
   8  -3  -1   12.92    0.84
  -8   3   1   13.48    0.87
  -8   3   1   12.29    0.94
   7  -3  -1   18.14    1.06
   7  -3  -1   16.98    1.16
  -7   3   1   17.94    1.15
  -7   3   1   18.66    1.07
   6  -3  -1   24.66    1.35
   6  -3  -1   23.69    1.39
  -6   3   1   24.04    1.33
   5  -3  -1    0.16    0.17
   5  -3  -1    0.67    0.19
   5  -3  -1    0.48    0.21
  -5   3   1    0.55    0.12
  -5   3   1    0.42    0.17
   4  -3  -1   45.34    2.49
   4  -3  -1   49.51    2.48
   4  -3  -1   45.77    2.48
  -4   3   1   46.23    2.45
  -4   3   1   46.35    2.46
   3  -3  -1    3.43    0.29
   3  -3  -1    3.38    0.27
   3  -3  -1    3.10    0.27
  -3   3   1    3.25    0.23
  -3   3   1    3.63    0.25
   2  -3  -1   41.90    2.25
   2  -3  -1   39.90    2.25
   2  -3  -1   44.19    2.22
   2  -3  -1   43.04    2.24
  -2   3   1   43.46    2.23
   1  -3  -1  135.36    7.18
   1  -3  -1  137.48    7.19
  -1   3   1  136.85    7.17
  -1   3   1  139.81    7.17
  -1   3   1  139.89    7.17
   0  -3  -1  138.02    7.29
   0  -3  -1  135.25    7.29
   0   3   1  139.08    7.26
   0   3   1  142.38    7.28
   0   3   1  142.32    7.28
   0   3   1  142.25    7.27
  -1  -3  -1    6.72    0.41
  -1  -3  -1    5.90    0.44
   1   3   1    6.89    0.39
   1   3   1    6.77    0.38
   1   3   1    6.99    0.39
  -2  -3  -1   56.29    2.97
  -2  -3  -1   54.68    2.93
  -2  -3  -1   53.13    2.97
   2   3   1   59.80    2.95
   2   3   1   57.60    2.96
   2   3   1   56.61    2.96
  -3  -3  -1   41.82    2.41
  -3  -3  -1   43.28    2.38
  -3  -3  -1   46.54    2.41
   3   3   1   46.81    2.39
   3   3   1   47.17    2.39
   3   3   1   46.82    2.40
  -4  -3  -1   10.20    0.65
  -4  -3  -1    9.23    0.66
  -4  -3  -1   10.63    0.59
   4   3   1   10.52    0.60
   4   3   1   10.38    0.61
   4   3   1   10.46    0.60
  -5  -3  -1   23.03    1.37
   5   3   1   24.32    1.32
   5   3   1   23.83    1.30
   5   3   1   24.54    1.30
  -6  -3  -1    0.23    0.29
   6   3   1    0.08    0.18
   6   3   1   -0.02    0.21
   6   3   1    0.12    0.23
  -7  -3  -1   12.35    1.03
   7   3   1   14.90    0.89
   7   3   1   16.62    0.94
  -8  -3  -1   -0.04    0.41
   8   3   1    0.01    0.23
 -10   4   1    0.47    0.48
   9  -4  -1   -0.11    0.51
  -9   4   1    0.74    0.44
  -9   4   1    0.52    0.53
   8  -4  -1    2.45    0.36
   8  -4  -1    1.86    0.49
  -8   4   1    1.91    0.49
  -8   4   1    2.62    0.41
   7  -4  -1   -0.15    0.23
   7  -4  -1   -0.02    0.34
  -7   4   1   -0.27    0.36
  -7   4   1    0.42    0.30
   6  -4  -1    5.58    0.44
   6  -4  -1    4.42    0.47
  -6   4   1    5.17    0.42
   5  -4  -1    1.89    0.26
   5  -4  -1    2.04    0.26
   5  -4  -1    1.90    0.29
  -5   4   1    2.04    0.25
   4  -4  -1   47.08    2.60
   4  -4  -1   51.05    2.59
   4  -4  -1   47.28    2.59
  -4   4   1   48.54    2.56
  -4   4   1   48.74    2.57
   3  -4  -1    3.42    0.33
   3  -4  -1    3.20    0.30
   3  -4  -1    2.92    0.26
  -3   4   1    2.86    0.25
  -3   4   1    3.08    0.25
   2  -4  -1  232.00   11.36
   2  -4  -1  211.85   11.38
   2  -4  -1  216.89   11.40
   2  -4  -1  216.75   11.40
  -2   4   1  218.20   11.38
  -2   4   1  216.70   11.38
   1  -4  -1    4.75    0.34
   1  -4  -1    4.19    0.34
  -1   4   1    4.06    0.28
  -1   4   1    3.74    0.28
  -1   4   1    3.87    0.26
   0  -4  -1   62.09    3.11
   0  -4  -1   56.74    3.11
   0   4   1   57.10    3.06
   0   4   1   58.72    3.08
   0   4   1   59.24    3.09
   0   4   1   59.20    3.08
  -1  -4  -1  139.74    7.95
  -1  -4  -1  153.93    7.93
   1   4   1  156.39    7.92
   1   4   1  151.82    7.91
   1   4   1  157.79    7.92
  -2  -4  -1   34.32    1.80
  -2  -4  -1   31.53    1.83
   2   4   1   32.66    1.76
   2   4   1   34.04    1.78
   2   4   1   34.03    1.78
  -3  -4  -1  104.30    5.52
  -3  -4  -1  102.10    5.54
   3   4   1  105.73    5.50
   3   4   1  108.69    5.50
   3   4   1  104.89    5.49
  -4  -4  -1    0.44    0.22
  -4  -4  -1    0.16    0.24
   4   4   1    0.76    0.19
   4   4   1    0.67    0.17
   4   4   1    0.68    0.16
  -5  -4  -1   45.77    2.62
  -5  -4  -1   47.85    2.60
   5   4   1   49.97    2.57
   5   4   1   47.95    2.55
  -6  -4  -1    2.38    0.42
  -6  -4  -1    2.64    0.39
   6   4   1    2.80    0.28
   6   4   1    3.09    0.32
  -7  -4  -1    1.84    0.48
  -7  -4  -1    2.20    0.43
   7   4   1    2.08    0.31
   7   4   1    2.32    0.28
  -8  -4  -1    1.37    0.48
   8   4   1    1.23    0.29
  -9  -4  -1    0.25    0.49
   9   4   1    0.25    0.29
   9  -5  -1    2.56    0.62
  -9   5   1    2.20    0.61
  -9   5   1    3.24    0.50
   8  -5  -1    0.03    0.46
  -8   5   1    0.37    0.48
  -8   5   1    0.26    0.38
   7  -5  -1   -0.25    0.25
   7  -5  -1    0.33    0.39
  -7   5   1   -0.15    0.31
  -7   5   1   -0.38    0.38
   6  -5  -1   31.26    1.65
   6  -5  -1   27.38    1.71
  -6   5   1   28.79    1.64
  -6   5   1   30.70    1.71
   5  -5  -1    1.78    0.26
   5  -5  -1    1.58    0.31
  -5   5   1    0.55    0.25
   4  -5  -1   71.85    3.93
   4  -5  -1   77.43    3.93
   4  -5  -1   72.25    3.95
  -4   5   1   74.47    3.91
  -4   5   1   75.98    3.92
   3  -5  -1   22.57    1.28
   3  -5  -1   24.91    1.31
   3  -5  -1   22.52    1.32
  -3   5   1   23.03    1.27
  -3   5   1   23.56    1.28
   2  -5  -1   54.44    3.06
   2  -5  -1   59.93    3.07
   2  -5  -1   60.65    3.02
  -2   5   1   55.76    3.04
  -2   5   1   56.94    3.04
   1  -5  -1   54.95    2.81
   1  -5  -1   52.77    2.80
  -1   5   1   50.97    2.75
  -1   5   1   52.61    2.77
  -1   5   1   53.26    2.78
  -1   5   1   51.30    2.77
   0  -5  -1   13.14    0.82
   0  -5  -1   13.23    0.81
   0   5   1   13.32    0.77
   0   5   1   13.55    0.77
   0   5   1   13.77    0.76
  -1  -5  -1   48.81    2.66
  -1  -5  -1   50.70    2.63
   1   5   1   48.36    2.59
   1   5   1   49.37    2.60
   1   5   1   48.64    2.60
  -2  -5  -1   13.22    0.79
  -2  -5  -1   12.11    0.88
   2   5   1   12.75    0.72
   2   5   1   12.37    0.75
   2   5   1   13.16    0.75
  -3  -5  -1   33.51    1.87
  -3  -5  -1   32.07    1.93
   3   5   1   33.65    1.83
   3   5   1   36.31    1.84
   3   5   1   34.33    1.83
  -4  -5  -1    8.92    0.79
  -4  -5  -1    8.77    0.66
   4   5   1    8.63    0.58
   4   5   1    9.14    0.60
  -5  -5  -1   15.45    1.16
  -5  -5  -1   16.37    1.05
   5   5   1   17.93    1.00
   5   5   1   16.14    0.96
  -6  -5  -1   -0.27    0.34
   6   5   1   -0.13    0.21
   6   5   1   -0.23    0.25
  -7  -5  -1    5.16    0.57
   7   5   1    4.92    0.48
   7   5   1    6.09    0.49
  -8  -5  -1    0.95    0.46
   8   5   1    1.17    0.32
   8  -6  -1    1.48    0.54
  -8   6   1    0.82    0.55
  -8   6   1    1.18    0.44
   7  -6  -1    0.08    0.44
  -7   6   1    0.69    0.46
  -7   6   1    0.64    0.38
   6  -6  -1    4.44    0.54
   6  -6  -1    5.36    0.44
  -6   6   1    4.75    0.52
  -6   6   1    3.76    0.45
   5  -6  -1    0.37    0.24
   5  -6  -1    0.46    0.33
  -5   6   1    0.43    0.27
  -5   6   1    0.12    0.29
   4  -6  -1   24.16    1.45
   4  -6  -1   27.64    1.42
  -4   6   1   23.40    1.38
  -4   6   1   24.14    1.37
   3  -6  -1    0.25    0.24
   3  -6  -1    0.28    0.27
  -3   6   1   -0.05    0.19
  -3   6   1    0.56    0.22
  -3   6   1    0.16    0.19
   2  -6  -1   23.46    1.26
   2  -6  -1   21.52    1.26
  -2   6   1   20.96    1.21
  -2   6   1   21.05    1.21
   1  -6  -1   53.18    2.76
   1  -6  -1   49.85    2.75
  -1   6   1   51.23    2.71
  -1   6   1   49.99    2.70
  -1   6   1   51.46    2.72
   0  -6  -1   37.95    2.05
   0  -6  -1   38.69    2.05
   0   6   1   36.15    2.01
   0   6   1   36.57    2.00
  -1  -6  -1   26.03    1.49
  -1  -6  -1   26.49    1.53
   1   6   1   27.27    1.44
   1   6   1   25.44    1.41
   1   6   1   25.48    1.44
  -2  -6  -1   10.74    0.86
  -2  -6  -1   10.44    0.70
   2   6   1    9.20    0.62
   2   6   1    8.95    0.58
   2   6   1    9.01    0.61
  -3  -6  -1   28.47    1.72
  -3  -6  -1   27.59    1.60
   3   6   1   27.60    1.55
   3   6   1   28.61    1.56
  -4  -6  -1    0.86    0.45
  -4  -6  -1    0.24    0.32
   4   6   1    0.44    0.25
   4   6   1    0.16    0.22
  -5  -6  -1    4.00    0.47
   5   6   1    3.37    0.35
   5   6   1    3.36    0.37
  -6  -6  -1    0.69    0.43
   6   6   1    0.77    0.27
   6   6   1    0.18    0.29
  -7  -6  -1    3.86    0.58
   7   6   1    3.66    0.40
   7   6   1    3.60    0.44
   8  -7  -1    3.85    0.71
  -8   7   1    3.23    0.60
  -8   7   1    4.21    0.69
   7  -7  -1   -0.15    0.50
  -7   7   1    0.32    0.48
  -7   7   1   -0.22    0.41
   6  -7  -1    3.29    0.53
   6  -7  -1    2.93    0.38
  -6   7   1    2.60    0.44
  -6   7   1    3.36    0.50
   5  -7  -1    2.29    0.35
   5  -7  -1    2.18    0.45
  -5   7   1    2.77    0.41
   4  -7  -1    6.85    0.60
   4  -7  -1    6.60    0.59
  -4   7   1    5.91    0.53
  -4   7   1    5.64    0.51
   3  -7  -1   13.62    0.90
   3  -7  -1   13.60    0.93
  -3   7   1   12.62    0.81
  -3   7   1   10.50    0.79
   2  -7  -1   10.22    0.83
   2  -7  -1   11.46    0.81
  -2   7   1   10.15    0.71
  -2   7   1   10.53    0.70
   1  -7  -1    6.16    0.55
   1  -7  -1    6.38    0.57
  -1   7   1    6.26    0.50
  -1   7   1    6.83    0.56
   0  -7  -1    4.17    0.47
   0  -7  -1    4.84    0.46
   0   7   1    3.33    0.36
   0   7   1    3.12    0.33
  -1  -7  -1   11.46    0.86
  -1  -7  -1   12.40    0.96
   1   7   1   12.14    0.77
   1   7   1   11.06    0.71
   1   7   1   11.69    0.77
  -2  -7  -1    2.74    0.51
  -2  -7  -1    2.51    0.42
   2   7   1    1.95    0.30
   2   7   1    2.18    0.30
  -3  -7  -1   10.88    1.01
  -3  -7  -1   10.94    0.86
   3   7   1   11.58    0.75
   3   7   1    9.95    0.73
  -4  -7  -1    0.33    0.39
   4   7   1   -0.29    0.25
   4   7   1    0.29    0.27
  -5  -7  -1   10.37    0.95
   5   7   1   11.00    0.81
   5   7   1   11.49    0.80
  -6  -7  -1    0.86    0.50
   6   7   1    0.42    0.32
   6   7   1    0.05    0.28
   7   7   1    2.19    0.37
   7  -8  -1    0.14    0.55
  -7   8   1   -0.40    0.48
   6  -8  -1    2.85    0.58
  -6   8   1    2.78    0.52
   5  -8  -1    0.36    0.32
   5  -8  -1    0.20    0.46
  -5   8   1    0.17    0.41
   4  -8  -1   11.47    1.05
   4  -8  -1   13.36    0.93
  -4   8   1   12.84    0.88
  -4   8   1   12.76    0.95
   3  -8  -1    7.68    0.67
   3  -8  -1    8.41    0.75
  -3   8   1    6.21    0.56
  -3   8   1    6.44    0.58
   2  -8  -1   18.43    1.19
   2  -8  -1   20.81    1.22
  -2   8   1   15.67    1.06
  -2   8   1   15.71    1.07
   1  -8  -1    6.55    0.60
   1  -8  -1    7.46    0.64
  -1   8   1    5.06    0.48
  -1   8   1    5.18    0.50
   0  -8  -1    5.34    0.57
   0  -8  -1    4.77    0.55
   0   8   1    4.72    0.44
   0   8   1    4.34    0.46
  -1  -8  -1   26.35    1.59
  -1  -8  -1   25.54    1.55
   1   8   1   24.46    1.46
   1   8   1   24.28    1.45
  -2  -8  -1    1.37    0.46
   2   8   1    0.34    0.30
   2   8   1    0.29    0.29
  -3  -8  -1   13.08    1.02
   3   8   1   12.67    0.90
   3   8   1   12.01    0.87
  -4  -8  -1    0.11    0.47
   4   8   1    0.15    0.31
   4   8   1    0.16    0.33
  -5  -8  -1    5.42    0.68
   5   8   1    5.62    0.54
   5   8   1    5.08    0.51
   6  -9  -1    3.79    0.67
   5  -9  -1    0.81    0.54
  -5   9   1   -0.46    0.48
   4  -9  -1    7.08    0.64
   4  -9  -1    6.17    0.71
  -4   9   1    4.80    0.61
   3  -9  -1    1.78    0.50
   3  -9  -1    0.95    0.51
  -3   9   1    0.75    0.38
  -3   9   1    0.31    0.41
   2  -9  -1    3.37    0.58
   2  -9  -1    3.95    0.60
  -2   9   1    3.42    0.46
  -2   9   1    3.29    0.47
   1  -9  -1   11.71    1.03
   1  -9  -1   11.67    1.04
  -1   9   1    9.38    0.80
  -1   9   1    9.41    0.82
   0  -9  -1    4.85    0.84
   0  -9  -1    3.66    0.61
   0   9   1    3.86    0.49
  -1  -9  -1    7.90    0.76
   1   9   1    5.58    0.58
   1   9   1    6.31    0.56
  -2  -9  -1    0.50    0.53
   2   9   1    1.07    0.37
   2   9   1    0.85    0.37
  -3  -9  -1    4.32    0.70
   3   9   1    4.66    0.51
   3   9   1    4.52    0.51
  -4  -9  -1    0.29    0.73
   4   9   1    0.16    0.37
   4   9   1    0.49    0.38
   4 -10  -1    1.51    0.60
   4 -10  -1    0.15    0.47
  -4  10   1   -0.07    0.50
   3 -10  -1    0.76    0.51
   3 -10  -1    0.51    0.56
  -3  10   1    0.56    0.45
  -3  10   1    0.31    0.47
   2 -10  -1    2.29    0.67
   2 -10  -1    3.31    0.66
  -2  10   1    1.73    0.49
   1 -10  -1    3.86    0.69
  -1  10   1    2.96    0.52
   0 -10  -1    2.31    0.68
   0  10   1    2.47    0.50
  -1 -10  -1    2.62    0.67
   1  10   1    1.94    0.49
   2  10   1    2.03    0.54
   3  10   1    1.44    0.58
   3  10  -2    0.21    0.39
  -3 -10   2    0.65    1.03
   2  10  -2    3.78    0.63
  -2 -10   2    5.56    0.73
  -2 -10   2    4.76    0.86
   1  10  -2   -0.49    0.45
  -1 -10   2   -0.40    0.67
  -1 -10   2   -0.03    0.54
   0  10  -2    1.69    0.52
   0 -10   2    2.99    0.61
   0 -10   2    3.53    0.75
  -1  10  -2    0.54    0.50
   1 -10   2    0.89    0.67
   1 -10   2    1.85    0.68
  -2  10  -2    1.11    0.50
   2 -10   2    1.11    0.67
  -3  10  -2    0.68    0.50
   3 -10   2    2.08    0.70
  -4  10  -2    1.08    0.52
  -4  10  -2    1.25    0.55
   4   9  -2    4.98    0.55
   4   9  -2    4.69    0.51
  -4  -9   2    5.64    0.70
  -4  -9   2    4.68    0.98
   3   9  -2    1.63    0.43
   3   9  -2    0.98    0.35
  -3  -9   2    1.53    0.77
  -3  -9   2    0.55    0.52
   2   9  -2    5.70    0.58
   2   9  -2    4.41    0.48
  -2  -9   2    5.84    0.82
  -2  -9   2    5.31    0.67
   1   9  -2    0.37    0.39
  -1  -9   2    0.98    0.49
  -1  -9   2    0.10    0.61
   0   9  -2   10.91    0.98
   0  -9   2   15.07    1.29
   0  -9   2   15.13    1.09
  -1   9  -2    4.37    0.54
   1  -9   2    4.75    0.58
   1  -9   2    4.01    0.68
  -2   9  -2    7.54    0.83
  -2   9  -2    7.78    0.69
   2  -9   2    7.92    0.82
  -3   9  -2    5.30    0.56
  -3   9  -2    4.68    0.57
   3  -9   2    5.48    0.74
  -4   9  -2    2.70    0.51
  -4   9  -2    3.49    0.53
   4  -9   2    4.36    0.70
  -5   9  -2    1.85    0.52
   5  -9   2    2.65    0.66
   6   8  -2    1.78    0.38
   6   8  -2    1.42    0.65
  -6  -8   2    2.42    1.19
   5   8  -2    4.64    0.50
   5   8  -2    4.16    0.47
  -5  -8   2    4.99    0.96
  -5  -8   2    4.47    0.59
   4   8  -2    2.49    0.38
   4   8  -2    2.18    0.37
  -4  -8   2    2.83    0.50
  -4  -8   2    3.15    0.82
   3   8  -2    0.96    0.34
   3   8  -2    0.79    0.30
  -3  -8   2    1.16    0.43
  -3  -8   2    1.46    0.72
   2   8  -2   16.28    1.07
   2   8  -2   17.19    1.10
  -2  -8   2   19.32    1.18
   1   8  -2    0.96    0.34
   1   8  -2    0.60    0.28
  -1  -8   2    1.12    0.54
  -1  -8   2    0.63    0.40
   0   8  -2   25.08    1.60
   0  -8   2   29.33    1.65
   0  -8   2   29.38    1.75
  -1   8  -2    2.32    0.40
   1  -8   2    3.01    0.54
   1  -8   2    2.98    0.43
  -2   8  -2   17.07    1.13
  -2   8  -2   16.12    1.06
   2  -8   2   19.67    1.32
  -3   8  -2    3.40    0.45
  -3   8  -2    3.57    0.45
   3  -8   2    4.58    0.61
  -4   8  -2    0.88    0.37
  -4   8  -2   -0.05    0.36
   4  -8   2    0.69    0.52
  -5   8  -2    4.81    0.68
  -5   8  -2    4.75    0.55
   5  -8   2    4.56    0.68
  -6   8  -2    0.91    0.48
   6  -8   2    1.05    0.59
   7  -8   2    1.69    0.57
   7   7  -2    1.38    0.47
  -7  -7   2    1.37    0.84
  -7  -7   2    0.66    0.64
   6   7  -2    1.73    0.38
   6   7  -2    1.86    0.33
  -6  -7   2    1.94    0.77
  -6  -7   2    1.68    0.50
   5   7  -2    0.55    0.28
   5   7  -2    0.80    0.31
  -5  -7   2    0.31    0.71
  -5  -7   2    0.76    0.39
   4   7  -2    4.93    0.45
   4   7  -2    5.86    0.47
  -4  -7   2    4.21    0.76
  -4  -7   2    5.19    0.53
   3   7  -2    1.17    0.27
   3   7  -2    1.44    0.29
  -3  -7   2    1.45    0.36
  -3  -7   2    1.51    0.60
   2   7  -2    8.71    0.63
   2   7  -2    8.63    0.65
  -2  -7   2    9.10    0.72
  -2  -7   2    9.02    0.82
   1   7  -2    0.28    0.25
   1   7  -2    0.48    0.21
  -1  -7   2    0.71    0.44
  -1  -7   2    0.47    0.31
   0   7  -2    8.39    0.62
   0   7  -2    7.91    0.54
   0   7  -2    7.14    0.56
   0  -7   2    8.34    0.67
   0  -7   2    9.71    0.81
  -1   7  -2    0.25    0.26
   1  -7   2    0.39    0.27
   1  -7   2    0.09    0.36
  -2   7  -2   14.28    0.87
  -2   7  -2   12.83    0.89
   2  -7   2   15.95    1.06
  -3   7  -2    2.73    0.35
  -3   7  -2    2.81    0.37
   3  -7   2    3.21    0.49
   3  -7   2    2.46    0.32
  -4   7  -2    7.70    0.67
  -4   7  -2    9.11    0.70
   4  -7   2    8.34    0.71
   4  -7   2    8.86    0.74
  -5   7  -2    6.73    0.65
  -5   7  -2    6.91    0.58
   5  -7   2    7.12    0.73
   5  -7   2    7.62    0.71
  -6   7  -2    2.83    0.45
   6  -7   2    2.48    0.50
   6  -7   2    2.24    0.57
  -7   7  -2    3.77    0.54
   7  -7   2    4.65    0.69
   7  -7   2    3.89    0.60
  -8  -6   2    1.41    0.76
   7   6  -2    0.45    0.31
  -7  -6   2    0.43    0.47
  -7  -6   2    0.75    0.68
   6   6  -2    4.33    0.42
   6   6  -2    3.57    0.37
  -6  -6   2    4.84    0.73
  -6  -6   2    3.56    0.50
   5   6  -2    1.23    0.29
   5   6  -2    1.13    0.25
  -5  -6   2    1.11    0.55
  -5  -6   2    1.11    0.36
   4   6  -2   30.21    1.70
   4   6  -2   31.04    1.68
  -4  -6   2   30.67    1.92
  -4  -6   2   30.47    1.73
   3   6  -2    0.21    0.21
   3   6  -2    0.15    0.20
  -3  -6   2   -0.85    0.43
  -3  -6   2   -0.17    0.25
   2   6  -2   27.21    1.52
   2   6  -2   27.84    1.53
  -2  -6   2   28.01    1.56
   1   6  -2   12.11    0.74
   1   6  -2   11.82    0.71
  -1  -6   2   12.16    0.97
  -1  -6   2   12.01    0.78
   0   6  -2   31.75    1.76
   0   6  -2   32.57    1.75
   0  -6   2   33.37    1.86
   0  -6   2   33.69    1.81
  -1   6  -2   47.78    2.64
  -1   6  -2   48.36    2.67
   1  -6   2   50.95    2.72
   1  -6   2   53.40    2.71
  -2   6  -2    4.38    0.39
   2  -6   2    4.13    0.41
   2  -6   2    4.57    0.45
   2  -6   2    4.11    0.41
  -3   6  -2   30.41    1.71
  -3   6  -2   31.53    1.72
   3  -6   2   31.60    1.74
   3  -6   2   30.84    1.70
   3  -6   2   32.25    1.79
  -4   6  -2   10.26    0.69
  -4   6  -2   10.26    0.69
   4  -6   2   10.19    0.82
   4  -6   2   10.22    0.75
  -5   6  -2    4.79    0.44
  -5   6  -2    3.81    0.39
   5  -6   2    4.26    0.51
   5  -6   2    3.66    0.47
  -6   6  -2    1.41    0.37
   6  -6   2    1.64    0.43
   6  -6   2    0.60    0.44
  -7   6  -2    0.48    0.41
   7  -6   2    0.11    0.44
   7  -6   2   -0.21    0.49
  -8   6  -2   -0.81    0.41
   8  -6   2   -0.44    0.48
   8  -6   2    0.07    0.55
  -9  -5   2    0.89    0.64
   8   5  -2    0.70    0.31
  -8  -5   2    0.63    0.48
  -8  -5   2    0.06    0.58
   7   5  -2    0.41    0.26
  -7  -5   2    0.04    0.49
  -7  -5   2    0.33    0.41
   6   5  -2   23.03    1.31
  -6  -5   2   22.35    1.38
  -6  -5   2   22.08    1.49
   5   5  -2    4.87    0.41
   5   5  -2    5.21    0.46
  -5  -5   2    4.80    0.58
  -5  -5   2    4.36    0.46
   4   5  -2   20.42    1.15
   4   5  -2   21.68    1.17
  -4  -5   2   19.95    1.20
  -4  -5   2   20.17    1.33
   3   5  -2    1.94    0.24
   3   5  -2    2.04    0.22
  -3  -5   2    1.52    0.39
  -3  -5   2    1.42    0.25
   2   5  -2   57.55    2.90
   2   5  -2   56.02    2.90
  -2  -5   2   49.98    2.98
  -2  -5   2   54.58    2.91
   1   5  -2    9.94    0.58
   1   5  -2    9.72    0.59
   1   5  -2    9.77    0.54
  -1  -5   2    9.50    0.61
  -1  -5   2    8.12    0.75
   0   5  -2   64.38    3.40
   0   5  -2   66.15    3.42
   0   5  -2   64.48    3.40
   0  -5   2   66.48    3.43
   0  -5   2   63.85    3.40
   0  -5   2   63.85    3.46
  -1   5  -2   22.54    1.25
  -1   5  -2   22.93    1.22
  -1   5  -2   22.62    1.25
   1  -5   2   23.04    1.30
   1  -5   2   22.44    1.24
  -2   5  -2   78.85    4.10
  -2   5  -2   78.52    4.12
   2  -5   2   75.63    4.12
   2  -5   2   80.14    4.11
   2  -5   2   78.09    4.15
  -3   5  -2   37.83    2.08
  -3   5  -2   38.18    2.08
   3  -5   2   38.62    2.13
   3  -5   2   39.98    2.08
   3  -5   2   39.57    2.11
  -4   5  -2   12.31    0.74
  -4   5  -2   12.28    0.74
   4  -5   2   13.18    0.72
   4  -5   2   11.25    0.83
   4  -5   2   11.46    0.79
  -5   5  -2   35.05    1.91
  -5   5  -2   34.46    1.90
   5  -5   2   35.43    1.96
   5  -5   2   35.06    1.97
  -6   5  -2    0.34    0.30
   6  -5   2    0.46    0.35
   6  -5   2    0.41    0.38
  -7   5  -2    3.49    0.46
   7  -5   2    3.32    0.52
   7  -5   2    3.67    0.56
  -8   5  -2    0.01    0.45
   8  -5   2    0.92    0.53
   8  -5   2    0.69    0.46
   9   4  -2    0.30    0.29
   9   4  -2    1.08    0.43
  -9  -4   2    0.38    0.55
   8   4  -2    0.37    0.25
   8   4  -2    0.73    0.38
  -8  -4   2    0.72    0.46
   7   4  -2    6.58    0.55
   7   4  -2    5.79    0.53
  -7  -4   2    5.21    0.59
   6   4  -2    2.93    0.36
   6   4  -2    1.88    0.28
   6   4  -2    2.21    0.24
  -6  -4   2    2.15    0.41
   5   4  -2    1.34    0.22
   5   4  -2    1.68    0.26
  -5  -4   2    1.55    0.35
   4   4  -2   29.30    1.71
   4   4  -2   32.03    1.68
   4   4  -2   33.17    1.71
  -4  -4   2   30.91    1.76
   3   4  -2    0.92    0.17
   3   4  -2    1.14    0.15
  -3  -4   2    1.30    0.30
  -3  -4   2    1.10    0.20
  -3  -4   2    1.43    0.16
   2   4  -2  133.31    6.76
   2   4  -2  137.39    6.79
   2   4  -2  133.15    6.79
  -2  -4   2  120.33    6.78
  -2  -4   2  126.60    6.84
  -2  -4   2  129.89    6.80
   1   4  -2    0.88    0.13
   1   4  -2    0.89    0.14
   1   4  -2    1.06    0.11
  -1  -4   2    0.69    0.25
  -1  -4   2    1.29    0.14
   0   4  -2   22.60    1.23
   0   4  -2   22.85    1.22
   0   4  -2   23.85    1.24
   0  -4   2   22.76    1.23
   0  -4   2   23.97    1.26
   0  -4   2   21.77    1.30
  -1   4  -2    1.21    0.14
  -1   4  -2    1.40    0.12
  -1   4  -2    1.13    0.16
   1  -4   2    0.82    0.19
   1  -4   2    0.95    0.16
   1  -4   2    1.47    0.16
  -2   4  -2   49.57    2.65
  -2   4  -2   50.18    2.66
  -2   4  -2   52.60    2.63
   2  -4   2   50.49    2.67
   2  -4   2   50.25    2.65
   2  -4   2   48.55    2.68
  -3   4  -2   32.98    1.77
  -3   4  -2   32.75    1.77
   3  -4   2   32.75    1.80
   3  -4   2   33.16    1.81
   3  -4   2   33.90    1.76
  -4   4  -2    1.48    0.20
  -4   4  -2    1.13    0.18
   4  -4   2    0.72    0.24
   4  -4   2    1.74    0.27
   4  -4   2    1.19    0.17
  -5   4  -2   26.53    1.47
  -5   4  -2   26.46    1.48
   5  -4   2   27.20    1.55
   5  -4   2   27.54    1.53
  -6   4  -2   14.16    0.88
   6  -4   2   14.18    0.98
   6  -4   2   13.67    0.94
  -7   4  -2   18.31    1.15
   7  -4   2   17.55    1.19
   7  -4   2   19.48    1.26
  -8   4  -2    0.83    0.40
   8  -4   2    0.29    0.48
   8  -4   2    0.81    0.43
  -9   4  -2    1.20    0.49
   9  -4   2   -0.10    0.57
   9   3  -2    2.45    0.44
   9   3  -2    1.32    0.29
  -9  -3   2    1.07    0.50
   8   3  -2    3.86    0.37
   8   3  -2    4.70    0.47
  -8  -3   2    3.99    0.56
   7   3  -2    0.31    0.21
   7   3  -2    0.22    0.28
  -7  -3   2    0.22    0.35
   6   3  -2    0.55    0.19
   6   3  -2    0.93    0.25
  -6  -3   2    0.70    0.30
  -6  -3   2    0.37    0.20
   5   3  -2    6.06    0.47
   5   3  -2    6.17    0.39
   5   3  -2    5.71    0.44
  -5  -3   2    6.49    0.53
  -5  -3   2    5.91    0.42
   4   3  -2   37.91    2.01
   4   3  -2   38.26    2.00
  -4  -3   2   36.84    2.03
  -4  -3   2   36.89    1.99
   3   3  -2   21.34    1.18
   3   3  -2   21.69    1.20
   3   3  -2   22.67    1.15
  -3  -3   2   21.67    1.17
  -3  -3   2   22.38    1.22
   2   3  -2   34.51    1.86
   2   3  -2   35.98    1.86
   2   3  -2   33.72    1.87
   2   3  -2   38.80    1.83
  -2  -3   2   33.64    1.85
  -2  -3   2   33.62    1.89
   1   3  -2    0.84    0.07
   1   3  -2    0.30    0.09
   1   3  -2    0.55    0.09
  -1  -3   2    0.43    0.10
  -1  -3   2    0.33    0.18
  -1  -3   2    0.64    0.11
   0   3  -2  139.91    6.95
   0   3  -2  140.90    6.96
   0   3  -2  134.08    6.95
   0  -3   2  132.49    6.96
   0  -3   2  120.76    6.98
  -1   3  -2    1.15    0.11
  -1   3  -2    1.22    0.11
  -1   3  -2    1.13    0.12
   1  -3   2    1.02    0.12
   1  -3   2    1.16    0.16
   1  -3   2    1.54    0.15
  -2   3  -2   13.38    0.77
  -2   3  -2   13.71    0.77
  -2   3  -2   13.94    0.74
   2  -3   2   15.14    0.77
   2  -3   2   14.73    0.80
   2  -3   2   13.61    0.81
  -3   3  -2   97.23    5.30
  -3   3  -2   98.05    5.30
   3  -3   2   99.98    5.33
   3  -3   2   99.38    5.32
   3  -3   2  112.71    5.30
  -4   3  -2   14.11    0.85
  -4   3  -2   15.44    0.87
   4  -3   2   15.03    0.91
   4  -3   2   17.24    0.86
   4  -3   2   15.07    0.92
  -5   3  -2   28.20    1.67
  -5   3  -2   30.43    1.69
   5  -3   2   34.39    1.67
   5  -3   2   31.58    1.74
   5  -3   2   31.14    1.73
  -6   3  -2    0.50    0.24
  -6   3  -2    0.19    0.17
   6  -3   2    0.40    0.30
   6  -3   2    0.00    0.28
  -7   3  -2   30.22    1.69
   7  -3   2   29.48    1.75
   7  -3   2   30.01    1.77
  -8   3  -2    0.37    0.37
   8  -3   2    0.74    0.41
   8  -3   2   -0.34    0.43
  -9   3  -2    0.66    0.47
   9  -3   2    1.11    0.56
  10   2  -2    2.41    0.46
 -10  -2   2    1.84    0.59
   9   2  -2    1.00    0.37
  -9  -2   2    0.91    0.49
   8   2  -2    1.83    0.25
   8   2  -2    2.50    0.37
  -8  -2   2    1.86    0.44
  -8  -2   2    2.34    0.39
   7   2  -2    0.21    0.17
   7   2  -2    0.32    0.26
  -7  -2   2   -0.23    0.32
  -7  -2   2    0.24    0.26
   6   2  -2   24.86    1.37
   6   2  -2   22.80    1.32
  -6  -2   2   24.20    1.40
  -6  -2   2   24.84    1.35
   5   2  -2   11.26    0.66
   5   2  -2   11.36    0.64
   5   2  -2   11.26    0.69
  -5  -2   2   11.35    0.67
  -5  -2   2   11.54    0.74
   4   2  -2   63.59    3.28
   4   2  -2   62.25    3.31
   4   2  -2   63.74    3.30
  -4  -2   2   62.42    3.30
  -4  -2   2   61.27    3.27
  -4  -2   2   63.68    3.32
   3   2  -2   15.87    0.82
   3   2  -2   14.74    0.81
   3   2  -2   14.53    0.79
  -3  -2   2   14.07    0.80
  -3  -2   2   14.80    0.83
  -3  -2   2   14.37    0.77
   2   2  -2  185.74   10.36
   2   2  -2  204.90   10.36
  -2  -2   2  205.92   10.37
  -2  -2   2  200.16   10.35
   1   2  -2  108.25    5.30
   1   2  -2  100.71    5.28
   1   2  -2  104.38    5.30
   1   2  -2   95.84    5.30
  -1  -2   2  102.39    5.30
  -1  -2   2   98.90    5.31
   0   2  -2 1000.00   48.63
   0   2  -2  872.52   48.67
   0   2  -2  991.63   48.64
   0  -2   2  826.82   48.64
   0  -2   2  969.25   48.68
   0  -2   2  960.74   48.64
  -1   2  -2  550.36   28.17
  -1   2  -2  569.87   28.20
  -1   2  -2  501.57   28.17
   1  -2   2  584.66   28.19
   1  -2   2  531.36   28.18
   1  -2   2  520.07   28.19
  -2   2  -2   72.41    3.77
  -2   2  -2   67.23    3.76
  -2   2  -2   66.69    3.77
   2  -2   2   77.16    3.79
   2  -2   2   73.29    3.79
   2  -2   2   77.17    3.77
  -3   2  -2  115.08    5.97
  -3   2  -2  112.64    5.97
  -3   2  -2  100.53    5.95
   3  -2   2  117.84    6.00
   3  -2   2  117.86    5.99
   3  -2   2  123.58    5.96
  -4   2  -2    0.38    0.08
  -4   2  -2    0.60    0.13
  -4   2  -2    0.49    0.14
   4  -2   2    0.82    0.12
   4  -2   2    0.54    0.18
   4  -2   2    0.79    0.19
  -5   2  -2   46.14    2.52
  -5   2  -2   46.37    2.53
   5  -2   2   48.49    2.57
   5  -2   2   50.86    2.52
   5  -2   2   46.26    2.56
  -6   2  -2    7.73    0.52
  -6   2  -2    8.13    0.57
   6  -2   2    8.26    0.51
   6  -2   2    7.69    0.66
   6  -2   2    7.99    0.62
  -7   2  -2    4.32    0.41
   7  -2   2    3.60    0.47
   7  -2   2    3.71    0.46
  -8   2  -2    1.17    0.38
   8  -2   2    1.03    0.41
   8  -2   2    1.13    0.44
  -9   2  -2    7.94    0.69
   9  -2   2    6.91    0.76
  10   1  -2    0.32    0.37
 -10  -1   2    0.55    0.49
 -10  -1   2   -0.03    0.57
   9   1  -2    1.49    0.37
  -9  -1   2    1.38    0.45
   8   1  -2   16.26    1.02
   8   1  -2   14.53    0.98
  -8  -1   2   14.53    1.01
   7   1  -2   30.73    1.78
   7   1  -2   32.45    1.77
  -7  -1   2   32.43    1.78
   6   1  -2   96.17    5.15
   6   1  -2   98.43    5.15
  -6  -1   2   99.26    5.16
   5   1  -2    1.07    0.17
   5   1  -2    1.13    0.19
   5   1  -2    1.41    0.13
   5   1  -2    1.13    0.14
  -5  -1   2    1.12    0.18
  -5  -1   2    1.09    0.12
   4   1  -2   44.58    2.19
   4   1  -2   42.13    2.21
   4   1  -2   42.24    2.20
   4   1  -2   41.37    2.21
  -4  -1   2   39.40    2.18
  -4  -1   2   40.74    2.21
   3   1  -2    5.20    0.31
   3   1  -2    5.02    0.30
   3   1  -2    5.20    0.28
  -3  -1   2    4.49    0.27
  -3  -1   2    4.28    0.30
   2   1  -2   21.22    1.09
   2   1  -2   20.86    1.11
   2   1  -2   21.98    1.11
  -2  -1   2   20.12    1.10
  -2  -1   2   20.09    1.11
   1   1  -2   67.83    3.63
   1   1  -2   74.21    3.63
  -1  -1   2   67.59    3.63
  -1  -1   2   68.73    3.63
   0   1  -2  111.58    5.84
   0   1  -2  111.86    5.83
   0   1  -2  116.88    5.84
   0  -1   2  117.13    5.83
   0  -1   2  111.09    5.85
   0  -1   2  104.53    5.85
  -1   1  -2  193.36   10.07
  -1   1  -2  168.52   10.06
   1  -1   2  198.31   10.07
   1  -1   2  213.39   10.08
   1  -1   2  195.92   10.08
  -2   1  -2  311.59   17.34
  -2   1  -2  313.47   17.35
   2  -1   2  346.31   17.37
   2  -1   2  345.21   17.36
   2  -1   2  332.39   17.36
   2  -1   2  356.46   17.35
  -3   1  -2   28.69    1.59
  -3   1  -2   29.46    1.58
   3  -1   2   29.90    1.60
   3  -1   2   32.30    1.58
   3  -1   2   30.40    1.61
   3  -1   2   29.70    1.61
  -4   1  -2    9.41    0.54
  -4   1  -2    9.52    0.56
   4  -1   2   10.28    0.55
   4  -1   2    9.55    0.59
   4  -1   2    9.51    0.60
  -5   1  -2   60.11    3.30
  -5   1  -2   60.16    3.29
   5  -1   2   64.07    3.28
   5  -1   2   62.93    3.32
   5  -1   2   65.22    3.32
  -6   1  -2    0.89    0.23
  -6   1  -2    1.04    0.20
   6  -1   2    1.01    0.28
   6  -1   2    0.98    0.18
   6  -1   2    0.94    0.26
  -7   1  -2   10.86    0.77
   7  -1   2   10.12    0.80
   7  -1   2   12.95    0.85
  -8   1  -2    0.97    0.35
   8  -1   2    0.70    0.39
   8  -1   2    0.29    0.38
  -9   1  -2    5.78    0.61
  -9   1  -2    5.37    0.66
   9  -1   2    6.86    0.67
  10   0  -2    0.01    0.35
  10   0  -2    0.35    0.50
 -10   0   2    0.73    0.49
   9   0  -2    0.34    0.32
   9   0  -2    0.68    0.42
  -9   0   2    0.22    0.39
   8   0  -2    3.02    0.41
   8   0  -2    2.76    0.36
  -8   0   2    2.86    0.41
   7   0  -2    7.76    0.63
   7   0  -2    7.52    0.58
  -7   0   2    7.52    0.60
  -7   0   2    8.43    0.56
   6   0  -2   29.34    1.62
   6   0  -2   30.12    1.63
   6   0  -2   28.66    1.58
  -6   0   2   29.54    1.58
  -6   0   2   30.33    1.63
   5   0  -2    6.22    0.42
   5   0  -2    5.47    0.36
   5   0  -2    5.82    0.41
  -5   0   2    5.72    0.36
  -5   0   2    6.26    0.42
   4   0  -2   76.39    4.12
   4   0  -2   90.54    4.11
   4   0  -2   75.06    4.13
   4   0  -2   79.56    4.14
  -4   0   2   73.89    4.11
  -4   0   2   77.54    4.13
   3   0  -2    6.79    0.35
   3   0  -2    5.95    0.38
   3   0  -2    6.43    0.39
  -3   0   2    6.28    0.38
   2   0  -2  106.76    5.46
   2   0  -2  102.65    5.45
  -2   0   2  104.12    5.44
   1   0  -2  183.56    9.05
   1   0  -2  172.82    9.06
   1   0  -2  166.79    9.05
   1   0  -2  162.47    9.05
  -1   0   2  183.03    9.05
  -1   0   2  177.65    9.06
   0   0  -2    5.16    0.30
   0   0   2    5.40    0.31
  -1   0  -2  103.27    5.61
  -1   0  -2   99.75    5.61
   1   0   2  113.15    5.61
   1   0   2  114.82    5.62
   2   0   2   25.45    1.35
   2   0   2   25.78    1.36
   2   0   2   25.65    1.35
   2   0   2   24.43    1.35
   2   0   2   26.31    1.34
   3   0   2  438.94   22.80
   3   0   2  415.15   22.79
   3   0   2  442.61   22.79
   3   0   2  444.17   22.78
   3   0   2  453.83   22.78
   4   0   2    0.38    0.15
   4   0   2    0.32    0.13
   4   0   2    0.33    0.09
   4   0   2    0.23    0.10
   4   0   2    0.39    0.12
  -5   0  -2   27.25    1.55
   5   0   2   29.42    1.58
   5   0   2   30.00    1.59
   5   0   2   29.04    1.55
   5   0   2   29.02    1.54
   5   0   2   28.91    1.56
  -6   0  -2    3.20    0.34
  -6   0  -2    3.38    0.30
   6   0   2    4.20    0.38
   6   0   2    4.11    0.34
   6   0   2    3.53    0.29
   6   0   2    3.50    0.35
  -7   0  -2    6.61    0.52
   7   0   2    6.58    0.62
   7   0   2    7.05    0.63
   7   0   2    7.14    0.60
  -8   0  -2    0.42    0.32
   8   0   2   -0.07    0.35
  -9   0  -2    0.04    0.43
   9   0   2   -0.14    0.43
 -10   0  -2    0.62    0.50
  10   0   2    0.76    0.64
  10  -1  -2    0.32    0.52
  10  -1  -2    1.15    0.39
 -10   1   2    0.83    0.49
   9  -1  -2    1.69    0.46
   9  -1  -2    0.67    0.32
  -9   1   2    0.75    0.41
   8  -1  -2    2.51    0.35
   8  -1  -2    3.32    0.43
  -8   1   2    3.26    0.46
  -8   1   2    3.22    0.42
   7  -1  -2   22.15    1.30
   7  -1  -2   21.60    1.27
  -7   1   2   23.32    1.30
  -7   1   2   21.46    1.23
   6  -1  -2   30.62    1.66
   6  -1  -2   29.57    1.68
  -6   1   2   31.06    1.68
  -6   1   2   30.52    1.63
   5  -1  -2   10.89    0.62
   5  -1  -2   10.32    0.63
   5  -1  -2    9.72    0.56
  -5   1   2   10.30    0.63
  -5   1   2    9.74    0.58
   4  -1  -2  100.21    5.37
   4  -1  -2  103.96    5.35
   4  -1  -2  102.98    5.37
  -4   1   2  104.43    5.38
  -4   1   2  102.03    5.35
   3  -1  -2  107.99    5.81
   3  -1  -2  112.66    5.81
   3  -1  -2  119.94    5.79
  -3   1   2  109.30    5.81
  -3   1   2  106.74    5.79
   2  -1  -2   60.38    3.02
   2  -1  -2   56.32    3.01
   2  -1  -2   54.61    3.02
  -2   1   2   59.01    3.01
  -2   1   2   58.11    3.02
   1  -1  -2    9.39    0.49
   1  -1  -2    8.05    0.50
  -1   1   2    9.23    0.49
  -1   1   2    9.58    0.48
   0  -1  -2   23.50    1.23
   0  -1  -2   21.60    1.23
   0   1   2   25.22    1.22
   0   1   2   23.26    1.22
   0   1   2   22.85    1.22
  -1  -1  -2   37.86    2.16
   1   1   2   41.99    2.16
   1   1   2   42.83    2.17
   1   1   2   42.30    2.16
   1   1   2   41.68    2.17
   2   1   2   70.51    3.87
   2   1   2   73.72    3.87
   2   1   2   75.58    3.87
   2   1   2   76.91    3.88
   2   1   2   74.43    3.88
   3   1   2  327.64   16.91
   3   1   2  328.43   16.91
   3   1   2  313.34   16.91
   3   1   2  332.87   16.91
   4   1   2    5.32    0.34
   4   1   2    5.19    0.35
   4   1   2    5.37    0.34
   5   1   2   99.93    5.43
   5   1   2  108.01    5.46
   5   1   2  103.74    5.45
   6   1   2    3.20    0.34
   6   1   2    3.92    0.36
   6   1   2    3.55    0.36
  -7  -1  -2    5.90    0.53
   7   1   2    7.86    0.63
   7   1   2    8.25    0.60
   7   1   2    7.45    0.62
  -8  -1  -2   11.66    0.91
   8   1   2   11.99    0.89
   9   1   2    0.79    0.44
  10  -2  -2    0.27    0.35
  10  -2  -2    2.01    0.58
 -10   2   2    0.75    0.51
   9  -2  -2    0.50    0.44
   9  -2  -2    0.55    0.31
  -9   2   2    0.47    0.43
   8  -2  -2    3.81    0.48
   8  -2  -2    4.23    0.40
  -8   2   2    2.86    0.45
  -8   2   2    3.53    0.37
   7  -2  -2    0.30    0.23
   7  -2  -2    1.00    0.30
  -7   2   2    0.43    0.22
  -7   2   2    0.55    0.30
   6  -2  -2   14.70    0.91
   6  -2  -2   14.75    0.88
  -6   2   2   14.90    0.85
  -6   2   2   14.48    0.89
   5  -2  -2   -0.01    0.17
   5  -2  -2    0.31    0.16
  -5   2   2    0.68    0.19
  -5   2   2    0.44    0.14
   4  -2  -2  162.06    7.93
   4  -2  -2  142.90    7.96
   4  -2  -2  154.92    7.97
  -4   2   2  152.34    7.96
  -4   2   2  149.62    7.92
  -4   2   2  153.41    7.94
   3  -2  -2   72.94    3.95
   3  -2  -2   73.77    3.94
   3  -2  -2   78.35    3.92
  -3   2   2   75.96    3.94
  -3   2   2   74.26    3.93
  -3   2   2   76.01    3.92
   2  -2  -2   65.68    3.52
   2  -2  -2   70.01    3.53
   2  -2  -2   61.21    3.54
  -2   2   2   70.75    3.52
  -2   2   2   68.82    3.53
  -2   2   2   68.43    3.52
   1  -2  -2  139.36    7.06
   1  -2  -2  138.83    7.06
   1  -2  -2  123.94    7.07
  -1   2   2  135.92    7.06
  -1   2   2  135.24    7.06
  -1   2   2  141.44    7.06
   0  -2  -2   19.77    0.98
   0  -2  -2   17.72    0.99
   0  -2  -2   17.82    0.98
   0   2   2   18.56    0.98
   0   2   2   19.15    0.98
   0   2   2   17.73    0.97
  -1  -2  -2  229.46   12.61
  -1  -2  -2  228.24   12.60
   1   2   2  245.82   12.60
   1   2   2  270.64   12.59
   1   2   2  239.02   12.60
   1   2   2  242.11   12.60
  -2  -2  -2   15.75    0.87
  -2  -2  -2   15.14    0.86
   2   2   2   16.92    0.85
   2   2   2   15.38    0.86
  -3  -2  -2   14.84    0.83
  -3  -2  -2   14.23    0.83
   3   2   2   14.68    0.81
   3   2   2   15.81    0.81
   3   2   2   14.49    0.81
  -4  -2  -2    1.57    0.21
   4   2   2    1.92    0.18
   4   2   2    1.47    0.17
   4   2   2    1.86    0.20
   4   2   2    1.68    0.20
   5   2   2   27.99    1.54
   5   2   2   27.35    1.54
   5   2   2   29.62    1.56
   5   2   2   30.11    1.56
   5   2   2   28.14    1.55
   6   2   2    0.25    0.17
   6   2   2    0.48    0.17
   6   2   2    0.42    0.21
   6   2   2    0.40    0.23
   6   2   2    0.14    0.20
  -7  -2  -2    4.51    0.53
   7   2   2    6.70    0.48
   7   2   2    7.32    0.53
  -8  -2  -2   -0.42    0.44
   8   2   2   -0.08    0.28
 -10   3   2    1.85    0.94
   9  -3  -2   -0.60    0.44
   9  -3  -2   -0.45    0.29
  -9   3   2    0.21    0.36
  -9   3   2    0.31    0.43
   8  -3  -2   11.34    0.96
   8  -3  -2   12.43    0.83
  -8   3   2   10.53    0.91
  -8   3   2   12.08    0.81
   7  -3  -2    3.46    0.37
   7  -3  -2    3.55    0.43
  -7   3   2    3.58    0.42
  -7   3   2    3.39    0.35
   6  -3  -2   14.38    0.93
   6  -3  -2   14.96    0.90
  -6   3   2   14.42    0.93
  -6   3   2   15.29    0.86
   5  -3  -2   25.59    1.49
   5  -3  -2   29.14    1.49
  -5   3   2   26.45    1.48
  -5   3   2   26.37    1.45
   4  -3  -2   14.50    0.87
   4  -3  -2   16.12    0.88
  -4   3   2   15.15    0.84
  -4   3   2   14.62    0.81
  -4   3   2   15.25    0.86
   3  -3  -2   85.29    4.58
   3  -3  -2   79.92    4.54
   3  -3  -2   87.56    4.59
  -3   3   2   92.38    4.55
  -3   3   2   89.23    4.57
  -3   3   2   89.80    4.56
   2  -3  -2    3.25    0.22
   2  -3  -2    3.10    0.26
   2  -3  -2    3.77    0.28
  -2   3   2    3.48    0.26
  -2   3   2    3.10    0.22
  -2   3   2    3.41    0.24
   1  -3  -2  128.58    6.54
   1  -3  -2  125.44    6.56
   1  -3  -2  125.26    6.54
  -1   3   2  124.89    6.54
  -1   3   2  125.77    6.54
  -1   3   2  123.70    6.53
   0  -3  -2    8.51    0.53
   0  -3  -2    8.94    0.52
   0   3   2    8.87    0.50
   0   3   2    9.01    0.48
   0   3   2    8.90    0.50
   0   3   2    9.21    0.51
  -1  -3  -2   21.42    1.14
  -1  -3  -2   19.94    1.14
   1   3   2   20.55    1.11
   1   3   2   20.63    1.11
   1   3   2   21.44    1.12
  -2  -3  -2    0.48    0.15
  -2  -3  -2    0.65    0.14
   2   3   2    0.55    0.12
   2   3   2    0.41    0.11
   2   3   2    0.81    0.09
  -3  -3  -2   25.22    1.54
  -3  -3  -2   28.59    1.54
   3   3   2   28.05    1.52
   3   3   2   28.83    1.53
   3   3   2   30.13    1.51
   3   3   2   29.42    1.52
  -4  -3  -2    0.60    0.20
  -4  -3  -2    0.11    0.19
   4   3   2    0.11    0.14
   4   3   2    0.05    0.16
   4   3   2    0.29    0.14
   4   3   2   -0.11    0.14
  -5  -3  -2   13.67    0.94
  -5  -3  -2   15.71    0.92
   5   3   2   15.13    0.87
   5   3   2   15.66    0.87
   5   3   2   15.57    0.88
  -6  -3  -2    0.06    0.29
  -6  -3  -2    0.08    0.28
   6   3   2    0.14    0.18
   6   3   2   -0.09    0.17
  -7  -3  -2   12.63    0.94
   7   3   2   13.40    0.81
   7   3   2   13.56    0.82
  -8  -3  -2    0.16    0.39
   8   3   2    0.16    0.24
 -10   4   2    2.99    0.55
   9  -4  -2   -0.04    0.35
   9  -4  -2   -0.30    0.49
  -9   4   2    0.42    0.40
  -9   4   2   -0.17    0.49
   8  -4  -2    1.95    0.47
   8  -4  -2    1.96    0.37
  -8   4   2    1.75    0.36
  -8   4   2    1.74    0.44
   7  -4  -2    1.79    0.32
   7  -4  -2    1.94    0.40
  -7   4   2    1.48    0.31
  -7   4   2    1.49    0.38
   6  -4  -2   12.11    0.78
   6  -4  -2   10.77    0.83
  -6   4   2   12.42    0.75
  -6   4   2   12.11    0.82
   5  -4  -2    5.04    0.49
   5  -4  -2    6.27    0.47
  -5   4   2    5.06    0.41
  -5   4   2    4.90    0.49
   4  -4  -2    9.43    0.62
   4  -4  -2    9.77    0.61
  -4   4   2    9.72    0.59
  -4   4   2    9.51    0.61
  -4   4   2    9.34    0.55
   3  -4  -2   21.44    1.18
   3  -4  -2   20.42    1.11
   3  -4  -2   20.73    1.17
  -3   4   2   21.49    1.13
   2  -4  -2   95.98    4.84
   2  -4  -2   89.30    4.87
   2  -4  -2   94.12    4.88
  -2   4   2   92.44    4.85
  -2   4   2   92.99    4.85
  -2   4   2   92.51    4.85
   1  -4  -2   24.08    1.31
   1  -4  -2   23.72    1.28
   1  -4  -2   24.52    1.26
  -1   4   2   23.52    1.25
  -1   4   2   22.92    1.27
  -1   4   2   23.14    1.27
   0  -4  -2   55.55    2.91
   0  -4  -2   51.87    2.90
   0   4   2   55.99    2.88
   0   4   2   57.12    2.89
   0   4   2   54.12    2.89
  -1  -4  -2  122.63    6.25
  -1  -4  -2  113.69    6.25
   1   4   2  120.65    6.23
   1   4   2  120.47    6.23
  -2  -4  -2    0.15    0.17
  -2  -4  -2    0.11    0.20
   2   4   2    0.11    0.11
   2   4   2    0.02    0.12
   2   4   2    0.07    0.12
  -3  -4  -2  117.67    6.16
  -3  -4  -2  118.69    6.15
   3   4   2  117.53    6.13
   3   4   2  117.82    6.13
   3   4   2  114.73    6.12
  -4  -4  -2    2.70    0.32
  -4  -4  -2    2.86    0.35
   4   4   2    3.54    0.32
   4   4   2    3.16    0.29
   4   4   2    3.72    0.28
  -5  -4  -2   31.27    1.70
  -5  -4  -2   29.79    1.72
   5   4   2   29.84    1.65
   5   4   2   29.86    1.64
  -6  -4  -2    1.72    0.38
   6   4   2    1.50    0.27
   6   4   2    2.06    0.26
  -7  -4  -2    2.15    0.45
   7   4   2    1.92    0.30
   7   4   2    2.14    0.29
  -8  -4  -2    2.78    0.51
   8   4   2    3.36    0.37
   9  -5  -2    1.29    0.55
  -9   5   2    0.73    0.52
  -9   5   2    0.88    0.45
   8  -5  -2    2.11    0.51
   8  -5  -2    2.38    0.38
  -8   5   2    2.33    0.43
  -8   5   2    1.92    0.51
   7  -5  -2    0.72    0.40
   7  -5  -2    0.59    0.31
  -7   5   2    0.58    0.32
  -7   5   2    0.47    0.40
   6  -5  -2   18.79    1.21
   6  -5  -2   20.66    1.15
  -6   5   2   17.85    1.16
  -6   5   2   19.09    1.12
   5  -5  -2    5.03    0.47
   5  -5  -2    6.71    0.52
  -5   5   2    5.32    0.53
  -5   5   2    5.57    0.47
   4  -5  -2   22.42    1.23
   4  -5  -2   20.90    1.23
  -4   5   2   20.65    1.18
  -4   5   2   22.24    1.20
  -4   5   2   21.35    1.21
   3  -5  -2   13.44    0.87
   3  -5  -2   15.06    0.88
  -3   5   2   14.38    0.84
  -3   5   2   15.22    0.83
   2  -5  -2    7.09    0.52
   2  -5  -2    6.97    0.41
   2  -5  -2    7.31    0.50
  -2   5   2    6.27    0.44
  -2   5   2    6.81    0.42
  -2   5   2    5.96    0.46
   1  -5  -2   12.29    0.73
   1  -5  -2   12.25    0.68
   1  -5  -2   11.92    0.75
  -1   5   2   11.23    0.70
  -1   5   2   12.31    0.69
   0  -5  -2   14.06    0.86
   0  -5  -2   13.86    0.84
   0   5   2   14.69    0.80
   0   5   2   14.45    0.81
   0   5   2   14.12    0.81
  -1  -5  -2   58.23    3.06
  -1  -5  -2   58.18    3.05
   1   5   2   55.77    3.02
   1   5   2   56.66    3.02
  -2  -5  -2   15.22    0.87
  -2  -5  -2   13.48    0.93
   2   5   2   13.31    0.80
   2   5   2   14.12    0.82
   2   5   2   14.61    0.82
  -3  -5  -2   25.51    1.45
  -3  -5  -2   24.38    1.50
   3   5   2   26.17    1.41
   3   5   2   26.63    1.42
   3   5   2   25.15    1.39
  -4  -5  -2    1.17    0.36
  -4  -5  -2    0.48    0.28
   4   5   2    0.52    0.21
   4   5   2    0.67    0.20
  -5  -5  -2   28.92    1.65
   5   5   2   27.29    1.56
   5   5   2   28.82    1.58
  -6  -5  -2    3.29    0.45
   6   5   2    3.20    0.36
   6   5   2    2.61    0.32
  -7  -5  -2    5.27    0.61
   7   5   2    5.65    0.52
   7   5   2    7.18    0.60
  -8  -5  -2    2.20    0.52
   8   5   2    1.65    0.35
  -9   6   2    0.10    0.66
   8  -6  -2    0.23    0.49
  -8   6   2    1.09    0.50
  -8   6   2    0.68    0.43
   7  -6  -2    1.31    0.33
   7  -6  -2    0.87    0.44
  -7   6   2    1.07    0.39
  -7   6   2    1.15    0.43
   6  -6  -2    4.14    0.50
   6  -6  -2    4.03    0.44
  -6   6   2    4.78    0.46
  -6   6   2    4.19    0.48
   5  -6  -2    1.73    0.29
   5  -6  -2    1.09    0.34
  -5   6   2    1.54    0.32
  -5   6   2    1.45    0.31
   4  -6  -2   12.11    0.79
   4  -6  -2   11.83    0.82
  -4   6   2   11.80    0.74
  -4   6   2   10.66    0.74
  -4   6   2   11.33    0.71
   3  -6  -2   10.96    0.77
   3  -6  -2   12.65    0.78
  -3   6   2   11.43    0.70
  -3   6   2   11.18    0.72
  -3   6   2   11.45    0.71
   2  -6  -2    9.55    0.68
   2  -6  -2   10.33    0.71
  -2   6   2    9.67    0.63
  -2   6   2    9.19    0.61
   1  -6  -2   75.62    3.93
   1  -6  -2   71.98    3.90
   1  -6  -2   77.59    3.87
  -1   6   2   72.87    3.88
  -1   6   2   70.08    3.87
   0  -6  -2   12.30    0.77
   0  -6  -2   11.26    0.75
   0   6   2   10.36    0.66
   0   6   2   10.44    0.68
   0   6   2   10.52    0.68
  -1  -6  -2   33.00    1.81
  -1  -6  -2   33.48    1.83
   1   6   2   30.84    1.76
   1   6   2   32.46    1.76
  -2  -6  -2    0.62    0.36
  -2  -6  -2    0.29    0.28
   2   6   2   -0.01    0.19
   2   6   2   -0.09    0.16
   2   6   2   -0.16    0.20
  -3  -6  -2   15.21    0.97
   3   6   2   14.04    0.87
   3   6   2   14.44    0.88
  -4  -6  -2    2.79    0.42
   4   6   2    2.61    0.31
   4   6   2    2.61    0.30
  -5  -6  -2    2.76    0.47
   5   6   2    2.73    0.34
   5   6   2    3.60    0.37
  -6  -6  -2    4.17    0.54
   6   6   2    3.49    0.37
   6   6   2    2.62    0.38
  -7  -6  -2    2.62    0.54
   7   6   2    2.34    0.34
   7   6   2    1.83    0.37
   8  -7  -2    2.86    0.61
  -8   7   2    2.83    0.61
  -8   7   2    2.73    0.53
   7  -7  -2    0.02    0.47
   7  -7  -2    0.79    0.36
  -7   7   2    1.11    0.47
  -7   7   2    1.13    0.42
   6  -7  -2    5.69    0.51
   6  -7  -2    5.30    0.60
  -6   7   2    6.16    0.56
  -6   7   2    4.73    0.55
   5  -7  -2    8.20    0.68
   5  -7  -2    7.22    0.65
  -5   7   2    7.78    0.69
   4  -7  -2    1.23    0.36
   4  -7  -2    1.05    0.35
  -4   7   2    0.80    0.27
  -4   7   2    1.07    0.31
   3  -7  -2   24.27    1.34
   3  -7  -2   21.49    1.33
  -3   7   2   22.14    1.27
  -3   7   2   20.29    1.25
   2  -7  -2    3.91    0.42
   2  -7  -2    3.57    0.45
  -2   7   2    3.67    0.36
  -2   7   2    3.30    0.37
   1  -7  -2   24.34    1.40
   1  -7  -2   24.17    1.29
   1  -7  -2   22.37    1.37
  -1   7   2   21.95    1.30
  -1   7   2   22.72    1.31
   0  -7  -2    0.07    0.32
   0  -7  -2    0.18    0.31
   0   7   2   -0.31    0.22
   0   7   2    0.19    0.23
   0   7   2   -0.08    0.22
  -1  -7  -2   10.42    0.86
  -1  -7  -2   12.06    0.90
   1   7   2   10.81    0.75
   1   7   2   11.61    0.86
   1   7   2   12.13    0.75
  -2  -7  -2    0.87    0.39
   2   7   2    0.60    0.26
   2   7   2    0.42    0.25
  -3  -7  -2   21.67    1.36
   3   7   2   21.99    1.27
   3   7   2   21.40    1.26
  -4  -7  -2    1.33    0.44
   4   7   2    0.65    0.27
   4   7   2    0.81    0.29
  -5  -7  -2    7.20    0.66
   5   7   2    4.71    0.49
   5   7   2    5.59    0.49
  -6  -7  -2    0.84    0.51
   6   7   2    0.93    0.32
   6   7   2    0.94    0.35
   7  -8  -2    0.52    0.54
  -7   8   2    1.48    0.51
   6  -8  -2    2.98    0.45
   6  -8  -2    3.76    0.57
  -6   8   2    2.04    0.51
   5  -8  -2    1.05    0.46
   5  -8  -2    0.99    0.38
  -5   8   2    0.65    0.41
   4  -8  -2   10.83    0.90
   4  -8  -2    9.26    0.93
  -4   8   2    8.82    0.83
   3  -8  -2    7.19    0.64
   3  -8  -2    6.21    0.61
  -3   8   2    5.98    0.53
  -3   8   2    7.34    0.58
   2  -8  -2    4.85    0.56
   2  -8  -2    4.16    0.50
  -2   8   2    3.62    0.44
  -2   8   2    3.32    0.42
   1  -8  -2   14.15    0.96
   1  -8  -2   13.69    1.05
  -1   8   2   11.14    0.83
  -1   8   2   10.50    0.80
   0  -8  -2    0.46    0.42
   0   8   2    0.25    0.30
   0   8   2    0.10    0.28
  -1  -8  -2   31.81    1.85
   1   8   2   31.21    1.75
   1   8   2   29.63    1.74
  -2  -8  -2    0.40    0.47
   2   8   2    0.52    0.31
   2   8   2    0.34    0.31
  -3  -8  -2   16.38    1.16
   3   8   2   15.25    0.99
   3   8   2   13.85    0.97
  -4  -8  -2    1.44    0.52
   4   8   2    1.72    0.37
   4   8   2    1.60    0.36
  -5  -8  -2    1.69    0.57
   5   8   2    2.90    0.41
   5   8   2    1.79    0.39
   6  -9  -2    1.81    0.58
   5  -9  -2    1.03    0.41
   5  -9  -2    0.86    0.50
  -5   9   2    0.75    0.48
   4  -9  -2    4.81    0.64
   4  -9  -2    6.40    0.65
  -4   9   2    4.87    0.60
   3  -9  -2    5.18    0.63
   3  -9  -2    6.11    0.66
  -3   9   2    4.50    0.52
  -3   9   2    4.81    0.56
   2  -9  -2   -0.38    0.50
   2  -9  -2    0.99    0.47
  -2   9   2    0.31    0.39
  -2   9   2   -0.11    0.36
   1  -9  -2   11.39    1.01
  -1   9   2    9.88    0.82
  -1   9   2    7.58    0.68
   0  -9  -2    0.71    0.54
   0   9   2    0.51    0.35
  -1  -9  -2   11.97    1.07
   1   9   2    9.73    0.82
   1   9   2    9.90    0.81
  -2  -9  -2    1.08    0.58
   2   9   2    1.14    0.38
   2   9   2    0.89    0.39
  -3  -9  -2    2.56    0.65
   3   9   2    2.68    0.44
   3   9   2    3.06    0.45
   4   9   2    0.32    0.40
   5 -10  -2    0.88    0.66
   4 -10  -2    0.04    0.63
   4 -10  -2   -0.23    0.53
  -4  10   2   -0.25    0.54
   3 -10  -2    1.41    0.55
  -3  10   2    1.03    0.53
  -3  10   2    2.08    0.48
   2 -10  -2    1.17    0.63
  -2  10   2    0.91    0.43
  -2  10   2    1.09    0.50
   1 -10  -2    4.69    0.75
  -1  10   2    3.47    0.53
   0 -10  -2    0.84    0.64
   0  10   2    0.19    0.42
  -1 -10  -2    3.32    0.69
   1  10   2    2.65    0.50
   3  10  -3   -0.06    0.38
  -3 -10   3   -0.27    0.87
   2  10  -3    3.66    0.84
  -2 -10   3    2.55    0.67
  -2 -10   3    3.95    0.86
   1  10  -3    1.03    0.49
  -1 -10   3    1.26    0.57
  -1 -10   3    0.94    0.72
   0  10  -3    1.03    0.52
   0 -10   3    1.30    0.71
  -1  10  -3    1.49    0.53
   1 -10   3    2.50    0.73
  -2  10  -3   -0.20    0.47
   2 -10   3    0.11    0.69
  -3  10  -3    2.08    0.57
   3 -10   3    2.86    0.78
  -4  10  -3    0.96    0.56
  -4  10  -3   -0.18    0.52
   5   9  -3    0.51    0.61
  -5  -9   3    0.05    0.99
   4   9  -3    4.33    0.55
   4   9  -3    4.72    0.52
  -4  -9   3    4.53    1.00
  -4  -9   3    5.13    0.68
   3   9  -3    0.14    0.34
   3   9  -3   -0.35    0.37
  -3  -9   3    1.01    0.79
  -3  -9   3    0.68    0.52
   2   9  -3    3.91    0.52
   2   9  -3    3.54    0.43
  -2  -9   3    3.45    0.81
  -2  -9   3    4.34    0.61
   1   9  -3    1.68    0.46
  -1  -9   3    2.60    0.53
  -1  -9   3    2.82    0.69
   0   9  -3    9.83    0.87
   0  -9   3    9.67    0.91
   0  -9   3   10.15    0.94
  -1   9  -3    3.70    0.55
   1  -9   3    6.14    0.73
  -2   9  -3    3.49    0.54
   2  -9   3    4.76    0.73
  -3   9  -3    3.63    0.56
  -3   9  -3    5.28    0.55
   3  -9   3    4.69    0.74
  -4   9  -3    0.98    0.47
  -4   9  -3    1.75    0.48
   4  -9   3    0.70    0.63
  -5   9  -3    2.47    0.56
   5  -9   3    2.87    0.76
   6   8  -3    0.49    0.42
   6   8  -3    0.68    0.35
  -6  -8   3    1.72    1.00
  -6  -8   3    0.19    0.63
   5   8  -3    1.61    0.38
   5   8  -3    1.66    0.37
  -5  -8   3    0.94    0.51
  -5  -8   3    2.12    0.90
   4   8  -3    3.00    0.41
   4   8  -3    3.34    0.42
  -4  -8   3    3.70    0.53
  -4  -8   3    2.56    0.85
   3   8  -3    0.35    0.29
   3   8  -3   -0.12    0.30
  -3  -8   3    0.39    0.69
  -3  -8   3    0.34    0.40
   2   8  -3   16.81    1.11
   2   8  -3   18.98    1.18
  -2  -8   3   20.06    1.24
  -2  -8   3   21.02    1.50
   1   8  -3    1.91    0.29
   1   8  -3    1.84    0.36
  -1  -8   3    2.61    0.61
  -1  -8   3    2.71    0.45
   0   8  -3    8.77    0.78
   0  -8   3   10.95    1.03
   0  -8   3   10.51    0.84
  -1   8  -3   10.99    0.86
   1  -8   3   13.48    1.09
  -2   8  -3    5.43    0.49
  -2   8  -3    5.08    0.54
   2  -8   3    6.43    0.68
  -3   8  -3    6.69    0.58
  -3   8  -3    6.99    0.63
   3  -8   3    8.00    0.78
  -4   8  -3    0.04    0.38
  -4   8  -3    0.01    0.36
   4  -8   3   -0.29    0.51
  -5   8  -3    6.88    0.64
  -5   8  -3    7.10    0.66
   5  -8   3    7.59    0.79
  -6   8  -3   -0.16    0.45
   6  -8   3    0.13    0.58
   6  -8   3    0.06    0.59
   7  -8   3    0.51    0.55
   7   7  -3    0.46    0.40
  -7  -7   3   -0.76    0.80
  -7  -7   3   -0.44    0.51
   6   7  -3    3.87    0.40
   6   7  -3    3.09    0.42
  -6  -7   3    3.50    0.53
  -6  -7   3    3.88    0.87
   5   7  -3    1.77    0.36
   5   7  -3    2.41    0.34
  -5  -7   3    2.04    0.79
  -5  -7   3    1.56    0.45
   4   7  -3    4.56    0.43
   4   7  -3    4.89    0.45
  -4  -7   3    4.30    0.78
  -4  -7   3    4.17    0.51
   3   7  -3    4.21    0.40
   3   7  -3    3.72    0.38
  -3  -7   3    3.72    0.45
  -3  -7   3    2.33    0.67
   2   7  -3   12.64    0.83
   2   7  -3   13.43    0.86
  -2  -7   3   13.01    0.92
  -2  -7   3   14.10    1.22
   1   7  -3    5.37    0.43
   1   7  -3    3.22    0.34
  -1  -7   3    3.97    0.43
  -1  -7   3    5.41    0.62
   0   7  -3    7.09    0.53
   0   7  -3    6.58    0.58
   0  -7   3    7.72    0.66
   0  -7   3    7.90    0.65
  -1   7  -3    2.58    0.36
  -1   7  -3    2.56    0.36
   1  -7   3    3.50    0.48
  -2   7  -3    4.79    0.44
  -2   7  -3    4.30    0.39
   2  -7   3    4.37    0.54
   2  -7   3    4.37    0.41
  -3   7  -3   20.46    1.20
  -3   7  -3   20.57    1.22
   3  -7   3   19.40    1.24
   3  -7   3   21.33    1.38
  -4   7  -3    1.26    0.34
  -4   7  -3    0.12    0.32
   4  -7   3    0.60    0.45
   4  -7   3    1.22    0.36
  -5   7  -3    6.80    0.58
  -5   7  -3    7.11    0.60
   5  -7   3    6.86    0.66
   5  -7   3    7.33    0.72
  -6   7  -3    0.35    0.41
   6  -7   3    0.11    0.45
   6  -7   3   -0.05    0.50
  -7   7  -3    6.63    0.67
   7  -7   3    8.61    0.83
   7  -7   3    5.72    0.73
   8   6  -3    1.52    0.60
  -8  -6   3    0.85    0.77
   7   6  -3    0.97    0.33
  -7  -6   3    1.51    0.71
  -7  -6   3    1.27    0.49
   6   6  -3    4.82    0.47
   6   6  -3    5.28    0.48
  -6  -6   3    5.27    0.57
  -6  -6   3    5.42    0.77
   5   6  -3    0.18    0.22
   5   6  -3    0.13    0.27
  -5  -6   3    0.05    0.33
  -5  -6   3    0.55    0.55
   4   6  -3   36.82    1.96
   4   6  -3   36.70    1.99
  -4  -6   3   35.25    2.00
  -4  -6   3   34.61    2.17
   3   6  -3    3.16    0.33
   3   6  -3    3.24    0.32
  -3  -6   3    3.09    0.36
  -3  -6   3    3.19    0.57
   2   6  -3   17.48    1.00
   2   6  -3   17.05    0.99
  -2  -6   3   16.06    1.21
  -2  -6   3   17.03    1.02
   1   6  -3   36.21    2.02
   1   6  -3   38.58    2.04
  -1  -6   3   38.45    2.06
  -1  -6   3   37.31    2.16
   0   6  -3   31.68    1.71
   0   6  -3   31.49    1.72
   0   6  -3   31.64    1.75
   0  -6   3   31.84    1.83
   0  -6   3   33.73    1.80
  -1   6  -3   39.15    2.11
   1  -6   3   39.32    2.10
   1  -6   3   39.47    2.16
   1  -6   3   37.46    2.09
  -2   6  -3    0.18    0.19
  -2   6  -3    0.45    0.23
   2  -6   3    0.47    0.31
   2  -6   3    0.28    0.22
   2  -6   3    0.49    0.20
  -3   6  -3   20.68    1.23
  -3   6  -3   21.60    1.22
   3  -6   3   21.64    1.32
   3  -6   3   22.05    1.27
  -4   6  -3    0.23    0.26
  -4   6  -3    0.27    0.27
   4  -6   3    0.35    0.36
   4  -6   3    0.20    0.30
  -5   6  -3    2.49    0.36
  -5   6  -3    3.62    0.40
   5  -6   3    2.73    0.48
   5  -6   3    3.20    0.46
  -6   6  -3    0.37    0.36
   6  -6   3   -0.32    0.43
   6  -6   3    0.53    0.43
  -7   6  -3    4.98    0.56
   7  -6   3    4.73    0.66
   7  -6   3    4.25    0.61
  -8   6  -3   -0.49    0.48
   8  -6   3   -0.33    0.50
   8  -6   3    0.30    0.59
  -9  -5   3    0.54    0.72
   8   5  -3    2.23    0.35
  -8  -5   3    1.43    0.59
   7   5  -3    0.06    0.27
  -7  -5   3    0.94    0.50
   6   5  -3    9.17    0.66
  -6  -5   3    7.33    0.74
   5   5  -3    1.01    0.26
   5   5  -3    0.75    0.19
  -5  -5   3    0.36    0.43
   4   5  -3    7.19    0.53
   4   5  -3    7.21    0.50
  -4  -5   3    6.57    0.63
  -4  -5   3    7.03    0.58
   3   5  -3    5.76    0.43
   3   5  -3    5.81    0.41
  -3  -5   3    5.29    0.48
  -3  -5   3    4.03    0.53
   2   5  -3   17.26    0.97
   2   5  -3   16.91    0.97
  -2  -5   3   16.90    1.14
  -2  -5   3   17.69    0.99
   1   5  -3    9.03    0.57
   1   5  -3    9.15    0.51
   1   5  -3    9.14    0.55
  -1  -5   3    8.64    0.54
  -1  -5   3    9.32    0.57
  -1  -5   3    8.37    0.76
   0   5  -3   44.33    2.34
   0   5  -3   45.05    2.36
   0   5  -3   44.44    2.33
   0  -5   3   42.95    2.34
  -1   5  -3  137.98    7.23
  -1   5  -3  137.75    7.26
   1  -5   3  145.29    7.26
   1  -5   3  135.09    7.26
   1  -5   3  138.35    7.29
  -2   5  -3   29.82    1.63
  -2   5  -3   30.73    1.65
   2  -5   3   30.62    1.69
   2  -5   3   29.30    1.65
   2  -5   3   30.68    1.63
  -3   5  -3   17.39    0.99
  -3   5  -3   17.39    0.99
   3  -5   3   17.27    1.03
   3  -5   3   17.16    0.97
   3  -5   3   17.46    1.07
  -4   5  -3    1.00    0.25
  -4   5  -3    0.63    0.21
   4  -5   3    1.25    0.31
   4  -5   3    0.95    0.30
  -5   5  -3   30.10    1.67
  -5   5  -3   31.01    1.68
   5  -5   3   29.59    1.76
   5  -5   3   30.25    1.74
  -6   5  -3    7.40    0.64
  -6   5  -3    8.12    0.66
   6  -5   3    7.30    0.67
   6  -5   3    8.27    0.74
  -7   5  -3    0.91    0.39
   7  -5   3    0.06    0.45
   7  -5   3    0.33    0.42
  -8   5  -3    1.89    0.47
   8  -5   3    2.44    0.56
   8  -5   3    2.61    0.59
   9   4  -3    0.17    0.28
   9   4  -3    0.55    0.44
  -9  -4   3    0.87    0.55
   8   4  -3    1.45    0.30
   8   4  -3    1.31    0.42
  -8  -4   3    1.46    0.52
   7   4  -3    1.92    0.30
   7   4  -3    2.02    0.38
  -7  -4   3    1.52    0.45
   6   4  -3   27.74    1.60
   6   4  -3   29.05    1.63
  -6  -4   3   29.93    1.70
   5   4  -3    0.66    0.25
   5   4  -3    0.74    0.21
   5   4  -3    0.52    0.16
  -5  -4   3    0.49    0.32
   4   4  -3   25.14    1.40
   4   4  -3   26.16    1.39
   4   4  -3   24.29    1.40
  -4  -4   3   25.92    1.46
  -4  -4   3   24.90    1.37
   3   4  -3   22.98    1.29
   3   4  -3   22.69    1.31
   3   4  -3   24.51    1.28
  -3  -4   3   24.69    1.38
  -3  -4   3   23.57    1.28
   2   4  -3   70.84    3.55
   2   4  -3   69.18    3.52
  -2  -4   3   66.97    3.56
  -2  -4   3   66.92    3.61
  -2  -4   3   64.04    3.55
   1   4  -3  117.94    6.07
   1   4  -3  114.36    6.06
   1   4  -3  118.31    6.04
  -1  -4   3  117.45    6.07
  -1  -4   3  115.60    6.07
  -1  -4   3  112.88    6.11
   0   4  -3    2.23    0.19
   0   4  -3    2.55    0.21
   0   4  -3    2.72    0.20
   0  -4   3    2.01    0.20
   0  -4   3    2.10    0.30
   0  -4   3    2.54    0.22
  -1   4  -3  100.11    5.24
  -1   4  -3   97.02    5.22
  -1   4  -3  104.62    5.25
   1  -4   3   98.17    5.26
   1  -4   3  101.98    5.23
   1  -4   3   99.36    5.25
  -2   4  -3    0.98    0.09
  -2   4  -3    0.41    0.15
   2  -4   3    0.36    0.17
   2  -4   3    0.36    0.20
   2  -4   3    0.39    0.12
  -3   4  -3   75.22    3.93
  -3   4  -3   74.99    3.93
   3  -4   3   74.84    3.96
   3  -4   3   72.92    3.96
   3  -4   3   75.58    3.91
  -4   4  -3    0.06    0.19
  -4   4  -3    0.00    0.17
   4  -4   3   -0.16    0.22
   4  -4   3    0.07    0.23
  -5   4  -3   19.25    1.10
  -5   4  -3   18.25    1.08
   5  -4   3   19.33    1.16
   5  -4   3   19.03    1.17
  -6   4  -3    0.88    0.24
  -6   4  -3    0.37    0.29
   6  -4   3    0.59    0.36
   6  -4   3    0.43    0.36
  -7   4  -3    2.34    0.40
   7  -4   3    2.49    0.48
   7  -4   3    2.71    0.49
  -8   4  -3   -0.16    0.41
   8  -4   3    0.48    0.47
   8  -4   3   -0.35    0.48
  -9   4  -3    1.01    0.49
   9  -4   3    0.98    0.60
   9   3  -3    0.80    0.39
   9   3  -3    0.32    0.25
  -9  -3   3    1.00    0.52
   8   3  -3    2.34    0.42
   8   3  -3    2.98    0.33
  -8  -3   3    2.69    0.51
   7   3  -3    0.44    0.21
   7   3  -3    0.65    0.30
  -7  -3   3    0.56    0.37
   6   3  -3   15.04    0.98
   6   3  -3   16.56    0.94
  -6  -3   3   16.06    1.05
  -6  -3   3   16.54    0.95
   5   3  -3   21.25    1.18
   5   3  -3   21.58    1.20
   5   3  -3   21.05    1.14
  -5  -3   3   20.79    1.23
  -5  -3   3   21.04    1.17
   4   3  -3   68.67    3.61
   4   3  -3   66.81    3.63
   4   3  -3   71.83    3.63
  -4  -3   3   68.92    3.65
  -4  -3   3   68.06    3.61
   3   3  -3    0.85    0.14
   3   3  -3    0.62    0.14
  -3  -3   3    0.82    0.21
  -3  -3   3    0.78    0.13
   2   3  -3   40.92    2.23
   2   3  -3   43.36    2.22
   2   3  -3   42.31    2.22
  -2  -3   3   39.80    2.22
  -2  -3   3   44.21    2.26
   1   3  -3   70.13    3.39
   1   3  -3   65.42    3.37
   1   3  -3   67.79    3.39
  -1  -3   3   62.66    3.43
  -1  -3   3   57.39    3.39
   0   3  -3    0.74    0.09
   0   3  -3    0.51    0.08
   0   3  -3    0.57    0.10
   0  -3   3    0.57    0.10
   0  -3   3    1.36    0.15
  -1   3  -3    0.91    0.10
  -1   3  -3    1.14    0.12
  -1   3  -3    1.20    0.13
   1  -3   3    1.09    0.12
   1  -3   3    1.08    0.15
   1  -3   3    1.13    0.17
  -2   3  -3    0.74    0.13
  -2   3  -3    0.54    0.07
  -2   3  -3    0.40    0.11
   2  -3   3    0.64    0.10
   2  -3   3    0.63    0.16
  -3   3  -3  165.97    8.90
  -3   3  -3  170.72    8.93
  -3   3  -3  163.83    8.93
   3  -3   3  165.63    8.95
   3  -3   3  189.48    8.91
   3  -3   3  172.69    8.96
  -4   3  -3   10.34    0.64
  -4   3  -3   10.71    0.65
   4  -3   3   10.48    0.70
   4  -3   3   12.08    0.61
   4  -3   3   10.07    0.70
  -5   3  -3   20.00    1.10
  -5   3  -3   19.66    1.13
   5  -3   3   19.58    1.17
   5  -3   3   19.60    1.18
  -6   3  -3    0.89    0.21
  -6   3  -3    1.16    0.28
   6  -3   3    0.61    0.31
   6  -3   3    0.54    0.34
  -7   3  -3   14.49    0.89
   7  -3   3   11.94    0.96
   7  -3   3   13.40    1.04
  -8   3  -3    1.38    0.43
   8  -3   3    0.78    0.49
   8  -3   3    1.54    0.48
  -9   3  -3    1.02    0.49
   9  -3   3    0.43    0.52
   9  -3   3   -0.18    0.56
  10   2  -3    0.54    0.44
 -10  -2   3   -0.03    0.58
   9   2  -3   -0.09    0.34
  -9  -2   3    0.32    0.50
   8   2  -3    0.73    0.21
   8   2  -3    0.14    0.32
  -8  -2   3    0.55    0.41
  -8  -2   3    0.62    0.33
   7   2  -3   11.25    0.74
   7   2  -3    9.73    0.66
  -7  -2   3    9.74    0.81
  -7  -2   3   10.55    0.72
   6   2  -3    0.64    0.22
   6   2  -3    0.46    0.17
  -6  -2   3    0.38    0.21
  -6  -2   3    0.45    0.27
   5   2  -3    0.39    0.19
   5   2  -3    1.03    0.12
   5   2  -3    0.30    0.14
  -5  -2   3    0.48    0.16
  -5  -2   3    0.56    0.22
   4   2  -3   40.63    2.13
   4   2  -3   39.20    2.11
   4   2  -3   40.59    2.14
  -4  -2   3   40.60    2.13
  -4  -2   3   38.75    2.09
  -4  -2   3   41.33    2.15
   3   2  -3   15.61    0.85
   3   2  -3   15.24    0.88
   3   2  -3   15.89    0.87
  -3  -2   3   16.08    0.87
  -3  -2   3   16.90    0.89
   2   2  -3   90.69    4.87
   2   2  -3   99.32    4.87
  -2  -2   3   93.19    4.87
  -2  -2   3   89.85    4.86
   1   2  -3   22.45    1.16
   1   2  -3   22.59    1.18
   1   2  -3   20.59    1.18
   1   2  -3   22.91    1.18
  -1  -2   3   22.21    1.19
  -1  -2   3   22.69    1.21
   0   2  -3    1.95    0.15
   0   2  -3    1.61    0.14
   0  -2   3    1.70    0.17
   0  -2   3    1.82    0.13
   0  -2   3    1.59    0.19
  -1   2  -3  219.04   11.90
  -1   2  -3  231.65   11.89
   1  -2   3  231.65   11.89
   1  -2   3  236.32   11.91
   1  -2   3  232.45   11.90
   1  -2   3  222.69   11.91
  -2   2  -3    2.29    0.17
  -2   2  -3    2.15    0.20
   2  -2   3    2.83    0.24
   2  -2   3    2.82    0.16
   2  -2   3    2.32    0.22
  -3   2  -3    9.56    0.59
  -3   2  -3   10.65    0.63
  -3   2  -3   10.93    0.62
   3  -2   3   12.33    0.60
   3  -2   3   10.74    0.66
   3  -2   3   11.56    0.66
  -4   2  -3   28.82    1.52
  -4   2  -3   27.23    1.50
  -4   2  -3   24.55    1.48
   4  -2   3   27.52    1.54
   4  -2   3   29.19    1.55
   4  -2   3   30.51    1.48
  -5   2  -3   23.87    1.33
  -5   2  -3   23.95    1.31
   5  -2   3   23.67    1.37
   5  -2   3   24.01    1.37
  -6   2  -3    0.00    0.19
  -6   2  -3   -0.10    0.24
   6  -2   3    0.12    0.30
   6  -2   3    0.34    0.30
  -7   2  -3    5.16    0.50
   7  -2   3    6.20    0.59
   7  -2   3    5.77    0.58
  -8   2  -3    1.57    0.40
   8  -2   3    1.08    0.45
   8  -2   3    1.20    0.46
  -9   2  -3    0.65    0.45
   9  -2   3    0.43    0.51
   9  -2   3    1.35    0.50
  10   1  -3    3.43    0.49
 -10  -1   3    3.76    0.61
 -10  -1   3    1.85    0.67
   9   1  -3    0.12    0.33
  -9  -1   3    0.63    0.41
   8   1  -3   13.48    0.91
  -8  -1   3   13.92    0.96
   7   1  -3    2.83    0.33
   7   1  -3    2.30    0.32
  -7  -1   3    1.92    0.33
   6   1  -3    6.44    0.49
   6   1  -3    5.73    0.40
   6   1  -3    5.92    0.47
  -6  -1   3    5.85    0.47
   5   1  -3    8.46    0.52
   5   1  -3    7.62    0.52
   5   1  -3    8.24    0.48
  -5  -1   3    7.91    0.51
  -5  -1   3    7.24    0.44
   4   1  -3    2.13    0.16
   4   1  -3    2.09    0.20
   4   1  -3    2.13    0.21
  -4  -1   3    2.66    0.16
  -4  -1   3    1.82    0.19
   3   1  -3  233.25   12.12
   3   1  -3  242.11   12.14
   3   1  -3  233.41   12.14
  -3  -1   3  224.40   12.11
  -3  -1   3  226.31   12.14
  -3  -1   3  241.56   12.14
   2   1  -3   42.73    2.19
   2   1  -3   43.33    2.21
   2   1  -3   41.80    2.21
  -2  -1   3   41.56    2.21
  -2  -1   3   40.25    2.21
  -2  -1   3   42.65    2.19
   1   1  -3  184.03    9.37
   1   1  -3  176.52    9.38
  -1  -1   3  180.39    9.38
  -1  -1   3  188.96    9.36
  -1  -1   3  171.79    9.38
   0   1  -3  134.96    7.00
   0   1  -3  131.72    6.99
   0   1  -3  138.73    7.00
   0  -1   3  123.66    7.01
   0  -1   3  141.87    7.00
  -1   1  -3  209.81   11.58
  -1   1  -3  228.93   11.59
   1  -1   3  229.52   11.60
   1  -1   3  223.56   11.59
  -2   1  -3   24.17    1.38
  -2   1  -3   24.71    1.39
   2  -1   3   27.35    1.41
   2  -1   3   25.74    1.39
   2  -1   3   28.65    1.37
  -3   1  -3   14.70    0.84
  -3   1  -3   14.97    0.82
   3  -1   3   15.94    0.87
   3  -1   3   15.00    0.85
   3  -1   3   14.29    0.84
   3  -1   3   16.43    0.81
  -4   1  -3   13.11    0.74
  -4   1  -3   13.52    0.77
   4  -1   3   13.33    0.80
   4  -1   3   13.31    0.77
   4  -1   3   13.86    0.80
   4  -1   3   13.95    0.74
  -5   1  -3   41.14    2.17
  -5   1  -3   38.62    2.17
   5  -1   3   41.34    2.15
   5  -1   3   40.09    2.21
   5  -1   3   41.99    2.20
  -6   1  -3    8.56    0.59
  -6   1  -3    8.81    0.65
   6  -1   3    9.11    0.68
   6  -1   3    9.44    0.70
  -7   1  -3   13.49    0.91
   7  -1   3   14.65    0.97
   7  -1   3   13.18    0.95
  -8   1  -3    1.77    0.40
   8  -1   3    1.98    0.46
   8  -1   3    1.67    0.45
  -9   1  -3    0.13    0.41
   9  -1   3   -0.10    0.47
   9  -1   3    0.19    0.49
  10   0  -3    0.55    0.49
  10   0  -3    1.15    0.40
 -10   0   3    0.94    0.52
   9   0  -3    0.20    0.32
   9   0  -3    0.05    0.41
  -9   0   3    0.46    0.41
   8   0  -3    4.29    0.48
   8   0  -3    4.36    0.42
  -8   0   3    3.76    0.46
   7   0  -3   15.39    0.94
   7   0  -3   14.68    0.91
   7   0  -3   14.31    0.84
  -7   0   3   15.74    0.95
   6   0  -3   26.87    1.53
   6   0  -3   27.99    1.48
   6   0  -3   27.79    1.52
  -6   0   3   28.26    1.54
  -6   0   3   27.00    1.47
   5   0  -3    9.57    0.60
   5   0  -3    9.61    0.56
   5   0  -3    9.76    0.60
  -5   0   3   10.13    0.61
  -5   0   3    9.71    0.55
   4   0  -3  107.52    4.88
   4   0  -3   87.97    4.92
   4   0  -3   91.96    4.92
  -4   0   3   91.17    4.92
  -4   0   3   90.79    4.89
   3   0  -3   12.36    0.69
   3   0  -3   12.64    0.68
   3   0  -3   12.59    0.69
  -3   0   3   12.58    0.66
  -3   0   3   12.01    0.69
   2   0  -3  274.26   15.29
   2   0  -3  292.84   15.30
   2   0  -3  291.90   15.30
   2   0  -3  298.92   15.30
  -2   0   3  305.35   15.30
  -2   0   3  304.38   15.28
   1   0  -3  517.54   31.37
   1   0  -3  580.76   31.39
   1   0  -3  594.85   31.37
  -1   0   3  643.32   31.40
  -1   0   3  659.15   31.35
  -1   0   3  630.91   31.37
   0   0  -3  276.10   15.61
   0   0  -3  310.08   15.61
   0   0  -3  291.43   15.62
   0   0   3  290.66   15.61
   0   0   3  297.77   15.63
   0   0   3  339.35   15.62
  -1   0  -3  346.34   20.39
  -1   0  -3  367.25   20.40
   1   0   3  398.11   20.41
   1   0   3  434.13   20.40
   1   0   3  383.09   20.40
   1   0   3  429.03   20.41
  -2   0  -3   90.66    5.00
   2   0   3  100.33    5.02
   2   0   3   91.71    5.00
   2   0   3   97.15    5.01
   2   0   3   99.90    5.00
  -3   0  -3  228.99   12.40
   3   0   3  226.50   12.41
   3   0   3  236.72   12.41
   3   0   3  257.29   12.39
   3   0   3  240.34   12.41
   3   0   3  241.65   12.42
  -4   0  -3    0.04    0.11
   4   0   3    0.35    0.14
   4   0   3    0.18    0.17
   4   0   3   -0.03    0.09
  -5   0  -3    9.15    0.60
  -5   0  -3    9.15    0.58
   5   0   3   10.66    0.58
   5   0   3   10.67    0.66
   5   0   3    9.59    0.60
   5   0   3   10.27    0.67
  -6   0  -3    2.74    0.29
   6   0   3    3.33    0.27
   6   0   3    3.54    0.35
   6   0   3    2.68    0.37
   6   0   3    3.11    0.31
  -7   0  -3   11.70    0.89
   7   0   3   14.80    0.92
   7   0   3   13.16    0.91
  -8   0  -3    1.00    0.36
   8   0   3    0.68    0.39
   8   0   3    0.50    0.40
   9   0   3    2.52    0.73
  10  -1  -3    0.79    0.39
  10  -1  -3    0.64    0.52
 -10   1   3    1.19    0.51
   9  -1  -3    0.36    0.32
   9  -1  -3    0.65    0.43
  -9   1   3    0.37    0.39
   8  -1  -3    2.40    0.40
   8  -1  -3    2.74    0.36
  -8   1   3    1.67    0.38
   7  -1  -3    3.79    0.36
   7  -1  -3    3.34    0.38
  -7   1   3    2.81    0.28
  -7   1   3    3.60    0.39
   6  -1  -3   17.71    1.02
   6  -1  -3   16.30    0.95
   6  -1  -3   17.75    1.01
  -6   1   3   17.32    0.96
  -6   1   3   18.38    1.03
   5  -1  -3    7.04    0.50
   5  -1  -3    8.77    0.44
   5  -1  -3    7.10    0.51
  -5   1   3    7.13    0.51
  -5   1   3    7.21    0.45
   4  -1  -3    0.72    0.14
   4  -1  -3    0.65    0.14
   4  -1  -3    0.63    0.09
  -4   1   3    0.44    0.14
  -4   1   3    0.61    0.10
   3  -1  -3   64.27    3.52
   3  -1  -3   68.93    3.52
  -3   1   3   67.89    3.51
  -3   1   3   68.20    3.53
   2  -1  -3   39.35    2.28
   2  -1  -3   43.72    2.27
  -2   1   3   45.12    2.26
  -2   1   3   43.76    2.27
  -2   1   3   43.92    2.25
   1  -1  -3   17.48    0.98
   1  -1  -3   16.97    0.98
   1  -1  -3   17.87    0.96
  -1   1   3   18.70    0.97
  -1   1   3   18.95    0.97
  -1   1   3   18.68    0.96
   0  -1  -3   85.04    4.45
   0  -1  -3   79.64    4.45
   0   1   3   90.01    4.44
   0   1   3   86.48    4.45
  -1  -1  -3  279.85   14.89
  -1  -1  -3  265.93   14.89
   1   1   3  305.12   14.90
   1   1   3  290.16   14.88
   1   1   3  285.77   14.89
   1   1   3  293.98   14.90
  -2  -1  -3  204.81   10.82
  -2  -1  -3  191.32   10.82
   2   1   3  208.28   10.83
   2   1   3  215.35   10.82
   2   1   3  224.13   10.84
   2   1   3  205.66   10.82
   3   1   3  138.84    7.30
   3   1   3  141.94    7.31
   3   1   3  139.62    7.30
   3   1   3  140.22    7.30
   4   1   3    1.71    0.18
   4   1   3    2.20    0.19
   4   1   3    2.02    0.21
   4   1   3    1.98    0.20
   4   1   3    1.70    0.17
   5   1   3   60.42    3.39
   5   1   3   68.64    3.40
   5   1   3   64.86    3.45
   5   1   3   66.21    3.43
   5   1   3   62.58    3.41
   6   1   3    6.33    0.46
   6   1   3    5.76    0.54
   6   1   3    5.22    0.46
   6   1   3    6.47    0.44
  -7  -1  -3    6.85    0.55
   7   1   3    7.02    0.63
   7   1   3    7.73    0.66
  10  -2  -3    0.29    0.53
  10  -2  -3    0.26    0.37
 -10   2   3   -0.33    0.50
   9  -2  -3    0.78    0.45
   9  -2  -3    0.66    0.35
  -9   2   3    0.55    0.43
   8  -2  -3    2.83    0.38
   8  -2  -3    2.90    0.44
  -8   2   3    2.67    0.33
  -8   2   3    3.01    0.44
   7  -2  -3    6.54    0.58
   7  -2  -3    7.62    0.64
  -7   2   3    7.10    0.60
  -7   2   3    7.24    0.50
   6  -2  -3    7.63    0.60
   6  -2  -3    9.92    0.64
  -6   2   3    8.93    0.55
  -6   2   3    8.86    0.62
   5  -2  -3    1.78    0.16
   5  -2  -3    1.43    0.23
   5  -2  -3    1.88    0.24
  -5   2   3    1.90    0.19
  -5   2   3    1.97    0.24
   4  -2  -3    6.24    0.44
   4  -2  -3    5.97    0.45
   4  -2  -3    7.40    0.39
  -4   2   3    6.55    0.45
  -4   2   3    6.93    0.41
  -4   2   3    6.74    0.37
   3  -2  -3   61.60    3.44
   3  -2  -3   62.88    3.41
   3  -2  -3   66.65    3.43
  -3   2   3   64.92    3.41
  -3   2   3   67.37    3.43
  -3   2   3   68.31    3.40
   2  -2  -3   12.77    0.68
   2  -2  -3   12.32    0.66
   2  -2  -3   11.20    0.65
  -2   2   3   11.34    0.66
  -2   2   3   12.32    0.64
   1  -2  -3  150.00    8.61
   1  -2  -3  160.04    8.60
   1  -2  -3  173.67    8.59
  -1   2   3  165.39    8.59
  -1   2   3  169.58    8.59
  -1   2   3  172.60    8.59
   0  -2  -3    3.96    0.24
   0  -2  -3    4.14    0.26
   0  -2  -3    4.00    0.28
   0   2   3    4.06    0.25
   0   2   3    3.61    0.25
  -1  -2  -3  175.34    9.34
  -1  -2  -3  177.46    9.33
  -1  -2  -3  170.78    9.34
   1   2   3  183.35    9.34
   1   2   3  194.87    9.34
   1   2   3  175.23    9.34
  -2  -2  -3    1.76    0.17
  -2  -2  -3    1.83    0.19
   2   2   3    2.09    0.19
   2   2   3    1.99    0.18
   2   2   3    2.23    0.19
  -3  -2  -3   37.59    2.09
  -3  -2  -3   40.82    2.10
   3   2   3   39.02    2.09
   3   2   3   38.26    2.09
   3   2   3   41.87    2.09
   3   2   3   39.12    2.09
  -4  -2  -3   33.51    1.76
   4   2   3   31.35    1.74
   4   2   3   32.28    1.75
   4   2   3   35.01    1.75
   4   2   3   30.48    1.73
  -5  -2  -3   19.58    1.12
   5   2   3   18.25    1.08
   5   2   3   19.09    1.09
   5   2   3   20.80    1.11
   5   2   3   20.13    1.11
   6   2   3   14.05    0.86
   6   2   3   13.65    0.81
   6   2   3   13.29    0.80
   7   2   3    2.67    0.29
   7   2   3    1.93    0.27
  10  -3  -3   -0.30    0.68
  10  -3  -3    0.20    0.38
 -10   3   3    0.19    0.68
   9  -3  -3   -0.03    0.34
   9  -3  -3    0.18    0.45
  -9   3   3    0.52    0.45
  -9   3   3    0.64    0.35
   8  -3  -3    8.89    0.85
   8  -3  -3    9.37    0.77
  -8   3   3   10.76    0.72
  -8   3   3    9.31    0.81
   7  -3  -3    1.05    0.33
   7  -3  -3    0.68    0.29
  -7   3   3    0.67    0.24
  -7   3   3    0.46    0.31
   6  -3  -3   10.98    0.76
   6  -3  -3   11.52    0.78
  -6   3   3   11.94    0.71
  -6   3   3   11.81    0.76
   5  -3  -3   36.01    2.07
   5  -3  -3   40.69    2.09
  -5   3   3   37.92    2.04
  -5   3   3   38.52    2.07
   4  -3  -3   49.40    2.77
   4  -3  -3   53.30    2.79
   4  -3  -3   51.51    2.73
  -4   3   3   54.26    2.78
  -4   3   3   52.62    2.76
  -4   3   3   52.80    2.73
   3  -3  -3  143.25    7.65
   3  -3  -3  143.64    7.68
   3  -3  -3  141.99    7.67
  -3   3   3  150.49    7.64
  -3   3   3  151.75    7.67
  -3   3   3  151.00    7.66
   2  -3  -3    8.86    0.52
   2  -3  -3    8.98    0.55
   2  -3  -3    8.50    0.51
  -2   3   3    9.42    0.52
  -2   3   3    8.92    0.51
  -2   3   3    9.24    0.50
   1  -3  -3  333.23   17.60
   1  -3  -3  333.72   17.58
  -1   3   3  336.67   17.58
  -1   3   3  341.90   17.57
  -1   3   3  347.11   17.58
   0  -3  -3    0.00    0.12
   0  -3  -3    0.10    0.08
   0  -3  -3    0.28    0.09
   0   3   3    0.03    0.08
   0   3   3   -0.07    0.09
   0   3   3    0.04    0.09
  -1  -3  -3   56.78    3.22
  -1  -3  -3   56.33    3.22
   1   3   3   62.84    3.21
   1   3   3   62.45    3.22
   1   3   3   59.27    3.21
   1   3   3   69.44    3.20
  -2  -3  -3   57.87    3.04
  -2  -3  -3   54.38    3.03
   2   3   3   62.77    3.01
   2   3   3   56.30    3.03
   2   3   3   56.71    3.02
   2   3   3   57.07    3.03
  -3  -3  -3  101.29    5.81
  -3  -3  -3  111.46    5.82
   3   3   3  111.79    5.80
   3   3   3  121.30    5.79
   3   3   3  109.24    5.80
  -4  -3  -3    5.86    0.48
  -4  -3  -3    6.24    0.47
   4   3   3    6.39    0.44
   4   3   3    6.33    0.44
  -5  -3  -3    8.63    0.67
  -5  -3  -3    9.59    0.65
   5   3   3    9.50    0.65
   5   3   3    8.96    0.59
   5   3   3    9.56    0.60
  -6  -3  -3   14.77    0.98
   6   3   3   15.76    0.91
   6   3   3   14.68    0.89
  -7  -3  -3    1.92    0.39
   7   3   3    1.72    0.28
   7   3   3    1.97    0.28
   8   3   3    2.09    0.32
 -10   4   3    3.12    0.70
   9  -4  -3   -0.03    0.46
   9  -4  -3   -0.30    0.34
  -9   4   3    0.27    0.47
  -9   4   3    0.25    0.39
   8  -4  -3    0.56    0.41
   8  -4  -3    0.88    0.35
  -8   4   3    0.99    0.35
  -8   4   3    1.13    0.43
   7  -4  -3    1.41    0.37
   7  -4  -3    2.02    0.35
  -7   4   3    2.27    0.39
  -7   4   3    1.44    0.32
   6  -4  -3    6.76    0.56
   6  -4  -3    4.67    0.46
  -6   4   3    5.21    0.56
  -6   4   3    5.88    0.47
   5  -4  -3    6.49    0.52
   5  -4  -3    4.87    0.48
  -5   4   3    5.68    0.50
  -5   4   3    5.47    0.43
   4  -4  -3   32.20    1.78
   4  -4  -3   30.19    1.78
  -4   4   3   33.41    1.76
  -4   4   3   33.22    1.77
  -4   4   3   34.55    1.74
   3  -4  -3   17.35    1.01
   3  -4  -3   17.17    0.98
   3  -4  -3   17.19    0.94
  -3   4   3   17.82    0.95
  -3   4   3   17.54    0.97
   2  -4  -3   54.72    2.80
   2  -4  -3   49.10    2.81
   2  -4  -3   54.76    2.84
  -2   4   3   53.57    2.80
  -2   4   3   52.72    2.80
  -2   4   3   54.75    2.80
   1  -4  -3  109.97    5.88
   1  -4  -3  108.39    5.85
  -1   4   3  115.74    5.85
  -1   4   3  112.80    5.84
  -1   4   3  113.84    5.85
   0  -4  -3    4.70    0.35
   0  -4  -3    4.62    0.40
   0  -4  -3    5.11    0.34
   0   4   3    5.06    0.33
   0   4   3    4.83    0.34
   0   4   3    4.72    0.29
  -1  -4  -3  198.57   10.25
  -1  -4  -3  194.39   10.24
   1   4   3  193.12   10.23
   1   4   3  202.14   10.24
   1   4   3  194.65   10.23
  -2  -4  -3    2.81    0.30
  -2  -4  -3    2.21    0.27
   2   4   3    2.70    0.24
   2   4   3    2.53    0.27
   2   4   3    2.74    0.24
  -3  -4  -3   59.05    3.25
  -3  -4  -3   62.64    3.25
   3   4   3   62.12    3.22
   3   4   3   60.24    3.22
  -4  -4  -3   18.11    1.04
   4   4   3   17.33    0.99
   4   4   3   17.01    0.99
   4   4   3   17.68    1.00
  -5  -4  -3    8.31    0.68
   5   4   3    7.68    0.55
   5   4   3    8.61    0.58
  -6  -4  -3    2.84    0.42
   6   4   3    3.29    0.33
   6   4   3    3.03    0.31
  -7  -4  -3    0.30    0.37
   7   4   3    0.50    0.25
   7   4   3    0.50    0.28
  -8  -4  -3    7.92    0.86
   8   4   3    8.18    0.67
   9  -5  -3    0.91    0.52
   9  -5  -3    0.35    0.40
  -9   5   3    0.80    0.52
  -9   5   3    0.44    0.45
   8  -5  -3    2.93    0.43
   8  -5  -3    3.28    0.54
  -8   5   3    3.33    0.44
  -8   5   3    2.51    0.49
   7  -5  -3    9.22    0.88
   7  -5  -3   10.94    0.80
  -7   5   3   11.31    0.77
  -7   5   3   10.23    0.83
   6  -5  -3    1.65    0.34
   6  -5  -3    1.73    0.35
  -6   5   3    1.24    0.35
  -6   5   3    1.79    0.32
   5  -5  -3    7.55    0.65
   5  -5  -3    9.07    0.63
  -5   5   3    7.91    0.58
  -5   5   3    7.95    0.60
   4  -5  -3   -0.28    0.21
   4  -5  -3   -0.05    0.21
  -4   5   3    0.26    0.19
  -4   5   3    0.01    0.16
   3  -5  -3   14.52    0.86
   3  -5  -3   12.75    0.83
  -3   5   3   14.31    0.82
  -3   5   3   13.76    0.80
  -3   5   3   13.81    0.79
   2  -5  -3    0.45    0.13
   2  -5  -3    0.33    0.18
   2  -5  -3    0.30    0.21
  -2   5   3    0.11    0.17
  -2   5   3    0.67    0.14
  -2   5   3    0.21    0.14
   1  -5  -3    8.92    0.57
   1  -5  -3    8.52    0.62
  -1   5   3    8.96    0.55
  -1   5   3    8.94    0.55
   0  -5  -3   -0.04    0.21
   0  -5  -3    0.41    0.18
   0   5   3    0.47    0.15
   0   5   3    0.37    0.15
  -1  -5  -3   47.66    2.55
  -1  -5  -3   48.26    2.57
   1   5   3   46.06    2.52
   1   5   3   47.22    2.53
   1   5   3   49.43    2.54
  -2  -5  -3    0.69    0.29
  -2  -5  -3    0.10    0.25
   2   5   3    0.07    0.17
   2   5   3    0.28    0.18
  -3  -5  -3   20.37    1.24
   3   5   3   21.13    1.17
   3   5   3   21.57    1.19
   3   5   3   21.08    1.18
  -4  -5  -3    5.24    0.48
   4   5   3    5.08    0.44
   4   5   3    5.27    0.47
  -5  -5  -3   19.89    1.24
   5   5   3   18.68    1.13
   5   5   3   20.21    1.15
  -6  -5  -3    3.13    0.48
   6   5   3    3.33    0.35
   6   5   3    3.07    0.37
  -7  -5  -3    2.62    0.53
   7   5   3    2.91    0.34
   7   5   3    3.42    0.40
  -8  -5  -3    5.13    0.65
  -9   6   3    0.65    0.53
   8  -6  -3    0.88    0.49
   8  -6  -3    0.44    0.35
  -8   6   3    0.87    0.47
  -8   6   3    0.17    0.43
   7  -6  -3    0.70    0.42
   7  -6  -3    0.48    0.33
  -7   6   3    1.15    0.39
  -7   6   3    1.50    0.42
   6  -6  -3    0.12    0.35
   6  -6  -3    0.29    0.32
  -6   6   3    0.24    0.34
  -6   6   3    0.21    0.33
   5  -6  -3    6.53    0.65
   5  -6  -3    8.05    0.61
  -5   6   3    7.02    0.61
  -5   6   3    6.20    0.58
   4  -6  -3    4.38    0.42
   4  -6  -3    4.89    0.44
  -4   6   3    3.78    0.38
  -4   6   3    4.31    0.46
  -4   6   3    4.46    0.39
   3  -6  -3   26.74    1.59
   3  -6  -3   29.79    1.62
  -3   6   3   28.59    1.56
  -3   6   3   28.42    1.55
   2  -6  -3    2.39    0.37
   2  -6  -3    2.46    0.23
   2  -6  -3    3.92    0.34
  -2   6   3    1.96    0.28
  -2   6   3    2.14    0.26
   1  -6  -3   47.56    2.44
   1  -6  -3   43.90    2.46
   1  -6  -3   47.93    2.51
  -1   6   3   44.63    2.45
  -1   6   3   45.73    2.45
   0  -6  -3    0.50    0.28
   0  -6  -3    0.59    0.24
   0   6   3    0.47    0.19
   0   6   3    0.35    0.19
  -1  -6  -3   24.18    1.41
   1   6   3   23.26    1.33
   1   6   3   24.65    1.35
   1   6   3   25.03    1.35
  -2  -6  -3   38.22    2.13
   2   6   3   37.40    2.07
   2   6   3   39.29    2.08
  -3  -6  -3    8.13    0.72
   3   6   3    8.06    0.58
   3   6   3    8.03    0.60
  -4  -6  -3    5.64    0.56
   4   6   3    5.67    0.51
   4   6   3    6.20    0.55
  -5  -6  -3    2.65    0.46
   5   6   3    2.16    0.34
   5   6   3    2.10    0.32
  -6  -6  -3    4.02    0.58
   6   6   3    3.01    0.37
   6   6   3    3.33    0.40
  -7  -6  -3    0.04    0.50
   7   6   3    0.24    0.41
   7   6   3    0.61    0.30
   8  -7  -3    0.48    0.52
   8  -7  -3    0.69    0.37
  -8   7   3    0.21    0.52
  -8   7   3    0.61    0.48
   7  -7  -3    1.46    0.49
   7  -7  -3    1.01    0.38
  -7   7   3    2.28    0.49
  -7   7   3    1.20    0.46
   6  -7  -3    1.71    0.46
   6  -7  -3    1.46    0.38
  -6   7   3    1.26    0.40
  -6   7   3    0.77    0.40
   5  -7  -3   16.80    1.04
   5  -7  -3   14.35    1.08
  -5   7   3   16.04    1.05
   4  -7  -3    0.04    0.34
   4  -7  -3    0.01    0.31
  -4   7   3    0.13    0.30
   3  -7  -3   16.05    1.03
   3  -7  -3   14.97    1.00
  -3   7   3   14.87    0.94
  -3   7   3   14.32    0.92
   2  -7  -3    0.60    0.30
   2  -7  -3    0.53    0.36
  -2   7   3    0.69    0.28
  -2   7   3    0.70    0.25
   1  -7  -3   18.98    1.14
   1  -7  -3   19.19    1.08
   1  -7  -3   20.26    1.22
  -1   7   3   18.47    1.10
  -1   7   3   17.53    1.09
   0  -7  -3    1.74    0.39
   0  -7  -3    1.72    0.28
   0   7   3    2.28    0.30
   0   7   3    1.97    0.29
  -1  -7  -3   12.74    0.94
   1   7   3   12.50    0.82
   1   7   3   13.06    0.83
  -2  -7  -3    1.28    0.41
   2   7   3    1.60    0.30
   2   7   3    1.62    0.31
  -3  -7  -3    6.02    0.64
   3   7   3    6.41    0.56
   3   7   3    7.48    0.64
  -4  -7  -3    4.92    0.59
   4   7   3    4.85    0.47
   4   7   3    4.59    0.44
  -5  -7  -3    3.12    0.58
   5   7   3    3.20    0.39
   5   7   3    3.19    0.41
  -6  -7  -3    3.79    0.64
   6   7   3    3.06    0.48
   6   7   3    3.01    0.40
   7  -8  -3    1.12    0.41
   7  -8  -3    0.52    0.51
  -7   8   3    0.60    0.53
   6  -8  -3    0.87    0.47
   6  -8  -3    1.43    0.42
  -6   8   3    0.91    0.46
   5  -8  -3    2.25    0.48
   5  -8  -3    3.63    0.49
  -5   8   3    3.40    0.50
   4  -8  -3   -0.37    0.38
   4  -8  -3    0.17    0.43
  -4   8   3   -0.18    0.38
   3  -8  -3    5.80    0.56
   3  -8  -3    6.53    0.62
  -3   8   3    4.94    0.48
  -3   8   3    4.89    0.52
   2  -8  -3   -0.20    0.44
   2  -8  -3   -0.18    0.37
  -2   8   3   -0.26    0.30
  -2   8   3   -0.36    0.32
   1  -8  -3   21.68    1.31
  -1   8   3   17.45    1.13
  -1   8   3   18.09    1.14
   0  -8  -3    2.00    0.49
   0  -8  -3    1.65    0.32
   0   8   3    1.06    0.32
   0   8   3    2.25    0.35
  -1  -8  -3   13.72    1.04
   1   8   3   11.77    0.86
  -2  -8  -3    0.45    0.48
   2   8   3    0.39    0.33
   2   8   3    0.26    0.30
  -3  -8  -3    5.12    0.67
   3   8   3    5.66    0.50
   3   8   3    4.52    0.48
  -4  -8  -3    4.33    0.66
   4   8   3    4.85    0.49
   4   8   3    4.30    0.47
  -5  -8  -3    1.02    0.58
   5   8   3    0.71    0.38
   6  -9  -3    0.52    0.51
   6  -9  -3    0.61    0.44
   5  -9  -3    1.14    0.47
   5  -9  -3    0.78    0.50
  -5   9   3    1.43    0.51
   4  -9  -3    0.47    0.50
   4  -9  -3    0.66    0.46
  -4   9   3    0.19    0.47
   3  -9  -3    6.10    0.67
  -3   9   3    4.29    0.51
  -3   9   3    4.55    0.56
   2  -9  -3    0.81    0.56
  -2   9   3    0.24    0.41
  -2   9   3    0.49    0.36
   1  -9  -3    8.26    0.79
  -1   9   3    5.67    0.58
  -1   9   3    7.46    0.61
   0  -9  -3    0.79    0.53
   0   9   3   -0.14    0.35
  -1  -9  -3    5.56    0.56
  -1  -9  -3    5.66    0.69
   1   9   3    5.71    0.56
  -2  -9  -3    1.93    0.62
   2   9   3    1.47    0.39
  -3  -9  -3    4.62    0.73
   3   9   3    3.83    0.49
   4 -10  -3    0.98    0.81
   3 -10  -3    3.20    0.66
  -3  10   3    2.58    0.57
   2 -10  -3   -0.47    0.61
  -2  10   3   -0.31    0.41
  -2  10   3   -0.16    0.47
   1 -10  -3    3.50    0.74
  -1  10   3    2.45    0.49
   0 -10  -3   -0.02    0.66
   0  10   3    0.14    0.42
  -2 -10  -3    2.37    0.59
  -3 -10   4    1.42    1.14
  -2 -10   4    1.73    0.82
  -2 -10   4    1.46    0.63
   1  10  -4    3.09    0.59
  -1 -10   4    3.52    0.82
   0  10  -4    0.07    0.51
   0 -10   4    0.97    0.74
  -1  10  -4    2.17    0.57
   1 -10   4    4.68    0.81
  -2  10  -4    0.60    0.51
   2 -10   4   -0.73    0.70
  -3  10  -4    1.64    0.59
   5   9  -4    0.26    0.48
  -5  -9   4   -1.05    0.98
   4   9  -4    2.67    0.47
   4   9  -4    1.71    0.41
  -4  -9   4    1.41    0.94
  -4  -9   4    2.53    0.57
   3   9  -4    0.09    0.34
   3   9  -4    1.17    0.43
  -3  -9   4    0.40    0.52
  -3  -9   4    0.28    0.79
   2   9  -4    1.01    0.45
   2   9  -4    0.86    0.32
  -2  -9   4    1.21    0.75
  -2  -9   4    1.76    0.51
   1   9  -4    2.76    0.51
  -1  -9   4    3.42    0.55
  -1  -9   4    4.00    0.74
   0   9  -4    1.95    0.48
   0  -9   4    2.56    0.68
  -1   9  -4    6.22    0.65
   1  -9   4    6.83    0.81
  -2   9  -4    0.84    0.45
   2  -9   4    1.09    0.65
  -3   9  -4    3.94    0.53
  -3   9  -4    3.54    0.56
   3  -9   4    4.33    0.73
  -4   9  -4   -0.78    0.43
  -4   9  -4   -0.41    0.45
   4  -9   4   -0.44    0.61
  -5   9  -4    2.92    0.58
  -5   9  -4    2.33    0.53
   6   8  -4    1.76    0.54
   6   8  -4    1.24    0.52
  -6  -8   4    1.67    1.02
  -6  -8   4    1.29    0.70
   5   8  -4    0.48    0.36
   5   8  -4    0.63    0.33
  -5  -8   4    0.18    0.46
  -5  -8   4    0.23    0.88
   4   8  -4    2.00    0.39
   4   8  -4    2.16    0.39
  -4  -8   4    1.98    0.47
  -4  -8   4    2.17    0.86
   3   8  -4    3.00    0.41
   3   8  -4    4.69    0.47
  -3  -8   4    4.47    0.52
  -3  -8   4    2.78    0.79
   2   8  -4    7.99    0.71
   2   8  -4    7.32    0.65
  -2  -8   4    6.90    0.86
  -2  -8   4    8.26    0.77
   1   8  -4    5.88    0.53
   1   8  -4    3.95    0.41
  -1  -8   4    5.72    0.55
  -1  -8   4    5.10    0.71
   0   8  -4    1.97    0.39
   0  -8   4    2.89    0.59
  -1   8  -4   16.22    1.14
   1  -8   4   19.59    1.32
  -2   8  -4   -0.01    0.30
  -2   8  -4   -0.20    0.36
   2  -8   4   -0.34    0.50
  -3   8  -4    6.89    0.57
  -3   8  -4    6.40    0.62
   3  -8   4    6.98    0.75
  -4   8  -4    0.13    0.41
  -4   8  -4   -0.46    0.37
   4  -8   4   -0.41    0.52
  -5   8  -4    5.44    0.58
  -5   8  -4    4.63    0.56
   5  -8   4    5.45    0.72
  -6   8  -4   -0.10    0.48
   6  -8   4    0.28    0.65
   6  -8   4    0.20    0.49
   7   7  -4   -0.13    0.39
  -7  -7   4   -0.11    0.84
  -7  -7   4   -0.12    0.56
   6   7  -4    1.74    0.40
  -6  -7   4    1.99    0.53
  -6  -7   4    2.10    0.81
   5   7  -4    3.78    0.41
   5   7  -4    3.65    0.45
  -5  -7   4    4.43    0.87
  -5  -7   4    3.89    0.53
   4   7  -4    3.03    0.38
   4   7  -4    3.65    0.40
  -4  -7   4    4.01    0.47
  -4  -7   4    3.44    0.78
   3   7  -4    1.26    0.30
   3   7  -4    0.90    0.28
  -3  -7   4    0.59    0.33
  -3  -7   4    0.20    0.61
   2   7  -4    4.87    0.46
   2   7  -4    4.82    0.43
  -2  -7   4    5.95    0.51
  -2  -7   4    6.47    0.74
   1   7  -4    7.79    0.64
   1   7  -4    7.41    0.58
  -1  -7   4    8.27    0.66
  -1  -7   4    9.75    0.80
   0   7  -4    1.52    0.31
   0   7  -4    1.33    0.32
   0  -7   4    1.61    0.44
  -1   7  -4    7.74    0.57
  -1   7  -4    8.24    0.65
   1  -7   4    8.03    0.72
   1  -7   4    8.74    0.83
  -2   7  -4    0.09    0.25
  -2   7  -4   -0.32    0.29
   2  -7   4    0.51    0.41
  -3   7  -4   25.39    1.46
  -3   7  -4   25.70    1.42
   3  -7   4   25.22    1.57
   3  -7   4   22.54    1.44
  -4   7  -4    0.15    0.35
  -4   7  -4    0.89    0.35
   4  -7   4   -0.57    0.43
   4  -7   4   -0.22    0.35
  -5   7  -4    7.28    0.68
  -5   7  -4    7.24    0.61
   5  -7   4    7.47    0.73
   5  -7   4    6.01    0.65
  -6   7  -4    0.44    0.43
   6  -7   4    0.32    0.46
   6  -7   4   -0.03    0.51
  -7   7  -4    0.98    0.62
   7  -7   4    0.50    0.65
   7  -7   4    0.73    0.53
  -8  -6   4    2.55    0.81
   7   6  -4    0.26    0.34
  -7  -6   4    0.82    0.71
  -7  -6   4   -0.66    0.45
   6   6  -4    4.54    0.48
  -6  -6   4    5.75    0.79
  -6  -6   4    6.17    0.62
   5   6  -4    5.29    0.47
   5   6  -4    4.69    0.46
  -5  -6   4    5.55    0.55
  -5  -6   4    5.42    0.75
   4   6  -4   20.38    1.20
   4   6  -4   20.90    1.18
  -4  -6   4   20.99    1.49
  -4  -6   4   19.83    1.24
   3   6  -4    7.97    0.60
   3   6  -4    8.30    0.58
  -3  -6   4    7.63    0.78
  -3  -6   4    8.75    0.64
   2   6  -4    4.89    0.44
   2   6  -4    5.25    0.48
  -2  -6   4    6.03    0.64
  -2  -6   4    5.60    0.51
   1   6  -4   43.08    2.37
   1   6  -4   42.65    2.35
  -1  -6   4   44.70    2.48
  -1  -6   4   45.35    2.37
   0   6  -4    1.03    0.18
   0   6  -4    1.15    0.18
   0   6  -4    0.91    0.25
   0  -6   4    0.92    0.33
   0  -6   4    1.30    0.25
  -1   6  -4   11.06    0.75
  -1   6  -4   11.24    0.73
   1  -6   4   10.96    0.71
   1  -6   4   10.49    0.84
   1  -6   4   11.79    0.70
  -2   6  -4    0.26    0.25
  -2   6  -4    0.47    0.22
   2  -6   4    0.38    0.24
   2  -6   4    0.11    0.32
  -3   6  -4   11.54    0.72
  -3   6  -4   11.63    0.74
   3  -6   4    9.73    0.74
   3  -6   4   10.02    0.86
  -4   6  -4    1.71    0.32
  -4   6  -4    1.86    0.33
   4  -6   4    2.01    0.39
   4  -6   4    2.14    0.43
  -5   6  -4    3.36    0.39
  -5   6  -4    2.55    0.40
   5  -6   4    2.67    0.48
   5  -6   4    2.50    0.49
  -6   6  -4    0.68    0.33
  -6   6  -4   -0.14    0.37
   6  -6   4    0.21    0.42
   6  -6   4    0.29    0.45
  -7   6  -4    6.64    0.62
   7  -6   4    5.63    0.70
   7  -6   4    5.18    0.69
   8   5  -4    1.38    0.35
   8   5  -4    2.19    0.49
  -8  -5   4    1.89    0.63
   7   5  -4    1.69    0.42
   7   5  -4    1.41    0.33
  -7  -5   4    1.09    0.55
   6   5  -4    1.70    0.32
   6   5  -4    1.39    0.37
  -6  -5   4    1.29    0.50
   5   5  -4    0.62    0.30
   5   5  -4    0.12    0.24
  -5  -5   4    0.43    0.47
   4   5  -4    1.75    0.22
   4   5  -4    1.74    0.25
  -4  -5   4    1.55    0.30
  -4  -5   4    1.57    0.45
   3   5  -4   36.14    1.89
   3   5  -4   35.16    1.90
  -3  -5   4   34.01    1.91
  -3  -5   4   34.68    2.04
   2   5  -4   24.84    1.31
   2   5  -4   23.86    1.31
  -2  -5   4   22.86    1.45
  -2  -5   4   22.74    1.32
  -2  -5   4   24.07    1.32
   1   5  -4   14.60    0.86
   1   5  -4   14.59    0.81
   1   5  -4   14.89    0.84
  -1  -5   4   14.66    1.01
  -1  -5   4   14.91    0.86
   0   5  -4   25.46    1.40
   0   5  -4   26.39    1.36
   0   5  -4   24.88    1.37
   0  -5   4   24.05    1.39
   0  -5   4   26.40    1.39
   0  -5   4   25.48    1.46
  -1   5  -4   58.78    3.22
  -1   5  -4   63.87    3.26
   1  -5   4   65.49    3.24
   1  -5   4   61.32    3.28
   1  -5   4   57.70    3.25
  -2   5  -4    1.26    0.20
  -2   5  -4    1.03    0.22
   2  -5   4    1.23    0.24
   2  -5   4    0.80    0.28
  -3   5  -4   26.51    1.43
  -3   5  -4   25.84    1.42
   3  -5   4   25.12    1.46
   3  -5   4   24.97    1.49
  -4   5  -4   14.20    0.84
  -4   5  -4   14.69    0.85
   4  -5   4   13.18    0.92
   4  -5   4   12.53    0.93
  -5   5  -4   22.27    1.23
  -5   5  -4   21.57    1.23
   5  -5   4   20.19    1.33
   5  -5   4   20.14    1.30
  -6   5  -4    5.35    0.49
  -6   5  -4    6.46    0.55
   6  -5   4    5.45    0.60
   6  -5   4    6.67    0.63
  -7   5  -4    3.43    0.50
   7  -5   4    3.87    0.59
   7  -5   4    3.49    0.59
  -8   5  -4    3.37    0.55
   8  -5   4    3.45    0.62
   8  -5   4    2.07    0.58
   9   4  -4    0.45    0.47
   9   4  -4    0.18    0.29
  -9  -4   4    0.28    0.57
   8   4  -4    1.50    0.31
   8   4  -4    2.14    0.45
  -8  -4   4    1.45    0.52
   7   4  -4    1.06    0.36
   7   4  -4    0.09    0.25
  -7  -4   4    1.20    0.45
   6   4  -4    3.64    0.42
   6   4  -4    4.49    0.38
  -6  -4   4    3.42    0.49
   5   4  -4    1.23    0.23
   5   4  -4    1.25    0.18
   5   4  -4    1.19    0.27
  -5  -4   4    0.67    0.35
   4   4  -4   20.31    1.16
   4   4  -4   20.23    1.14
  -4  -4   4   21.07    1.23
  -4  -4   4   19.59    1.13
   3   4  -4   35.41    1.88
   3   4  -4   36.02    1.87
   3   4  -4   33.41    1.89
  -3  -4   4   33.90    1.88
  -3  -4   4   36.64    1.96
   2   4  -4   13.23    0.75
   2   4  -4   13.25    0.75
  -2  -4   4   12.84    0.88
  -2  -4   4   12.23    0.77
  -2  -4   4   13.94    0.77
   1   4  -4   66.14    3.54
   1   4  -4   66.62    3.56
   1   4  -4   68.79    3.57
  -1  -4   4   69.49    3.63
  -1  -4   4   68.56    3.58
   0   4  -4   38.66    2.11
   0   4  -4   39.74    2.10
   0   4  -4   40.17    2.09
   0  -4   4   39.18    2.12
   0  -4   4   40.24    2.17
   0  -4   4   40.28    2.10
  -1   4  -4  106.52    5.76
  -1   4  -4  114.11    5.79
   1  -4   4  114.70    5.77
   1  -4   4  106.77    5.80
   1  -4   4  110.84    5.79
  -2   4  -4    6.82    0.41
  -2   4  -4    7.89    0.48
  -2   4  -4    7.34    0.46
   2  -4   4    7.11    0.50
   2  -4   4    7.21    0.54
   2  -4   4    7.26    0.43
  -3   4  -4   43.90    2.27
  -3   4  -4   43.92    2.27
   3  -4   4   40.07    2.31
   3  -4   4   41.94    2.31
  -4   4  -4    0.57    0.22
  -4   4  -4    0.76    0.21
   4  -4   4    0.53    0.27
   4  -4   4    0.43    0.26
  -5   4  -4   16.51    0.94
  -5   4  -4   16.10    0.96
   5  -4   4   14.51    1.04
   5  -4   4   15.47    1.04
  -6   4  -4   13.81    0.84
  -6   4  -4   13.43    0.88
   6  -4   4   12.49    1.00
   6  -4   4   12.74    0.96
  -7   4  -4    4.21    0.48
   7  -4   4    3.33    0.53
   7  -4   4    3.21    0.55
  -8   4  -4    1.94    0.48
   8  -4   4    2.17    0.56
   8  -4   4    2.63    0.59
   9   3  -4    0.48    0.27
   9   3  -4    0.31    0.41
  -9  -3   4    0.51    0.53
   8   3  -4    5.00    0.45
   8   3  -4    5.85    0.56
  -8  -3   4    6.18    0.65
   7   3  -4    0.70    0.24
   7   3  -4    0.77    0.32
  -7  -3   4    0.97    0.29
  -7  -3   4    0.57    0.38
   6   3  -4   24.60    1.36
   6   3  -4   24.84    1.40
  -6  -3   4   23.79    1.36
  -6  -3   4   24.18    1.43
   5   3  -4   28.61    1.55
   5   3  -4   28.99    1.60
   5   3  -4   30.56    1.59
  -5  -3   4   27.75    1.63
  -5  -3   4   29.23    1.58
   4   3  -4   22.16    1.23
   4   3  -4   21.97    1.24
   4   3  -4   22.10    1.20
  -4  -3   4   22.22    1.22
  -4  -3   4   23.46    1.27
   3   3  -4    3.09    0.27
   3   3  -4    4.04    0.29
  -3  -3   4    3.25    0.29
  -3  -3   4    2.99    0.31
   2   3  -4    4.33    0.29
   2   3  -4    3.71    0.29
   2   3  -4    4.13    0.28
  -2  -3   4    4.10    0.41
  -2  -3   4    3.71    0.31
   1   3  -4  123.92    6.29
   1   3  -4  123.59    6.31
   1   3  -4  127.22    6.31
  -1  -3   4  123.09    6.35
  -1  -3   4  107.16    6.32
   0   3  -4    1.12    0.14
   0   3  -4    0.87    0.11
   0   3  -4    1.13    0.11
   0  -3   4    0.74    0.21
   0  -3   4    1.01    0.11
   0  -3   4    0.93    0.18
  -1   3  -4   75.27    3.86
  -1   3  -4   75.08    3.87
  -1   3  -4   75.72    3.86
   1  -3   4   76.10    3.85
   1  -3   4   67.84    3.88
   1  -3   4   72.42    3.88
  -2   3  -4    2.37    0.19
  -2   3  -4    2.40    0.21
  -2   3  -4    2.73    0.25
   2  -3   4    2.54    0.26
   2  -3   4    2.58    0.17
   2  -3   4    2.12    0.24
  -3   3  -4   59.81    3.05
  -3   3  -4   59.76    3.05
  -3   3  -4   59.22    3.05
   3  -3   4   56.27    3.08
   3  -3   4   53.97    3.08
  -4   3  -4    0.18    0.16
  -4   3  -4    0.04    0.17
   4  -3   4    0.23    0.23
   4  -3   4   -0.03    0.22
  -5   3  -4   16.60    0.93
  -5   3  -4   16.67    0.97
   5  -3   4   15.84    1.01
   5  -3   4   15.55    1.04
  -6   3  -4    8.29    0.60
  -6   3  -4    8.19    0.64
   6  -3   4    8.91    0.73
   6  -3   4    8.08    0.78
  -7   3  -4    3.92    0.47
   7  -3   4    4.04    0.56
   7  -3   4    4.27    0.57
  -8   3  -4    3.09    0.51
   8  -3   4    2.02    0.56
   8  -3   4    2.69    0.56
  -9   3  -4    1.45    0.50
   9  -3   4   -0.10    0.58
  10   2  -4    0.13    0.67
 -10  -2   4    0.41    0.76
   9   2  -4    0.33    0.39
  -9  -2   4   -0.07    0.51
  -9  -2   4   -0.35    0.38
   8   2  -4    1.29    0.36
   8   2  -4    0.84    0.23
  -8  -2   4    0.62    0.33
  -8  -2   4    0.53    0.43
   7   2  -4    2.54    0.35
   7   2  -4    2.84    0.28
  -7  -2   4    2.48    0.35
  -7  -2   4    3.32    0.43
   6   2  -4   38.12    2.06
   6   2  -4   37.77    2.03
  -6  -2   4   38.53    2.05
  -6  -2   4   36.72    2.08
   5   2  -4    2.70    0.27
   5   2  -4    2.73    0.25
  -5  -2   4    2.35    0.30
  -5  -2   4    2.77    0.26
   4   2  -4    7.46    0.49
   4   2  -4    7.27    0.43
   4   2  -4    7.10    0.47
  -4  -2   4    7.09    0.52
  -4  -2   4    8.80    0.48
   3   2  -4   92.41    4.91
   3   2  -4   94.06    4.89
   3   2  -4   96.27    4.91
  -3  -2   4   94.85    4.91
  -3  -2   4   91.59    4.90
   2   2  -4   39.67    1.95
   2   2  -4   35.61    1.94
   2   2  -4   37.17    1.95
  -2  -2   4   35.55    1.94
  -2  -2   4   35.82    1.95
   1   2  -4  167.06    8.93
   1   2  -4  176.31    8.93
   1   2  -4  175.49    8.94
  -1  -2   4  171.77    8.95
  -1  -2   4  178.42    8.96
  -1  -2   4  162.12    8.92
   0   2  -4   81.71    4.36
   0   2  -4   78.83    4.36
   0  -2   4   87.14    4.39
   0  -2   4   82.04    4.39
   0  -2   4   91.00    4.35
   0  -2   4   80.61    4.36
  -1   2  -4  117.75    6.11
  -1   2  -4  118.33    6.10
   1  -2   4  118.57    6.11
   1  -2   4  120.79    6.13
   1  -2   4  110.46    6.12
  -2   2  -4    0.18    0.08
  -2   2  -4    0.42    0.12
   2  -2   4    0.33    0.15
   2  -2   4    0.36    0.11
   2  -2   4    0.13    0.14
  -3   2  -4   52.26    2.72
  -3   2  -4   46.93    2.70
   3  -2   4   51.50    2.75
   3  -2   4   56.39    2.69
   3  -2   4   51.64    2.75
   3  -2   4   50.58    2.72
  -4   2  -4   35.78    1.89
   4  -2   4   34.77    1.93
   4  -2   4   35.32    1.93
  -5   2  -4   20.44    1.19
  -5   2  -4   20.98    1.16
   5  -2   4   21.35    1.23
   5  -2   4   20.47    1.22
  -6   2  -4    3.51    0.38
  -6   2  -4    2.95    0.32
   6  -2   4    3.10    0.42
   6  -2   4    3.08    0.43
  -7   2  -4   -0.01    0.33
   7  -2   4    0.14    0.39
   7  -2   4    0.65    0.42
  -8   2  -4    3.44    0.50
   8  -2   4    2.59    0.56
   8  -2   4    3.42    0.57
  -9   2  -4   -0.23    0.47
   9  -2   4    0.07    0.49
   9  -2   4   -0.27    0.52
  10   1  -4    1.45    0.44
 -10  -1   4    0.50    0.65
 -10  -1   4    1.78    0.55
   9   1  -4   -0.27    0.35
  -9  -1   4    0.05    0.39
  -9  -1   4   -0.55    0.53
   8   1  -4    4.74    0.49
  -8  -1   4    5.58    0.52
   7   1  -4   17.88    1.08
   7   1  -4   17.92    1.02
  -7  -1   4   18.25    1.08
   6   1  -4    1.98    0.26
   6   1  -4    0.98    0.18
  -6  -1   4    1.53    0.25
   5   1  -4   26.31    1.48
   5   1  -4   27.62    1.46
  -5  -1   4   26.83    1.47
  -5  -1   4   27.09    1.43
   4   1  -4   25.53    1.35
   4   1  -4   24.82    1.32
   4   1  -4   24.62    1.37
  -4  -1   4   26.28    1.38
  -4  -1   4   24.76    1.32
  -4  -1   4   25.08    1.36
   3   1  -4  143.65    7.33
   3   1  -4  141.62    7.31
   3   1  -4  140.02    7.34
  -3  -1   4  140.44    7.30
  -3  -1   4  138.85    7.33
  -3  -1   4  139.64    7.33
   2   1  -4    3.78    0.22
   2   1  -4    3.66    0.25
   2   1  -4    3.53    0.24
  -2  -1   4    3.30    0.25
  -2  -1   4    3.82    0.21
  -2  -1   4    3.41    0.25
   1   1  -4   42.95    2.42
   1   1  -4   47.20    2.41
  -1  -1   4   48.19    2.41
  -1  -1   4   45.61    2.42
   0   1  -4    7.28    0.37
   0   1  -4    7.39    0.37
   0   1  -4    5.85    0.34
   0  -1   4    6.07    0.39
   0  -1   4    5.20    0.40
   0  -1   4    6.18    0.36
  -1   1  -4   33.74    1.77
  -1   1  -4   32.66    1.77
   1  -1   4   35.25    1.77
   1  -1   4   32.70    1.77
  -2   1  -4   15.53    0.94
  -2   1  -4   17.46    0.96
   2  -1   4   19.29    0.97
   2  -1   4   18.32    0.98
   2  -1   4   17.50    0.95
  -3   1  -4  129.21    7.05
  -3   1  -4  127.07    7.03
   3  -1   4  134.53    7.07
   3  -1   4  130.38    7.05
   3  -1   4  154.18    7.03
  -4   1  -4   18.24    1.01
  -4   1  -4   17.63    0.99
   4  -1   4   19.38    0.98
   4  -1   4   16.79    1.01
   4  -1   4   18.67    1.05
  -5   1  -4   31.67    1.70
   5  -1   4   30.17    1.75
   5  -1   4   32.78    1.74
   5  -1   4   30.73    1.70
  -6   1  -4   34.01    1.88
   6  -1   4   33.96    1.95
   6  -1   4   36.08    1.94
  -7   1  -4    0.07    0.33
  -7   1  -4    0.98    0.28
   7  -1   4    0.64    0.35
   7  -1   4    0.67    0.41
  -8   1  -4    6.64    0.61
   8  -1   4    7.59    0.78
   8  -1   4    6.02    0.65
  -9   1  -4    1.02    0.48
   9  -1   4    1.55    0.54
  10   0  -4   -0.28    0.40
  10   0  -4    0.75    0.50
 -10   0   4    0.33    0.49
   9   0  -4    0.34    0.40
   9   0  -4    0.13    0.35
  -9   0   4    0.36    0.41
   8   0  -4    2.33    0.37
   8   0  -4    2.35    0.40
  -8   0   4    2.82    0.41
   7   0  -4    0.38    0.15
   7   0  -4    1.04    0.26
   7   0  -4    0.71    0.29
  -7   0   4    0.19    0.27
   6   0  -4    3.34    0.28
   6   0  -4    3.16    0.30
   6   0  -4    2.90    0.31
  -6   0   4    2.99    0.32
  -6   0   4    3.00    0.26
   5   0  -4   32.35    1.76
   5   0  -4   31.57    1.77
  -5   0   4   32.38    1.72
  -5   0   4   34.17    1.77
   4   0  -4  209.81   10.94
   4   0  -4  215.62   10.92
   4   0  -4  203.31   10.93
  -4   0   4  210.28   10.93
  -4   0   4  210.72   10.90
   3   0  -4  241.45   12.58
   3   0  -4  248.09   12.58
   3   0  -4  232.09   12.59
  -3   0   4  245.06   12.58
  -3   0   4  243.36   12.56
   2   0  -4    4.31    0.26
   2   0  -4    4.68    0.30
   2   0  -4    4.31    0.29
  -2   0   4    5.02    0.27
  -2   0   4    5.60    0.30
   1   0  -4  553.85   32.43
   1   0  -4  576.60   32.41
   1   0  -4  618.28   32.40
  -1   0   4  640.92   32.42
  -1   0   4  675.65   32.41
  -1   0   4  682.33   32.40
   0   0  -4  124.87    6.85
   0   0  -4  132.14    6.86
   0   0  -4  122.97    6.87
   0   0   4  144.33    6.86
   0   0   4  132.85    6.86
   0   0   4  134.13    6.88
  -1   0  -4   92.74    5.54
  -1   0  -4  101.25    5.56
   1   0   4  119.92    5.55
   1   0   4  112.08    5.56
   1   0   4  107.60    5.58
  -2   0  -4  166.88    8.96
  -2   0  -4  163.98    8.97
   2   0   4  182.05    8.97
   2   0   4  177.61    8.99
   2   0   4  172.32    8.99
  -3   0  -4   14.78    0.82
   3   0   4   15.56    0.86
   3   0   4   15.05    0.83
   3   0   4   14.25    0.82
  -4   0  -4   15.31    0.89
   4   0   4   16.67    0.91
   4   0   4   16.00    0.91
   4   0   4   17.00    0.89
   4   0   4   15.90    0.95
  -5   0  -4    3.50    0.33
  -5   0  -4    3.46    0.30
   5   0   4    4.03    0.35
   5   0   4    3.68    0.35
   5   0   4    4.02    0.33
   5   0   4    3.97    0.39
  -6   0  -4   11.67    0.71
   6   0   4   11.72    0.80
   6   0   4   10.72    0.72
  -7   0  -4    4.06    0.38
   7   0   4    4.05    0.66
   7   0   4    3.81    0.49
  -8   0  -4    3.06    0.47
   8   0   4    3.17    0.51
   9   0   4   -0.66    0.46
  10  -1  -4    2.78    0.49
  10  -1  -4    3.49    0.59
 -10   1   4    3.38    0.58
   9  -1  -4    2.40    0.48
   9  -1  -4    2.24    0.41
  -9   1   4    1.45    0.46
   8  -1  -4    0.81    0.29
   8  -1  -4    0.79    0.35
  -8   1   4    0.91    0.35
   7  -1  -4    5.46    0.53
   7  -1  -4    5.15    0.44
  -7   1   4    5.00    0.53
  -7   1   4    4.82    0.40
   6  -1  -4    5.75    0.38
   6  -1  -4    5.98    0.48
   6  -1  -4    6.13    0.49
  -6   1   4    5.79    0.49
  -6   1   4    5.66    0.39
   5  -1  -4    5.50    0.36
   5  -1  -4    5.25    0.41
   5  -1  -4    5.60    0.43
  -5   1   4    5.86    0.44
  -5   1   4    5.80    0.36
   4  -1  -4    4.53    0.34
   4  -1  -4    4.25    0.28
   4  -1  -4    3.79    0.31
  -4   1   4    4.25    0.27
  -4   1   4    3.53    0.32
   3  -1  -4   89.41    4.64
   3  -1  -4   85.68    4.66
  -3   1   4   89.59    4.63
  -3   1   4   90.83    4.65
   2  -1  -4   16.51    0.86
   2  -1  -4   16.38    0.85
   2  -1  -4   14.03    0.87
  -2   1   4   16.19    0.86
  -2   1   4   17.93    0.85
  -2   1   4   14.28    0.84
   1  -1  -4  118.19    5.92
   1  -1  -4  113.57    5.94
   1  -1  -4  104.01    5.94
  -1   1   4  114.75    5.93
  -1   1   4  118.06    5.92
  -1   1   4  114.52    5.93
   0  -1  -4   10.43    0.60
   0  -1  -4   10.43    0.60
   0   1   4   10.59    0.59
   0   1   4   12.04    0.60
  -1  -1  -4  132.05    6.94
  -1  -1  -4  124.40    6.93
   1   1   4  135.12    6.93
   1   1   4  141.16    6.94
  -2  -1  -4    0.29    0.09
  -2  -1  -4    0.20    0.10
   2   1   4    0.37    0.12
   2   1   4    0.51    0.08
   2   1   4    0.27    0.10
  -3  -1  -4   25.42    1.35
  -3  -1  -4   24.68    1.35
   3   1   4   24.61    1.35
   3   1   4   25.69    1.36
   3   1   4   25.18    1.34
  -4  -1  -4   27.16    1.47
  -4  -1  -4   28.98    1.47
   4   1   4   25.40    1.47
   4   1   4   27.75    1.48
   4   1   4   27.12    1.47
  -5  -1  -4   33.35    1.79
   5   1   4   33.45    1.81
   5   1   4   32.96    1.80
   5   1   4   34.98    1.84
   5   1   4   31.69    1.79
  -6  -1  -4    2.70    0.31
   6   1   4    2.89    0.34
   6   1   4    3.98    0.41
   6   1   4    3.72    0.35
  -7  -1  -4    2.83    0.34
   7   1   4    2.86    0.43
   7   1   4    2.90    0.36
   8   1   4   10.40    1.05
  10  -2  -4    0.88    0.43
  10  -2  -4    1.89    0.56
 -10   2   4    1.26    0.55
   9  -2  -4    3.05    0.51
   9  -2  -4    1.92    0.42
  -9   2   4    3.16    0.50
   8  -2  -4    1.19    0.38
   8  -2  -4    0.88    0.34
  -8   2   4    0.99    0.27
  -8   2   4    1.06    0.38
   7  -2  -4    6.75    0.62
   7  -2  -4    8.04    0.65
  -7   2   4    7.34    0.52
  -7   2   4    7.23    0.62
   6  -2  -4    2.02    0.29
   6  -2  -4    2.24    0.29
  -6   2   4    2.50    0.32
  -6   2   4    2.11    0.23
   5  -2  -4   12.70    0.67
   5  -2  -4   11.33    0.75
   5  -2  -4   11.57    0.73
  -5   2   4   12.19    0.75
  -5   2   4   12.01    0.69
   4  -2  -4    1.82    0.20
   4  -2  -4    2.21    0.18
   4  -2  -4    1.30    0.22
  -4   2   4    1.72    0.17
  -4   2   4    2.12    0.22
   3  -2  -4   52.87    2.80
   3  -2  -4   47.39    2.83
   3  -2  -4   55.02    2.81
  -3   2   4   53.99    2.80
  -3   2   4   55.84    2.78
  -3   2   4   54.91    2.81
   2  -2  -4    3.73    0.24
   2  -2  -4    3.43    0.27
  -2   2   4    3.60    0.24
  -2   2   4    3.16    0.25
  -2   2   4    3.78    0.22
   1  -2  -4   26.00    1.43
   1  -2  -4   27.89    1.41
   1  -2  -4   24.62    1.45
  -1   2   4   27.57    1.43
  -1   2   4   27.97    1.42
  -1   2   4   27.29    1.43
   0  -2  -4    3.22    0.24
   0  -2  -4    3.27    0.26
   0   2   4    3.96    0.26
   0   2   4    3.20    0.23
  -1  -2  -4   48.91    2.60
  -1  -2  -4   46.02    2.60
   1   2   4   49.61    2.60
   1   2   4   53.06    2.61
   1   2   4   49.77    2.60
  -2  -2  -4   34.01    1.81
  -2  -2  -4   33.56    1.83
  -2  -2  -4   31.93    1.82
   2   2   4   38.58    1.83
   2   2   4   34.74    1.83
   2   2   4   33.29    1.82
  -3  -2  -4   24.16    1.28
  -3  -2  -4   22.17    1.27
  -3  -2  -4   22.68    1.27
   3   2   4   25.61    1.28
   3   2   4   22.96    1.28
   3   2   4   22.90    1.27
  -4  -2  -4    9.83    0.61
   4   2   4    9.43    0.62
   4   2   4    9.13    0.59
   4   2   4   11.05    0.63
  -5  -2  -4    8.43    0.62
   5   2   4    9.01    0.58
   5   2   4    9.74    0.65
   5   2   4    9.64    0.62
  -6  -2  -4    5.41    0.45
   6   2   4    4.59    0.43
   6   2   4    5.86    0.49
  -7  -2  -4    3.33    0.39
   7   2   4    3.43    0.35
   7   2   4    3.64    0.38
  10  -3  -4    0.19    0.69
  10  -3  -4   -0.03    0.39
 -10   3   4    0.30    0.71
   9  -3  -4   -0.15    0.43
   9  -3  -4   -0.25    0.36
  -9   3   4    0.29    0.45
  -9   3   4    0.36    0.43
   8  -3  -4    2.20    0.44
   8  -3  -4    3.19    0.45
  -8   3   4    2.75    0.45
  -8   3   4    2.59    0.36
   7  -3  -4    1.35    0.32
   7  -3  -4    1.37    0.34
  -7   3   4    1.65    0.27
  -7   3   4    1.65    0.35
   6  -3  -4    2.01    0.30
   6  -3  -4    1.87    0.32
  -6   3   4    2.09    0.33
  -6   3   4    1.64    0.25
   5  -3  -4   41.98    2.36
   5  -3  -4   45.13    2.39
  -5   3   4   44.37    2.34
  -5   3   4   44.86    2.37
   4  -3  -4    9.49    0.64
   4  -3  -4    9.21    0.54
   4  -3  -4    9.45    0.60
  -4   3   4   10.26    0.61
  -4   3   4   10.21    0.58
   3  -3  -4   43.54    2.34
   3  -3  -4   43.83    2.31
   3  -3  -4   42.28    2.30
  -3   3   4   44.71    2.29
  -3   3   4   44.17    2.31
  -3   3   4   43.53    2.31
   2  -3  -4   21.75    1.18
   2  -3  -4   21.32    1.22
   2  -3  -4   22.93    1.19
  -2   3   4   21.83    1.18
  -2   3   4   22.84    1.18
  -2   3   4   21.59    1.18
   1  -3  -4   87.23    4.52
   1  -3  -4   85.37    4.53
   1  -3  -4   79.30    4.55
  -1   3   4   89.40    4.53
  -1   3   4   88.92    4.53
  -1   3   4   89.81    4.53
   0  -3  -4    2.79    0.20
   0  -3  -4    2.89    0.25
   0  -3  -4    3.18    0.24
   0   3   4    3.01    0.23
   0   3   4    3.34    0.23
   0   3   4    2.25    0.23
  -1  -3  -4   27.65    1.55
  -1  -3  -4   28.12    1.54
  -1  -3  -4   28.06    1.53
   1   3   4   27.91    1.53
   1   3   4   29.34    1.54
   1   3   4   31.32    1.53
  -2  -3  -4   42.72    2.30
  -2  -3  -4   41.09    2.30
  -2  -3  -4   43.42    2.32
   2   3   4   47.51    2.29
   2   3   4   43.95    2.30
   2   3   4   42.14    2.30
  -3  -3  -4   18.82    1.11
  -3  -3  -4   18.41    1.10
   3   3   4   23.48    1.13
   3   3   4   19.08    1.09
   3   3   4   19.03    1.09
  -4  -3  -4   15.02    0.85
   4   3   4   13.86    0.84
   4   3   4   14.04    0.82
   4   3   4   13.56    0.82
  -5  -3  -4    3.34    0.35
   5   3   4    3.46    0.34
   5   3   4    2.99    0.29
   5   3   4    3.06    0.30
  -6  -3  -4   28.07    1.59
   6   3   4   27.38    1.54
   7   3   4    0.94    0.27
  10  -4  -4   -0.34    0.40
   9  -4  -4   -0.75    0.39
   9  -4  -4   -0.37    0.45
  -9   4   4    0.28    0.40
  -9   4   4    0.13    0.47
   8  -4  -4   -0.22    0.38
   8  -4  -4   -0.57    0.35
  -8   4   4   -0.25    0.39
  -8   4   4    0.04    0.33
   7  -4  -4    0.48    0.34
   7  -4  -4   -0.09    0.32
  -7   4   4    0.60    0.29
  -7   4   4    0.30    0.35
   6  -4  -4    9.25    0.73
   6  -4  -4    9.56    0.73
  -6   4   4    9.83    0.74
  -6   4   4   10.18    0.65
   5  -4  -4    3.88    0.38
   5  -4  -4    5.10    0.43
  -5   4   4    4.67    0.41
  -5   4   4    5.39    0.48
   4  -4  -4    6.90    0.52
   4  -4  -4    7.86    0.55
  -4   4   4    7.90    0.51
  -4   4   4    7.74    0.54
   3  -4  -4   79.02    4.47
   3  -4  -4   89.54    4.51
   3  -4  -4   87.25    4.46
  -3   4   4   85.66    4.45
  -3   4   4   85.02    4.47
   2  -4  -4    4.32    0.36
   2  -4  -4    3.80    0.31
   2  -4  -4    4.29    0.30
  -2   4   4    4.05    0.29
  -2   4   4    3.49    0.32
  -2   4   4    3.67    0.29
   1  -4  -4  206.10   10.80
   1  -4  -4  196.74   10.76
   1  -4  -4  212.52   10.77
  -1   4   4  211.91   10.77
  -1   4   4  208.65   10.77
  -1   4   4  205.93   10.76
   0  -4  -4   23.58    1.26
   0  -4  -4   24.34    1.27
   0  -4  -4   22.30    1.30
   0   4   4   24.47    1.27
   0   4   4   21.28    1.25
   0   4   4   24.67    1.27
  -1  -4  -4   75.88    4.08
  -1  -4  -4   78.69    4.08
  -1  -4  -4   78.04    4.11
   1   4   4   79.74    4.08
   1   4   4   76.56    4.08
  -2  -4  -4   15.32    0.88
   2   4   4   14.26    0.83
   2   4   4   14.64    0.84
  -3  -4  -4   10.87    0.71
   3   4   4   11.40    0.66
   3   4   4    9.79    0.64
   3   4   4   11.15    0.67
  -4  -4  -4   41.96    2.20
   4   4   4   40.16    2.16
   4   4   4   38.35    2.15
  -5  -4  -4    2.35    0.36
   5   4   4    2.53    0.29
   5   4   4    2.49    0.29
  -6  -4  -4    9.40    0.79
   6   4   4    9.25    0.69
   6   4   4    9.28    0.64
  -7  -4  -4    0.26    0.40
   7   4   4    0.57    0.28
  -8  -4  -4    3.11    0.48
   9  -5  -4    1.44    0.43
   9  -5  -4    1.17    0.52
  -9   5   4    0.69    0.47
  -9   5   4    1.46    0.54
   8  -5  -4    0.45    0.37
   8  -5  -4    0.29    0.43
  -8   5   4    1.36    0.41
  -8   5   4    0.44    0.46
   7  -5  -4    4.47    0.52
   7  -5  -4    5.13    0.52
  -7   5   4    5.05    0.54
  -7   5   4    5.34    0.47
   6  -5  -4    0.70    0.31
   6  -5  -4    0.92    0.34
  -6   5   4    0.79    0.34
  -6   5   4    0.62    0.30
   5  -5  -4    6.37    0.57
   5  -5  -4    5.41    0.55
  -5   5   4    6.23    0.51
  -5   5   4    5.96    0.52
   4  -5  -4    1.26    0.25
   4  -5  -4    1.85    0.29
  -4   5   4    1.48    0.25
   3  -5  -4   19.90    1.12
   3  -5  -4   19.44    1.05
   3  -5  -4   17.27    1.07
  -3   5   4   19.42    1.05
  -3   5   4   18.66    1.06
  -3   5   4   19.14    1.07
   2  -5  -4    1.36    0.20
   2  -5  -4    1.50    0.18
   2  -5  -4    1.23    0.26
  -2   5   4    1.40    0.18
  -2   5   4    1.37    0.22
  -2   5   4    1.27    0.19
   1  -5  -4   19.56    1.15
   1  -5  -4   19.43    1.08
   1  -5  -4   19.04    1.13
  -1   5   4   19.70    1.07
  -1   5   4   19.31    1.08
   0  -5  -4    9.03    0.57
   0  -5  -4    8.77    0.65
   0  -5  -4    9.64    0.57
   0   5   4    9.48    0.57
   0   5   4    9.10    0.57
  -1  -5  -4   20.19    1.18
  -1  -5  -4   19.77    1.12
   1   5   4   20.27    1.11
   1   5   4   19.60    1.11
  -2  -5  -4    0.42    0.28
   2   5   4    0.38    0.18
   2   5   4    0.22    0.18
  -3  -5  -4   42.55    2.24
   3   5   4   40.70    2.19
   3   5   4   38.83    2.18
  -4  -5  -4    8.74    0.72
   4   5   4    8.83    0.63
   4   5   4    9.03    0.61
   4   5   4    8.42    0.68
  -5  -5  -4    5.71    0.53
   5   5   4    4.69    0.40
   5   5   4    4.48    0.41
  -6  -5  -4    7.58    0.68
   6   5   4    7.86    0.67
   6   5   4    7.26    0.59
  -7  -5  -4    0.13    0.47
   7   5   4    0.21    0.28
   9  -6  -4    0.85    0.40
  -9   6   4    1.34    0.50
   8  -6  -4   -0.21    0.45
   8  -6  -4    0.42    0.40
  -8   6   4    1.13    0.44
  -8   6   4    0.45    0.49
   7  -6  -4    1.53    0.40
   7  -6  -4    1.41    0.42
  -7   6   4    1.53    0.40
  -7   6   4    1.42    0.45
   6  -6  -4    0.00    0.33
   6  -6  -4    0.05    0.33
  -6   6   4    0.25    0.34
  -6   6   4    0.26    0.34
   5  -6  -4    3.59    0.41
   5  -6  -4    3.16    0.40
  -5   6   4    3.50    0.40
   4  -6  -4   10.20    0.76
   4  -6  -4    9.34    0.71
  -4   6   4   10.39    0.69
  -4   6   4   10.05    0.69
   3  -6  -4   21.70    1.23
   3  -6  -4   18.76    1.16
  -3   6   4   20.46    1.14
  -3   6   4   20.36    1.16
   2  -6  -4    8.76    0.54
   2  -6  -4    7.29    0.59
   2  -6  -4    8.81    0.69
  -2   6   4    8.37    0.56
   1  -6  -4   29.63    1.66
   1  -6  -4   27.70    1.58
  -1   6   4   29.47    1.58
  -1   6   4   28.93    1.58
   0  -6  -4   15.88    1.04
   0  -6  -4   17.45    0.97
   0   6   4   17.12    0.97
   0   6   4   16.06    0.96
  -1  -6  -4   19.62    1.08
  -1  -6  -4   18.92    1.15
   1   6   4   17.57    1.06
   1   6   4   18.20    1.07
  -2  -6  -4   30.18    1.66
   2   6   4   28.50    1.58
   2   6   4   27.34    1.57
  -3  -6  -4    6.96    0.61
   3   6   4    7.00    0.54
   3   6   4    6.96    0.57
  -4  -6  -4    4.15    0.54
   4   6   4    4.77    0.42
   4   6   4    4.86    0.42
  -5  -6  -4   -0.03    0.44
   5   6   4    0.19    0.27
   5   6   4    0.49    0.29
  -6  -6  -4    3.47    0.57
   6   6   4    2.79    0.37
  -7  -6  -4   -0.33    0.53
   7   6   4   -0.09    0.36
   8  -7  -4    0.29    0.48
   8  -7  -4    0.15    0.41
  -8   7   4    0.12    0.53
  -8   7   4   -0.06    0.45
   7  -7  -4    2.52    0.49
   7  -7  -4    1.62    0.45
  -7   7   4    1.60    0.44
  -7   7   4    1.91    0.49
   6  -7  -4    0.22    0.38
   6  -7  -4    0.42    0.39
  -6   7   4   -0.04    0.39
   5  -7  -4    5.93    0.55
   5  -7  -4    5.98    0.56
  -5   7   4    5.73    0.55
   4  -7  -4    0.11    0.30
   4  -7  -4    0.59    0.38
  -4   7   4    0.29    0.32
   3  -7  -4   18.05    1.17
   3  -7  -4   20.88    1.24
  -3   7   4   19.56    1.17
  -3   7   4   19.08    1.13
   2  -7  -4    2.55    0.46
  -2   7   4    2.34    0.32
  -2   7   4    2.95    0.37
   1  -7  -4   13.56    0.96
  -1   7   4   12.22    0.80
  -1   7   4   11.93    0.81
   0  -7  -4    5.96    0.50
   0  -7  -4    5.30    0.56
   0   7   4    5.49    0.51
   0   7   4    6.01    0.52
  -1  -7  -4   13.42    0.87
  -1  -7  -4   14.07    1.01
   1   7   4   13.76    0.86
   1   7   4   12.98    0.86
  -2  -7  -4   22.63    1.38
   2   7   4   20.72    1.24
  -3  -7  -4    1.02    0.47
   3   7   4    1.33    0.30
  -4  -7  -4   10.26    0.94
   4   7   4    9.38    0.73
  -5  -7  -4    0.54    0.53
   5   7   4    1.73    0.34
  -6  -7  -4    3.05    0.63
   7  -8  -4    0.91    0.44
   7  -8  -4    0.38    0.49
   6  -8  -4    0.38    0.41
   6  -8  -4    0.01    0.44
  -6   8   4    0.10    0.43
   5  -8  -4    6.31    0.62
   5  -8  -4    6.82    0.66
  -5   8   4    6.77    0.64
   4  -8  -4    1.40    0.48
   4  -8  -4    0.72    0.38
  -4   8   4    0.63    0.41
   3  -8  -4   10.02    0.91
  -3   8   4    8.63    0.74
  -3   8   4   10.31    0.79
   2  -8  -4    0.25    0.47
  -2   8   4    0.29    0.30
  -2   8   4    0.37    0.34
   1  -8  -4   11.28    0.97
  -1   8   4    9.71    0.74
  -1   8   4    9.03    0.73
   0  -8  -4    6.96    0.68
   0  -8  -4    7.31    0.63
   0   8   4    7.51    0.63
   0   8   4    5.69    0.53
  -1  -8  -4    4.43    0.59
  -1  -8  -4    3.49    0.42
   1   8   4    2.59    0.41
   1   8   4    3.43    0.42
  -2  -8  -4    7.89    0.76
  -2  -8  -4    7.48    0.71
   2   8   4    6.90    0.65
  -3  -8  -4    0.40    0.56
   3   8   4    0.76    0.33
  -4  -8  -4    6.90    0.76
   4   8   4    4.74    0.51
   6  -9  -4    0.03    0.51
   5  -9  -4    3.53    0.56
  -5   9   4    2.50    0.55
   4  -9  -4    1.34    0.56
  -4   9   4    1.53    0.50
   3  -9  -4    3.10    0.60
  -3   9   4    1.33    0.49
   2  -9  -4    1.64    0.61
  -2   9   4    1.58    0.39
  -2   9   4    1.41    0.45
   1  -9  -4    5.02    0.69
  -1   9   4    3.92    0.50
  -1   9   4    5.32    0.54
   0  -9  -4    3.05    0.66
   0   9   4    2.54    0.43
   0   9   4    2.55    0.43
  -1  -9  -4    0.58    0.38
  -1  -9  -4    1.00    0.57
   1   9   4    0.99    0.37
  -2  -9  -4    1.88    0.64
  -2  -9  -4    1.85    0.43
   2   9   4    1.75    0.40
  -3  -9  -4    1.53    1.05
  -3  -9  -4    1.09    0.47
  -3  10   4    2.86    0.57
   2 -10  -4    2.30    0.90
  -2  10   4    0.64    0.43
  -2  10   4    0.48    0.49
   1 -10  -4    4.16    1.20
  -1  10   4    2.60    0.50
   0  10   4    1.23    0.44
  -2 -10   5    0.69    1.20
  -1 -10   5    4.19    0.88
   0  10  -5    0.39    0.55
   0 -10   5    0.29    0.77
  -1  10  -5    1.42    0.66
   1 -10   5    2.78    0.84
   5   9  -5    0.34    0.66
   4   9  -5    0.49    0.40
   4   9  -5    0.67    0.41
  -4  -9   5    1.06    0.54
  -4  -9   5    1.72    0.97
   3   9  -5    1.47    0.45
   3   9  -5    2.67    0.43
  -3  -9   5    1.68    0.85
  -3  -9   5    1.99    0.53
   2   9  -5    0.51    0.42
  -2  -9   5    0.78    0.47
  -2  -9   5    1.60    0.78
   1   9  -5    4.76    0.61
  -1  -9   5    5.92    0.83
   0   9  -5   -0.41    0.41
   0  -9   5   -0.50    0.64
  -1   9  -5    3.93    0.58
   1  -9   5    5.05    0.75
  -2   9  -5   -0.25    0.45
   2  -9   5   -0.34    0.63
  -3   9  -5    3.64    0.60
   3  -9   5    5.83    0.77
  -4   9  -5    0.80    0.53
  -4   9  -5    1.21    0.51
   4  -9   5    0.33    0.63
  -5   9  -5    0.41    0.51
  -6  -8   5    1.01    1.04
  -6  -8   5    1.53    0.84
   5   8  -5    0.06    0.33
   5   8  -5   -0.25    0.37
  -5  -8   5    0.90    0.51
  -5  -8   5   -0.62    0.91
   4   8  -5    1.86    0.39
   4   8  -5    2.41    0.39
  -4  -8   5    2.13    0.88
  -4  -8   5    2.00    0.48
   3   8  -5    9.23    0.79
   3   8  -5    7.54    0.69
  -3  -8   5    8.08    0.70
  -3  -8   5    7.22    0.98
   2   8  -5    1.65    0.32
   2   8  -5    1.96    0.41
  -2  -8   5    2.30    0.71
  -2  -8   5    1.54    0.43
   1   8  -5    6.65    0.60
  -1  -8   5    7.85    0.81
   0   8  -5    0.23    0.37
   0  -8   5    0.41    0.54
  -1   8  -5   12.89    0.97
   1  -8   5   14.01    1.17
  -2   8  -5    0.13    0.39
   2  -8   5   -0.33    0.53
  -3   8  -5    2.57    0.43
  -3   8  -5    3.46    0.50
   3  -8   5    2.91    0.65
  -4   8  -5    1.26    0.43
  -4   8  -5    1.13    0.47
   4  -8   5    1.48    0.58
  -5   8  -5    0.92    0.47
  -5   8  -5    1.41    0.47
   5  -8   5    1.43    0.53
   5  -8   5    1.15    0.59
   6  -8   5    0.56    0.54
  -7  -7   5   -0.77    0.59
  -7  -7   5    0.64    0.87
   6   7  -5    0.62    0.37
  -6  -7   5   -0.10    0.48
  -6  -7   5    1.08    0.80
   5   7  -5    1.43    0.32
   5   7  -5    1.40    0.38
  -5  -7   5    1.83    0.82
  -5  -7   5    1.26    0.44
   4   7  -5    1.91    0.33
   4   7  -5    1.09    0.33
  -4  -7   5    0.42    0.72
  -4  -7   5    0.73    0.37
   3   7  -5    1.94    0.34
   3   7  -5    1.65    0.32
  -3  -7   5    0.96    0.66
  -3  -7   5    1.86    0.37
   2   7  -5    0.05    0.28
   2   7  -5    0.24    0.24
  -2  -7   5    0.23    0.29
  -2  -7   5    0.55    0.58
   1   7  -5    9.30    0.72
   1   7  -5    9.45    0.65
  -1  -7   5    9.86    0.84
   0   7  -5    2.46    0.36
   0  -7   5    3.35    0.51
  -1   7  -5   23.68    1.38
  -1   7  -5   21.06    1.33
   1  -7   5   23.00    1.44
  -2   7  -5    0.72    0.28
  -2   7  -5    0.90    0.34
   2  -7   5    0.47    0.44
   2  -7   5    0.38    0.32
  -3   7  -5   11.92    0.79
  -3   7  -5   11.23    0.82
   3  -7   5   11.27    1.01
   3  -7   5    9.16    0.80
  -4   7  -5    1.47    0.38
  -4   7  -5    1.19    0.38
   4  -7   5    0.66    0.41
   4  -7   5    0.67    0.48
  -5   7  -5    4.24    0.52
  -5   7  -5    4.62    0.53
   5  -7   5    4.17    0.57
   5  -7   5    3.52    0.59
  -6   7  -5    5.48    0.69
  -6   7  -5    7.01    0.64
   6  -7   5    4.99    0.70
   6  -7   5    5.17    0.67
   7  -7   5    0.11    0.59
  -8  -6   5    2.50    0.88
   7   6  -5    0.42    0.36
  -7  -6   5   -0.40    0.49
  -7  -6   5    1.11    0.73
   6   6  -5   10.61    0.81
  -6  -6   5   12.18    1.04
  -6  -6   5    8.77    0.81
   5   6  -5   12.57    0.80
   5   6  -5   12.36    0.89
  -5  -6   5   11.92    0.93
  -5  -6   5   13.20    1.26
   4   6  -5    2.69    0.32
   4   6  -5    2.67    0.34
  -4  -6   5    2.79    0.65
  -4  -6   5    3.08    0.40
   3   6  -5   18.06    1.07
   3   6  -5   17.74    1.05
  -3  -6   5   17.57    1.08
  -3  -6   5   17.82    1.36
   2   6  -5    0.15    0.22
   2   6  -5   -0.02    0.19
  -2  -6   5    1.04    0.26
  -2  -6   5    0.27    0.47
   1   6  -5   38.21    2.18
   1   6  -5   39.98    2.20
  -1  -6   5   44.62    2.33
   0   6  -5   15.12    0.91
   0   6  -5   14.36    0.86
   0  -6   5   14.65    0.89
   0  -6   5   15.07    0.88
   0  -6   5   15.00    1.02
  -1   6  -5   10.44    0.63
  -1   6  -5    9.52    0.69
   1  -6   5    9.59    0.67
   1  -6   5   10.73    0.81
  -2   6  -5   11.10    0.67
  -2   6  -5   10.77    0.72
   2  -6   5    9.84    0.83
   2  -6   5    8.84    0.71
  -3   6  -5    7.89    0.64
  -3   6  -5    8.53    0.60
   3  -6   5    9.65    0.71
   3  -6   5    6.64    0.68
  -4   6  -5    2.56    0.37
  -4   6  -5    2.46    0.37
   4  -6   5    2.47    0.43
   4  -6   5    2.53    0.46
  -5   6  -5    1.06    0.35
  -5   6  -5    0.76    0.36
   5  -6   5    1.33    0.45
   5  -6   5    0.83    0.42
  -6   6  -5    0.57    0.42
  -6   6  -5    0.95    0.37
   6  -6   5    0.16    0.44
   6  -6   5   -0.16    0.45
  -7   6  -5    0.18    0.44
   7  -6   5   -0.10    0.50
   7  -6   5   -0.46    0.49
   8   5  -5    0.68    0.34
   8   5  -5    0.09    0.46
  -8  -5   5    1.50    0.63
   7   5  -5    3.10    0.41
   7   5  -5    3.38    0.50
  -7  -5   5    3.70    0.66
   6   5  -5    7.16    0.61
   6   5  -5    6.16    0.58
  -6  -5   5    6.38    0.72
   5   5  -5    7.26    0.57
   5   5  -5    6.78    0.61
  -5  -5   5    5.53    0.68
   4   5  -5    3.26    0.30
   4   5  -5    3.64    0.35
  -4  -5   5    3.09    0.52
   3   5  -5   24.51    1.39
   3   5  -5   25.44    1.38
  -3  -5   5   24.61    1.56
  -3  -5   5   25.42    1.41
   2   5  -5   12.37    0.75
   2   5  -5   12.53    0.75
  -2  -5   5   12.51    0.75
  -2  -5   5   11.13    0.78
  -2  -5   5   12.90    0.95
   1   5  -5   21.01    1.24
   1   5  -5   21.08    1.25
  -1  -5   5   23.88    1.29
  -1  -5   5   23.82    1.39
  -1  -5   5   23.49    1.25
   0   5  -5   14.28    0.81
   0   5  -5   14.28    0.79
   0   5  -5   13.89    0.85
   0  -5   5   14.01    0.81
   0  -5   5   14.55    0.86
  -1   5  -5   39.97    2.07
  -1   5  -5   35.93    2.03
   1  -5   5   37.76    2.08
   1  -5   5   39.99    2.11
  -2   5  -5    3.01    0.28
  -2   5  -5    2.55    0.31
   2  -5   5    3.01    0.35
   2  -5   5    3.30    0.38
  -3   5  -5   32.99    1.76
  -3   5  -5   33.69    1.78
   3  -5   5   31.02    1.82
   3  -5   5   30.72    1.81
  -4   5  -5   24.69    1.35
  -4   5  -5   25.12    1.34
   4  -5   5   21.28    1.41
   4  -5   5   22.23    1.40
  -5   5  -5    5.02    0.46
  -5   5  -5    4.93    0.45
   5  -5   5    3.73    0.50
   5  -5   5    4.48    0.54
  -6   5  -5    6.10    0.54
  -6   5  -5    5.75    0.51
   6  -5   5    4.54    0.59
   6  -5   5    3.88    0.57
  -7   5  -5   -0.02    0.42
   7  -5   5    0.13    0.48
   7  -5   5   -0.40    0.47
   8  -5   5    2.47    0.61
   9   4  -5    0.02    0.29
   9   4  -5    0.13    0.46
  -9  -4   5    0.50    0.63
   8   4  -5    0.74    0.41
   8   4  -5    0.98    0.31
  -8  -4   5    0.39    0.53
   7   4  -5    1.20    0.36
   7   4  -5    1.30    0.30
  -7  -4   5    0.91    0.48
   6   4  -5    0.72    0.31
   6   4  -5    0.64    0.26
  -6  -4   5    1.26    0.41
   5   4  -5    2.68    0.29
   5   4  -5    2.03    0.22
   5   4  -5    2.61    0.33
  -5  -4   5    1.93    0.40
  -5  -4   5    2.43    0.29
   4   4  -5   13.66    0.84
   4   4  -5   13.88    0.86
   4   4  -5   14.60    0.90
  -4  -4   5   13.97    0.85
  -4  -4   5   15.15    0.98
   3   4  -5   22.23    1.19
   3   4  -5   22.32    1.21
   3   4  -5   21.23    1.20
  -3  -4   5   21.38    1.30
  -3  -4   5   20.99    1.22
   2   4  -5    0.59    0.15
   2   4  -5    0.43    0.14
  -2  -4   5    0.36    0.21
  -2  -4   5    0.19    0.31
   1   4  -5   39.38    2.18
   1   4  -5   40.52    2.18
   1   4  -5   40.61    2.15
  -1  -4   5   42.78    2.18
  -1  -4   5   40.49    2.21
  -1  -4   5   42.43    2.25
   0   4  -5    3.70    0.27
   0   4  -5    3.77    0.29
   0   4  -5    3.78    0.32
   0  -4   5    4.28    0.39
   0  -4   5    3.69    0.28
  -1   4  -5   28.08    1.53
  -1   4  -5   29.41    1.56
   1  -4   5   28.63    1.57
   1  -4   5   28.88    1.52
   1  -4   5   28.71    1.59
  -2   4  -5   12.78    0.69
  -2   4  -5   11.99    0.71
  -2   4  -5   10.87    0.65
   2  -4   5   11.41    0.75
   2  -4   5   11.59    0.74
  -3   4  -5   22.72    1.19
  -3   4  -5   21.60    1.17
   3  -4   5   19.28    1.22
   3  -4   5   19.73    1.23
  -4   4  -5   16.42    0.92
  -4   4  -5   16.26    0.92
   4  -4   5   13.61    0.98
   4  -4   5   15.08    0.98
  -5   4  -5    8.13    0.61
  -5   4  -5    7.95    0.60
   5  -4   5    6.69    0.60
   5  -4   5    7.18    0.71
  -6   4  -5   10.87    0.82
  -6   4  -5   11.90    0.76
   6  -4   5    9.25    0.91
   6  -4   5    8.92    0.90
  -7   4  -5    3.10    0.50
   7  -4   5    2.86    0.54
   7  -4   5    3.08    0.55
  -8   4  -5    2.19    0.51
   8  -4   5    1.83    0.59
   8  -4   5    2.09    0.59
   9   3  -5    1.29    0.31
   9   3  -5    1.63    0.45
  -9  -3   5    1.66    0.60
   8   3  -5    2.16    0.42
   8   3  -5    2.13    0.32
  -8  -3   5    2.02    0.53
   7   3  -5    1.53    0.27
   7   3  -5    1.28    0.35
  -7  -3   5    1.13    0.41
  -7  -3   5    1.14    0.31
   6   3  -5    2.20    0.34
   6   3  -5    2.27    0.27
  -6  -3   5    1.98    0.30
  -6  -3   5    2.14    0.37
   5   3  -5   11.69    0.70
   5   3  -5   10.72    0.72
  -5  -3   5   11.09    0.77
  -5  -3   5   10.53    0.69
   4   3  -5    1.90    0.24
   4   3  -5    1.40    0.20
   4   3  -5    1.90    0.17
  -4  -3   5    1.90    0.29
  -4  -3   5    2.07    0.23
   3   3  -5   28.35    1.50
   3   3  -5   28.24    1.52
   3   3  -5   28.48    1.52
  -3  -3   5   28.58    1.56
  -3  -3   5   26.45    1.51
   2   3  -5    9.19    0.48
   2   3  -5    9.68    0.53
   2   3  -5    9.15    0.54
   2   3  -5    8.74    0.54
  -2  -3   5    8.79    0.57
  -2  -3   5    8.62    0.64
   1   3  -5   32.68    1.72
   1   3  -5   30.84    1.71
   1   3  -5   33.66    1.69
   1   3  -5   31.19    1.71
  -1  -3   5   33.46    1.77
  -1  -3   5   31.17    1.74
   0   3  -5   13.90    0.80
   0   3  -5   14.29    0.81
   0  -3   5   14.40    0.78
   0  -3   5   15.25    0.85
   0  -3   5   14.84    0.87
  -1   3  -5   20.07    1.09
  -1   3  -5   20.67    1.10
   1  -3   5   20.38    1.13
   1  -3   5   18.97    1.12
   1  -3   5   20.19    1.06
  -2   3  -5   27.22    1.43
  -2   3  -5   26.54    1.40
   2  -3   5   24.75    1.45
   2  -3   5   26.49    1.46
  -3   3  -5   10.32    0.59
  -3   3  -5   10.64    0.62
   3  -3   5    8.51    0.64
   3  -3   5    8.46    0.64
  -4   3  -5    8.90    0.57
  -4   3  -5    8.57    0.59
   4  -3   5    8.43    0.64
   4  -3   5    8.11    0.66
  -5   3  -5    4.37    0.41
  -5   3  -5    4.99    0.43
   5  -3   5    4.79    0.48
   5  -3   5    4.43    0.47
  -6   3  -5    7.08    0.63
  -6   3  -5    7.41    0.55
   6  -3   5    6.76    0.65
   6  -3   5    6.35    0.63
  -7   3  -5    1.17    0.41
   7  -3   5   -0.11    0.43
   7  -3   5    0.78    0.45
  -8   3  -5    1.92    0.49
   8  -3   5    0.98    0.57
   8  -3   5    1.72    0.55
   9  -3   5   -0.78    0.60
   9   2  -5    0.34    0.40
  -9  -2   5    0.40    0.57
  -9  -2   5    0.32    0.42
   8   2  -5    1.48    0.38
   8   2  -5    1.24    0.25
  -8  -2   5    1.03    0.37
  -8  -2   5    1.01    0.47
   7   2  -5    2.11    0.27
   7   2  -5    2.50    0.35
  -7  -2   5    1.88    0.40
  -7  -2   5    1.81    0.32
   6   2  -5   25.46    1.38
   6   2  -5   24.76    1.42
  -6  -2   5   25.02    1.44
  -6  -2   5   24.40    1.40
   5   2  -5   25.84    1.40
   5   2  -5   25.56    1.42
  -5  -2   5   25.56    1.43
  -5  -2   5   25.02    1.40
   4   2  -5    4.28    0.34
   4   2  -5    3.77    0.26
   4   2  -5    3.69    0.32
  -4  -2   5    3.80    0.34
  -4  -2   5    4.54    0.39
   3   2  -5  101.93    5.41
   3   2  -5  103.01    5.38
   3   2  -5  104.76    5.41
  -3  -2   5  100.18    5.40
  -3  -2   5  106.64    5.41
   2   2  -5    0.24    0.08
   2   2  -5    0.40    0.11
   2   2  -5    0.39    0.12
  -2  -2   5    0.57    0.17
  -2  -2   5    1.05    0.15
  -2  -2   5    0.38    0.07
   1   2  -5   55.07    2.86
   1   2  -5   54.58    2.88
   1   2  -5   52.63    2.87
  -1  -2   5   55.52    2.89
  -1  -2   5   54.12    2.86
  -1  -2   5   56.14    2.90
   0   2  -5  119.26    6.17
   0   2  -5  105.50    6.15
   0   2  -5  122.58    6.17
   0  -2   5  130.73    6.19
   0  -2   5  117.98    6.16
   0  -2   5  114.39    6.19
  -1   2  -5  139.94    7.01
  -1   2  -5  129.88    7.00
   1  -2   5  136.38    7.03
   1  -2   5  131.31    7.00
  -2   2  -5   31.06    1.70
  -2   2  -5   33.62    1.72
   2  -2   5   32.79    1.75
   2  -2   5   29.30    1.82
   2  -2   5   33.41    1.72
  -3   2  -5    2.76    0.27
  -3   2  -5    3.60    0.26
   3  -2   5    4.29    0.37
   3  -2   5    3.73    0.31
   3  -2   5    3.83    0.34
  -4   2  -5   27.88    1.51
   4  -2   5   27.54    1.52
   4  -2   5   26.56    1.55
   4  -2   5   28.49    1.55
  -5   2  -5    0.43    0.21
   5  -2   5    0.62    0.29
   5  -2   5   -0.01    0.27
  -6   2  -5    2.94    0.41
  -6   2  -5    3.02    0.34
   6  -2   5    2.30    0.42
   6  -2   5    3.12    0.46
  -7   2  -5    0.13    0.36
  -7   2  -5    0.06    0.29
   7  -2   5    0.25    0.42
   7  -2   5   -0.84    0.39
  -8   2  -5    2.49    0.49
   8  -2   5    2.82    0.57
   8  -2   5    1.95    0.54
  -9   2  -5    0.77    0.52
  10   1  -5    1.11    0.47
 -10  -1   5    0.38    0.50
 -10  -1   5   -0.54    0.69
   9   1  -5    1.61    0.42
  -9  -1   5    0.98    0.59
  -9  -1   5    0.70    0.42
   8   1  -5    3.59    0.44
  -8  -1   5    3.91    0.57
  -8  -1   5    4.12    0.46
   7   1  -5    7.90    0.56
   7   1  -5    7.73    0.63
  -7  -1   5    8.84    0.63
  -7  -1   5    7.34    0.76
   6   1  -5    6.57    0.44
   6   1  -5    4.95    0.48
  -6  -1   5    6.54    0.50
  -6  -1   5    6.24    0.51
   5   1  -5   23.73    1.34
   5   1  -5   24.58    1.32
  -5  -1   5   24.00    1.33
  -5  -1   5   24.30    1.36
   4   1  -5    0.61    0.16
   3   1  -5    1.79    0.17
   3   1  -5    1.68    0.14
   3   1  -5    1.47    0.17
  -3  -1   5    1.68    0.14
  -3  -1   5    2.75    0.24
  -3  -1   5    2.20    0.22
   2   1  -5    0.13    0.09
   2   1  -5    0.49    0.07
   2   1  -5    0.09    0.09
  -2  -1   5    0.09    0.07
  -2  -1   5    0.12    0.11
  -2  -1   5   -0.11    0.11
   1   1  -5   42.14    2.34
   1   1  -5   45.06    2.32
  -1  -1   5   43.53    2.35
  -1  -1   5   46.34    2.32
   0   1  -5   23.61    1.34
   0   1  -5   25.07    1.31
   0   1  -5   24.46    1.33
   0  -1   5   23.98    1.36
   0  -1   5   26.96    1.34
   0  -1   5   26.41    1.35
  -1   1  -5  147.52    7.87
  -1   1  -5  147.11    7.87
   1  -1   5  161.25    7.87
   1  -1   5  152.95    7.89
   1  -1   5  146.82    7.87
  -2   1  -5    2.01    0.18
  -2   1  -5    2.39    0.21
   2  -1   5    2.57    0.21
   2  -1   5    2.59    0.22
  -3   1  -5  120.31    6.14
  -3   1  -5  114.36    6.13
   3  -1   5  121.99    6.15
   3  -1   5  117.34    6.14
   3  -1   5  113.50    6.16
  -4   1  -5   54.33    2.80
  -4   1  -5   51.00    2.78
   4  -1   5   51.68    2.81
   4  -1   5   54.84    2.82
   4  -1   5   52.60    2.84
  -5   1  -5    7.88    0.53
   5  -1   5    7.23    0.52
   5  -1   5    6.54    0.60
  -6   1  -5   47.58    2.53
   6  -1   5   47.16    2.54
   6  -1   5   46.32    2.61
  -7   1  -5    0.09    0.28
  -7   1  -5   -0.32    0.37
   7  -1   5    0.44    0.40
   7  -1   5    0.37    0.40
  -8   1  -5    4.43    0.58
   8  -1   5    4.82    0.63
  -9   1  -5    0.69    0.49
   9  -1   5    0.53    0.57
  10   0  -5    2.25    0.51
 -10   0   5    2.21    0.54
   9   0  -5    0.45    0.37
   9   0  -5    0.82    0.41
  -9   0   5    0.59    0.40
   8   0  -5    2.12    0.39
   8   0  -5    2.08    0.37
  -8   0   5    1.64    0.37
   7   0  -5   -0.10    0.27
   7   0  -5    0.13    0.25
   7   0  -5    0.37    0.16
  -7   0   5    0.22    0.27
   6   0  -5    2.64    0.30
   6   0  -5    2.68    0.31
  -6   0   5    3.01    0.33
   5   0  -5   22.53    1.29
   5   0  -5   23.21    1.30
   5   0  -5   24.01    1.27
  -5   0   5   23.64    1.24
  -5   0   5   23.34    1.29
   4   0  -5   10.22    0.60
   4   0  -5   11.06    0.60
  -4   0   5    9.99    0.56
  -4   0   5    9.71    0.61
   3   0  -5   52.31    2.78
   3   0  -5   49.96    2.82
   3   0  -5   54.32    2.82
  -3   0   5   55.73    2.79
  -3   0   5   54.91    2.82
   2   0  -5   24.33    1.29
   2   0  -5   22.38    1.31
   2   0  -5   23.27    1.32
  -2   0   5   26.91    1.31
  -2   0   5   24.91    1.29
  -2   0   5   25.19    1.32
   1   0  -5  158.42    8.28
   1   0  -5  149.59    8.26
   1   0  -5  139.94    8.27
  -1   0   5  164.94    8.27
  -1   0   5  169.59    8.25
  -1   0   5  169.81    8.26
   0   0  -5    9.68    0.53
   0   0  -5    8.99    0.51
   0   0  -5    9.07    0.51
   0   0   5    9.36    0.52
   0   0   5    9.55    0.55
   0   0   5    8.94    0.51
  -1   0  -5   15.75    0.87
  -1   0  -5   15.67    0.88
  -1   0  -5   14.17    0.85
   1   0   5   15.74    0.91
   1   0   5   18.61    0.86
   1   0   5   16.04    0.88
  -2   0  -5   59.57    3.22
  -2   0  -5   59.02    3.22
  -2   0  -5   54.56    3.20
   2   0   5   67.16    3.21
   2   0   5   66.63    3.23
   2   0   5   61.58    3.24
  -3   0  -5   35.15    1.93
  -3   0  -5   36.84    1.95
  -3   0  -5   36.65    1.95
   3   0   5   38.34    1.95
   3   0   5   36.33    1.96
   3   0   5   36.65    1.98
  -4   0  -5   33.36    1.79
  -4   0  -5   32.72    1.80
   4   0   5   31.75    1.81
   4   0   5   34.62    1.81
   4   0   5   35.12    1.85
  -5   0  -5    4.00    0.38
  -5   0  -5    4.25    0.41
   5   0   5    4.28    0.44
   5   0   5    5.16    0.40
   5   0   5    5.10    0.45
  -6   0  -5   21.81    1.26
   6   0   5   22.76    1.36
   6   0   5   22.60    1.46
   6   0   5   22.18    1.29
  -7   0  -5    0.07    0.27
   7   0   5   -0.08    0.27
   7   0   5    0.04    0.40
  -8   0  -5    1.69    0.47
   8   0   5    2.98    0.54
  -9   0  -5   -0.02    0.62
   9   0   5   -0.08    0.52
  10  -1  -5    0.69    0.50
  10  -1  -5    0.22    0.43
 -10   1   5    0.40    0.47
   9  -1  -5    0.18    0.41
   9  -1  -5    0.23    0.37
  -9   1   5   -0.04    0.40
   8  -1  -5    0.29    0.34
   8  -1  -5    0.06    0.32
  -8   1   5    0.34    0.35
   7  -1  -5    6.66    0.61
   7  -1  -5    7.36    0.61
  -7   1   5    6.49    0.60
   6  -1  -5    1.38    0.26
   6  -1  -5    1.41    0.25
   6  -1  -5    1.29    0.17
  -6   1   5    1.25    0.18
  -6   1   5    1.64    0.28
   5  -1  -5   20.01    1.19
   5  -1  -5   22.83    1.17
   5  -1  -5   19.82    1.20
  -5   1   5   22.24    1.16
  -5   1   5   22.13    1.20
   4  -1  -5    1.99    0.20
   4  -1  -5    2.27    0.24
  -4   1   5    2.07    0.21
  -4   1   5    2.26    0.18
   3  -1  -5  108.92    5.77
   3  -1  -5  113.21    5.77
   3  -1  -5  102.33    5.78
   3  -1  -5  111.17    5.74
  -3   1   5  113.74    5.77
  -3   1   5  113.54    5.75
   2  -1  -5    4.94    0.33
   2  -1  -5    5.06    0.32
   2  -1  -5    5.24    0.30
  -2   1   5    4.33    0.28
  -2   1   5    5.00    0.29
  -2   1   5    4.68    0.32
   1  -1  -5    7.91    0.50
   1  -1  -5    9.00    0.51
  -1   1   5    8.69    0.50
  -1   1   5    8.47    0.48
  -1   1   5    9.07    0.49
  -1   1   5    8.83    0.47
   0  -1  -5  123.15    7.03
   0  -1  -5  129.80    7.03
   0   1   5  144.38    7.04
   0   1   5  136.06    7.03
   0   1   5  141.54    7.03
  -1  -1  -5   75.97    4.19
  -1  -1  -5   80.94    4.20
   1   1   5   80.63    4.20
   1   1   5   83.79    4.20
  -2  -1  -5    9.67    0.58
  -2  -1  -5    9.30    0.56
   2   1   5   10.14    0.58
   2   1   5   10.53    0.55
   2   1   5   10.22    0.59
  -3  -1  -5   26.46    1.42
  -3  -1  -5   25.37    1.40
   3   1   5   25.73    1.41
   3   1   5   27.02    1.43
   3   1   5   26.83    1.40
  -4  -1  -5   55.42    2.93
  -4  -1  -5   55.83    2.93
   4   1   5   52.60    2.93
   4   1   5   55.83    2.98
   4   1   5   57.07    2.95
   4   1   5   56.12    2.93
  -5  -1  -5    1.94    0.25
   5   1   5    1.68    0.24
   5   1   5    2.48    0.34
   5   1   5    2.23    0.29
  -6  -1  -5   12.67    0.80
  -6  -1  -5   12.36    0.80
   6   1   5   12.45    0.82
   6   1   5   13.99    0.90
  -7  -1  -5    3.58    0.41
   7   1   5    5.29    0.54
   7   1   5    4.77    0.45
  10  -2  -5    2.85    0.59
  10  -2  -5    3.48    0.54
 -10   2   5    2.41    0.58
   9  -2  -5    1.92    0.45
   9  -2  -5    2.47    0.50
  -9   2   5    3.50    0.52
   8  -2  -5    1.06    0.37
   8  -2  -5    1.49    0.38
  -8   2   5    1.48    0.40
   7  -2  -5   15.75    0.99
   7  -2  -5   14.46    0.99
  -7   2   5   15.22    0.90
  -7   2   5   15.40    0.98
   6  -2  -5    1.93    0.29
   6  -2  -5    1.92    0.31
  -6   2   5    1.82    0.30
  -6   2   5    2.18    0.24
   5  -2  -5   33.23    1.86
   5  -2  -5   36.15    1.83
   5  -2  -5   31.81    1.89
  -5   2   5   34.47    1.83
  -5   2   5   35.71    1.87
   4  -2  -5    0.24    0.14
   4  -2  -5    0.05    0.19
   4  -2  -5    0.15    0.10
  -4   2   5   -0.07    0.12
  -4   2   5    0.11    0.17
   3  -2  -5   65.53    3.33
   3  -2  -5   58.06    3.35
  -3   2   5   63.34    3.34
  -3   2   5   64.83    3.30
  -3   2   5   64.93    3.32
   2  -2  -5   51.31    2.90
   2  -2  -5   55.07    2.87
   2  -2  -5   57.96    2.90
  -2   2   5   54.79    2.89
  -2   2   5   55.46    2.88
  -2   2   5   54.83    2.87
   1  -2  -5   67.54    3.79
   1  -2  -5   72.41    3.78
   1  -2  -5   73.18    3.76
  -1   2   5   71.73    3.77
  -1   2   5   75.72    3.77
   0  -2  -5  169.65    9.33
   0  -2  -5  173.89    9.32
   0   2   5  186.39    9.31
   0   2   5  189.29    9.33
   0   2   5  175.97    9.31
  -1  -2  -5   37.17    2.03
  -1  -2  -5   39.88    2.03
   1   2   5   39.53    2.02
   1   2   5   37.17    2.04
   1   2   5   37.42    2.02
  -2  -2  -5   33.14    1.91
  -2  -2  -5   34.48    1.92
   2   2   5   35.84    1.91
   2   2   5   40.12    1.93
   2   2   5   36.47    1.92
  -3  -2  -5   15.42    0.89
  -3  -2  -5   15.41    0.89
   3   2   5   17.09    0.91
   3   2   5   15.96    0.88
   3   2   5   14.66    0.90
  -4  -2  -5   25.08    1.39
  -4  -2  -5   23.51    1.38
   4   2   5   24.08    1.37
   4   2   5   28.12    1.41
   4   2   5   25.09    1.39
  -5  -2  -5    0.11    0.21
  -5  -2  -5    0.51    0.22
   5   2   5   -0.09    0.24
   5   2   5    0.34    0.26
   5   2   5    0.16    0.19
  -6  -2  -5   10.42    0.72
   6   2   5   10.35    0.72
   6   2   5   10.32    0.68
  -7  -2  -5   -0.11    0.36
   7   2   5    0.12    0.29
  10  -3  -5    0.07    0.44
  10  -3  -5    0.84    0.90
   9  -3  -5    2.65    0.51
   9  -3  -5    2.04    0.49
  -9   3   5    2.41    0.52
   8  -3  -5    5.91    0.58
   8  -3  -5    4.76    0.54
  -8   3   5    5.10    0.46
  -8   3   5    5.29    0.56
   7  -3  -5   11.82    0.85
   7  -3  -5   10.52    0.89
  -7   3   5   12.83    0.85
  -7   3   5   11.90    0.75
   6  -3  -5    1.43    0.33
   6  -3  -5    0.92    0.26
  -6   3   5    1.24    0.31
  -6   3   5    0.81    0.22
   5  -3  -5   30.13    1.72
   5  -3  -5   31.01    1.76
  -5   3   5   32.80    1.70
  -5   3   5   31.99    1.73
   4  -3  -5    2.36    0.30
   4  -3  -5    2.37    0.22
   4  -3  -5    2.32    0.24
  -4   3   5    2.50    0.27
  -4   3   5    2.90    0.24
   3  -3  -5   19.20    1.03
   3  -3  -5   17.71    1.02
   3  -3  -5   18.34    1.07
  -3   3   5   19.36    1.03
  -3   3   5   19.00    1.01
  -3   3   5   18.92    1.04
   2  -3  -5   40.11    2.09
   2  -3  -5   38.43    2.04
   2  -3  -5   37.10    2.08
  -2   3   5   39.07    2.07
  -2   3   5   39.20    2.04
   1  -3  -5   32.56    1.76
   1  -3  -5   33.41    1.73
   1  -3  -5   30.30    1.78
  -1   3   5   32.42    1.75
  -1   3   5   34.31    1.76
  -1   3   5   34.81    1.76
   0  -3  -5    0.61    0.14
   0  -3  -5    1.19    0.19
   0   3   5    1.03    0.14
   0   3   5    0.77    0.14
   0   3   5    1.57    0.18
  -1  -3  -5    9.65    0.57
  -1  -3  -5    7.88    0.59
   1   3   5    9.35    0.56
   1   3   5   10.41    0.58
   1   3   5    9.74    0.56
  -2  -3  -5   86.04    4.78
  -2  -3  -5   89.01    4.79
   2   3   5   91.31    4.78
   2   3   5  102.49    4.78
   2   3   5   87.27    4.78
  -3  -3  -5   10.95    0.67
  -3  -3  -5   10.23    0.65
   3   3   5   10.01    0.64
   3   3   5   10.70    0.64
  -4  -3  -5   27.10    1.48
  -4  -3  -5   26.91    1.49
   4   3   5   26.18    1.49
   4   3   5   26.82    1.46
  -5  -3  -5    1.46    0.28
  -5  -3  -5    1.85    0.30
   5   3   5    2.03    0.27
   5   3   5    2.60    0.32
  -6  -3  -5   11.13    0.77
   6   3   5   10.55    0.73
   6   3   5   10.52    0.77
  -7  -3  -5   -0.43    0.32
   7   3   5    0.23    0.26
   9  -4  -5   -0.12    0.41
   9  -4  -5   -0.61    0.44
  -9   4   5    0.37    0.46
  -9   4   5   -0.10    0.39
   8  -4  -5   -0.15    0.38
   8  -4  -5    0.13    0.38
  -8   4   5    0.00    0.33
  -8   4   5    0.64    0.42
   7  -4  -5    0.95    0.34
   7  -4  -5    0.78    0.38
  -7   4   5    0.22    0.37
  -7   4   5    0.95    0.31
   6  -4  -5    0.81    0.28
   6  -4  -5    0.81    0.32
  -6   4   5    0.61    0.31
  -6   4   5    1.00    0.27
   5  -4  -5   18.59    1.08
   5  -4  -5   16.06    1.03
  -5   4   5   18.23    1.06
  -5   4   5   17.92    1.01
   4  -4  -5    1.43    0.25
   4  -4  -5    1.40    0.22
   4  -4  -5    1.35    0.16
  -4   4   5    1.49    0.24
  -4   4   5    1.26    0.21
   3  -4  -5   63.04    3.56
   3  -4  -5   73.23    3.56
   3  -4  -5   71.53    3.61
  -3   4   5   65.82    3.55
  -3   4   5   65.64    3.56
   2  -4  -5    0.07    0.12
   2  -4  -5   -0.01    0.19
  -2   4   5    0.36    0.16
  -2   4   5    0.15    0.13
  -2   4   5    0.13    0.14
   1  -4  -5    9.57    0.64
   1  -4  -5   10.14    0.60
   1  -4  -5    9.53    0.56
  -1   4   5    9.68    0.58
  -1   4   5   10.45    0.59
  -1   4   5    9.87    0.58
   0  -4  -5   32.77    1.76
   0  -4  -5   31.58    1.79
   0   4   5   33.29    1.75
   0   4   5   33.27    1.75
  -1  -4  -5   25.52    1.42
  -1  -4  -5   25.92    1.39
   1   4   5   24.79    1.38
   1   4   5   25.74    1.38
  -2  -4  -5   78.25    4.21
  -2  -4  -5   81.38    4.24
   2   4   5   77.49    4.21
   2   4   5   83.38    4.21
  -3  -4  -5    4.54    0.40
  -3  -4  -5    3.85    0.33
   3   4   5    4.02    0.33
   3   4   5    3.27    0.31
  -4  -4  -5   33.12    1.80
  -4  -4  -5   33.59    1.78
   4   4   5   29.57    1.76
   4   4   5   32.31    1.75
  -5  -4  -5    0.02    0.32
  -5  -4  -5    0.13    0.27
   5   4   5    0.19    0.22
   5   4   5    0.67    0.28
  -6  -4  -5    3.09    0.43
  -6  -4  -5    3.41    0.41
   6   4   5    2.16    0.33
  -7  -4  -5    1.87    0.43
   7   4   5    2.06    0.34
  -8  -4  -5    0.33    0.39
   8   4   5   -0.12    0.40
   9  -5  -5    0.33    0.48
   9  -5  -5    0.70    0.43
  -9   5   5    0.47    0.44
  -9   5   5    0.59    0.53
   8  -5  -5    0.09    0.40
   8  -5  -5    0.51    0.41
  -8   5   5    0.33    0.44
  -8   5   5    0.16    0.38
   7  -5  -5    3.53    0.47
   7  -5  -5    5.22    0.52
  -7   5   5    4.13    0.46
  -7   5   5    4.00    0.50
   6  -5  -5   -0.18    0.27
   6  -5  -5   -0.25    0.32
  -6   5   5    0.26    0.30
  -6   5   5    0.17    0.32
   5  -5  -5   19.03    1.21
   5  -5  -5   21.19    1.26
  -5   5   5   21.10    1.21
  -5   5   5   22.21    1.23
   4  -5  -5   29.98    1.57
   4  -5  -5   25.20    1.53
  -4   5   5   28.32    1.53
   3  -5  -5    3.32    0.27
   3  -5  -5    2.92    0.36
   3  -5  -5    2.99    0.28
  -3   5   5    3.08    0.30
  -3   5   5    2.53    0.26
  -3   5   5    2.85    0.29
   2  -5  -5    8.97    0.57
   2  -5  -5    8.86    0.57
   2  -5  -5   10.05    0.67
  -2   5   5    9.07    0.56
  -2   5   5    8.93    0.58
   1  -5  -5    3.56    0.38
   1  -5  -5    4.17    0.37
  -1   5   5    4.23    0.35
  -1   5   5    4.68    0.38
   0  -5  -5   14.93    0.90
   0  -5  -5   14.39    0.84
   0   5   5   14.11    0.83
   0   5   5   13.96    0.83
  -1  -5  -5    8.46    0.56
  -1  -5  -5    8.26    0.63
   1   5   5    7.80    0.55
   1   5   5    8.04    0.54
  -2  -5  -5    3.52    0.39
  -2  -5  -5    3.30    0.31
   2   5   5    3.08    0.31
   2   5   5    2.98    0.30
  -3  -5  -5    3.44    0.42
  -3  -5  -5    3.40    0.35
   3   5   5    4.24    0.36
   3   5   5    3.73    0.34
  -4  -5  -5   13.56    0.91
  -4  -5  -5   14.93    0.99
   4   5   5   13.97    0.89
   4   5   5   14.70    0.88
  -5  -5  -5    0.13    0.31
  -5  -5  -5   -0.18    0.39
   5   5   5    0.14    0.25
  -6  -5  -5   15.15    1.03
  -6  -5  -5   15.84    1.08
   6   5   5   14.18    0.93
  -7  -5  -5    0.27    0.41
   7   5   5    0.12    0.30
   9  -6  -5    0.00    0.69
  -9   6   5    1.06    0.55
   8  -6  -5    1.25    0.48
   8  -6  -5    0.50    0.43
  -8   6   5    0.83    0.48
  -8   6   5    1.46    0.45
   7  -6  -5    0.54    0.39
   7  -6  -5    0.78    0.43
  -7   6   5    0.75    0.41
  -7   6   5    1.04    0.43
   6  -6  -5    0.12    0.34
   6  -6  -5    0.01    0.32
  -6   6   5    0.10    0.35
  -6   6   5    0.44    0.36
   5  -6  -5    7.96    0.69
   5  -6  -5    6.23    0.63
  -5   6   5    8.55    0.65
   4  -6  -5    6.76    0.55
   4  -6  -5    5.46    0.54
  -4   6   5    5.88    0.49
   3  -6  -5    4.52    0.39
   3  -6  -5    6.02    0.50
  -3   6   5    4.76    0.42
  -3   6   5    4.33    0.42
   2  -6  -5   29.19    1.56
   2  -6  -5   31.47    1.67
  -2   6   5   26.75    1.56
  -2   6   5   27.77    1.59
   1  -6  -5   27.21    1.45
   1  -6  -5   25.89    1.52
  -1   6   5   25.88    1.44
  -1   6   5   25.38    1.45
   0  -6  -5   10.09    0.67
   0  -6  -5   10.40    0.78
   0   6   5   11.06    0.70
   0   6   5    9.88    0.67
  -1  -6  -5   -0.07    0.33
  -1  -6  -5   -0.10    0.21
   1   6   5    0.05    0.24
   1   6   5    0.12    0.20
  -2  -6  -5    5.32    0.54
  -2  -6  -5    4.50    0.42
   2   6   5    4.94    0.41
   2   6   5    5.86    0.48
  -3  -6  -5    1.25    0.31
  -3  -6  -5    2.04    0.43
   3   6   5    1.69    0.30
   3   6   5    1.60    0.29
  -4  -6  -5    4.95    0.48
  -4  -6  -5    5.45    0.59
   4   6   5    5.18    0.45
  -5  -6  -5    1.00    0.36
  -5  -6  -5    1.41    0.49
   5   6   5    1.06    0.30
  -6  -6  -5    3.05    0.58
  -6  -6  -5    3.63    0.50
   6   6   5    3.04    0.39
   8  -7  -5   -0.20    0.42
   8  -7  -5   -0.11    0.46
  -8   7   5    0.18    0.50
  -8   7   5    0.64    0.56
   7  -7  -5    1.79    0.47
   7  -7  -5    2.89    0.49
  -7   7   5    1.47    0.50
  -7   7   5    2.21    0.48
   6  -7  -5    0.32    0.37
   6  -7  -5    0.64    0.42
  -6   7   5    0.94    0.43
   5  -7  -5    0.22    0.38
   5  -7  -5    0.52    0.33
  -5   7   5    0.25    0.39
   4  -7  -5    0.72    0.41
   4  -7  -5    0.84    0.42
  -4   7   5    0.18    0.35
   3  -7  -5    7.61    0.64
  -3   7   5    7.56    0.67
  -3   7   5    6.37    0.57
   2  -7  -5    6.78    0.62
  -2   7   5    5.06    0.46
  -2   7   5    6.49    0.51
   1  -7  -5    1.43    0.29
   1  -7  -5    1.40    0.42
  -1   7   5    1.20    0.28
  -1   7   5    1.01    0.30
   0  -7  -5   10.09    0.66
   0  -7  -5    8.63    0.85
   0   7   5    8.56    0.69
   0   7   5    8.86    0.66
  -1  -7  -5    5.31    0.58
  -1  -7  -5    4.58    0.43
   1   7   5    4.41    0.42
   1   7   5    5.54    0.46
  -2  -7  -5   10.45    0.93
  -2  -7  -5   11.13    0.78
   2   7   5   10.24    0.74
   2   7   5   10.28    0.74
  -3  -7  -5    0.53    0.48
  -3  -7  -5   -0.41    0.32
   3   7   5    0.52    0.29
  -4  -7  -5    9.24    0.79
  -4  -7  -5    9.32    0.82
   4   7   5    7.95    0.72
  -5  -7  -5   -0.11    0.55
  -5  -7  -5    0.00    0.40
   5   7   5    0.16    0.30
   7  -8  -5    1.31    0.49
   7  -8  -5    1.30    0.49
   6  -8  -5    0.05    0.46
  -6   8   5    0.20    0.47
   5  -8  -5    2.55    0.52
  -5   8   5    2.06    0.47
   4  -8  -5   -0.09    0.46
  -4   8   5    0.12    0.41
   3  -8  -5    7.35    0.71
  -3   8   5    6.10    0.58
   2  -8  -5    4.63    0.61
  -2   8   5    3.33    0.42
  -2   8   5    3.79    0.48
   1  -8  -5    0.62    0.50
  -1   8   5    0.46    0.31
  -1   8   5    0.23    0.36
   0  -8  -5   14.07    1.11
   0  -8  -5   13.59    0.92
   0   8   5   13.15    0.90
   0   8   5   13.24    0.93
  -1  -8  -5    2.64    0.39
  -1  -8  -5    2.35    0.55
   1   8   5    2.16    0.37
   1   8   5    3.03    0.42
  -2  -8  -5   14.21    0.97
  -2  -8  -5   12.58    1.15
   2   8   5   12.56    0.90
  -3  -8  -5   -0.28    0.57
  -3  -8  -5   -0.32    0.38
   3   8   5    0.30    0.33
  -4  -8  -5    4.10    0.68
  -4  -8  -5    2.54    0.57
   4   8   5    1.73    0.44
   5  -9  -5    4.27    0.63
  -5   9   5    3.39    0.58
   4  -9  -5    3.27    0.63
  -4   9   5    1.33    0.50
   3  -9  -5    0.09    0.52
  -3   9   5    0.13    0.46
   2  -9  -5    2.84    0.66
  -2   9   5    2.72    0.50
  -2   9   5    3.40    0.44
   1  -9  -5    0.98    0.57
  -1   9   5    1.07    0.44
  -1   9   5    1.69    0.40
   0  -9  -5    2.57    0.64
   0   9   5    2.17    0.45
   0   9   5    1.56    0.39
  -1  -9  -5   -0.29    0.57
  -1  -9  -5   -0.14    0.37
   1   9   5    0.13    0.36
  -2  -9  -5    2.66    0.66
  -2  -9  -5    3.00    0.48
   2   9   5    2.19    0.42
  -2  10   5    1.25    0.52
  -2  10   5    0.46    0.41
  -1  10   5    1.08    0.44
  -1  10   5    1.73    0.53
   4   9  -6    0.73    0.43
   4   9  -6    0.18    0.39
  -4  -9   6    0.19    0.49
  -4  -9   6   -0.49    0.97
   3   9  -6    0.67    0.46
   3   9  -6    0.75    0.38
  -3  -9   6    1.16    0.51
  -3  -9   6    1.13    0.88
   2   9  -6   -0.22    0.43
  -2  -9   6    1.02    0.80
   1   9  -6    3.04    0.54
  -1  -9   6    3.89    0.78
   0   9  -6    0.89    0.48
   0  -9   6    0.51    0.68
  -1   9  -6    3.53    0.58
   1  -9   6    4.14    0.74
  -2   9  -6    0.40    0.50
   2  -9   6    0.80    0.66
  -3   9  -6    2.27    0.57
   3  -9   6    3.64    0.71
  -4   9  -6    1.19    0.52
  -4   9  -6    0.78    0.54
   5   8  -6    0.63    0.40
   5   8  -6    0.83    0.36
  -5  -8   6    0.67    0.50
  -5  -8   6    2.36    0.99
   4   8  -6    0.05    0.36
   4   8  -6    0.77    0.37
  -4  -8   6   -0.22    0.43
  -4  -8   6    0.26    0.87
   3   8  -6    5.62    0.54
   3   8  -6    6.16    0.58
  -3  -8   6    5.55    0.59
  -3  -8   6    7.01    0.96
   2   8  -6   -0.19    0.35
   2   8  -6   -0.29    0.29
  -2  -8   6   -0.21    0.37
  -2  -8   6   -0.02    0.67
   1   8  -6    6.71    0.63
  -1  -8   6    7.60    0.82
   0   8  -6    1.70    0.43
   0  -8   6    1.62    0.59
  -1   8  -6    1.70    0.44
   1  -8   6    2.30    0.60
  -2   8  -6    0.43    0.42
   2  -8   6    0.88    0.56
  -3   8  -6    0.53    0.39
  -3   8  -6    0.61    0.45
   3  -8   6    1.10    0.60
  -4   8  -6    2.36    0.52
  -4   8  -6    3.80    0.52
   4  -8   6    3.95    0.66
  -5   8  -6    0.82    0.48
  -5   8  -6    0.20    0.46
   5  -8   6    0.11    0.57
   5  -8   6    0.18    0.50
   6  -8   6   -0.09    0.55
  -7  -7   6    0.37    1.02
   6   7  -6    1.47    0.41
  -6  -7   6    1.90    0.92
  -6  -7   6    0.64    0.49
   5   7  -6    0.81    0.38
   5   7  -6    1.06    0.31
  -5  -7   6    1.04    0.45
  -5  -7   6    0.86    0.83
   4   7  -6    0.11    0.31
   4   7  -6    0.51    0.30
  -4  -7   6   -0.40    0.35
  -4  -7   6   -0.32    0.73
   3   7  -6    5.17    0.48
   3   7  -6    5.87    0.51
  -3  -7   6    4.45    0.80
  -3  -7   6    5.45    0.52
   2   7  -6    0.12    0.26
   2   7  -6   -0.12    0.29
  -2  -7   6    0.02    0.59
  -2  -7   6    0.13    0.41
   1   7  -6    5.45    0.49
   1   7  -6    5.63    0.48
  -1  -7   6    4.82    0.63
   0   7  -6    1.89    0.36
   0  -7   6    1.33    0.48
  -1   7  -6    6.51    0.60
   1  -7   6    9.01    0.74
  -2   7  -6    6.74    0.58
  -2   7  -6    6.63    0.58
   2  -7   6    6.12    0.56
   2  -7   6    6.44    0.67
  -3   7  -6    4.72    0.47
  -3   7  -6    4.74    0.52
   3  -7   6    4.49    0.53
   3  -7   6    4.60    0.62
  -4   7  -6    5.90    0.54
  -4   7  -6    6.63    0.60
   4  -7   6    4.67    0.63
   4  -7   6    4.90    0.60
  -5   7  -6    0.77    0.43
  -5   7  -6    0.92    0.43
   5  -7   6    0.33    0.48
   5  -7   6    0.90    0.48
  -6   7  -6    3.43    0.53
  -6   7  -6    3.30    0.55
   6  -7   6    1.28    0.55
   6  -7   6    2.61    0.59
   7   6  -6    0.39    0.38
  -7  -6   6    0.28    0.77
   6   6  -6    1.59    0.37
  -6  -6   6    1.49    0.73
  -6  -6   6    1.17    0.46
   5   6  -6    7.89    0.66
   5   6  -6    6.79    0.59
  -5  -6   6    7.28    0.64
  -5  -6   6    6.00    0.84
   4   6  -6    0.01    0.23
   4   6  -6    0.82    0.29
  -4  -6   6    0.57    0.33
  -4  -6   6    0.67    0.61
   3   6  -6   15.12    0.94
   3   6  -6   14.35    0.94
  -3  -6   6   14.92    0.95
  -3  -6   6   16.65    1.28
   2   6  -6    3.91    0.37
   2   6  -6    4.54    0.40
  -2  -6   6    4.55    0.62
   1   6  -6    9.89    0.73
   1   6  -6   10.19    0.70
  -1  -6   6   11.74    1.00
  -1  -6   6   11.28    0.70
  -1  -6   6   11.72    0.84
   0   6  -6    9.49    0.62
   0   6  -6    9.50    0.68
   0  -6   6    9.95    0.82
   0  -6   6    9.63    0.67
  -1   6  -6   17.27    1.08
  -1   6  -6   19.21    1.02
   1  -6   6   18.53    1.17
   1  -6   6   16.45    1.07
  -2   6  -6   12.48    0.79
  -2   6  -6   12.69    0.84
   2  -6   6   11.60    0.85
   2  -6   6   13.29    0.96
  -3   6  -6    0.64    0.32
  -3   6  -6    0.84    0.30
   3  -6   6    0.36    0.41
   3  -6   6    0.52    0.36
  -4   6  -6    1.40    0.36
  -4   6  -6    1.61    0.37
   4  -6   6    1.80    0.42
   4  -6   6    1.03    0.43
  -5   6  -6    0.31    0.36
  -5   6  -6   -0.11    0.37
   5  -6   6   -0.02    0.43
   5  -6   6   -0.79    0.38
  -6   6  -6    6.14    0.57
  -6   6  -6    5.16    0.59
   6  -6   6    4.10    0.63
   6  -6   6    4.14    0.61
  -7   6  -6   -0.39    0.72
   7  -6   6   -0.37    0.51
   7  -6   6    0.03    0.55
   8   5  -6    0.27    0.36
   8   5  -6   -0.20    0.46
  -8  -5   6    1.11    0.65
   7   5  -6    1.66    0.45
   7   5  -6    1.12    0.35
  -7  -5   6    0.89    0.62
   6   5  -6   11.67    0.86
   6   5  -6   12.35    0.92
  -6  -5   6   14.60    1.18
   5   5  -6    4.24    0.45
   5   5  -6    4.39    0.39
   5   5  -6    3.98    0.41
  -5  -5   6    4.04    0.62
   4   5  -6   -0.01    0.20
   4   5  -6    0.41    0.19
   4   5  -6    0.43    0.28
  -4  -5   6    0.46    0.48
   3   5  -6   11.61    0.73
   3   5  -6   12.29    0.75
  -3  -5   6   12.87    1.03
  -3  -5   6   11.37    0.80
  -3  -5   6   11.59    0.77
   2   5  -6    0.51    0.19
   2   5  -6    0.49    0.20
  -2  -5   6    0.67    0.30
  -2  -5   6    0.04    0.40
   1   5  -6   42.18    2.38
   1   5  -6   41.59    2.39
  -1  -5   6   47.51    2.43
  -1  -5   6   44.38    2.37
  -1  -5   6   48.12    2.49
   0   5  -6   20.12    1.22
   0   5  -6   21.19    1.25
   0   5  -6   23.43    1.21
   0  -5   6   23.12    1.28
   0  -5   6   23.03    1.32
  -1   5  -6   42.47    2.21
  -1   5  -6   38.26    2.18
   1  -5   6   40.47    2.23
   1  -5   6   43.17    2.25
  -2   5  -6   10.97    0.70
  -2   5  -6   10.54    0.65
   2  -5   6    9.71    0.78
   2  -5   6    9.81    0.71
  -3   5  -6    4.31    0.41
  -3   5  -6    4.44    0.39
   3  -5   6    4.75    0.47
   3  -5   6    3.71    0.46
  -4   5  -6   22.68    1.22
  -4   5  -6   22.57    1.22
   4  -5   6   17.31    1.25
   4  -5   6   18.97    1.29
  -5   5  -6   -0.17    0.33
  -5   5  -6    0.08    0.32
   5  -5   6   -0.30    0.36
   5  -5   6    0.06    0.39
  -6   5  -6    8.20    0.66
  -6   5  -6    7.90    0.75
   6  -5   6    7.06    0.70
   6  -5   6    7.06    0.76
  -7   5  -6    0.30    0.46
   7  -5   6    0.18    0.48
   7  -5   6    0.02    0.51
   9   4  -6    0.53    0.51
   9   4  -6    0.22    0.33
  -9  -4   6    0.28    0.66
   8   4  -6    1.25    0.34
   8   4  -6    1.34    0.45
  -8  -4   6    0.89    0.60
   7   4  -6    0.83    0.39
   7   4  -6    0.88    0.30
  -7  -4   6    1.17    0.50
   6   4  -6    1.40    0.29
   6   4  -6    1.39    0.35
  -6  -4   6    1.22    0.45
   5   4  -6   12.73    0.82
   5   4  -6   12.34    0.79
  -5  -4   6   10.85    0.80
  -5  -4   6   14.54    0.97
   4   4  -6    0.74    0.20
   4   4  -6    0.89    0.17
   4   4  -6    0.66    0.24
  -4  -4   6    0.59    0.24
  -4  -4   6    0.30    0.38
   3   4  -6   18.33    1.08
   3   4  -6   19.30    1.05
   3   4  -6   18.76    1.08
  -3  -4   6   18.27    1.10
  -3  -4   6   20.11    1.20
   2   4  -6    0.79    0.17
   2   4  -6    0.33    0.16
   2   4  -6    0.58    0.18
  -2  -4   6    0.62    0.24
  -2  -4   6    0.31    0.34
   1   4  -6   55.42    2.89
   1   4  -6   57.90    2.86
   1   4  -6   51.89    2.89
  -1  -4   6   57.67    2.96
  -1  -4   6   55.22    2.88
  -1  -4   6   49.49    2.92
   0   4  -6    3.62    0.31
   0   4  -6    4.21    0.36
   0   4  -6    4.18    0.29
   0  -4   6    4.54    0.45
   0  -4   6    3.57    0.28
   0  -4   6    3.77    0.38
  -1   4  -6    4.55    0.34
  -1   4  -6    4.63    0.41
   1  -4   6    4.96    0.41
   1  -4   6    4.94    0.47
  -2   4  -6   26.23    1.38
  -2   4  -6   26.61    1.40
   2  -4   6   23.60    1.43
   2  -4   6   24.57    1.44
  -3   4  -6   22.49    1.20
  -3   4  -6   21.49    1.18
   3  -4   6   19.67    1.24
   3  -4   6   19.78    1.23
  -4   4  -6   24.11    1.27
  -4   4  -6   22.89    1.26
   4  -4   6   20.29    1.31
   4  -4   6   20.51    1.32
  -5   4  -6    3.16    0.39
  -5   4  -6    3.59    0.36
   5  -4   6    2.17    0.42
   5  -4   6    2.55    0.43
  -6   4  -6    8.47    0.70
  -6   4  -6    8.48    0.68
   6  -4   6    7.51    0.75
   6  -4   6    8.25    0.72
  -7   4  -6    0.07    0.44
   7  -4   6   -0.43    0.49
   7  -4   6   -0.31    0.47
  -8   4  -6    2.66    0.75
   8  -4   6    2.43    0.62
   9   3  -6    0.58    0.45
   9   3  -6    0.14    0.29
  -9  -3   6    0.41    0.59
   8   3  -6    0.05    0.25
   8   3  -6    0.49    0.40
  -8  -3   6   -0.02    0.50
   7   3  -6    5.18    0.44
   7   3  -6    5.11    0.51
  -7  -3   6    4.71    0.47
  -7  -3   6    4.83    0.56
   6   3  -6    6.07    0.51
   6   3  -6    6.02    0.56
  -6  -3   6    6.27    0.54
  -6  -3   6    5.38    0.54
   5   3  -6   10.33    0.68
   5   3  -6   11.17    0.71
  -5  -3   6   10.23    0.69
  -5  -3   6   10.85    0.78
   4   3  -6    4.05    0.32
   4   3  -6    4.51    0.37
   4   3  -6    3.72    0.36
  -4  -3   6    5.18    0.42
  -4  -3   6    4.74    0.41
   3   3  -6   13.40    0.81
   3   3  -6   14.25    0.79
   3   3  -6   13.83    0.81
  -3  -3   6   15.36    0.90
  -3  -3   6   13.72    0.83
   2   3  -6    0.25    0.12
   2   3  -6    0.33    0.14
   2   3  -6    0.54    0.15
  -2  -3   6    0.25    0.26
  -2  -3   6    0.00    0.20
   1   3  -6    2.88    0.23
   1   3  -6    2.22    0.22
   1   3  -6    2.44    0.21
  -1  -3   6    2.75    0.29
  -1  -3   6    2.45    0.20
  -1  -3   6    2.76    0.34
   0   3  -6   18.99    1.05
   0   3  -6   19.86    1.05
   0  -3   6   19.18    1.11
   0  -3   6   20.71    1.11
   0  -3   6   16.88    1.03
   0  -3   6   18.98    1.01
  -1   3  -6   13.04    0.75
  -1   3  -6   13.89    0.77
   1  -3   6   13.65    0.81
   1  -3   6   13.26    0.81
   1  -3   6   12.95    0.75
  -2   3  -6   29.55    1.57
  -2   3  -6   29.34    1.54
   2  -3   6   28.66    1.59
   2  -3   6   28.82    1.57
   2  -3   6   27.66    1.60
  -3   3  -6   12.99    0.70
   3  -3   6   11.19    0.75
   3  -3   6   10.05    0.75
  -4   3  -6   16.28    0.93
  -4   3  -6   16.51    0.91
   4  -3   6   13.71    0.99
   4  -3   6   14.09    0.98
  -5   3  -6    0.53    0.25
  -5   3  -6    0.44    0.31
   5  -3   6    0.08    0.34
   5  -3   6   -0.02    0.32
  -6   3  -6   11.38    0.76
  -6   3  -6   12.12    0.83
   6  -3   6    9.74    0.88
   6  -3   6    8.88    0.91
  -7   3  -6    1.26    0.34
  -7   3  -6    1.03    0.44
   7  -3   6    0.11    0.47
   7  -3   6    1.66    0.53
  -8   3  -6    3.12    0.58
   8  -3   6    1.92    0.61
   9   2  -6    0.34    0.26
   9   2  -6    0.30    0.43
  -9  -2   6   -0.01    0.42
  -9  -2   6    0.21    0.60
   8   2  -6    0.43    0.24
   8   2  -6    0.45    0.37
  -8  -2   6    0.39    0.34
  -8  -2   6   -0.62    0.47
   7   2  -6    7.79    0.68
   7   2  -6    7.44    0.59
  -7  -2   6    8.23    0.77
  -7  -2   6    8.22    0.66
   6   2  -6    2.33    0.31
   6   2  -6    2.49    0.28
  -6  -2   6    3.06    0.38
  -6  -2   6    2.18    0.32
   5   2  -6    7.65    0.56
   5   2  -6    8.68    0.58
  -5  -2   6    8.63    0.57
  -5  -2   6    8.79    0.63
   4   2  -6    1.48    0.19
   4   2  -6    1.50    0.14
   4   2  -6    1.58    0.22
  -4  -2   6    1.66    0.23
  -4  -2   6    1.61    0.25
   3   2  -6  111.58    5.79
   3   2  -6  107.88    5.79
   3   2  -6  106.95    5.76
  -3  -2   6  106.45    5.75
  -3  -2   6  113.88    5.79
  -3  -2   6  117.15    5.79
   2   2  -6   44.11    2.33
   2   2  -6   42.48    2.34
   2   2  -6   42.26    2.33
  -2  -2   6   49.11    2.36
  -2  -2   6   42.34    2.31
  -2  -2   6   44.55    2.35
   1   2  -6   52.50    2.81
   1   2  -6   52.85    2.82
   1   2  -6   53.64    2.84
  -1  -2   6   54.28    2.85
  -1  -2   6   54.36    2.85
  -1  -2   6   54.56    2.82
   0   2  -6  263.32   14.96
   0   2  -6  293.66   14.99
   0   2  -6  296.56   14.99
   0  -2   6  294.01   14.98
   0  -2   6  294.56   15.02
  -1   2  -6   13.63    0.81
  -1   2  -6   16.48    0.83
   1  -2   6   13.95    0.87
   1  -2   6   14.40    0.82
  -2   2  -6   67.07    3.57
  -2   2  -6   66.78    3.56
   2  -2   6   64.79    3.59
   2  -2   6   71.40    3.63
   2  -2   6   69.24    3.57
  -3   2  -6   19.80    1.10
  -3   2  -6   20.64    1.13
   3  -2   6   21.42    1.13
   3  -2   6   19.25    1.17
  -4   2  -6   18.69    1.05
   4  -2   6   18.93    1.06
   4  -2   6   17.48    1.13
  -5   2  -6    3.19    0.35
   5  -2   6    3.73    0.36
   5  -2   6    4.38    0.47
  -6   2  -6    2.37    0.35
  -6   2  -6    3.41    0.46
   6  -2   6    3.63    0.51
   6  -2   6    2.38    0.48
  -7   2  -6    0.17    0.44
  -7   2  -6   -0.30    0.31
   7  -2   6   -0.03    0.45
  -8   2  -6    2.53    0.51
   8  -2   6    1.81    0.58
  10   1  -6    2.79    0.59
 -10  -1   6    2.91    0.59
 -10  -1   6    3.82    0.99
   9   1  -6    6.80    0.66
  -9  -1   6    6.96    0.81
  -9  -1   6    6.80    0.65
   8   1  -6    2.27    0.41
   8   1  -6    1.65    0.27
  -8  -1   6    2.51    0.52
  -8  -1   6    2.19    0.40
   7   1  -6    7.17    0.56
   7   1  -6    7.79    0.66
  -7  -1   6    7.88    0.64
  -7  -1   6    8.04    0.65
   6   1  -6    0.94    0.20
   6   1  -6    1.11    0.23
  -6  -1   6    0.99    0.26
  -6  -1   6    0.82    0.30
   5   1  -6   16.04    0.97
   5   1  -6   16.35    0.95
  -5  -1   6   16.98    0.97
  -5  -1   6   17.65    0.99
   4   1  -6   16.95    0.93
   4   1  -6   16.00    0.93
  -4  -1   6   16.86    0.88
  -4  -1   6   15.95    0.94
  -4  -1   6   16.27    0.94
   3   1  -6   20.75    1.20
   3   1  -6   21.90    1.24
   3   1  -6   22.72    1.23
  -3  -1   6   24.16    1.23
  -3  -1   6   23.14    1.20
  -3  -1   6   23.23    1.24
   2   1  -6   10.36    0.63
   2   1  -6   10.54    0.65
   2   1  -6   11.22    0.61
  -2  -1   6   11.83    0.62
  -2  -1   6   11.77    0.66
   1   1  -6  192.93   10.21
   1   1  -6  191.51   10.23
   1   1  -6  203.47   10.22
  -1  -1   6  196.96   10.22
  -1  -1   6  199.80   10.21
  -1  -1   6  193.71   10.24
   0   1  -6    4.39    0.29
   0   1  -6    4.02    0.25
   0  -1   6    4.45    0.34
   0  -1   6    4.56    0.30
   0  -1   6    4.32    0.37
  -1   1  -6   23.28    1.21
  -1   1  -6   22.28    1.21
   1  -1   6   22.79    1.22
   1  -1   6   22.24    1.26
   1  -1   6   21.67    1.21
  -2   1  -6  118.70    6.21
  -2   1  -6  121.89    6.22
   2  -1   6  120.81    6.22
   2  -1   6  111.24    6.24
   2  -1   6  122.32    6.22
  -3   1  -6    4.75    0.36
  -3   1  -6    3.81    0.32
   3  -1   6    4.13    0.42
   3  -1   6    4.26    0.39
   3  -1   6    4.60    0.36
  -4   1  -6   54.88    2.81
  -4   1  -6   50.97    2.79
   4  -1   6   53.10    2.82
   4  -1   6   54.39    2.83
   4  -1   6   50.63    2.85
  -5   1  -6    0.43    0.22
   5  -1   6    0.19    0.26
   5  -1   6    0.29    0.32
   5  -1   6    0.22    0.24
  -6   1  -6    9.84    0.67
   6  -1   6    9.42    0.73
   6  -1   6    9.01    0.81
  -7   1  -6   -0.36    0.42
  -7   1  -6    0.24    0.30
   7  -1   6    0.52    0.46
  -8   1  -6    2.59    0.52
   8  -1   6    2.16    0.58
  10   0  -6   -0.60    0.42
 -10   0   6    0.70    0.51
 -10   0   6   -0.94    0.71
   9   0  -6    0.66    0.42
  -9   0   6    0.29    0.39
   8   0  -6    2.01    0.40
   8   0  -6    2.27    0.39
  -8   0   6    2.22    0.41
   7   0  -6    0.76    0.29
   7   0  -6    0.99    0.28
  -7   0   6    0.96    0.31
   6   0  -6    1.07    0.25
   6   0  -6    1.06    0.26
   6   0  -6    1.25    0.19
  -6   0   6    1.20    0.27
   5   0  -6   24.76    1.39
   5   0  -6   24.87    1.37
   5   0  -6   25.42    1.36
  -5   0   6   24.56    1.32
  -5   0   6   24.87    1.38
   4   0  -6   -0.06    0.14
   4   0  -6   -0.03    0.12
  -4   0   6    0.26    0.10
  -4   0   6    0.84    0.19
   3   0  -6   11.46    0.63
   3   0  -6   11.48    0.67
   3   0  -6   10.95    0.67
  -3   0   6   12.62    0.69
  -3   0   6   11.64    0.68
  -3   0   6   11.90    0.64
   2   0  -6    0.26    0.12
   2   0  -6    0.32    0.09
  -2   0   6    0.32    0.14
  -2   0   6    0.54    0.11
  -2   0   6    0.26    0.09
   1   0  -6    6.35    0.38
   1   0  -6    6.04    0.41
  -1   0   6    6.60    0.39
  -1   0   6    6.21    0.43
  -1   0   6    6.29    0.38
   0   0  -6    4.81    0.35
   0   0  -6    5.02    0.32
   0   0  -6    4.98    0.30
   0   0   6    5.12    0.38
   0   0   6    4.93    0.32
   0   0   6    5.33    0.34
  -1   0  -6   12.91    0.70
  -1   0  -6   12.57    0.71
  -1   0  -6   11.22    0.68
   1   0   6   13.62    0.69
   1   0   6   11.83    0.76
   1   0   6   13.03    0.72
  -2   0  -6   87.47    4.50
  -2   0  -6   87.01    4.50
  -2   0  -6   75.05    4.47
   2   0   6   84.46    4.53
   2   0   6   91.92    4.49
   2   0   6   90.11    4.51
  -3   0  -6    0.69    0.16
  -3   0  -6    0.76    0.16
   3   0   6    0.59    0.15
   3   0   6    0.63    0.21
   3   0   6    0.64    0.22
  -4   0  -6   17.68    1.01
  -4   0  -6   17.23    1.02
   4   0   6   18.34    1.10
   4   0   6   18.90    1.11
   4   0   6   18.52    1.04
  -5   0  -6    1.03    0.22
  -5   0  -6    1.32    0.22
   5   0   6    1.00    0.28
   5   0   6    1.39    0.34
  -6   0  -6    6.62    0.58
   6   0   6    6.97    0.55
   6   0   6    7.06    0.70
  -7   0  -6    0.34    0.31
   7   0   6   -0.17    0.42
   7   0   6    0.15    0.32
  -8   0  -6    1.36    0.51
   8   0   6    1.76    0.55
  10  -1  -6    0.45    0.48
  10  -1  -6    0.75    0.50
 -10   1   6    0.66    0.50
   9  -1  -6    0.22    0.41
   9  -1  -6    0.20    0.41
  -9   1   6    0.01    0.41
   8  -1  -6    5.12    0.53
   8  -1  -6    4.86    0.52
  -8   1   6    5.22    0.54
   7  -1  -6    3.51    0.40
   7  -1  -6    3.96    0.45
  -7   1   6    3.81    0.43
   6  -1  -6    0.44    0.23
   6  -1  -6    0.71    0.26
   6  -1  -6    0.31    0.15
  -6   1   6    0.41    0.16
  -6   1   6    0.61    0.25
   5  -1  -6    0.16    0.19
   5  -1  -6    0.24    0.18
  -5   1   6    0.17    0.20
  -5   1   6    0.24    0.13
   4  -1  -6   11.73    0.68
   4  -1  -6   10.17    0.70
   4  -1  -6   11.86    0.68
  -4   1   6   12.15    0.65
  -4   1   6   11.85    0.69
   3  -1  -6    2.50    0.24
   3  -1  -6    2.93    0.19
   3  -1  -6    2.66    0.25
   3  -1  -6    2.50    0.24
  -3   1   6    2.46    0.22
  -3   1   6    2.83    0.27
   2  -1  -6    0.54    0.08
   2  -1  -6    0.27    0.12
   2  -1  -6    0.52    0.14
  -2   1   6    0.67    0.11
  -2   1   6    0.58    0.15
   1  -1  -6    0.21    0.11
   1  -1  -6    0.19    0.12
  -1   1   6    0.24    0.15
  -1   1   6    0.39    0.09
  -1   1   6    0.72    0.08
  -1   1   6    0.46    0.11
   0  -1  -6   36.78    2.10
   0  -1  -6   39.01    2.11
   0   1   6   38.19    2.09
   0   1   6   42.52    2.12
   0   1   6   42.18    2.10
  -1  -1  -6   55.95    2.81
  -1  -1  -6   50.71    2.80
   1   1   6   53.58    2.80
   1   1   6   55.26    2.81
   1   1   6   51.12    2.83
  -2  -1  -6   31.96    1.63
  -2  -1  -6   28.26    1.61
   2   1   6   30.09    1.62
   2   1   6   30.12    1.66
   2   1   6   31.51    1.64
  -3  -1  -6    3.50    0.27
  -3  -1  -6    2.62    0.26
   3   1   6    2.60    0.26
   3   1   6    3.94    0.32
   3   1   6    3.18    0.32
  -4  -1  -6   31.15    1.71
   4   1   6   31.22    1.71
   4   1   6   32.07    1.76
   4   1   6   32.05    1.73
  -5  -1  -6    1.87    0.26
   5   1   6    3.04    0.34
   5   1   6    1.61    0.34
  -6  -1  -6   16.95    1.02
  -6  -1  -6   15.69    0.99
   6   1   6   16.99    1.04
   6   1   6   17.09    1.10
  -7  -1  -6    3.31    0.40
   7   1   6    4.15    0.45
   7   1   6    3.36    0.53
  10  -2  -6   -0.48    0.46
  10  -2  -6   -0.21    0.50
 -10   2   6   -0.03    0.49
   9  -2  -6    1.50    0.46
   9  -2  -6    1.11    0.46
  -9   2   6    1.11    0.46
   8  -2  -6    0.16    0.39
   8  -2  -6   -0.03    0.34
  -8   2   6    0.18    0.37
   7  -2  -6    1.25    0.34
   7  -2  -6    1.40    0.32
  -7   2   6    2.02    0.27
  -7   2   6    1.44    0.35
   6  -2  -6   -0.06    0.25
   6  -2  -6   -0.01    0.22
  -6   2   6    0.07    0.26
  -6   2   6   -0.15    0.17
   5  -2  -6   11.68    0.64
   5  -2  -6   10.18    0.68
  -5   2   6   10.73    0.65
  -5   2   6   10.71    0.70
   4  -2  -6   22.74    1.20
   4  -2  -6   18.44    1.24
  -4   2   6   22.60    1.22
  -4   2   6   23.21    1.19
   3  -2  -6   16.42    0.88
   3  -2  -6   14.94    0.93
   3  -2  -6   17.23    0.90
  -3   2   6   15.74    0.90
  -3   2   6   16.54    0.88
  -3   2   6   15.50    0.86
   2  -2  -6   81.36    4.27
   2  -2  -6   76.86    4.30
   2  -2  -6   86.11    4.30
  -2   2   6   83.72    4.29
  -2   2   6   81.03    4.28
  -2   2   6   82.16    4.27
   1  -2  -6  143.77    7.49
   1  -2  -6  137.62    7.49
  -1   2   6  148.68    7.47
  -1   2   6  143.79    7.48
   0  -2  -6   50.17    2.90
   0  -2  -6   55.78    2.90
   0   2   6   56.30    2.89
   0   2   6   57.12    2.91
   0   2   6   55.46    2.89
  -1  -2  -6    0.48    0.15
  -1  -2  -6    0.53    0.15
   1   2   6    0.70    0.20
   1   2   6    0.66    0.14
  -2  -2  -6   22.28    1.33
  -2  -2  -6   23.50    1.34
   2   2   6   25.35    1.35
   2   2   6   25.09    1.33
   2   2   6   26.88    1.36
  -3  -2  -6    0.17    0.17
  -3  -2  -6    0.04    0.16
   3   2   6    0.31    0.21
   3   2   6    0.09    0.19
   3   2   6    0.00    0.14
  -4  -2  -6   16.63    0.96
  -4  -2  -6   15.94    0.95
   4   2   6   15.51    0.97
   4   2   6   17.19    0.99
   4   2   6   16.51    0.94
  -5  -2  -6    4.79    0.45
   5   2   6    5.54    0.45
   5   2   6    4.65    0.43
   5   2   6    4.16    0.61
  -6  -2  -6   10.45    0.75
   6   2   6   10.65    0.72
   6   2   6   10.86    0.78
   7   2   6    0.84    0.34
  10  -3  -6   -0.21    0.61
   9  -3  -6    4.91    0.62
   9  -3  -6    3.95    0.56
  -9   3   6    4.26    0.59
   8  -3  -6    2.11    0.41
   8  -3  -6    1.84    0.47
  -8   3   6    2.00    0.44
  -8   3   6    2.28    0.35
   7  -3  -6    4.26    0.49
   7  -3  -6    4.53    0.46
  -7   3   6    4.01    0.46
  -7   3   6    3.87    0.38
   6  -3  -6    5.83    0.55
   6  -3  -6    6.99    0.58
  -6   3   6    7.02    0.59
  -6   3   6    7.31    0.51
   5  -3  -6    8.71    0.52
   5  -3  -6    7.81    0.66
   5  -3  -6    8.30    0.59
  -5   3   6    8.73    0.57
  -5   3   6    8.84    0.61
   4  -3  -6    3.10    0.28
   4  -3  -6    3.47    0.28
   4  -3  -6    2.47    0.32
  -4   3   6    3.64    0.32
  -4   3   6    3.52    0.28
   3  -3  -6    3.58    0.32
   3  -3  -6    3.52    0.28
  -3   3   6    2.99    0.28
  -3   3   6    3.56    0.26
  -3   3   6    3.17    0.27
   2  -3  -6   22.23    1.18
   2  -3  -6   21.26    1.24
   2  -3  -6   23.47    1.22
  -2   3   6   22.18    1.19
  -2   3   6   21.63    1.20
   1  -3  -6   24.28    1.28
   1  -3  -6   22.87    1.26
   1  -3  -6   22.96    1.30
  -1   3   6   24.32    1.28
  -1   3   6   23.77    1.27
  -1   3   6   22.84    1.27
   0  -3  -6   31.98    1.77
   0  -3  -6   32.52    1.75
   0   3   6   32.08    1.74
   0   3   6   33.49    1.74
   0   3   6   33.08    1.75
  -1  -3  -6    0.56    0.16
  -1  -3  -6    0.67    0.20
   1   3   6    0.85    0.21
   1   3   6    0.83    0.16
   1   3   6    0.93    0.16
  -2  -3  -6   17.28    1.01
  -2  -3  -6   16.93    0.99
   2   3   6   16.43    0.98
   2   3   6   17.63    0.98
   2   3   6   19.30    1.00
  -3  -3  -6    9.52    0.62
  -3  -3  -6    9.92    0.63
   3   3   6    9.03    0.59
   3   3   6    9.06    0.61
  -4  -3  -6   24.63    1.35
  -4  -3  -6   23.93    1.36
   4   3   6   24.32    1.34
   4   3   6   23.41    1.36
  -5  -3  -6    1.21    0.28
   5   3   6    0.79    0.24
   5   3   6    1.06    0.30
  -6  -3  -6    4.73    0.46
   6   3   6    4.67    0.41
   6   3   6    5.38    0.50
  -7  -3  -6    1.76    0.37
   7   3   6    1.47    0.32
   9  -4  -6    0.23    0.44
   9  -4  -6   -0.03    0.47
  -9   4   6   -0.43    0.37
  -9   4   6    0.07    0.45
   8  -4  -6    0.19    0.43
   8  -4  -6    0.98    0.40
  -8   4   6    0.86    0.35
  -8   4   6    0.35    0.43
   7  -4  -6    4.94    0.55
   7  -4  -6    4.03    0.46
  -7   4   6    4.28    0.49
  -7   4   6    3.90    0.43
   6  -4  -6    0.11    0.25
   6  -4  -6   -0.16    0.33
  -6   4   6    0.31    0.30
  -6   4   6    0.36    0.26
   5  -4  -6    0.32    0.29
   5  -4  -6    0.48    0.22
  -5   4   6    0.19    0.27
  -5   4   6    0.56    0.23
   4  -4  -6    5.11    0.41
   4  -4  -6    3.77    0.33
   4  -4  -6    3.92    0.38
  -4   4   6    4.07    0.35
  -4   4   6    4.56    0.42
   3  -4  -6   40.38    2.00
   3  -4  -6   38.90    2.05
   3  -4  -6   34.72    1.99
  -3   4   6   36.11    1.98
   2  -4  -6    5.84    0.39
   2  -4  -6    6.68    0.45
   2  -4  -6    5.88    0.50
  -2   4   6    6.82    0.44
  -2   4   6    6.10    0.41
  -2   4   6    5.95    0.44
   1  -4  -6    0.68    0.17
   1  -4  -6    0.68    0.24
  -1   4   6    0.58    0.19
  -1   4   6    0.73    0.18
  -1   4   6    0.66    0.16
   0  -4  -6  111.27    5.80
   0  -4  -6  107.17    5.82
   0   4   6  111.51    5.79
   0   4   6  112.83    5.79
  -1  -4  -6   13.54    0.84
  -1  -4  -6   13.53    0.80
   1   4   6   13.84    0.79
   1   4   6   12.95    0.79
  -2  -4  -6   67.15    3.56
  -2  -4  -6   67.71    3.59
   2   4   6   68.95    3.56
   2   4   6   65.72    3.56
  -3  -4  -6    1.66    0.26
  -3  -4  -6    2.33    0.33
   3   4   6    2.01    0.27
   3   4   6    1.80    0.25
  -4  -4  -6   15.61    0.97
  -4  -4  -6   15.44    0.94
   4   4   6   15.18    0.91
   4   4   6   14.47    0.93
  -5  -4  -6    1.41    0.37
  -5  -4  -6    1.54    0.32
   5   4   6    1.69    0.34
   5   4   6    1.75    0.29
  -6  -4  -6    2.12    0.37
   6   4   6    1.15    0.32
  -7  -4  -6    3.26    0.48
   7   4   6    3.19    0.39
   9  -5  -6    0.59    0.48
   9  -5  -6    1.41    0.49
  -9   5   6    1.56    0.47
  -9   5   6    1.59    0.55
   8  -5  -6    1.84    0.45
   8  -5  -6    2.71    0.52
  -8   5   6    1.59    0.43
  -8   5   6    2.47    0.50
   7  -5  -6    3.58    0.47
   7  -5  -6    4.10    0.52
  -7   5   6    4.27    0.51
  -7   5   6    4.41    0.45
   6  -5  -6    2.30    0.35
   6  -5  -6    2.66    0.45
  -6   5   6    3.38    0.40
  -6   5   6    2.66    0.41
   5  -5  -6    1.52    0.28
   5  -5  -6    1.95    0.37
  -5   5   6    1.67    0.33
  -5   5   6    1.69    0.32
   4  -5  -6    1.41    0.24
   4  -5  -6    1.83    0.33
  -4   5   6    1.93    0.29
   3  -5  -6    2.62    0.26
   3  -5  -6    2.05    0.25
   3  -5  -6    2.81    0.36
  -3   5   6    2.55    0.28
  -3   5   6    1.73    0.28
  -3   5   6    1.78    0.23
   2  -5  -6    7.00    0.58
  -2   5   6    7.20    0.50
  -2   5   6    6.40    0.47
   1  -5  -6    6.95    0.61
   1  -5  -6    8.28    0.53
  -1   5   6    7.66    0.55
  -1   5   6    8.21    0.53
   0  -5  -6    9.41    0.63
   0  -5  -6   10.21    0.72
   0   5   6    9.35    0.61
   0   5   6   10.05    0.64
  -1  -5  -6    5.00    0.46
  -1  -5  -6    4.60    0.44
   1   5   6    5.59    0.44
   1   5   6    5.69    0.47
  -2  -5  -6   55.18    2.84
  -2  -5  -6   51.19    2.79
   2   5   6   51.60    2.78
   2   5   6   50.75    2.78
  -3  -5  -6   -0.17    0.23
  -3  -5  -6   -0.02    0.34
   3   5   6    0.28    0.25
   3   5   6    0.44    0.23
  -4  -5  -6   12.48    0.90
  -4  -5  -6   12.98    0.83
   4   5   6   11.28    0.78
   4   5   6   11.70    0.79
  -5  -5  -6    0.24    0.41
  -5  -5  -6    0.38    0.32
   5   5   6    1.01    0.29
  -6  -5  -6    9.01    0.78
   6   5   6    9.05    0.73
   8  -6  -6   -0.43    0.43
   8  -6  -6   -0.66    0.41
  -8   6   6    0.67    0.46
  -8   6   6    0.04    0.48
   7  -6  -6    0.29    0.44
   7  -6  -6   -0.16    0.36
  -7   6   6    0.41    0.40
  -7   6   6    0.05    0.41
   6  -6  -6    1.68    0.36
   6  -6  -6    2.40    0.46
  -6   6   6    2.18    0.42
  -6   6   6    1.80    0.41
   5  -6  -6    9.69    0.76
   5  -6  -6   12.18    0.86
  -5   6   6   11.65    0.80
   4  -6  -6   18.27    1.12
  -4   6   6   16.13    1.04
   3  -6  -6    1.86    0.38
  -3   6   6    1.13    0.30
  -3   6   6    0.80    0.25
   2  -6  -6   14.29    0.96
  -2   6   6   13.22    0.83
  -2   6   6   14.01    0.86
   1  -6  -6    5.79    0.52
   1  -6  -6    4.99    0.46
  -1   6   6    4.15    0.41
  -1   6   6    4.82    0.43
   0  -6  -6    9.59    0.81
   0  -6  -6   10.14    0.68
   0   6   6    9.93    0.71
   0   6   6   10.57    0.67
  -1  -6  -6    5.84    0.53
  -1  -6  -6    5.91    0.56
   1   6   6    6.47    0.52
   1   6   6    6.25    0.53
  -2  -6  -6    6.27    0.61
  -2  -6  -6    6.76    0.57
   2   6   6    6.46    0.58
   2   6   6    6.89    0.56
  -3  -6  -6    3.59    0.40
  -3  -6  -6    5.25    0.56
   3   6   6    3.31    0.37
   3   6   6    4.00    0.40
  -4  -6  -6    4.68    0.58
  -4  -6  -6    4.13    0.45
   4   6   6    3.19    0.38
  -5  -6  -6    0.60    0.50
  -5  -6  -6    0.04    0.36
   5   6   6    0.53    0.30
   8  -7  -6   -0.20    0.46
  -8   7   6   -0.25    0.51
   7  -7  -6    1.27    0.51
   7  -7  -6    0.96    0.42
  -7   7   6    1.06    0.48
   6  -7  -6    4.23    0.57
  -6   7   6    3.50    0.50
   5  -7  -6    0.49    0.42
  -5   7   6    0.96    0.39
   4  -7  -6   14.71    1.02
  -4   7   6   11.44    0.90
   3  -7  -6    1.29    0.44
  -3   7   6    0.90    0.35
   2  -7  -6    3.95    0.52
  -2   7   6    3.49    0.36
  -2   7   6    3.13    0.40
   1  -7  -6    0.09    0.41
   1  -7  -6    0.14    0.26
  -1   7   6    0.03    0.26
  -1   7   6    0.22    0.29
   0  -7  -6   16.29    1.17
   0  -7  -6   17.25    1.04
   0   7   6   15.88    1.02
   0   7   6   16.27    1.04
  -1  -7  -6    0.34    0.28
  -1  -7  -6   -0.16    0.43
   1   7   6    0.36    0.32
   1   7   6    0.68    0.29
  -2  -7  -6    6.93    0.69
  -2  -7  -6    5.64    0.51
   2   7   6    5.46    0.50
   2   7   6    5.68    0.50
  -3  -7  -6    0.96    0.53
  -3  -7  -6    1.13    0.35
   3   7   6    1.15    0.32
  -4  -7  -6    7.87    0.75
  -4  -7  -6    7.12    0.79
   4   7   6    7.65    0.67
  -5  -7  -6    2.91    0.65
   6  -8  -6   -0.02    0.49
  -6   8   6    0.38    0.48
   5  -8  -6   -0.16    0.48
  -5   8   6    0.00    0.44
   4  -8  -6    0.73    0.51
  -4   8   6   -0.34    0.40
   3  -8  -6    2.31    0.55
  -3   8   6    1.77    0.43
   2  -8  -6    8.81    0.79
  -2   8   6    7.26    0.67
  -2   8   6    7.46    0.65
   1  -8  -6   -0.01    0.49
   1  -8  -6    0.44    0.33
  -1   8   6    0.53    0.31
  -1   8   6    0.27    0.35
   0  -8  -6   12.60    1.14
   0  -8  -6   11.05    0.86
   0   8   6   12.28    0.90
   0   8   6   10.48    0.84
  -1  -8  -6   -0.06    0.53
  -1  -8  -6    0.00    0.33
   1   8   6    0.88    0.38
   1   8   6   -0.04    0.32
  -2  -8  -6    9.61    0.89
  -2  -8  -6   10.32    0.82
   2   8   6    9.28    0.77
  -3  -8  -6    0.03    0.60
  -3  -8  -6    0.52    0.40
   3   8   6    0.37    0.33
  -4  -8  -6    2.31    0.85
   4  -9  -6    1.83    0.62
  -4   9   6    1.02    0.52
   3  -9  -6    0.87    0.61
  -3   9   6    0.08    0.47
   2  -9  -6    5.83    0.74
  -2   9   6    4.51    0.51
  -2   9   6    5.10    0.59
   1  -9  -6   -0.22    0.59
  -1   9   6   -0.22    0.36
  -1   9   6   -0.40    0.43
   0  -9  -6    1.07    0.41
   0  -9  -6    1.59    0.65
   0   9   6    0.74    0.47
   0   9   6    1.20    0.39
  -1  -9  -6    0.28    0.42
  -1  -9  -6    0.71    0.66
   1   9   6    0.26    0.37
  -2  -9  -6    0.78    0.50
  -1  10   6    0.55    0.49
   4   9  -7   -0.01    0.43
   4   9  -7    0.34    0.40
  -4  -9   7    0.25    0.66
   3   9  -7    0.10    0.41
   3   9  -7    0.20    0.45
  -3  -9   7    1.42    0.92
   2   9  -7   -0.02    0.47
  -2  -9   7    0.10    0.79
   1   9  -7    1.88    0.52
  -1  -9   7    2.04    0.76
   0   9  -7   -0.19    0.48
   0  -9   7   -0.32    0.66
  -1   9  -7    3.87    0.63
   1  -9   7    5.50    0.78
  -2   9  -7    1.23    0.55
   2  -9   7    1.57    0.67
  -3   9  -7   -0.25    0.51
   5   8  -7    1.54    0.45
   5   8  -7    1.29    0.38
  -5  -8   7    1.21    0.99
  -5  -8   7    1.74    0.52
   4   8  -7    0.30    0.40
   4   8  -7    0.57    0.40
  -4  -8   7    1.01    0.45
  -4  -8   7    0.35    0.90
   3   8  -7    4.01    0.49
   3   8  -7    2.91    0.44
  -3  -8   7    3.73    0.87
   2   8  -7    0.14    0.39
   2   8  -7    0.08    0.31
  -2  -8   7   -0.11    0.70
   1   8  -7    3.38    0.49
  -1  -8   7    3.03    0.69
   0   8  -7    3.96    0.53
   0  -8   7    4.15    0.68
  -1   8  -7   -0.48    0.41
   1  -8   7   -0.09    0.56
  -2   8  -7    0.91    0.47
   2  -8   7    1.54    0.58
  -3   8  -7   -0.16    0.43
  -3   8  -7   -0.31    0.45
   3  -8   7    0.24    0.53
  -4   8  -7    2.86    0.52
  -4   8  -7    2.45    0.55
   4  -8   7    2.30    0.60
  -5   8  -7    0.11    0.52
  -5   8  -7    0.43    0.51
   5  -8   7   -0.34    0.51
   6   7  -7    1.37    0.43
  -6  -7   7    1.61    0.97
  -6  -7   7    0.86    0.52
   5   7  -7    3.75    0.48
   5   7  -7    3.34    0.44
  -5  -7   7    3.66    0.94
  -5  -7   7    4.53    0.55
   4   7  -7   -0.06    0.31
   4   7  -7    0.08    0.33
  -4  -7   7    0.99    0.77
  -4  -7   7   -0.11    0.35
   3   7  -7    1.10    0.35
   3   7  -7    2.16    0.36
  -3  -7   7    1.80    0.37
  -3  -7   7    1.71    0.73
   2   7  -7    0.04    0.30
   2   7  -7    0.38    0.27
  -2  -7   7    0.32    0.62
   1   7  -7    1.49    0.29
   1   7  -7    0.94    0.35
  -1  -7   7    3.20    0.58
   0   7  -7    6.10    0.57
   0  -7   7    8.18    0.71
  -1   7  -7    0.29    0.37
   1  -7   7    0.95    0.49
   1  -7   7    0.54    0.54
  -2   7  -7    8.99    0.80
   2  -7   7    8.43    0.78
   2  -7   7   10.36    0.99
  -3   7  -7    2.31    0.46
  -3   7  -7    2.20    0.39
   3  -7   7    1.45    0.46
   3  -7   7    2.18    0.54
  -4   7  -7    5.82    0.61
  -4   7  -7    5.87    0.56
   4  -7   7    5.42    0.66
   4  -7   7    4.68    0.61
  -5   7  -7    0.68    0.48
  -5   7  -7    0.29    0.45
   5  -7   7    0.09    0.51
   5  -7   7    0.07    0.48
  -6   7  -7    1.01    0.52
   6  -7   7    0.01    0.55
   7   6  -7    3.34    0.48
  -7  -6   7    4.84    0.91
   6   6  -7    0.38    0.35
  -6  -6   7   -0.28    0.74
   5   6  -7    4.59    0.49
  -5  -6   7    4.73    0.53
  -5  -6   7    4.69    0.83
   4   6  -7   -0.08    0.23
   4   6  -7    0.38    0.29
  -4  -6   7    0.20    0.33
  -4  -6   7    0.34    0.64
   3   6  -7   10.04    0.70
   3   6  -7   10.19    0.73
  -3  -6   7   11.80    1.11
  -3  -6   7    9.82    0.75
   2   6  -7   12.24    0.85
   2   6  -7   12.46    0.85
  -2  -6   7   15.19    1.13
  -2  -6   7   13.80    0.84
   1   6  -7    4.24    0.42
   1   6  -7    3.64    0.36
  -1  -6   7    4.61    0.59
  -1  -6   7    4.81    0.46
   0   6  -7    7.87    0.66
   0   6  -7    7.46    0.57
   0  -6   7    9.19    0.80
   0  -6   7    8.92    0.68
  -1   6  -7    2.60    0.38
  -1   6  -7    2.47    0.29
   1  -6   7    2.12    0.44
   1  -6   7    2.69    0.41
  -2   6  -7   11.05    0.80
  -2   6  -7   12.42    0.76
   2  -6   7   10.24    0.84
   2  -6   7   11.24    0.92
  -3   6  -7   -0.36    0.31
  -3   6  -7    0.07    0.34
   3  -6   7    0.40    0.37
   3  -6   7   -0.17    0.39
  -4   6  -7    3.74    0.46
  -4   6  -7    3.32    0.47
   4  -6   7    3.06    0.51
   4  -6   7    2.80    0.52
  -5   6  -7   -0.09    0.42
  -5   6  -7    0.56    0.40
   5  -6   7   -0.18    0.43
   5  -6   7    0.08    0.44
  -6   6  -7    5.18    0.61
  -6   6  -7    4.02    0.55
   6  -6   7    3.38    0.65
   6  -6   7    3.50    0.56
   8   5  -7    0.78    0.37
   8   5  -7    0.43    0.47
  -8  -5   7    0.89    0.73
   7   5  -7    0.11    0.32
   7   5  -7    1.01    0.42
  -7  -5   7    0.47    0.66
   6   5  -7    1.43    0.39
   6   5  -7    1.20    0.34
  -6  -5   7    0.59    0.62
   5   5  -7    0.49    0.28
   5   5  -7    0.07    0.31
  -5  -5   7   -0.03    0.53
   4   5  -7    0.85    0.26
   4   5  -7    0.80    0.29
  -4  -5   7    0.97    0.52
   3   5  -7   18.33    1.13
   3   5  -7   19.16    1.12
  -3  -5   7   20.65    1.19
  -3  -5   7   19.72    1.34
   2   5  -7    3.05    0.31
   2   5  -7    3.12    0.31
  -2  -5   7    2.97    0.42
  -2  -5   7    2.51    0.50
  -2  -5   7    2.96    0.31
   1   5  -7   20.01    1.19
   1   5  -7   20.22    1.20
  -1  -5   7   22.89    1.33
  -1  -5   7   21.73    1.26
   0   5  -7    5.32    0.48
   0   5  -7    5.14    0.44
   0   5  -7    5.58    0.41
   0  -5   7    5.85    0.55
   0  -5   7    5.34    0.50
  -1   5  -7    7.42    0.56
  -1   5  -7    9.56    0.64
   1  -5   7    8.75    0.72
   1  -5   7    8.74    0.68
  -2   5  -7   16.46    0.97
  -2   5  -7   16.18    0.95
   2  -5   7   15.70    1.05
   2  -5   7   14.69    1.02
  -3   5  -7    2.84    0.39
  -3   5  -7    3.49    0.37
   3  -5   7    2.39    0.42
   3  -5   7    2.53    0.42
  -4   5  -7   18.50    1.02
  -4   5  -7   16.63    1.02
   4  -5   7   12.55    1.06
   4  -5   7   13.95    1.07
  -5   5  -7    0.08    0.34
  -5   5  -7   -0.15    0.38
   5  -5   7    0.07    0.45
   5  -5   7   -0.08    0.38
  -6   5  -7    2.09    0.51
  -6   5  -7    2.48    0.44
   6  -5   7    1.86    0.50
   6  -5   7    1.79    0.58
  -7   5  -7    0.04    0.54
   7  -5   7    0.53    0.58
   7  -5   7    0.51    0.50
   9   4  -7    1.24    0.36
   8   4  -7    0.24    0.31
   8   4  -7    0.21    0.42
  -8  -4   7   -0.41    0.60
   7   4  -7   -0.14    0.35
   7   4  -7    0.31    0.29
  -7  -4   7    0.23    0.52
   6   4  -7    0.36    0.27
   6   4  -7    0.32    0.34
  -6  -4   7   -0.05    0.45
  -6  -4   7    0.32    0.31
   5   4  -7   10.36    0.72
   5   4  -7   11.08    0.75
  -5  -4   7    9.72    0.74
  -5  -4   7   11.26    0.94
   4   4  -7    4.49    0.40
   4   4  -7    5.29    0.37
   4   4  -7    4.36    0.39
  -4  -4   7    4.39    0.53
  -4  -4   7    4.12    0.42
   3   4  -7    2.23    0.28
   3   4  -7    2.45    0.26
   3   4  -7    2.30    0.35
  -3  -4   7    2.27    0.33
  -3  -4   7    2.37    0.44
   2   4  -7    6.79    0.50
   2   4  -7    7.05    0.49
   2   4  -7    6.77    0.49
  -2  -4   7    6.21    0.59
  -2  -4   7    7.53    0.56
   1   4  -7    2.01    0.25
   1   4  -7    2.18    0.24
   1   4  -7    1.91    0.26
  -1  -4   7    2.35    0.21
  -1  -4   7    2.42    0.35
  -1  -4   7    3.03    0.41
   0   4  -7   19.79    1.12
   0   4  -7   22.19    1.09
   0   4  -7   17.77    1.11
   0  -4   7   19.37    1.18
   0  -4   7   19.86    1.18
  -1   4  -7    0.15    0.21
   1  -4   7   -0.10    0.26
   1  -4   7   -0.11    0.26
  -2   4  -7   19.80    1.05
  -2   4  -7   17.91    1.04
   2  -4   7   17.12    1.11
   2  -4   7   17.20    1.08
  -3   4  -7    0.07    0.24
  -3   4  -7    0.11    0.26
   3  -4   7   -0.31    0.29
   3  -4   7    0.42    0.32
  -4   4  -7   11.75    0.75
  -4   4  -7   10.94    0.76
   4  -4   7   10.30    0.88
   4  -4   7   10.06    0.83
  -5   4  -7    0.27    0.30
  -5   4  -7   -0.13    0.36
   5  -4   7   -0.81    0.36
   5  -4   7   -0.17    0.38
  -6   4  -7    2.69    0.48
  -6   4  -7    3.10    0.42
   6  -4   7    2.42    0.56
   6  -4   7    2.29    0.50
  -7   4  -7   -0.26    0.50
  -7   4  -7   -0.17    0.36
   7  -4   7   -0.29    0.53
   7  -4   7   -0.71    0.48
   9   3  -7    2.48    0.51
   9   3  -7    1.90    0.36
  -9  -3   7    1.09    0.66
   8   3  -7    0.27    0.39
   8   3  -7    0.34    0.28
  -8  -3   7    0.26    0.37
  -8  -3   7   -0.08    0.53
   7   3  -7    8.17    0.67
   7   3  -7    9.25    0.77
  -7  -3   7    8.36    0.70
  -7  -3   7   11.36    0.90
   6   3  -7    0.98    0.32
   6   3  -7    1.46    0.28
  -6  -3   7    1.02    0.40
  -6  -3   7    0.95    0.31
   5   3  -7   10.50    0.72
   5   3  -7   11.64    0.77
  -5  -3   7   10.77    0.74
  -5  -3   7   11.91    0.82
   4   3  -7    5.35    0.44
   4   3  -7    5.04    0.43
   4   3  -7    5.14    0.35
  -4  -3   7    4.80    0.48
  -4  -3   7    5.09    0.46
   3   3  -7    0.10    0.18
   3   3  -7    0.23    0.16
   3   3  -7    0.27    0.13
  -3  -3   7    0.83    0.25
  -3  -3   7    0.26    0.29
   2   3  -7   11.82    0.75
   2   3  -7   12.67    0.72
   2   3  -7   12.94    0.73
  -2  -3   7   12.51    0.85
  -2  -3   7   12.16    0.79
   1   3  -7    0.69    0.17
   1   3  -7    0.94    0.18
   1   3  -7    0.90    0.14
  -1  -3   7    0.11    0.28
  -1  -3   7    0.99    0.26
  -1  -3   7    0.82    0.13
   0   3  -7   16.68    0.88
   0   3  -7   15.45    0.87
   0  -3   7   14.26    0.85
   0  -3   7   15.43    0.93
   0  -3   7   14.03    0.93
  -1   3  -7    8.76    0.52
  -1   3  -7    8.99    0.54
   1  -3   7    7.58    0.58
   1  -3   7    7.76    0.60
   1  -3   7    7.22    0.52
  -2   3  -7   24.09    1.30
  -2   3  -7   24.61    1.32
   2  -3   7   23.10    1.37
   2  -3   7   23.73    1.32
   2  -3   7   24.02    1.35
  -3   3  -7   11.34    0.68
   3  -3   7   10.70    0.75
   3  -3   7    9.53    0.74
   3  -3   7   10.70    0.68
  -4   3  -7   11.46    0.72
   4  -3   7    9.51    0.80
   4  -3   7   10.86    0.79
  -5   3  -7    0.81    0.37
  -5   3  -7    1.32    0.31
   5  -3   7    1.24    0.41
   5  -3   7    0.83    0.37
  -6   3  -7   17.31    1.13
  -6   3  -7   15.74    1.01
   6  -3   7   12.61    1.11
   6  -3   7   17.22    1.15
  -7   3  -7    1.75    0.38
  -7   3  -7    0.90    0.50
   7  -3   7    2.21    0.58
 -10  -2   7    0.36    0.63
   9   2  -7    0.87    0.47
   9   2  -7    0.71    0.29
  -9  -2   7    1.46    0.63
  -9  -2   7    0.73    0.45
   8   2  -7    0.62    0.38
   8   2  -7    0.17    0.26
  -8  -2   7    0.84    0.52
  -8  -2   7    0.28    0.37
   7   2  -7    3.70    0.37
   7   2  -7    4.61    0.47
  -7  -2   7    3.30    0.51
  -7  -2   7    3.36    0.43
   6   2  -7    7.12    0.56
   6   2  -7    7.45    0.61
  -6  -2   7    7.45    0.61
  -6  -2   7    8.56    0.67
   5   2  -7    5.72    0.45
   5   2  -7    5.44    0.46
  -5  -2   7    5.64    0.47
  -5  -2   7    5.00    0.45
   4   2  -7    1.11    0.14
   4   2  -7    1.03    0.19
   4   2  -7    0.90    0.21
  -4  -2   7    0.94    0.23
  -4  -2   7    1.11    0.26
   3   2  -7   50.02    2.68
   3   2  -7   51.37    2.70
   3   2  -7   48.40    2.72
  -3  -2   7   51.28    2.72
  -3  -2   7   53.80    2.72
   2   2  -7   41.60    2.38
   2   2  -7   43.74    2.36
  -2  -2   7   48.39    2.39
  -2  -2   7   43.14    2.35
  -2  -2   7   46.47    2.40
   1   2  -7   25.96    1.38
   1   2  -7   24.18    1.34
   1   2  -7   25.33    1.36
  -1  -2   7   25.25    1.35
  -1  -2   7   25.12    1.39
   0   2  -7   39.64    2.42
   0   2  -7   49.09    2.47
   0   2  -7   46.58    2.45
   0  -2   7   47.83    2.50
   0  -2   7   46.24    2.45
   0  -2   7   49.47    2.47
  -1   2  -7    0.67    0.15
  -1   2  -7    0.83    0.17
   1  -2   7    0.67    0.18
   1  -2   7    0.98    0.19
   1  -2   7    0.61    0.24
  -2   2  -7   11.76    0.65
  -2   2  -7   10.48    0.66
   2  -2   7   10.84    0.70
   2  -2   7   10.50    0.73
   2  -2   7   11.20    0.67
  -3   2  -7    4.80    0.36
  -3   2  -7    5.46    0.42
   3  -2   7    5.43    0.50
   3  -2   7    4.99    0.51
   3  -2   7    4.91    0.43
  -4   2  -7   14.07    0.82
   4  -2   7   13.37    0.83
   4  -2   7   13.92    0.89
   4  -2   7   12.04    0.90
  -5   2  -7    0.83    0.27
   5  -2   7    0.92    0.38
   5  -2   7    0.33    0.33
   5  -2   7    0.95    0.32
  -6   2  -7    6.73    0.60
   6  -2   7    6.72    0.68
  -7   2  -7    2.54    0.42
  -7   2  -7    3.98    0.58
   7  -2   7    2.16    0.58
  -8   2  -7    1.55    0.57
   8  -2   7    1.50    0.62
 -10  -1   7    0.06    0.52
   9   1  -7    1.33    0.47
  -9  -1   7    0.44    0.42
  -9  -1   7    0.99    0.62
   8   1  -7    0.31    0.23
   8   1  -7    0.19    0.34
  -8  -1   7   -0.05    0.34
  -8  -1   7    0.34    0.48
   7   1  -7    0.39    0.21
   7   1  -7    0.39    0.30
  -7  -1   7    0.45    0.31
  -7  -1   7    0.61    0.38
   6   1  -7    3.08    0.34
   6   1  -7    2.76    0.29
  -6  -1   7    2.63    0.34
  -6  -1   7    3.04    0.38
   5   1  -7    3.69    0.34
   5   1  -7    4.06    0.37
  -5  -1   7    4.33    0.38
  -5  -1   7    4.34    0.41
   4   1  -7    0.85    0.18
   4   1  -7    0.96    0.18
  -4  -1   7    1.02    0.22
  -4  -1   7    0.78    0.22
   3   1  -7   10.05    0.58
   3   1  -7   10.31    0.62
   3   1  -7   10.29    0.64
  -3  -1   7   10.49    0.59
  -3  -1   7   10.56    0.66
  -3  -1   7   11.40    0.64
   2   1  -7   20.46    1.08
   2   1  -7   19.58    1.11
   2   1  -7   19.41    1.08
  -2  -1   7   20.48    1.12
  -2  -1   7   20.21    1.11
  -2  -1   7   19.38    1.07
   1   1  -7   21.27    1.25
   1   1  -7   23.89    1.27
   1   1  -7   23.69    1.29
  -1  -1   7   24.87    1.30
  -1  -1   7   23.68    1.26
  -1  -1   7   24.05    1.31
   0   1  -7   65.79    3.50
   0   1  -7   61.92    3.47
   0   1  -7   69.18    3.51
   0  -1   7   64.79    3.50
   0  -1   7   68.64    3.53
   0  -1   7   69.64    3.50
  -1   1  -7    0.21    0.13
  -1   1  -7    0.19    0.12
   1  -1   7    0.11    0.17
   1  -1   7   -0.06    0.23
   1  -1   7    0.08    0.14
  -2   1  -7   23.65    1.33
  -2   1  -7   23.77    1.33
   2  -1   7   24.90    1.36
   2  -1   7   25.90    1.35
  -3   1  -7    1.43    0.22
  -3   1  -7    1.29    0.18
   3  -1   7    0.92    0.23
   3  -1   7    1.11    0.23
   3  -1   7    0.99    0.28
  -4   1  -7   35.49    2.05
  -4   1  -7   42.18    2.08
   4  -1   7   40.22    2.09
   4  -1   7   35.84    2.13
  -5   1  -7    7.76    0.56
   5  -1   7    6.53    0.69
   5  -1   7    7.01    0.59
  -6   1  -7    5.21    0.46
   6  -1   7    4.83    0.59
   6  -1   7    5.75    0.53
  -7   1  -7    6.19    0.55
   7  -1   7    6.59    0.73
  -8   1  -7   -0.01    0.53
   8  -1   7    0.52    0.57
  10   0  -7    1.38    0.61
 -10   0   7    0.81    0.51
 -10   0   7   -0.06    0.96
   9   0  -7    1.94    0.49
  -9   0   7    2.00    0.46
  -9   0   7    1.00    0.65
   8   0  -7    0.36    0.37
  -8   0   7    0.33    0.35
   7   0  -7    8.94    0.71
   7   0  -7    9.52    0.61
  -7   0   7    8.01    0.69
   6   0  -7    2.85    0.28
   6   0  -7    3.03    0.36
  -6   0   7    2.97    0.35
   5   0  -7   30.29    1.67
   5   0  -7   29.65    1.69
  -5   0   7   30.39    1.63
  -5   0   7   30.32    1.69
  -5   0   7   33.03    1.70
   4   0  -7   10.37    0.65
   4   0  -7   10.26    0.65
  -4   0   7   11.41    0.66
  -4   0   7   10.55    0.60
  -4   0   7   10.72    0.66
   3   0  -7   30.54    1.81
   3   0  -7   33.51    1.83
   3   0  -7   35.10    1.79
  -3   0   7   34.69    1.86
  -3   0   7   34.56    1.83
  -3   0   7   35.06    1.79
   2   0  -7   87.90    4.97
   2   0  -7   97.43    4.96
   2   0  -7   95.34    4.99
  -2   0   7   97.57    4.99
  -2   0   7  100.87    4.96
  -2   0   7   90.95    4.96
   1   0  -7    1.95    0.23
   1   0  -7    2.33    0.22
  -1   0   7    3.65    0.28
  -1   0   7    3.70    0.35
  -1   0   7    3.12    0.25
   0   0  -7  180.57    9.69
   0   0  -7  186.95    9.72
   0   0  -7  182.32    9.70
   0   0   7  190.63    9.69
   0   0   7  193.98    9.73
   0   0   7  184.02    9.70
  -1   0  -7   17.00    0.95
  -1   0  -7   17.60    0.97
  -1   0  -7   15.77    0.92
   1   0   7   19.88    0.95
   1   0   7   15.64    1.01
   1   0   7   17.42    0.97
  -2   0  -7   57.15    3.02
  -2   0  -7   57.88    3.03
   2   0   7   55.08    3.07
   2   0   7   59.12    3.04
  -3   0  -7    2.39    0.25
  -3   0  -7    2.60    0.25
   3   0   7    2.86    0.31
   3   0   7    2.14    0.33
  -4   0  -7   11.78    0.72
  -4   0  -7   11.69    0.73
   4   0   7   11.25    0.81
   4   0   7   12.20    0.77
  -5   0  -7    3.58    0.35
  -5   0  -7    3.87    0.33
   5   0   7    3.27    0.39
   5   0   7    2.96    0.43
  -6   0  -7    5.64    0.49
   6   0   7    7.24    0.56
   6   0   7    6.10    0.64
  -7   0  -7    1.96    0.38
   7   0   7    2.29    0.54
   7   0   7    2.71    0.45
   8   0   7    6.13    0.77
  10  -1  -7   -0.50    0.53
 -10   1   7    0.18    0.50
   9  -1  -7   -0.09    0.41
   9  -1  -7    0.28    0.41
  -9   1   7    0.43    0.44
   8  -1  -7    1.69    0.42
   8  -1  -7    1.54    0.39
  -8   1   7    1.74    0.41
   7  -1  -7   11.21    0.86
   7  -1  -7   11.48    0.72
   7  -1  -7   11.23    0.81
  -7   1   7   11.42    0.82
   6  -1  -7    0.14    0.23
   6  -1  -7    0.09    0.26
  -6   1   7    0.07    0.16
  -6   1   7    0.07    0.25
   5  -1  -7    1.18    0.22
   5  -1  -7    0.97    0.18
   5  -1  -7    0.88    0.25
  -5   1   7    1.02    0.17
  -5   1   7    0.92    0.24
   4  -1  -7    0.41    0.16
   4  -1  -7    0.22    0.15
   4  -1  -7    0.07    0.19
  -4   1   7    0.36    0.13
  -4   1   7    0.18    0.19
   3  -1  -7   35.58    1.87
   3  -1  -7   35.75    1.83
   3  -1  -7   32.44    1.87
  -3   1   7   34.73    1.87
  -3   1   7   34.89    1.84
   2  -1  -7   14.16    0.84
   2  -1  -7   13.86    0.83
   2  -1  -7   15.01    0.79
  -2   1   7   14.96    0.84
  -2   1   7   15.16    0.80
  -2   1   7   14.12    0.81
   1  -1  -7    3.59    0.29
   1  -1  -7    3.91    0.33
  -1   1   7    3.74    0.29
  -1   1   7    4.07    0.26
  -1   1   7    3.69    0.36
   0  -1  -7   33.54    1.87
   0  -1  -7   35.23    1.89
   0   1   7   34.42    1.87
   0   1   7   37.34    1.91
   0   1   7   35.70    1.88
  -1  -1  -7   10.35    0.59
  -1  -1  -7    9.10    0.56
   1   1   7    9.99    0.58
   1   1   7    9.81    0.57
   1   1   7    8.32    0.64
  -2  -1  -7   67.37    4.04
  -2  -1  -7   79.37    4.06
   2   1   7   79.46    4.06
   2   1   7   80.26    4.07
   2   1   7   80.41    4.09
  -3  -1  -7    2.75    0.28
   3   1   7    3.16    0.35
   3   1   7    3.73    0.33
   3   1   7    2.89    0.29
  -4  -1  -7   18.59    1.10
   4   1   7   20.44    1.18
   4   1   7   18.83    1.14
  -5  -1  -7    1.26    0.26
  -5  -1  -7    1.18    0.26
   5   1   7    1.17    0.31
   5   1   7    0.97    0.35
  -6  -1  -7    2.97    0.38
   6   1   7    4.31    0.52
   6   1   7    3.88    0.45
  -7  -1  -7    3.99    0.44
   7   1   7    4.19    0.50
   8   1   7    1.87    0.44
  10  -2  -7   -0.13    0.86
  10  -2  -7   -0.14    0.52
   9  -2  -7   -0.22    0.42
   9  -2  -7   -0.53    0.47
  -9   2   7    0.03    0.43
   8  -2  -7    0.07    0.36
   8  -2  -7   -0.52    0.42
  -8   2   7    0.17    0.38
   7  -2  -7    0.80    0.31
   7  -2  -7    0.53    0.36
  -7   2   7    0.41    0.32
  -7   2   7    0.87    0.24
   6  -2  -7    1.52    0.20
   6  -2  -7    1.27    0.27
   6  -2  -7    0.66    0.29
  -6   2   7    1.43    0.30
  -6   2   7    1.59    0.23
   5  -2  -7    4.96    0.48
   5  -2  -7    6.75    0.47
   5  -2  -7    6.07    0.47
  -5   2   7    5.54    0.49
  -5   2   7    5.81    0.42
   4  -2  -7   11.57    0.63
   4  -2  -7   10.02    0.62
   4  -2  -7    8.80    0.69
  -4   2   7    9.87    0.65
  -4   2   7   10.67    0.61
   3  -2  -7    3.49    0.32
   3  -2  -7    3.51    0.28
   3  -2  -7    3.45    0.31
  -3   2   7    3.28    0.33
  -3   2   7    3.86    0.29
  -3   2   7    3.05    0.24
   2  -2  -7   31.34    1.65
   2  -2  -7   31.86    1.69
   2  -2  -7   29.57    1.69
  -2   2   7   30.84    1.67
  -2   2   7   33.25    1.70
  -2   2   7   31.03    1.66
   1  -2  -7    1.18    0.19
   1  -2  -7    0.95    0.18
  -1   2   7    1.00    0.17
  -1   2   7    0.73    0.21
  -1   2   7    1.23    0.15
   0  -2  -7   10.17    0.60
   0  -2  -7    9.09    0.59
   0   2   7    9.95    0.57
   0   2   7    9.13    0.57
  -1  -2  -7    5.90    0.41
  -1  -2  -7    5.67    0.41
   1   2   7    4.54    0.46
   1   2   7    5.66    0.39
   1   2   7    5.56    0.39
  -2  -2  -7   17.44    1.03
  -2  -2  -7   18.60    1.05
   2   2   7   19.25    1.08
   2   2   7   18.55    1.03
   2   2   7   18.44    1.04
  -3  -2  -7   53.18    2.83
  -3  -2  -7   49.17    2.85
   3   2   7   55.78    2.84
   3   2   7   56.08    2.85
   3   2   7   51.45    2.82
  -4  -2  -7    8.84    0.57
   4   2   7    7.18    0.54
   4   2   7    6.67    0.62
   4   2   7    8.73    0.67
  -5  -2  -7    1.96    0.30
   5   2   7    2.10    0.29
   5   2   7    1.89    0.36
  -6  -2  -7    2.13    0.35
   6   2   7    3.11    0.43
  -7  -2  -7    0.43    0.34
   7   2   7    0.37    0.38
  -8  -2  -7    1.44    0.42
   9  -3  -7    1.78    0.57
   9  -3  -7    1.35    0.46
  -9   3   7    1.40    0.49
   8  -3  -7    0.59    0.38
   8  -3  -7   -0.07    0.44
  -8   3   7   -0.03    0.38
  -8   3   7    0.29    0.38
   7  -3  -7    0.14    0.29
   7  -3  -7   -0.35    0.35
  -7   3   7   -0.19    0.25
  -7   3   7   -0.03    0.34
   6  -3  -7    7.66    0.73
   6  -3  -7    8.07    0.64
  -6   3   7    8.54    0.61
  -6   3   7    9.45    0.68
   5  -3  -7   12.63    0.81
   5  -3  -7   13.05    0.77
   5  -3  -7   13.10    0.90
  -5   3   7   13.93    0.80
  -5   3   7   13.63    0.85
   4  -3  -7   78.21    4.24
   4  -3  -7   84.88    4.30
  -4   3   7   79.99    4.24
  -4   3   7   80.33    4.26
   3  -3  -7    0.32    0.16
   3  -3  -7   -0.09    0.18
   3  -3  -7    0.04    0.13
  -3   3   7    0.09    0.16
  -3   3   7   -0.04    0.12
  -3   3   7    0.08    0.19
   2  -3  -7   34.62    1.86
   2  -3  -7   36.28    1.84
  -2   3   7   33.21    1.83
  -2   3   7   32.52    1.81
   1  -3  -7    1.44    0.23
   1  -3  -7    1.73    0.21
  -1   3   7    1.55    0.24
  -1   3   7    1.26    0.19
  -1   3   7    1.45    0.18
   0  -3  -7   24.02    1.38
   0  -3  -7   25.86    1.37
   0   3   7   25.64    1.38
   0   3   7   25.09    1.35
   0   3   7   23.94    1.35
  -1  -3  -7   21.26    1.24
  -1  -3  -7   22.93    1.23
   1   3   7   20.55    1.25
   1   3   7   22.78    1.22
   1   3   7   23.23    1.22
  -2  -3  -7    9.48    0.64
  -2  -3  -7    9.95    0.62
   2   3   7    9.73    0.61
   2   3   7    9.07    0.60
  -3  -3  -7    5.87    0.51
  -3  -3  -7    6.09    0.50
   3   3   7    6.33    0.49
   3   3   7    5.86    0.46
  -4  -3  -7   10.60    0.69
   4   3   7   10.12    0.71
   4   3   7    9.72    0.67
  -5  -3  -7   12.65    0.80
   5   3   7   10.58    0.82
   5   3   7   10.64    0.76
  -6  -3  -7    3.81    0.42
   6   3   7    4.07    0.48
   6   3   7    3.52    0.40
  -7  -3  -7    2.11    0.41
   7   3   7    1.97    0.36
   7   3   7    2.54    0.46
   9  -4  -7   -0.20    0.43
   9  -4  -7   -0.72    0.49
  -9   4   7    0.54    0.47
   8  -4  -7    0.05    0.46
   8  -4  -7   -0.33    0.36
  -8   4   7    0.05    0.44
  -8   4   7    0.62    0.35
   7  -4  -7    1.51    0.46
   7  -4  -7    2.34    0.39
  -7   4   7    2.00    0.42
  -7   4   7    2.32    0.37
   6  -4  -7    1.01    0.28
   6  -4  -7    1.06    0.39
  -6   4   7    1.04    0.30
  -6   4   7    0.81    0.34
   5  -4  -7    3.66    0.43
   5  -4  -7    4.30    0.36
  -5   4   7    4.22    0.42
  -5   4   7    4.14    0.37
   4  -4  -7    8.99    0.56
   4  -4  -7    9.75    0.66
   4  -4  -7    8.33    0.57
  -4   4   7    8.56    0.62
  -4   4   7    8.74    0.59
   3  -4  -7   11.60    0.75
  -3   4   7   11.34    0.69
  -3   4   7   10.70    0.66
   2  -4  -7   45.13    2.36
   2  -4  -7   43.95    2.39
  -2   4   7   43.18    2.35
  -2   4   7   45.08    2.36
  -2   4   7   43.22    2.34
   1  -4  -7   -0.01    0.18
   1  -4  -7    0.07    0.23
  -1   4   7   -0.28    0.16
  -1   4   7    0.07    0.18
  -1   4   7    0.13    0.21
   0  -4  -7   64.81    3.36
   0  -4  -7   64.28    3.39
   0   4   7   62.11    3.34
   0   4   7   62.28    3.35
  -1  -4  -7    2.81    0.28
  -1  -4  -7    2.58    0.33
   1   4   7    2.67    0.27
   1   4   7    2.75    0.28
  -2  -4  -7    7.59    0.56
  -2  -4  -7    7.66    0.60
   2   4   7    7.70    0.54
   2   4   7    7.30    0.53
  -3  -4  -7    0.25    0.23
  -3  -4  -7    0.19    0.29
   3   4   7    0.24    0.20
   3   4   7    1.25    0.27
  -4  -4  -7    4.70    0.41
  -4  -4  -7    4.45    0.46
   4   4   7    3.70    0.36
   4   4   7    4.05    0.40
  -5  -4  -7    7.48    0.66
   5   4   7    7.45    0.62
   5   4   7    8.23    0.62
  -6  -4  -7    0.22    0.34
   6   4   7    0.39    0.31
   6   4   7    0.27    0.37
  -7  -4  -7    3.34    0.49
   7   4   7    2.52    0.65
   9  -5  -7    0.29    0.45
   9  -5  -7   -0.02    0.65
  -9   5   7    0.72    0.44
  -9   5   7   -0.02    0.56
   8  -5  -7    0.65    0.41
   8  -5  -7   -0.13    0.50
  -8   5   7    0.97    0.48
  -8   5   7    1.61    0.44
   7  -5  -7   -0.32    0.41
   7  -5  -7   -0.15    0.32
  -7   5   7   -0.15    0.36
  -7   5   7    0.21    0.40
   6  -5  -7    0.29    0.40
   6  -5  -7    0.52    0.27
  -6   5   7    0.58    0.34
  -6   5   7    0.61    0.36
   5  -5  -7    3.98    0.40
   5  -5  -7    6.95    0.56
  -5   5   7    4.44    0.44
  -5   5   7    5.57    0.48
   4  -5  -7    4.58    0.47
  -4   5   7    5.70    0.44
   3  -5  -7   -0.03    0.29
   3  -5  -7    0.13    0.31
  -3   5   7    0.47    0.25
  -3   5   7    0.06    0.23
   2  -5  -7   12.48    0.84
   2  -5  -7   12.16    0.75
  -2   5   7   11.76    0.76
  -2   5   7   11.18    0.71
   1  -5  -7    0.33    0.21
   1  -5  -7    0.12    0.28
  -1   5   7    0.02    0.23
  -1   5   7    0.40    0.20
   0  -5  -7    7.18    0.66
   0  -5  -7    6.79    0.51
   0   5   7    5.84    0.51
   0   5   7    6.30    0.50
  -1  -5  -7    4.34    0.45
  -1  -5  -7    4.31    0.37
   1   5   7    4.58    0.42
   1   5   7    4.33    0.39
  -2  -5  -7    6.42    0.56
  -2  -5  -7    6.65    0.57
   2   5   7    6.43    0.52
   2   5   7    6.84    0.54
  -3  -5  -7    0.55    0.27
  -3  -5  -7    0.75    0.36
   3   5   7    0.99    0.27
   3   5   7    0.79    0.28
  -4  -5  -7    5.89    0.52
  -4  -5  -7    6.21    0.60
   4   5   7    5.95    0.55
   4   5   7    6.37    0.51
  -5  -5  -7    3.25    0.42
   5   5   7    2.75    0.42
   5   5   7    2.88    0.37
  -6  -5  -7    2.10    0.42
   6   5   7    1.85    0.37
   8  -6  -7    0.48    0.51
   8  -6  -7    0.13    0.41
  -8   6   7    0.36    0.46
  -8   6   7   -0.01    0.50
   7  -6  -7   -0.66    0.47
   7  -6  -7    0.18    0.36
  -7   6   7    0.03    0.40
  -7   6   7   -0.44    0.42
   6  -6  -7    2.54    0.47
  -6   6   7    2.36    0.43
  -6   6   7    1.62    0.43
   5  -6  -7    0.99    0.40
  -5   6   7    1.36    0.37
   4  -6  -7    5.38    0.54
  -4   6   7    4.24    0.45
   3  -6  -7    1.29    0.41
  -3   6   7    1.26    0.32
   2  -6  -7   18.98    1.14
   2  -6  -7   17.98    1.03
  -2   6   7   15.26    1.00
  -2   6   7   17.58    1.05
   1  -6  -7    4.51    0.39
   1  -6  -7    4.02    0.50
  -1   6   7    4.45    0.42
  -1   6   7    4.17    0.38
   0  -6  -7    6.38    0.60
   0  -6  -7    6.72    0.55
   0   6   7    6.54    0.52
   0   6   7    6.01    0.53
  -1  -6  -7    9.65    0.85
  -1  -6  -7   11.00    0.74
   1   6   7   10.82    0.73
   1   6   7    9.56    0.73
  -2  -6  -7    6.05    0.57
  -2  -6  -7    6.37    0.60
   2   6   7    5.71    0.54
   2   6   7    5.43    0.49
  -3  -6  -7    6.35    0.53
  -3  -6  -7    6.87    0.64
   3   6   7    5.49    0.50
   3   6   7    5.85    0.56
  -4  -6  -7    0.18    0.32
  -4  -6  -7    0.38    0.49
   4   6   7    0.37    0.34
   4   6   7    0.71    0.31
  -5  -6  -7   -0.04    0.37
   5   6   7    0.05    0.31
   7  -7  -7    0.97    0.52
  -7   7   7    0.38    0.45
   6  -7  -7    1.75    0.53
  -6   7   7    1.65    0.48
   5  -7  -7    3.82    0.54
  -5   7   7    2.58    0.48
   4  -7  -7    8.98    0.75
  -4   7   7    7.96    0.74
   3  -7  -7    0.99    0.46
  -3   7   7    0.65    0.37
   2  -7  -7    3.46    0.53
  -2   7   7    2.69    0.41
  -2   7   7    2.13    0.33
   1  -7  -7    1.19    0.30
   1  -7  -7    0.79    0.47
  -1   7   7    0.59    0.35
  -1   7   7    1.12    0.31
   0  -7  -7   12.76    1.02
   0  -7  -7   11.68    0.85
   0   7   7   11.82    0.84
   0   7   7   12.36    0.90
  -1  -7  -7    4.13    0.44
  -1  -7  -7    5.04    0.60
   1   7   7    4.48    0.44
   1   7   7    3.91    0.47
  -2  -7  -7    9.86    0.83
  -2  -7  -7   10.25    0.79
   2   7   7    8.90    0.77
   2   7   7    8.12    0.71
  -3  -7  -7    1.25    0.54
  -3  -7  -7    0.85    0.37
   3   7   7    1.02    0.34
   3   7   7    1.49    0.37
  -4  -7  -7    1.55    0.42
  -4  -7  -7    2.13    0.60
   4   7   7    1.33    0.34
  -5  -7  -7    1.65    0.63
   6  -8  -7   -0.16    0.58
  -6   8   7    0.24    0.50
   5  -8  -7    0.37    0.50
  -5   8   7    0.57    0.47
   4  -8  -7   -0.41    0.51
  -4   8   7    0.22    0.44
   3  -8  -7    0.41    0.53
  -3   8   7    0.22    0.41
   2  -8  -7    4.11    0.63
  -2   8   7    2.80    0.47
  -2   8   7    2.87    0.40
   1  -8  -7    0.42    0.54
   1  -8  -7   -0.04    0.32
  -1   8   7    0.43    0.39
  -1   8   7    0.06    0.33
   0  -8  -7    8.48    0.81
   0  -8  -7    7.68    0.70
   0   8   7    6.90    0.60
   0   8   7    7.97    0.67
  -1  -8  -7    0.26    0.36
  -1  -8  -7    0.48    0.56
   1   8   7    0.04    0.33
   1   8   7    0.32    0.39
  -2  -8  -7    2.50    0.45
  -2  -8  -7    2.36    0.63
   2   8   7    2.49    0.46
   2   8   7    2.18    0.39
  -3  -8  -7    1.95    0.64
   3  -9  -7    0.61    0.61
  -3   9   7    1.12    0.51
   2  -9  -7    3.20    0.66
  -2   9   7    2.95    0.55
   1  -9  -7    0.00    0.60
  -1   9   7   -0.16    0.44
  -1   9   7   -0.20    0.37
   0  -9  -7    0.18    0.40
   0  -9  -7    1.03    0.63
   0   9   7   -0.17    0.39
   0   9   7    0.36    0.49
  -1  -9  -7    0.61    0.44
   1   9   7    0.80    0.51
   1   9   7    1.01    0.58
   4   9  -8    0.02    0.47
   3   9  -8    0.76    0.49
   3   9  -8    0.05    0.41
   2   9  -8   -0.36    0.48
  -2  -9   8   -0.11    0.81
   1   9  -8    0.94    0.53
  -1  -9   8    2.77    0.76
   0   9  -8   -0.83    0.51
   0  -9   8    0.46    0.70
  -1   9  -8    1.06    0.55
   1  -9   8    1.41    0.68
   5   8  -8    0.61    0.43
  -5  -8   8    1.22    1.15
  -5  -8   8    1.08    0.49
   4   8  -8    1.26    0.43
   4   8  -8    0.79    0.41
  -4  -8   8    1.14    0.93
   3   8  -8    2.19    0.47
   3   8  -8    2.26    0.43
  -3  -8   8    2.54    0.86
   2   8  -8    0.62    0.35
   2   8  -8    1.11    0.42
  -2  -8   8    1.68    0.74
   1   8  -8   -0.60    0.40
  -1  -8   8    0.14    0.64
   0   8  -8    1.96    0.50
   0  -8   8    2.74    0.63
  -1   8  -8   -0.56    0.45
   1  -8   8   -0.47    0.56
  -2   8  -8    1.21    0.51
   2  -8   8    1.90    0.58
  -3   8  -8    0.71    0.50
   3  -8   8    0.17    0.54
  -4   8  -8    1.18    0.55
  -4   8  -8    1.06    0.49
   4  -8   8    0.51    0.54
   4  -8   8    0.22    0.55
   5  -8   8   -0.50    0.98
   6   7  -8    0.40    0.40
  -6  -7   8    1.51    1.00
  -6  -7   8    0.19    0.49
   5   7  -8    2.98    0.46
  -5  -7   8    2.96    0.51
  -5  -7   8    1.71    0.92
   4   7  -8    0.19    0.35
   4   7  -8    0.26    0.33
  -4  -7   8    0.47    0.37
  -4  -7   8   -0.34    0.77
   3   7  -8    0.05    0.32
   3   7  -8   -0.40    0.32
  -3  -7   8    0.26    0.71
   2   7  -8    1.52    0.34
   2   7  -8    1.90    0.39
  -2  -7   8    1.75    0.67
   1   7  -8    2.30    0.42
   1   7  -8    1.85    0.33
  -1  -7   8    2.02    0.60
   0   7  -8   10.87    0.91
   0  -7   8   12.38    1.06
  -1   7  -8   -0.41    0.38
   1  -7   8    0.09    0.38
   1  -7   8   -0.01    0.48
  -2   7  -8   11.08    0.91
   2  -7   8   10.45    0.92
   2  -7   8   11.31    1.00
  -3   7  -8    0.63    0.44
  -3   7  -8    0.06    0.38
   3  -7   8    0.29    0.47
   3  -7   8    0.84    0.49
  -4   7  -8    0.78    0.47
  -4   7  -8    1.43    0.46
   4  -7   8    0.48    0.49
   4  -7   8    0.88    0.53
  -5   7  -8    2.08    0.54
  -5   7  -8    3.50    0.58
   5  -7   8    1.70    0.53
   5  -7   8    1.94    0.57
   7   6  -8    3.23    0.50
   7   6  -8    4.29    0.60
  -7  -6   8    3.73    0.95
   6   6  -8    0.44    0.38
  -6  -6   8    0.51    0.81
   5   6  -8    3.85    0.48
  -5  -6   8    4.97    0.84
   4   6  -8    1.47    0.34
   4   6  -8    0.94    0.29
  -4  -6   8    1.32    0.37
  -4  -6   8    0.67    0.69
   3   6  -8    0.32    0.28
   3   6  -8    0.49    0.28
  -3  -6   8    0.36    0.60
   2   6  -8    8.35    0.68
   2   6  -8    9.53    0.69
  -2  -6   8    7.62    0.90
  -2  -6   8    9.95    0.84
   1   6  -8    1.02    0.27
   1   6  -8    1.72    0.33
  -1  -6   8    1.61    0.52
  -1  -6   8    1.71    0.40
   0   6  -8    7.75    0.66
   0   6  -8    5.92    0.58
   0  -6   8    8.14    0.71
   0  -6   8    7.02    0.64
  -1   6  -8    0.27    0.31
   1  -6   8    0.55    0.42
   1  -6   8    0.41    0.35
  -2   6  -8    3.03    0.43
  -2   6  -8    3.20    0.39
   2  -6   8    2.42    0.45
   2  -6   8    3.34    0.48
  -3   6  -8   -0.27    0.37
  -3   6  -8   -0.34    0.35
   3  -6   8   -0.25    0.42
   3  -6   8   -0.17    0.39
  -4   6  -8    5.65    0.57
  -4   6  -8    5.14    0.56
   4  -6   8    5.20    0.65
   4  -6   8    4.68    0.59
  -5   6  -8    0.69    0.47
  -5   6  -8    0.30    0.42
   5  -6   8    0.64    0.53
   5  -6   8   -0.20    0.42
  -6   6  -8    2.09    0.58
  -6   6  -8    2.75    0.53
   6  -6   8    1.73    0.52
   6  -6   8    1.58    0.61
   8   5  -8    0.41    0.37
   8   5  -8    0.84    0.49
  -8  -5   8    0.73    0.78
   7   5  -8    0.75    0.43
   7   5  -8    0.98    0.39
  -7  -5   8    1.48    0.75
   6   5  -8    0.00    0.31
   6   5  -8    0.30    0.38
  -6  -5   8   -0.20    0.64
   5   5  -8    0.59    0.33
   5   5  -8    0.59    0.30
  -5  -5   8    0.85    0.61
   4   5  -8    1.39    0.33
   4   5  -8    1.77    0.31
  -4  -5   8    1.68    0.58
  -4  -5   8    1.07    0.38
   3   5  -8   13.63    0.85
   3   5  -8   13.19    0.88
  -3  -5   8   14.62    0.95
  -3  -5   8   14.39    1.16
   2   5  -8    2.93    0.33
   2   5  -8    3.41    0.35
  -2  -5   8    3.01    0.44
  -2  -5   8    3.05    0.53
   1   5  -8    1.10    0.24
   1   5  -8    1.00    0.27
  -1  -5   8    0.73    0.36
  -1  -5   8    1.49    0.45
   0   5  -8   15.63    0.92
   0   5  -8   13.53    0.87
   0  -5   8   14.20    0.97
   0  -5   8   15.51    1.02
  -1   5  -8    1.11    0.31
   1  -5   8    1.53    0.38
   1  -5   8    1.69    0.37
  -2   5  -8   10.86    0.70
  -2   5  -8   10.03    0.75
   2  -5   8    9.45    0.84
   2  -5   8    8.86    0.79
  -3   5  -8   11.04    0.77
  -3   5  -8   10.88    0.76
   3  -5   8    8.38    0.83
   3  -5   8    8.74    0.83
  -4   5  -8   18.67    1.07
  -4   5  -8   18.05    1.09
   4  -5   8   14.33    1.19
   4  -5   8   13.59    1.10
  -5   5  -8    0.81    0.46
  -5   5  -8    1.38    0.40
   5  -5   8    0.50    0.49
   5  -5   8    0.50    0.41
  -6   5  -8    0.21    0.50
  -6   5  -8    1.83    0.45
   6  -5   8    0.09    0.46
   6  -5   8   -0.07    0.54
  -7   5  -8    1.62    0.51
   9   4  -8   -0.20    0.50
   8   4  -8   -0.03    0.34
   8   4  -8   -0.12    0.42
  -8  -4   8    0.93    0.63
   7   4  -8    0.37    0.33
   7   4  -8    0.23    0.37
  -7  -4   8    0.40    0.54
   6   4  -8    0.38    0.36
   6   4  -8    0.79    0.30
  -6  -4   8    0.81    0.36
  -6  -4   8    1.08    0.51
   5   4  -8    4.75    0.45
   5   4  -8    5.01    0.44
  -5  -4   8    4.83    0.59
  -5  -4   8    4.06    0.46
   4   4  -8    2.22    0.24
   4   4  -8    2.02    0.30
   4   4  -8    2.20    0.31
  -4  -4   8    1.93    0.37
  -4  -4   8    2.27    0.48
   3   4  -8   10.09    0.66
   3   4  -8    9.78    0.68
  -3  -4   8   10.47    0.75
  -3  -4   8   10.41    0.88
   2   4  -8   11.42    0.72
   2   4  -8   10.24    0.69
   2   4  -8   11.15    0.73
  -2  -4   8   12.51    0.90
  -2  -4   8   11.97    0.78
   1   4  -8    0.92    0.23
   1   4  -8    0.71    0.21
  -1  -4   8    0.78    0.31
  -1  -4   8    0.84    0.38
   0   4  -8   25.95    1.49
   0   4  -8   28.35    1.51
   0  -4   8   27.52    1.55
   0  -4   8   26.12    1.56
  -1   4  -8    7.53    0.56
  -1   4  -8    7.15    0.52
   1  -4   8    7.56    0.64
   1  -4   8    6.12    0.64
  -2   4  -8   42.63    2.26
  -2   4  -8   46.38    2.26
   2  -4   8   39.35    2.26
   2  -4   8   38.04    2.30
  -3   4  -8    0.13    0.29
  -3   4  -8    0.42    0.27
   3  -4   8    0.36    0.36
   3  -4   8   -0.39    0.30
  -4   4  -8    3.07    0.41
  -4   4  -8    2.23    0.36
   4  -4   8    2.28    0.42
   4  -4   8    1.96    0.46
  -5   4  -8    4.70    0.49
  -5   4  -8    5.18    0.55
   5  -4   8    4.74    0.55
   5  -4   8    5.18    0.63
  -6   4  -8    1.14    0.39
  -6   4  -8    0.71    0.48
   6  -4   8   -0.29    0.69
   6  -4   8    0.52    0.52
  -7   4  -8    1.26    0.43
  -7   4  -8    1.01    0.60
   7  -4   8    1.00    0.65
   9   3  -8    2.70    0.42
   9   3  -8    3.59    0.58
  -9  -3   8    4.33    0.78
   8   3  -8    1.90    0.46
   8   3  -8    1.37    0.33
  -8  -3   8    1.40    0.60
  -8  -3   8    1.73    0.44
   7   3  -8    3.64    0.48
   7   3  -8    3.91    0.43
  -7  -3   8    3.85    0.47
  -7  -3   8    4.76    0.59
   6   3  -8    5.75    0.53
   6   3  -8    4.86    0.48
  -6  -3   8    5.16    0.49
  -6  -3   8    5.31    0.56
   5   3  -8    2.01    0.29
   5   3  -8    2.12    0.32
  -5  -3   8    2.78    0.36
  -5  -3   8    2.31    0.41
   4   3  -8    4.08    0.37
   4   3  -8    4.48    0.34
   4   3  -8    4.66    0.38
  -4  -3   8    3.23    0.39
  -4  -3   8    3.87    0.46
   3   3  -8    3.32    0.29
   3   3  -8    3.01    0.26
   3   3  -8    3.03    0.30
  -3  -3   8    2.81    0.41
  -3  -3   8    2.53    0.35
   2   3  -8   13.29    0.77
   2   3  -8   12.28    0.75
   2   3  -8   13.23    0.79
  -2  -3   8   12.97    0.84
  -2  -3   8   13.06    0.89
   1   3  -8    1.24    0.21
   1   3  -8    0.97    0.21
  -1  -3   8    1.43    0.32
  -1  -3   8    1.22    0.35
  -1  -3   8    1.48    0.18
   0   3  -8   11.16    0.67
   0   3  -8   11.35    0.68
   0  -3   8   10.68    0.74
   0  -3   8   10.23    0.65
   0  -3   8   10.43    0.75
  -1   3  -8    0.20    0.17
  -1   3  -8    0.04    0.19
   1  -3   8    0.09    0.18
   1  -3   8   -0.09    0.26
  -2   3  -8   21.99    1.20
  -2   3  -8   21.77    1.22
   2  -3   8   20.55    1.28
   2  -3   8   22.39    1.23
  -3   3  -8    0.03    0.22
   3  -3   8    0.26    0.30
   3  -3   8    0.14    0.26
  -4   3  -8    3.32    0.39
   4  -3   8    3.93    0.50
   4  -3   8    4.98    0.45
  -5   3  -8    6.59    0.59
  -5   3  -8    5.56    0.49
   5  -3   8    5.10    0.64
  -6   3  -8    0.80    0.34
  -6   3  -8    1.10    0.48
   6  -3   8    0.56    0.48
  -7   3  -8    1.67    0.58
  -7   3  -8    1.29    0.40
   7  -3   8    1.39    0.60
 -10  -2   8    0.26    0.54
   9   2  -8    0.46    0.31
   9   2  -8    0.85    0.48
  -9  -2   8    1.38    0.47
  -9  -2   8    0.48    0.64
   8   2  -8    0.39    0.41
   8   2  -8    0.32    0.27
  -8  -2   8    0.49    0.38
  -8  -2   8    0.14    0.51
   7   2  -8    7.73    0.71
   7   2  -8    6.64    0.63
  -7  -2   8    7.82    0.70
  -7  -2   8    8.86    0.80
   6   2  -8    0.61    0.28
   6   2  -8    0.56    0.24
  -6  -2   8    0.42    0.30
  -6  -2   8    0.57    0.35
   5   2  -8    2.51    0.31
   5   2  -8    2.67    0.30
  -5  -2   8    2.28    0.36
  -5  -2   8    2.68    0.34
   4   2  -8   30.21    1.67
   4   2  -8   28.85    1.65
  -4  -2   8   30.74    1.68
  -4  -2   8   31.47    1.68
   3   2  -8    0.54    0.13
   3   2  -8    0.56    0.19
   3   2  -8    0.39    0.17
  -3  -2   8    0.53    0.25
  -3  -2   8    0.21    0.26
   2   2  -8   27.11    1.47
   2   2  -8   28.83    1.52
  -2  -2   8   26.22    1.46
  -2  -2   8   27.97    1.55
  -2  -2   8   26.97    1.52
   1   2  -8   12.01    0.72
   1   2  -8   11.03    0.66
   1   2  -8   13.73    0.70
  -1  -2   8   10.66    0.80
  -1  -2   8   11.85    0.76
  -1  -2   8   11.67    0.69
   0   2  -8   15.75    0.89
   0   2  -8   15.37    0.91
   0  -2   8   15.76    0.95
   0  -2   8   15.86    0.92
   0  -2   8   15.23    0.88
  -1   2  -8    0.01    0.17
  -1   2  -8    0.14    0.15
   1  -2   8   -0.51    0.24
   1  -2   8    0.00    0.18
   1  -2   8   -0.03    0.19
  -2   2  -8    0.72    0.17
  -2   2  -8    0.96    0.21
   2  -2   8    1.41    0.25
   2  -2   8    1.40    0.31
   2  -2   8    0.83    0.22
  -3   2  -8   55.68    2.96
  -3   2  -8   52.98    2.94
   3  -2   8   56.84    2.98
   3  -2   8   48.37    3.01
   3  -2   8   64.63    3.00
  -4   2  -8   11.56    0.73
   4  -2   8    9.09    0.83
   4  -2   8   11.88    0.78
  -5   2  -8    0.94    0.30
   5  -2   8    0.95    0.45
   5  -2   8    0.33    0.36
  -6   2  -8    0.47    0.32
   6  -2   8    0.10    0.48
  -7   2  -8    0.46    0.52
  -7   2  -8    0.39    0.38
   7  -2   8    0.05    0.54
 -10  -1   8    0.56    0.54
   9   1  -8    0.25    0.47
  -9  -1   8   -0.05    0.43
  -9  -1   8   -0.05    0.59
   8   1  -8    0.04    0.38
   8   1  -8    0.53    0.25
  -8  -1   8    0.19    0.49
  -8  -1   8    0.19    0.38
   7   1  -8    0.93    0.34
   7   1  -8    0.91    0.25
  -7  -1   8    1.36    0.34
  -7  -1   8    0.65    0.41
   6   1  -8    1.46    0.30
   6   1  -8    1.18    0.25
  -6  -1   8    1.78    0.35
  -6  -1   8    1.80    0.32
   5   1  -8    1.16    0.24
   5   1  -8    1.18    0.23
  -5  -1   8    0.94    0.29
  -5  -1   8    0.99    0.26
   4   1  -8   15.62    0.97
   4   1  -8   15.40    0.95
  -4  -1   8   16.91    0.99
  -4  -1   8   18.63    0.97
   3   1  -8    6.77    0.42
   3   1  -8    6.64    0.46
   3   1  -8    6.68    0.50
  -3  -1   8    7.15    0.43
  -3  -1   8    6.72    0.52
   2   1  -8    4.60    0.34
   2   1  -8    5.09    0.41
   2   1  -8    5.43    0.34
  -2  -1   8    4.99    0.43
  -2  -1   8    4.94    0.47
  -2  -1   8    4.57    0.35
   1   1  -8    6.30    0.41
   1   1  -8    6.33    0.45
   1   1  -8    5.43    0.37
  -1  -1   8    6.07    0.50
  -1  -1   8    6.01    0.40
  -1  -1   8    6.20    0.50
   0   1  -8    7.61    0.47
   0   1  -8    7.77    0.51
   0  -1   8    7.35    0.48
   0  -1   8    7.88    0.57
   0  -1   8    6.75    0.49
  -1   1  -8    1.19    0.19
  -1   1  -8    1.51    0.19
   1  -1   8    1.18    0.22
   1  -1   8    1.88    0.21
   1  -1   8    1.41    0.30
  -2   1  -8   78.08    3.96
  -2   1  -8   76.07    3.96
   2  -1   8   69.36    4.00
   2  -1   8   77.14    3.97
  -3   1  -8   16.45    0.93
  -3   1  -8   17.02    0.94
   3  -1   8   14.81    1.05
   3  -1   8   16.12    0.97
  -4   1  -8   14.29    0.84
  -4   1  -8   13.63    0.81
   4  -1   8   11.70    0.97
   4  -1   8   14.65    0.88
  -5   1  -8   19.43    1.12
   5  -1   8   16.82    1.25
   5  -1   8   20.23    1.17
  -6   1  -8    4.21    0.44
   6  -1   8    5.19    0.53
   6  -1   8    3.04    0.58
  -7   1  -8    3.80    0.48
   7  -1   8    4.22    0.66
 -10   0   8    0.72    0.52
   9   0  -8    0.26    0.46
  -9   0   8    0.11    0.44
  -9   0   8   -0.78    0.61
   8   0  -8    0.50    0.39
  -8   0   8   -0.08    0.49
  -8   0   8   -0.19    0.36
   7   0  -8    0.69    0.22
   7   0  -8    0.55    0.31
  -7   0   8    0.38    0.34
  -7   0   8    0.13    0.41
   6   0  -8    1.34    0.24
   6   0  -8    1.66    0.31
  -6   0   8    2.02    0.33
  -6   0   8    1.51    0.35
   5   0  -8   14.97    0.92
   5   0  -8   14.28    0.89
  -5   0   8   15.29    0.92
  -5   0   8   15.94    0.93
   4   0  -8   14.56    0.92
   4   0  -8   13.93    0.90
  -4   0   8   15.72    0.92
  -4   0   8   16.76    0.86
  -4   0   8   16.49    0.96
   3   0  -8    4.66    0.37
   3   0  -8    4.62    0.40
   3   0  -8    4.34    0.31
  -3   0   8    5.38    0.43
  -3   0   8    5.31    0.38
  -3   0   8    4.84    0.34
   2   0  -8   32.85    1.81
   2   0  -8   32.41    1.78
   2   0  -8   35.85    1.78
  -2   0   8   33.93    1.78
  -2   0   8   33.04    1.82
  -2   0   8   32.02    1.78
   1   0  -8    0.43    0.16
   1   0  -8    0.24    0.13
   1   0  -8    0.16    0.11
  -1   0   8    0.06    0.18
  -1   0   8    0.27    0.22
  -1   0   8    0.08    0.14
   0   0  -8   15.61    0.86
   0   0  -8   16.28    0.88
   0   0  -8   16.05    0.90
   0   0   8   16.07    0.95
   0   0   8   15.37    0.89
  -1   0  -8   10.50    0.68
  -1   0  -8   11.61    0.66
   1   0   8   11.83    0.69
   1   0   8   10.88    0.75
  -2   0  -8    9.92    0.58
  -2   0  -8    9.39    0.59
   2   0   8    8.85    0.60
   2   0   8    7.82    0.66
  -3   0  -8   12.33    0.74
  -3   0  -8   12.20    0.73
   3   0   8   12.15    0.79
   3   0   8   11.32    0.85
  -4   0  -8    1.34    0.25
  -4   0  -8    1.57    0.25
   4   0   8    1.07    0.38
   4   0   8    1.27    0.32
  -5   0  -8    9.54    0.70
   5   0   8    9.60    0.86
   5   0   8   10.36    0.76
  -6   0  -8    3.93    0.42
   6   0   8    3.90    0.56
   6   0   8    3.93    0.50
  -7   0  -8    7.03    0.59
   7   0   8    5.37    0.72
   7   0   8    6.89    0.65
  -8   0  -8    4.74    0.67
   8   0   8    3.26    0.90
   9  -1  -8    0.50    0.50
  -9   1   8    1.08    0.46
   8  -1  -8    1.02    0.45
   8  -1  -8    1.18    0.37
  -8   1   8    0.50    0.40
   7  -1  -8    4.87    0.51
   7  -1  -8    4.81    0.45
  -7   1   8    4.15    0.48
   6  -1  -8    0.71    0.30
   6  -1  -8    0.57    0.19
   6  -1  -8    0.47    0.24
  -6   1   8    0.98    0.31
   5  -1  -8    2.34    0.26
   5  -1  -8    1.59    0.28
  -5   1   8    1.87    0.21
  -5   1   8    2.11    0.29
   4  -1  -8    2.03    0.28
   4  -1  -8    2.20    0.25
  -4   1   8    1.77    0.25
  -4   1   8    1.84    0.21
  -4   1   8    1.88    0.26
   3  -1  -8    7.51    0.43
   3  -1  -8    6.45    0.49
   3  -1  -8    7.32    0.51
  -3   1   8    7.28    0.46
  -3   1   8    7.26    0.46
  -3   1   8    7.44    0.52
   2  -1  -8   23.52    1.23
   2  -1  -8   22.49    1.18
   2  -1  -8   20.97    1.21
  -2   1   8   22.88    1.24
  -2   1   8   21.45    1.18
  -2   1   8   20.96    1.20
   1  -1  -8    7.47    0.49
   1  -1  -8    8.04    0.51
  -1   1   8    8.22    0.57
  -1   1   8    7.41    0.48
   0  -1  -8   44.46    2.48
   0  -1  -8   48.78    2.51
   0   1   8   43.80    2.49
   0   1   8   51.23    2.53
  -1  -1  -8    4.02    0.38
  -1  -1  -8    3.13    0.32
   1   1   8    4.91    0.42
   1   1   8    4.24    0.35
  -2  -1  -8    5.79    0.45
   2   1   8    4.99    0.44
   2   1   8    5.78    0.50
  -3  -1  -8    3.44    0.31
  -3  -1  -8    2.88    0.29
   3   1   8    3.66    0.41
   3   1   8    3.00    0.35
  -4  -1  -8   12.87    0.81
  -4  -1  -8   13.94    0.81
   4   1   8   13.11    0.88
   4   1   8   12.31    0.92
  -5  -1  -8    3.92    0.38
  -5  -1  -8    3.83    0.39
   5   1   8    4.38    0.48
   5   1   8    4.13    0.50
  -6  -1  -8   -0.17    0.29
   6   1   8   -0.16    0.36
   6   1   8    0.25    0.42
  -7  -1  -8    2.81    0.42
   7   1   8    2.53    0.48
  -8  -1  -8    2.75    0.71
   9  -2  -8    1.18    0.44
   9  -2  -8   -0.16    0.53
  -9   2   8    0.19    0.44
   8  -2  -8   -0.35    0.45
   8  -2  -8    0.07    0.36
  -8   2   8    0.04    0.37
   7  -2  -8    1.10    0.42
   7  -2  -8    2.27    0.36
  -7   2   8    1.94    0.41
   6  -2  -8    5.24    0.43
   6  -2  -8    4.43    0.41
   6  -2  -8    4.52    0.49
  -6   2   8    5.27    0.54
  -6   2   8    4.68    0.43
   5  -2  -8    1.14    0.23
   5  -2  -8    0.84    0.31
  -5   2   8    1.18    0.21
  -5   2   8    1.27    0.29
   4  -2  -8    5.38    0.44
   4  -2  -8    3.90    0.38
   4  -2  -8    4.83    0.40
  -4   2   8    4.92    0.38
  -4   2   8    4.57    0.44
   3  -2  -8    7.84    0.59
   3  -2  -8    8.35    0.56
   3  -2  -8    8.33    0.51
  -3   2   8    8.48    0.54
  -3   2   8    8.68    0.59
   2  -2  -8   31.15    1.78
   2  -2  -8   35.44    1.78
  -2   2   8   30.60    1.75
  -2   2   8   34.51    1.79
  -2   2   8   32.76    1.76
   1  -2  -8    7.56    0.53
   1  -2  -8    7.91    0.53
  -1   2   8    8.90    0.58
  -1   2   8    7.45    0.50
  -1   2   8    7.47    0.48
   0  -2  -8   18.88    1.09
   0  -2  -8   20.38    1.11
   0   2   8   19.91    1.08
   0   2   8   19.05    1.09
  -1  -2  -8   13.79    0.80
  -1  -2  -8   13.03    0.78
   1   2   8   12.84    0.78
   1   2   8   13.76    0.78
  -2  -2  -8   40.28    2.04
   2   2   8   37.36    2.02
   2   2   8   37.97    2.03
   2   2   8   35.11    2.06
  -3  -2  -8   24.49    1.32
   3   2   8   23.13    1.36
   3   2   8   22.22    1.30
   3   2   8   23.96    1.32
  -4  -2  -8    5.17    0.47
   4   2   8    4.55    0.44
   4   2   8    4.58    0.57
   4   2   8    4.32    0.38
  -5  -2  -8    3.43    0.39
   5   2   8    3.90    0.45
  -6  -2  -8    0.28    0.32
  -6  -2  -8    0.17    0.31
   6   2   8    0.54    0.38
  -7  -2  -8    0.92    0.38
   7   2   8    1.09    0.41
   9  -3  -8    0.00    0.44
   9  -3  -8    0.32    0.57
  -9   3   8    0.61    0.48
   8  -3  -8    0.83    0.51
   8  -3  -8    1.08    0.39
  -8   3   8    0.95    0.43
   7  -3  -8    0.51    0.43
   7  -3  -8    1.17    0.33
  -7   3   8    1.14    0.39
  -7   3   8    1.14    0.30
   6  -3  -8   10.10    0.88
   6  -3  -8   11.33    0.77
  -6   3   8   11.87    0.75
  -6   3   8   11.81    0.84
   5  -3  -8   10.60    0.80
   5  -3  -8   10.47    0.68
   5  -3  -8    9.68    0.65
  -5   3   8   11.06    0.73
  -5   3   8   10.47    0.66
   4  -3  -8    7.04    0.59
   4  -3  -8    6.81    0.50
   4  -3  -8    7.67    0.50
  -4   3   8    7.16    0.55
  -4   3   8    6.76    0.50
   3  -3  -8    1.78    0.24
   3  -3  -8    1.56    0.26
  -3   3   8    1.69    0.27
  -3   3   8    1.91    0.24
   2  -3  -8    3.60    0.32
   2  -3  -8    4.30    0.39
  -2   3   8    3.83    0.32
  -2   3   8    3.32    0.28
   1  -3  -8   -0.03    0.18
   1  -3  -8    0.11    0.21
  -1   3   8    0.17    0.18
  -1   3   8   -0.07    0.24
  -1   3   8    0.03    0.16
   0  -3  -8    7.60    0.53
   0  -3  -8    6.99    0.55
   0   3   8    7.33    0.51
   0   3   8    8.37    0.57
   0   3   8    6.69    0.52
  -1  -3  -8   12.37    0.81
  -1  -3  -8   13.77    0.80
   1   3   8   12.85    0.84
   1   3   8   12.63    0.78
   1   3   8   13.53    0.78
  -2  -3  -8   83.34    4.69
  -2  -3  -8   91.04    4.70
   2   3   8   91.98    4.69
   2   3   8   90.27    4.69
  -3  -3  -8    5.53    0.49
   3   3   8    5.40    0.49
   3   3   8    5.20    0.46
  -4  -3  -8    1.63    0.30
   4   3   8    1.42    0.33
   4   3   8    1.39    0.27
  -5  -3  -8    6.64    0.60
   5   3   8    5.34    0.53
   5   3   8    5.01    0.46
  -6  -3  -8    0.77    0.33
   6   3   8    0.64    0.31
   6   3   8    0.57    0.39
   7   3   8    6.14    0.63
   9  -4  -8    0.51    0.45
   9  -4  -8    0.13    0.56
  -9   4   8    0.29    0.50
   8  -4  -8    0.13    0.37
   8  -4  -8   -0.24    0.49
  -8   4   8    0.44    0.45
  -8   4   8    0.25    0.36
   7  -4  -8    1.38    0.51
   7  -4  -8    1.77    0.36
  -7   4   8    2.46    0.38
  -7   4   8    1.30    0.43
   6  -4  -8   -0.01    0.25
   6  -4  -8   -0.50    0.39
  -6   4   8    0.19    0.30
  -6   4   8    0.09    0.34
   5  -4  -8   10.30    0.82
   5  -4  -8   12.70    0.90
  -5   4   8   11.81    0.82
  -5   4   8   12.30    0.76
   4  -4  -8   26.73    1.47
  -4   4   8   24.77    1.43
  -4   4   8   24.68    1.41
   3  -4  -8    5.92    0.54
   3  -4  -8    5.86    0.46
  -3   4   8    5.28    0.43
   2  -4  -8   10.73    0.71
   2  -4  -8   10.21    0.65
  -2   4   8    9.92    0.68
  -2   4   8    9.56    0.61
  -2   4   8    9.33    0.64
   1  -4  -8    5.22    0.45
   1  -4  -8    4.86    0.44
  -1   4   8    4.87    0.43
  -1   4   8    5.04    0.51
  -1   4   8    4.63    0.40
   0  -4  -8   20.50    1.22
   0  -4  -8   21.92    1.20
   0   4   8   20.34    1.17
   0   4   8   20.68    1.16
  -1  -4  -8    2.44    0.34
  -1  -4  -8    2.38    0.29
   1   4   8    2.89    0.31
   1   4   8    2.49    0.28
  -2  -4  -8    0.35    0.28
  -2  -4  -8    0.49    0.23
   2   4   8    0.76    0.23
   2   4   8    0.75    0.24
  -3  -4  -8   14.89    0.92
  -3  -4  -8   14.77    0.96
   3   4   8   14.31    0.92
   3   4   8   14.98    0.90
  -4  -4  -8    1.54    0.32
   4   4   8    1.47    0.33
   4   4   8    1.53    0.29
  -5  -4  -8    2.94    0.41
   5   4   8    3.31    0.39
   5   4   8    3.23    0.45
  -6  -4  -8   -0.12    0.37
   6   4   8   -0.17    0.39
   6   4   8    0.53    0.30
   9  -5  -8    0.23    0.46
  -9   5   8    0.42    0.45
   8  -5  -8   -0.35    0.37
   8  -5  -8   -0.42    0.52
  -8   5   8    0.77    0.42
  -8   5   8    0.16    0.47
   7  -5  -8    0.16    0.33
   7  -5  -8   -0.22    0.46
  -7   5   8    0.06    0.43
  -7   5   8    0.22    0.38
   6  -5  -8    1.95    0.48
  -6   5   8    2.15    0.39
  -6   5   8    1.91    0.42
   5  -5  -8    6.56    0.60
  -5   5   8    7.03    0.63
  -5   5   8    6.67    0.65
   4  -5  -8   15.04    0.97
  -4   5   8   13.70    0.90
   3  -5  -8    7.79    0.74
   3  -5  -8    8.43    0.69
  -3   5   8    6.89    0.61
   2  -5  -8    5.70    0.50
   2  -5  -8    5.21    0.49
  -2   5   8    4.28    0.37
  -2   5   8    4.76    0.42
   1  -5  -8    0.27    0.23
   1  -5  -8    0.00    0.31
  -1   5   8   -0.04    0.21
  -1   5   8    0.69    0.27
   0  -5  -8    2.49    0.31
   0  -5  -8    2.93    0.41
   0   5   8    2.88    0.34
   0   5   8    2.50    0.29
  -1  -5  -8    1.89    0.37
  -1  -5  -8    1.87    0.29
   1   5   8    1.61    0.30
   1   5   8    1.93    0.28
  -2  -5  -8    0.66    0.35
  -2  -5  -8    0.31    0.25
   2   5   8    0.57    0.26
   2   5   8    0.25    0.27
  -3  -5  -8   11.05    0.89
  -3  -5  -8   10.46    0.78
   3   5   8   10.86    0.74
   3   5   8   10.66    0.77
  -4  -5  -8    3.44    0.42
   4   5   8    3.72    0.39
   4   5   8    4.80    0.45
  -5  -5  -8   11.06    0.83
   5   5   8    9.31    0.75
   5   5   8   10.07    0.80
   8  -6  -8    0.05    0.71
  -8   6   8   -0.10    0.53
  -8   6   8    0.18    0.47
   7  -6  -8    0.54    0.51
  -7   6   8    0.33    0.42
  -7   6   8    0.83    0.48
   6  -6  -8    4.87    0.59
  -6   6   8    4.44    0.54
  -6   6   8    5.42    0.54
   5  -6  -8    0.34    0.41
  -5   6   8    0.37    0.35
   4  -6  -8    6.94    0.61
  -4   6   8    6.01    0.53
   3  -6  -8    0.17    0.38
  -3   6   8    0.08    0.32
   2  -6  -8   11.04    0.86
   2  -6  -8   11.08    0.74
  -2   6   8    9.44    0.70
  -2   6   8   10.91    0.75
   1  -6  -8    6.97    0.61
   1  -6  -8    7.89    0.66
  -1   6   8    6.83    0.62
  -1   6   8    6.53    0.55
   0  -6  -8    0.41    0.28
   0  -6  -8    0.63    0.39
   0   6   8    0.75    0.28
   0   6   8    0.39    0.32
  -1  -6  -8   14.47    0.90
  -1  -6  -8   14.39    1.06
   1   6   8   13.72    0.89
   1   6   8   13.15    0.91
  -2  -6  -8    4.97    0.48
  -2  -6  -8    5.64    0.59
   2   6   8    4.88    0.45
   2   6   8    6.18    0.50
  -3  -6  -8    1.80    0.50
  -3  -6  -8    1.50    0.34
   3   6   8    0.89    0.31
   3   6   8    1.57    0.36
  -4  -6  -8    0.19    0.35
   4   6   8   -0.09    0.34
   4   6   8    0.03    0.30
   7  -7  -8    1.11    0.76
  -7   7   8    0.55    0.47
   6  -7  -8    1.36    0.54
  -6   7   8    0.95    0.47
   5  -7  -8    1.42    0.46
  -5   7   8    0.70    0.43
   4  -7  -8    1.32    0.50
  -4   7   8    0.95    0.42
   3  -7  -8    1.14    0.51
  -3   7   8    1.46    0.41
   2  -7  -8    3.71    0.40
   2  -7  -8    3.73    0.56
  -2   7   8    3.02    0.43
  -2   7   8    2.73    0.36
   1  -7  -8    7.68    0.74
   1  -7  -8    7.90    0.68
  -1   7   8    7.10    0.63
  -1   7   8    7.97    0.71
   0  -7  -8    5.07    0.63
   0  -7  -8    4.83    0.47
   0   7   8    5.20    0.47
   0   7   8    4.65    0.51
  -1  -7  -8    1.59    0.56
  -1  -7  -8    2.48    0.38
   1   7   8    2.59    0.42
   1   7   8    2.20    0.38
  -2  -7  -8    0.23    0.33
  -2  -7  -8    0.01    0.52
   2   7   8    0.29    0.32
   2   7   8    0.26    0.37
  -3  -7  -8    2.96    0.62
  -3  -7  -8    2.05    0.40
   3   7   8    2.74    0.43
   3   7   8    2.28    0.38
  -4  -7  -8   -0.21    0.57
   5  -8  -8    0.23    0.53
  -5   8   8    0.22    0.50
   4  -8  -8    2.24    0.57
  -4   8   8    1.59    0.49
   3  -8  -8    2.06    0.60
  -3   8   8    1.41    0.48
   2  -8  -8    2.45    0.59
  -2   8   8    1.53    0.47
   1  -8  -8    0.30    0.35
   1  -8  -8    0.49    0.54
  -1   8   8    1.23    0.36
  -1   8   8    0.35    0.46
   0  -8  -8    1.92    0.60
   0  -8  -8    1.69    0.40
   0   8   8    1.70    0.40
   0   8   8    1.69    0.46
  -1  -8  -8    1.50    0.62
  -1  -8  -8    1.23    0.41
   1   8   8    2.14    0.46
   1   8   8    0.81    0.38
  -2  -8  -8   -0.02    0.41
  -2  -8  -8    0.39    0.61
   2   8   8   -0.12    0.35
   2   8   8    0.29    0.42
  -2   9   8   -0.08    0.54
  -1   9   8    0.18    0.41
  -1   9   8   -0.22    0.51
   0  -9  -8    0.10    0.43
   0   9   8    0.48    0.40
   0   9   8    0.58    0.52
   1   9  -9   -0.68    0.78
   5   8  -9    0.41    0.72
   4   8  -9    0.86    0.44
   4   8  -9    2.11    0.47
  -4  -8   9    1.15    0.94
   3   8  -9    1.17    0.41
   3   8  -9    1.91    0.46
  -3  -8   9    1.60    0.85
   2   8  -9    0.35    0.45
  -2  -8   9    1.32    0.73
   1   8  -9    0.33    0.47
  -1  -8   9    0.66    0.63
   0   8  -9    0.01    0.48
   0  -8   9    1.36    0.59
  -1   8  -9    0.14    0.49
   1  -8   9   -0.07    0.56
  -2   8  -9    2.99    0.58
   2  -8   9    1.86    0.57
  -3   8  -9   -0.47    0.52
   3  -8   9   -0.13    0.52
  -4   8  -9    0.18    0.62
   4  -8   9    0.06    0.55
   6   7  -9    0.03    0.46
  -6  -7   9    0.03    0.48
  -6  -7   9    0.48    1.49
   5   7  -9    1.27    0.43
  -5  -7   9    1.25    0.46
  -5  -7   9    1.56    0.94
   4   7  -9   -0.22    0.33
   4   7  -9    0.54    0.37
  -4  -7   9   -0.44    0.79
   3   7  -9    0.58    0.36
   3   7  -9   -0.08    0.35
  -3  -7   9   -0.21    0.73
   2   7  -9    4.40    0.52
   2   7  -9    4.17    0.46
  -2  -7   9    5.21    0.76
   1   7  -9    0.13    0.39
  -1  -7   9    0.18    0.57
   0   7  -9    5.29    0.57
   0  -7   9    5.34    0.65
  -1   7  -9    0.11    0.43
   1  -7   9    0.09    0.48
   1  -7   9    0.43    0.46
  -2   7  -9    5.12    0.60
   2  -7   9    3.94    0.57
   2  -7   9    4.19    0.60
  -3   7  -9    1.17    0.44
  -3   7  -9    1.23    0.48
   3  -7   9    1.13    0.50
   3  -7   9    1.31    0.54
  -4   7  -9   -0.66    0.46
  -4   7  -9   -1.10    0.46
   4  -7   9   -0.16    0.49
   4  -7   9   -0.84    0.52
   5  -7   9    0.67    1.01
   5  -7   9    1.29    0.64
   7   6  -9    0.81    0.46
   7   6  -9    0.33    0.50
  -7  -6   9    1.07    1.00
   6   6  -9   -0.06    0.37
   6   6  -9    0.19    0.44
  -6  -6   9    0.50    0.86
   5   6  -9    0.09    0.36
  -5  -6   9    0.48    0.79
   4   6  -9    4.89    0.51
   4   6  -9    5.07    0.46
  -4  -6   9    4.54    0.77
  -4  -6   9    4.63    0.82
   3   6  -9    0.52    0.31
   3   6  -9    0.53    0.30
  -3  -6   9    0.62    0.64
   2   6  -9    5.55    0.52
   2   6  -9    7.10    0.66
  -2  -6   9    6.40    0.74
  -2  -6   9    6.73    0.63
   1   6  -9   -0.39    0.31
   1   6  -9   -0.35    0.25
  -1  -6   9   -0.29    0.48
  -1  -6   9   -0.48    0.37
   0   6  -9    4.96    0.52
   0  -6   9    4.24    0.55
   0  -6   9    4.77    0.56
  -1   6  -9    0.54    0.36
   1  -6   9    0.24    0.42
   1  -6   9    0.23    0.40
  -2   6  -9   -0.03    0.38
  -2   6  -9   -0.09    0.33
   2  -6   9   -0.05    0.37
   2  -6   9    0.21    0.43
  -3   6  -9    6.57    0.58
  -3   6  -9    5.89    0.61
   3  -6   9    5.67    0.68
   3  -6   9    5.13    0.60
  -4   6  -9    4.07    0.54
  -4   6  -9    3.56    0.53
   4  -6   9    2.57    0.51
   4  -6   9    2.38    0.58
  -5   6  -9    2.23    0.55
  -5   6  -9    2.08    0.52
   5  -6   9    1.34    0.47
   5  -6   9    1.29    0.60
  -6   6  -9    0.35    0.84
   6  -6   9   -0.40    0.47
   8   5  -9   -0.34    0.49
   7   5  -9    1.23    0.46
   7   5  -9    1.26    0.40
  -7  -5   9    1.26    0.78
   6   5  -9    0.35    0.36
   6   5  -9   -0.09    0.39
  -6  -5   9    0.15    0.68
   5   5  -9    0.36    0.35
   5   5  -9    0.22    0.31
  -5  -5   9    0.11    0.64
   4   5  -9   11.01    0.79
   4   5  -9   10.20    0.80
  -4  -5   9   13.17    1.18
  -4  -5   9   10.62    0.88
   3   5  -9    5.30    0.46
   3   5  -9    5.37    0.49
  -3  -5   9    6.24    0.71
  -3  -5   9    6.74    0.68
   2   5  -9    1.43    0.31
   2   5  -9    1.61    0.31
  -2  -5   9    1.83    0.43
  -2  -5   9    1.68    0.53
   1   5  -9    0.06    0.28
   1   5  -9   -0.08    0.23
  -1  -5   9    0.25    0.45
  -1  -5   9    0.06    0.38
   0   5  -9    5.36    0.52
   0   5  -9    6.28    0.60
   0  -5   9    6.88    0.58
   0  -5   9    6.30    0.58
  -1   5  -9    1.96    0.35
   1  -5   9    1.01    0.40
   1  -5   9    2.04    0.39
  -2   5  -9   12.95    0.90
  -2   5  -9   14.50    0.87
   2  -5   9   11.82    1.01
   2  -5   9   11.98    0.93
  -3   5  -9    3.22    0.43
  -3   5  -9    3.88    0.47
   3  -5   9    2.66    0.45
   3  -5   9    3.04    0.54
  -4   5  -9    5.65    0.55
  -4   5  -9    5.50    0.57
   4  -5   9    5.38    0.56
   4  -5   9    4.65    0.66
  -5   5  -9    1.70    0.45
  -5   5  -9    2.12    0.52
   5  -5   9    0.91    0.44
   5  -5   9    1.56    0.56
  -6   5  -9    0.85    0.46
  -6   5  -9    0.87    0.56
   6  -5   9    0.56    0.59
   8   4  -9    0.45    0.37
   8   4  -9    0.09    0.46
  -8  -4   9    0.24    0.67
   7   4  -9    0.44    0.41
   7   4  -9   -0.11    0.34
  -7  -4   9    0.31    0.58
   6   4  -9    0.62    0.36
   6   4  -9    0.40    0.31
  -6  -4   9    0.22    0.38
  -6  -4   9    1.24    0.56
   5   4  -9    6.86    0.67
   5   4  -9    8.59    0.69
  -5  -4   9    8.41    0.74
  -5  -4   9   10.36    0.98
   4   4  -9    0.45    0.27
   4   4  -9    0.50    0.26
  -4  -4   9    0.85    0.38
  -4  -4   9    0.97    0.51
   3   4  -9    1.11    0.24
   3   4  -9    1.00    0.26
  -3  -4   9    0.44    0.33
  -3  -4   9    0.82    0.47
   2   4  -9    7.69    0.63
   2   4  -9    9.19    0.63
  -2  -4   9    9.43    0.73
  -2  -4   9    9.48    0.84
   1   4  -9    0.64    0.24
   1   4  -9    1.13    0.27
  -1  -4   9    0.89    0.40
  -1  -4   9    1.14    0.36
   0   4  -9    8.46    0.61
   0   4  -9    7.56    0.57
   0  -4   9    8.20    0.69
   0  -4   9    7.60    0.69
   0  -4   9    7.12    0.53
  -1   4  -9    3.24    0.33
  -1   4  -9    3.36    0.37
   1  -4   9    3.30    0.40
   1  -4   9    3.34    0.34
   1  -4   9    2.38    0.42
  -2   4  -9   18.56    1.06
   2  -4   9   16.00    1.13
   2  -4   9   17.59    1.08
  -3   4  -9    0.19    0.30
  -3   4  -9    0.30    0.35
   3  -4   9    0.02    0.33
   3  -4   9   -0.19    0.40
  -4   4  -9   -0.14    0.31
  -4   4  -9    1.14    0.41
   4  -4   9   -0.18    0.35
   4  -4   9   -0.65    0.43
  -5   4  -9    3.58    0.56
  -5   4  -9    3.98    0.46
   5  -4   9    1.90    0.57
  -6   4  -9    1.06    0.42
  -6   4  -9    0.91    0.53
   6  -4   9   -0.15    0.52
  -7   4  -9    3.32    0.53
   9   3  -9    0.27    0.34
   9   3  -9    0.21    0.53
   8   3  -9    1.01    0.35
   8   3  -9    1.04    0.43
  -8  -3   9    0.77    0.44
  -8  -3   9    1.97    0.63
   7   3  -9    0.19    0.29
   7   3  -9    0.09    0.36
  -7  -3   9    0.23    0.50
  -7  -3   9    0.10    0.38
   6   3  -9   -0.13    0.31
   6   3  -9    0.17    0.27
  -6  -3   9    0.47    0.44
  -6  -3   9    0.08    0.35
   5   3  -9    0.34    0.27
   5   3  -9   -0.03    0.24
  -5  -3   9   -0.05    0.32
  -5  -3   9    1.12    0.41
   4   3  -9    0.34    0.23
   4   3  -9    0.47    0.25
  -4  -3   9    1.08    0.40
  -4  -3   9    0.60    0.32
   3   3  -9    5.19    0.51
   3   3  -9    5.74    0.43
   3   3  -9    5.91    0.46
  -3  -3   9    5.41    0.54
  -3  -3   9    5.23    0.55
   2   3  -9    8.22    0.61
   2   3  -9    8.95    0.58
  -2  -3   9    8.13    0.65
  -2  -3   9    9.39    0.78
   1   3  -9    0.12    0.20
   1   3  -9    0.17    0.20
  -1  -3   9    0.14    0.35
  -1  -3   9    0.30    0.17
  -1  -3   9    0.22    0.31
   0   3  -9   25.78    1.42
   0   3  -9   25.98    1.41
   0  -3   9   23.65    1.39
   0  -3   9   26.07    1.48
  -1   3  -9   -0.03    0.18
  -1   3  -9   -0.01    0.21
   1  -3   9   -0.24    0.26
   1  -3   9    0.14    0.26
   1  -3   9    0.37    0.23
  -2   3  -9    0.86    0.21
  -2   3  -9    0.81    0.23
   2  -3   9    0.82    0.35
   2  -3   9    1.17    0.28
   2  -3   9    1.07    0.28
  -3   3  -9    7.39    0.56
   3  -3   9    7.28    0.64
   3  -3   9    6.34    0.53
   3  -3   9    6.24    0.63
  -4   3  -9    1.73    0.33
   4  -3   9    3.47    0.45
   4  -3   9    2.40    0.49
  -5   3  -9    6.75    0.62
   5  -3   9    5.12    0.66
  -6   3  -9    0.28    0.52
  -6   3  -9   -0.83    0.32
   6  -3   9   -0.45    0.52
  -7   3  -9    1.78    0.43
   9   2  -9    1.93    0.37
   9   2  -9    2.07    0.53
  -9  -2   9    1.80    0.53
  -9  -2   9    2.32    0.68
   8   2  -9    0.10    0.41
   8   2  -9    0.15    0.29
  -8  -2   9    0.23    0.54
  -8  -2   9    0.56    0.41
   7   2  -9    6.06    0.56
   7   2  -9    6.29    0.59
  -7  -2   9    5.71    0.57
  -7  -2   9    7.10    0.63
   6   2  -9    3.47    0.41
   6   2  -9    4.74    0.45
  -6  -2   9    4.74    0.48
  -6  -2   9    5.34    0.52
   5   2  -9    2.03    0.31
   5   2  -9    2.77    0.33
  -5  -2   9    2.92    0.38
  -5  -2   9    2.83    0.40
   4   2  -9   49.80    2.77
   4   2  -9   48.85    2.80
  -4  -2   9   54.37    2.81
  -4  -2   9   54.47    2.79
   3   2  -9    2.42    0.22
   3   2  -9    1.58    0.28
   3   2  -9    1.64    0.22
  -3  -2   9    1.90    0.34
  -3  -2   9    2.00    0.35
   2   2  -9   19.12    1.10
   2   2  -9   20.92    1.17
  -2  -2   9   19.31    1.10
  -2  -2   9   21.01    1.18
   1   2  -9   29.74    1.53
   1   2  -9   27.94    1.56
  -1  -2   9   30.49    1.59
  -1  -2   9   24.38    1.51
  -1  -2   9   27.99    1.57
   0   2  -9   27.27    1.46
   0   2  -9   27.24    1.47
   0  -2   9   24.33    1.45
   0  -2   9   27.19    1.47
   0  -2   9   26.63    1.51
  -1   2  -9   35.82    1.88
  -1   2  -9   34.23    1.87
   1  -2   9   31.55    1.92
   1  -2   9   36.95    1.88
   1  -2   9   34.10    1.88
  -2   2  -9    0.85    0.20
  -2   2  -9    1.08    0.23
   2  -2   9    1.89    0.29
   2  -2   9    0.72    0.33
  -3   2  -9   16.27    0.96
  -3   2  -9   17.70    1.00
   3  -2   9   17.73    1.03
   3  -2   9   14.96    1.13
  -4   2  -9    3.12    0.35
   4  -2   9    4.55    0.46
   4  -2   9    3.13    0.51
  -5   2  -9    1.74    0.33
   5  -2   9    2.23    0.44
   5  -2   9    1.84    0.52
  -6   2  -9    0.10    0.34
   6  -2   9    0.47    0.49
   6  -2   9   -0.48    0.42
  -7   2  -9    0.62    0.64
  -7   2  -9   -0.02    0.38
   7  -2   9    0.13    0.61
   9   1  -9   -0.12    0.47
  -9  -1   9   -0.49    0.61
  -9  -1   9    0.95    0.47
   8   1  -9    0.20    0.41
   8   1  -9    0.01    0.27
  -8  -1   9   -0.08    0.39
  -8  -1   9    0.22    0.52
   7   1  -9    0.45    0.27
   7   1  -9    0.94    0.36
  -7  -1   9    1.19    0.44
  -7  -1   9    0.64    0.35
   6   1  -9    7.20    0.61
   6   1  -9    7.87    0.67
  -6  -1   9    9.68    0.72
  -6  -1   9    8.59    0.67
   5   1  -9    6.86    0.59
   5   1  -9    7.67    0.62
  -5  -1   9    8.84    0.67
  -5  -1   9   10.19    0.67
   4   1  -9    0.13    0.22
   4   1  -9    0.21    0.20
  -4  -1   9    0.31    0.25
  -4  -1   9    0.35    0.28
   3   1  -9   21.73    1.15
   3   1  -9   20.40    1.21
   3   1  -9   18.49    1.16
  -3  -1   9   22.11    1.23
  -3  -1   9   22.64    1.20
  -3  -1   9   20.60    1.14
   2   1  -9   14.05    0.75
   2   1  -9   12.12    0.74
   2   1  -9   13.21    0.81
  -2  -1   9   12.94    0.85
  -2  -1   9   13.92    0.82
  -2  -1   9   12.23    0.74
   1   1  -9    2.56    0.25
   1   1  -9    2.86    0.30
  -1  -1   9    2.22    0.32
  -1  -1   9    2.18    0.24
  -1  -1   9    3.14    0.33
   0   1  -9   18.47    1.06
   0   1  -9   19.58    1.08
   0  -1   9   19.36    1.14
   0  -1   9   18.60    1.07
  -1   1  -9   22.31    1.24
  -1   1  -9   23.63    1.26
   1  -1   9   20.68    1.31
   1  -1   9   22.96    1.27
  -2   1  -9  138.89    6.95
  -2   1  -9  135.57    6.94
   2  -1   9  122.06    6.99
   2  -1   9  134.15    6.96
  -3   1  -9   13.53    0.79
  -3   1  -9   13.48    0.78
   3  -1   9   10.93    0.91
   3  -1   9   11.98    0.82
  -4   1  -9    0.93    0.25
   4  -1   9   -0.15    0.36
   4  -1   9    0.77    0.34
  -5   1  -9    9.73    0.68
   5  -1   9    7.85    0.85
   5  -1   9    8.81    0.76
  -6   1  -9    0.34    0.33
   6  -1   9    0.13    0.41
   6  -1   9    0.22    0.48
  -7   1  -9    3.87    0.50
   7  -1   9    4.90    0.62
   7  -1   9    3.89    0.70
   9   0  -9    1.06    0.49
  -9   0   9    0.50    0.47
  -9   0   9    0.34    0.63
   8   0  -9   -0.30    0.24
   8   0  -9   -0.03    0.41
  -8   0   9    0.10    0.39
  -8   0   9   -0.10    0.49
   7   0  -9    0.96    0.36
   7   0  -9    0.13    0.22
  -7   0   9    0.43    0.35
  -7   0   9    0.23    0.41
   6   0  -9    0.93    0.24
   6   0  -9    0.61    0.31
  -6   0   9    0.73    0.32
  -6   0   9    1.10    0.33
   5   0  -9    5.75    0.51
   5   0  -9    5.16    0.47
  -5   0   9    5.97    0.54
  -5   0   9    6.37    0.54
   4   0  -9    0.13    0.19
   4   0  -9    0.05    0.21
  -4   0   9    0.33    0.17
  -4   0   9    0.52    0.25
   3   0  -9    7.98    0.55
   3   0  -9    9.10    0.52
  -3   0   9    8.58    0.62
  -3   0   9    7.95    0.52
  -3   0   9    8.72    0.56
   2   0  -9    3.80    0.31
   2   0  -9    4.05    0.35
   2   0  -9    4.00    0.31
  -2   0   9    3.31    0.37
  -2   0   9    3.14    0.30
  -2   0   9    3.88    0.33
   1   0  -9    0.28    0.12
   1   0  -9    0.30    0.15
   1   0  -9    0.24    0.18
  -1   0   9    0.29    0.17
  -1   0   9    0.07    0.25
   0   0  -9    5.49    0.43
   0   0  -9    5.66    0.40
   0   0   9    5.35    0.44
   0   0   9    6.15    0.55
  -1   0  -9    0.50    0.20
  -1   0  -9    0.41    0.16
   1   0   9    0.15    0.29
   1   0   9    0.25    0.21
  -2   0  -9    1.34    0.22
  -2   0  -9    1.31    0.23
   2   0   9    0.50    0.34
   2   0   9    1.30    0.26
  -3   0  -9   27.50    1.47
  -3   0  -9   27.09    1.46
   3   0   9   23.31    1.54
   3   0   9   27.56    1.50
  -4   0  -9    0.08    0.22
  -4   0  -9    0.27    0.24
   4   0   9   -0.36    0.34
   4   0   9    0.01    0.32
  -5   0  -9    4.49    0.43
   5   0   9    3.54    0.56
   5   0   9    3.99    0.49
  -6   0  -9    1.35    0.36
   6   0   9    1.28    0.43
   6   0   9    0.84    0.49
  -7   0  -9    3.70    0.48
   7   0   9    3.78    0.56
   7   0   9    3.58    0.70
   9  -1  -9    0.66    0.50
  -9   1   9   -0.68    0.62
  -9   1   9    0.44    0.47
   8  -1  -9    2.06    0.51
  -8   1   9    0.76    0.52
  -8   1   9    1.54    0.43
   7  -1  -9    0.01    0.39
   7  -1  -9    0.28    0.23
  -7   1   9    0.18    0.36
   6  -1  -9    0.35    0.21
   6  -1  -9   -0.09    0.29
  -6   1   9    0.68    0.32
  -6   1   9    0.16    0.33
   5  -1  -9   14.59    0.90
   5  -1  -9   13.67    0.93
  -5   1   9   14.50    0.91
  -5   1   9   14.73    0.84
   4  -1  -9   70.55    3.83
   4  -1  -9   73.25    3.84
  -4   1   9   72.38    3.79
  -4   1   9   71.88    3.79
  -4   1   9   72.46    3.83
   3  -1  -9   14.27    0.87
   3  -1  -9   15.16    0.90
  -3   1   9   15.36    0.93
  -3   1   9   14.71    0.85
  -3   1   9   15.09    0.85
   2  -1  -9    2.25    0.27
   2  -1  -9    2.36    0.21
   2  -1  -9    2.50    0.25
  -2   1   9    1.99    0.33
  -2   1   9    2.09    0.24
   1  -1  -9    8.55    0.53
   1  -1  -9    9.10    0.55
   1  -1  -9    8.38    0.57
  -1   1   9    9.52    0.66
  -1   1   9    8.72    0.56
   0  -1  -9    6.90    0.47
   0  -1  -9    7.65    0.48
   0  -1  -9    7.72    0.53
   0   1   9    7.17    0.58
   0   1   9    7.49    0.49
  -1  -1  -9   11.73    0.71
  -1  -1  -9   11.69    0.67
   1   1   9   11.04    0.80
   1   1   9   10.12    0.69
  -2  -1  -9   17.22    0.97
  -2  -1  -9   17.29    0.95
   2   1   9   14.18    1.05
   2   1   9   16.59    0.97
  -3  -1  -9   29.22    1.56
  -3  -1  -9   27.89    1.53
   3   1   9   26.87    1.55
   3   1   9   26.76    1.62
  -4  -1  -9    0.47    0.25
  -4  -1  -9    1.21    0.28
   4   1   9    0.75    0.34
   4   1   9    1.08    0.39
  -5  -1  -9    8.27    0.69
  -5  -1  -9    7.71    0.66
   5   1   9    7.87    0.84
   5   1   9   10.64    0.71
  -6  -1  -9   -0.34    0.29
   6   1   9   -0.04    0.40
  -7  -1  -9   -0.09    0.37
   7   1   9   -0.25    0.44
   9  -2  -9    0.34    0.42
   9  -2  -9   -0.22    0.55
  -9   2   9   -0.05    0.45
   8  -2  -9    0.52    0.36
   8  -2  -9   -0.24    0.47
  -8   2   9    0.22    0.42
   7  -2  -9    0.20    0.31
   7  -2  -9   -0.25    0.38
  -7   2   9    0.40    0.37
   6  -2  -9    7.19    0.63
   6  -2  -9    6.59    0.59
  -6   2   9    6.99    0.65
  -6   2   9    7.74    0.53
   5  -2  -9    0.10    0.31
   5  -2  -9    0.30    0.21
   5  -2  -9    0.32    0.22
  -5   2   9    0.57    0.30
  -5   2   9    0.65    0.21
   4  -2  -9   19.25    1.09
   4  -2  -9   18.45    1.12
  -4   2   9   18.12    1.04
  -4   2   9   17.97    1.10
   3  -2  -9    1.05    0.22
   3  -2  -9    0.67    0.24
  -3   2   9    1.20    0.21
  -3   2   9    0.91    0.28
   2  -2  -9   25.18    1.49
   2  -2  -9   30.88    1.52
  -2   2   9   25.43    1.47
  -2   2   9   26.77    1.49
  -2   2   9   28.99    1.54
   1  -2  -9    7.65    0.54
   1  -2  -9    8.20    0.55
  -1   2   9    7.57    0.51
  -1   2   9    7.07    0.52
  -1   2   9    8.83    0.62
   0  -2  -9    4.76    0.37
   0  -2  -9    4.04    0.39
   0   2   9    3.88    0.34
   0   2   9    4.78    0.44
   0   2   9    3.65    0.36
  -1  -2  -9   53.16    2.74
   1   2   9   49.26    2.72
   1   2   9   51.22    2.72
  -2  -2  -9    5.66    0.43
   2   2   9    4.70    0.45
   2   2   9    4.94    0.42
  -3  -2  -9    0.17    0.23
   3   2   9    0.08    0.26
   3   2   9    0.14    0.24
   3   2   9   -0.13    0.57
  -4  -2  -9    0.29    0.26
   4   2   9    0.06    0.31
  -5  -2  -9    9.34    0.73
  -5  -2  -9    9.71    0.72
   5   2   9    8.82    0.76
  -6  -2  -9    1.10    0.35
  -6  -2  -9    1.30    0.36
   6   2   9   -0.06    0.40
   9  -3  -9    0.35    0.44
   9  -3  -9   -2.37    0.56
  -9   3   9   -0.11    0.47
   8  -3  -9    1.09    0.53
   8  -3  -9    0.99    0.40
  -8   3   9    1.15    0.47
   7  -3  -9   -0.60    0.42
   7  -3  -9    0.20    0.31
  -7   3   9    0.35    0.39
  -7   3   9    0.21    0.30
   6  -3  -9    2.89    0.35
   6  -3  -9    2.85    0.48
  -6   3   9    3.42    0.44
  -6   3   9    3.25    0.35
   5  -3  -9   -0.35    0.32
  -5   3   9    0.09    0.24
  -5   3   9   -0.05    0.30
   4  -3  -9   26.65    1.52
   4  -3  -9   27.29    1.48
  -4   3   9   26.11    1.47
  -4   3   9   25.81    1.50
   3  -3  -9    0.21    0.23
   3  -3  -9   -0.01    0.21
  -3   3   9    0.50    0.28
  -3   3   9    0.28    0.21
   2  -3  -9    7.39    0.54
   2  -3  -9    6.86    0.53
  -2   3   9    6.96    0.53
  -2   3   9    7.18    0.61
  -2   3   9    6.83    0.48
   1  -3  -9    2.82    0.31
   1  -3  -9    2.90    0.32
  -1   3   9    3.06    0.28
  -1   3   9    2.58    0.29
  -1   3   9    2.66    0.49
   0  -3  -9   12.00    0.77
   0  -3  -9   11.21    0.77
   0   3   9   12.20    0.74
   0   3   9   13.87    0.82
   0   3   9   11.63    0.74
  -1  -3  -9    0.32    0.23
  -1  -3  -9    0.31    0.24
   1   3   9    0.44    0.22
   1   3   9    0.51    0.21
   1   3   9    0.54    0.36
  -2  -3  -9    8.56    0.61
   2   3   9    7.77    0.59
   2   3   9    8.09    0.58
  -3  -3  -9    2.97    0.34
   3   3   9    3.31    0.34
   3   3   9    2.94    0.37
  -4  -3  -9    0.19    0.28
   4   3   9    0.00    0.26
   4   3   9   -0.25    0.30
  -5  -3  -9    4.07    0.43
   5   3   9    3.35    0.40
   5   3   9    4.43    0.48
  -6  -3  -9    0.75    0.38
   6   3   9    1.47    0.42
   9  -4  -9   -0.22    0.43
  -9   4   9    0.53    0.87
   8  -4  -9    1.52    0.41
   8  -4  -9    1.35    0.56
  -8   4   9    0.60    0.47
  -8   4   9    1.22    0.43
   7  -4  -9    0.08    0.51
   7  -4  -9    0.02    0.48
  -7   4   9    0.35    0.34
  -7   4   9    0.69    0.43
   6  -4  -9    0.13    0.40
  -6   4   9    0.04    0.37
  -6   4   9   -0.04    0.30
   5  -4  -9    1.24    0.39
  -5   4   9    1.14    0.35
  -5   4   9    0.32    0.29
   4  -4  -9    2.10    0.28
   4  -4  -9    2.09    0.37
  -4   4   9    1.83    0.34
  -4   4   9    1.72    0.31
   3  -4  -9    0.07    0.21
   3  -4  -9    0.35    0.27
  -3   4   9    0.12    0.25
   2  -4  -9    5.25    0.46
   2  -4  -9    5.02    0.45
  -2   4   9    5.02    0.46
  -2   4   9    3.95    0.35
  -2   4   9    4.76    0.41
   1  -4  -9   14.50    0.90
   1  -4  -9   15.00    0.95
  -1   4   9   14.86    0.89
  -1   4   9   14.85    0.87
   0  -4  -9    6.05    0.56
   0  -4  -9    6.72    0.54
   0   4   9    6.17    0.52
   0   4   9    5.94    0.48
  -1  -4  -9    3.76    0.37
  -1  -4  -9    4.83    0.43
   1   4   9    3.66    0.38
   1   4   9    4.18    0.37
  -2  -4  -9    2.25    0.31
  -2  -4  -9    1.78    0.40
   2   4   9    2.27    0.31
   2   4   9    2.16    0.33
  -3  -4  -9   14.17    0.90
   3   4   9   13.15    0.88
   3   4   9   13.23    0.86
  -4  -4  -9    0.02    0.29
   4   4   9   -0.25    0.27
   4   4   9   -0.18    0.33
  -5  -4  -9    0.52    0.34
   5   4   9    0.25    0.29
   5   4   9    0.14    0.36
  -6  -4  -9    0.09    0.39
   6   4   9    0.02    0.41
   8  -5  -9    1.78    0.60
  -8   5   9    1.62    0.54
  -8   5   9    1.81    0.46
   7  -5  -9    2.38    0.56
  -7   5   9    1.94    0.43
  -7   5   9    2.44    0.50
   6  -5  -9    0.97    0.49
  -6   5   9    0.98    0.36
  -6   5   9    1.86    0.43
   5  -5  -9    2.33    0.45
  -5   5   9    1.85    0.40
  -5   5   9    1.87    0.37
   4  -5  -9    4.99    0.51
  -4   5   9    4.19    0.45
   3  -5  -9    0.55    0.25
   3  -5  -9    0.45    0.35
  -3   5   9    0.34    0.29
   2  -5  -9    0.10    0.34
   2  -5  -9    0.24    0.24
  -2   5   9   -0.40    0.27
  -2   5   9    0.11    0.23
   1  -5  -9    0.55    0.26
   1  -5  -9    0.16    0.33
  -1   5   9    0.85    0.30
  -1   5   9    0.20    0.24
   0  -5  -9    0.93    0.37
   0  -5  -9    1.31    0.29
   0   5   9    0.89    0.26
   0   5   9    0.86    0.30
  -1  -5  -9   11.90    0.80
  -1  -5  -9   12.28    0.91
   1   5   9   11.10    0.81
   1   5   9   12.60    0.78
  -2  -5  -9    4.88    0.43
  -2  -5  -9    4.88    0.52
   2   5   9    4.97    0.43
   2   5   9    4.28    0.45
  -3  -5  -9    3.74    0.43
   3   5   9    4.53    0.46
   3   5   9    3.90    0.41
  -4  -5  -9    0.16    0.34
   4   5   9    0.39    0.33
   4   5   9    0.16    0.30
  -5  -5  -9    3.50    0.47
   5   5   9    3.40    0.47
  -8   6   9   -0.15    0.54
  -8   6   9    0.41    0.46
   7  -6  -9   -0.28    0.50
  -7   6   9   -0.04    0.45
  -7   6   9    0.52    0.49
   6  -6  -9    5.14    0.64
  -6   6   9    4.23    0.54
   5  -6  -9    0.37    0.45
  -5   6   9    0.44    0.38
   4  -6  -9    0.37    0.40
  -4   6   9    0.79    0.36
   3  -6  -9    2.96    0.37
   3  -6  -9    2.77    0.50
  -3   6   9    2.95    0.42
   2  -6  -9    0.49    0.41
   2  -6  -9    0.55    0.29
  -2   6   9    0.25    0.32
  -2   6   9   -0.13    0.28
   1  -6  -9    0.73    0.31
   1  -6  -9    0.98    0.42
  -1   6   9    0.88    0.29
  -1   6   9    1.22    0.35
   0  -6  -9   -0.04    0.39
   0  -6  -9    0.14    0.28
   0   6   9    0.67    0.29
   0   6   9    0.11    0.33
  -1  -6  -9    3.53    0.40
  -1  -6  -9    3.83    0.54
   1   6   9    3.90    0.46
   1   6   9    3.54    0.40
  -2  -6  -9    0.93    0.32
  -2  -6  -9    1.87    0.48
   2   6   9    0.70    0.31
   2   6   9    1.06    0.37
  -3  -6  -9    1.38    0.37
   3   6   9    1.07    0.38
   3   6   9    1.01    0.34
  -4  -6  -9   -0.22    0.40
   4   6   9    0.07    0.47
   4   6   9    0.54    0.37
   6  -7  -9    0.27    0.53
  -6   7   9    0.71    0.48
   5  -7  -9    0.98    0.51
  -5   7   9    0.39    0.42
   4  -7  -9   -0.19    0.48
  -4   7   9    0.29    0.42
   3  -7  -9    1.49    0.52
  -3   7   9    1.56    0.44
   2  -7  -9    1.68    0.35
   2  -7  -9    1.50    0.52
  -2   7   9    1.00    0.42
   1  -7  -9    5.74    0.51
   1  -7  -9    5.25    0.65
  -1   7   9    4.84    0.55
  -1   7   9    4.90    0.48
   0  -7  -9    2.69    0.57
   0  -7  -9    2.70    0.40
   0   7   9    2.31    0.38
   0   7   9    1.83    0.45
  -1  -7  -9    1.74    0.57
  -1  -7  -9    1.95    0.39
   1   7   9    2.59    0.45
   1   7   9    1.72    0.37
  -2  -7  -9    0.23    0.35
  -2  -7  -9    0.97    0.54
   2   7   9    0.20    0.34
   2   7   9    0.31    0.39
  -3  -7  -9    5.22    0.72
   3   7   9    4.98    0.54
   4  -8  -9    2.88    0.63
  -4   8   9    2.49    0.52
   3  -8  -9    0.75    0.59
  -3   8   9    0.09    0.47
   2  -8  -9    2.69    0.63
  -2   8   9    2.42    0.53
   1  -8  -9    1.93    0.42
   1  -8  -9    2.12    0.61
  -1   8   9    1.07    0.40
  -1   8   9    1.78    0.49
   0  -8  -9    1.58    0.61
   0  -8  -9    0.29    0.38
   0   8   9    0.58    0.37
   0   8   9    0.23    0.46
  -1  -8  -9    5.63    0.76
  -1  -8  -9    4.94    0.55
   1   8   9    4.72    0.52
   1   8   9    5.53    0.61
  -2  -8  -9    0.23    0.83
   2   8   9    0.60    0.71
  -1   9   9    0.08    0.67
   4   8 -10    0.00    0.44
   4   8 -10    0.28    0.45
   3   8 -10   -0.39    0.41
   3   8 -10   -0.54    0.44
  -3  -8  10    0.21    0.83
   2   8 -10   -0.11    0.47
  -2  -8  10    0.10    0.73
   1   8 -10    0.81    0.50
  -1  -8  10    1.72    0.64
   0   8 -10   -0.44    0.49
   0  -8  10   -0.05    0.58
  -1   8 -10   -0.52    0.52
   1  -8  10    1.39    0.61
  -2   8 -10   -1.16    0.87
   2  -8  10    1.16    0.54
   3  -8  10   -0.06    0.73
   5   7 -10   -0.61    0.40
  -5  -7  10    1.79    0.95
   4   7 -10   -0.54    0.36
   4   7 -10    0.22    0.40
  -4  -7  10    0.73    0.83
   3   7 -10   -0.16    0.37
   3   7 -10   -0.16    0.37
  -3  -7  10   -0.18    0.74
   2   7 -10    5.15    0.60
   2   7 -10    5.40    0.54
  -2  -7  10    6.22    0.79
   1   7 -10    0.41    0.42
  -1  -7  10   -0.18    0.56
   0   7 -10    3.15    0.54
   0  -7  10    2.94    0.59
   0  -7  10    2.12    0.52
  -1   7 -10    0.74    0.49
   1  -7  10    0.72    0.53
   1  -7  10    1.10    0.53
  -2   7 -10   -0.23    0.46
   2  -7  10    0.29    0.46
   2  -7  10   -0.18    0.50
  -3   7 -10    4.44    0.62
   3  -7  10    2.84    0.67
   3  -7  10    3.59    0.57
  -4   7 -10   -0.54    0.51
   4  -7  10   -0.26    0.48
   4  -7  10   -0.39    0.57
   7   6 -10    0.39    0.51
   6   6 -10   -0.02    0.41
   6   6 -10    0.58    0.43
  -6  -6  10    1.17    0.89
   5   6 -10   -0.03    0.38
  -5  -6  10    0.13    0.81
   4   6 -10    7.83    0.76
  -4  -6  10    8.53    0.96
   3   6 -10    0.44    0.34
   3   6 -10    0.24    0.33
  -3  -6  10    0.42    0.65
   2   6 -10    3.66    0.47
   2   6 -10    2.93    0.42
  -2  -6  10    3.62    0.55
  -2  -6  10    3.95    0.67
   1   6 -10   -0.21    0.36
   1   6 -10    0.30    0.30
  -1  -6  10   -0.08    0.42
  -1  -6  10    0.28    0.52
   0   6 -10    2.81    0.45
   0  -6  10    2.95    0.50
   0  -6  10    2.36    0.51
  -1   6 -10    5.44    0.55
   1  -6  10    4.45    0.61
   1  -6  10    4.55    0.57
  -2   6 -10    1.92    0.44
  -2   6 -10    1.70    0.47
   2  -6  10    1.83    0.52
   2  -6  10    1.40    0.43
  -3   6 -10    5.23    0.58
  -3   6 -10    4.45    0.57
   3  -6  10    4.86    0.58
   3  -6  10    4.39    0.66
  -4   6 -10    0.47    0.48
  -4   6 -10    1.48    0.50
   4  -6  10    0.98    0.44
   4  -6  10    0.75    0.57
  -5   6 -10    3.13    0.76
  -5   6 -10    1.92    0.59
   8   5 -10   -0.35    0.85
   7   5 -10    0.80    0.41
   7   5 -10    0.27    0.44
  -7  -5  10    0.77    0.81
   6   5 -10    0.22    0.38
   6   5 -10    0.95    0.42
  -6  -5  10   -0.37    0.73
   5   5 -10    0.73    0.35
   5   5 -10    1.11    0.38
  -5  -5  10    0.97    0.49
  -5  -5  10    0.94    0.72
   4   5 -10    2.22    0.40
  -4  -5  10    2.32    0.67
  -4  -5  10    1.97    0.48
   3   5 -10    0.69    0.29
   3   5 -10    0.83    0.32
  -3  -5  10    1.20    0.44
  -3  -5  10    0.63    0.57
   2   5 -10    0.78    0.32
   2   5 -10    0.26    0.28
  -2  -5  10    0.63    0.40
  -2  -5  10    0.85    0.54
   1   5 -10    1.27    0.30
   1   5 -10    1.43    0.35
  -1  -5  10    1.61    0.44
  -1  -5  10    0.83    0.49
   0   5 -10    2.53    0.35
   0   5 -10    2.80    0.43
   0  -5  10    2.52    0.46
   0  -5  10    3.24    0.46
  -1   5 -10    4.27    0.48
   1  -5  10    5.90    0.54
   1  -5  10    3.99    0.56
  -2   5 -10    7.02    0.54
  -2   5 -10    5.83    0.55
   2  -5  10    5.68    0.54
   2  -5  10    4.14    0.60
  -3   5 -10    0.67    0.40
  -3   5 -10    0.72    0.39
   3  -5  10    0.63    0.40
   3  -5  10    0.70    0.49
  -4   5 -10    1.29    0.47
  -4   5 -10    0.60    0.41
   4  -5  10    0.62    0.52
  -5   5 -10    0.06    0.43
  -5   5 -10    0.63    0.53
   5  -5  10   -0.17    0.57
   8   4 -10    0.15    0.46
   8   4 -10    0.30    0.37
  -8  -4  10    1.45    0.73
   7   4 -10    0.02    0.34
   7   4 -10    0.40    0.42
  -7  -4  10    0.24    0.64
  -7  -4  10    0.15    0.43
   6   4 -10    1.48    0.39
   6   4 -10    2.17    0.40
  -6  -4  10    2.07    0.45
  -6  -4  10    2.55    0.64
   5   4 -10    0.38    0.30
   5   4 -10    0.11    0.32
  -5  -4  10    0.03    0.40
  -5  -4  10    0.17    0.55
   4   4 -10    0.11    0.28
   4   4 -10    0.15    0.27
  -4  -4  10    0.38    0.38
  -4  -4  10    0.28    0.55
   3   4 -10    6.75    0.53
  -3  -4  10    5.47    0.67
  -3  -4  10    5.53    0.55
   2   4 -10    6.15    0.53
   2   4 -10    6.04    0.52
  -2  -4  10    6.05    0.64
  -2  -4  10    5.70    0.56
   1   4 -10    5.78    0.48
   1   4 -10    5.21    0.48
  -1  -4  10    5.49    0.55
  -1  -4  10    6.18    0.58
   0   4 -10    0.21    0.25
   0   4 -10    0.34    0.29
   0  -4  10    0.39    0.24
   0  -4  10   -0.15    0.36
   0  -4  10    0.35    0.33
  -1   4 -10    0.67    0.31
  -1   4 -10    0.45    0.26
   1  -4  10    0.64    0.28
   1  -4  10    0.71    0.39
   1  -4  10    0.01    0.37
  -2   4 -10    0.32    0.31
   2  -4  10   -0.03    0.30
   2  -4  10   -0.36    0.37
  -3   4 -10    5.29    0.48
   3  -4  10    4.32    0.58
  -4   4 -10    0.28    0.35
  -4   4 -10    0.50    0.45
   4  -4  10   -0.13    0.45
  -5   4 -10    3.26    0.58
  -5   4 -10    1.69    0.43
   5  -4  10    1.56    0.62
  -6   4 -10   -0.15    0.41
   9   3 -10    0.38    0.59
  -9  -3  10    0.12    0.56
   8   3 -10    0.49    0.36
   8   3 -10    0.84    0.44
  -8  -3  10    1.19    0.62
  -8  -3  10    0.92    0.48
   7   3 -10   -0.03    0.32
   7   3 -10    0.01    0.37
  -7  -3  10    0.79    0.42
  -7  -3  10    0.61    0.54
   6   3 -10    0.23    0.31
   6   3 -10    0.41    0.33
  -6  -3  10    1.52    0.48
  -6  -3  10    0.11    0.38
   5   3 -10    1.55    0.33
   5   3 -10    2.13    0.34
  -5  -3  10    2.45    0.42
  -5  -3  10    2.61    0.51
   4   3 -10   12.35    0.82
   4   3 -10   12.27    0.87
  -4  -3  10   13.42    0.92
  -4  -3  10   15.16    1.03
   3   3 -10    0.47    0.28
   3   3 -10    0.74    0.21
  -3  -3  10    0.48    0.34
  -3  -3  10   -0.04    0.43
   2   3 -10    7.11    0.53
   2   3 -10    6.12    0.58
  -2  -3  10    5.82    0.59
  -2  -3  10    6.01    0.64
   1   3 -10    0.55    0.26
   1   3 -10    0.50    0.24
  -1  -3  10    0.55    0.22
  -1  -3  10    0.91    0.37
   0   3 -10    4.25    0.39
   0   3 -10    4.61    0.39
   0  -3  10    3.30    0.47
   0  -3  10    3.55    0.40
   0  -3  10    4.65    0.38
  -1   3 -10    3.76    0.36
  -1   3 -10    3.39    0.35
   1  -3  10    4.02    0.40
   1  -3  10    3.10    0.45
   1  -3  10    4.94    0.40
  -2   3 -10   -0.09    0.24
  -2   3 -10    0.07    0.21
   2  -3  10    0.35    0.31
   2  -3  10   -0.72    0.34
   3  -3  10   14.45    1.12
   3  -3  10   17.43    1.06
  -4   3 -10    0.14    0.30
   4  -3  10   -0.48    0.38
   4  -3  10   -0.56    0.42
  -5   3 -10    6.21    0.54
   5  -3  10    5.71    0.73
  -6   3 -10    0.46    0.37
  -6   3 -10    0.82    0.57
   6  -3  10   -0.30    0.55
   9   2 -10    0.50    0.33
   9   2 -10    0.27    0.49
  -9  -2  10    0.83    0.69
  -9  -2  10    0.53    0.51
   8   2 -10    0.17    0.42
   8   2 -10   -0.19    0.29
  -8  -2  10    0.29    0.45
  -8  -2  10    0.53    0.56
   7   2 -10    1.22    0.37
   7   2 -10    1.14    0.34
  -7  -2  10    2.05    0.51
  -7  -2  10    1.21    0.42
   6   2 -10    0.14    0.27
   6   2 -10    0.53    0.32
  -6  -2  10    1.04    0.38
  -6  -2  10    0.39    0.41
   5   2 -10    0.28    0.27
   5   2 -10    0.92    0.30
  -5  -2  10    1.59    0.39
  -5  -2  10    0.77    0.35
   4   2 -10   26.04    1.62
   4   2 -10   25.82    1.56
  -4  -2  10   32.06    1.64
  -4  -2  10   29.60    1.63
   3   2 -10    1.03    0.21
   3   2 -10    1.20    0.29
   3   2 -10    0.94    0.20
  -3  -2  10    0.71    0.34
   2   2 -10    3.69    0.39
  -2  -2  10    4.35    0.45
  -2  -2  10    3.06    0.40
  -2  -2  10    3.55    0.32
   1   2 -10    8.68    0.63
   1   2 -10    8.43    0.55
  -1  -2  10    7.35    0.55
  -1  -2  10    7.97    0.68
  -1  -2  10    7.83    0.65
   0   2 -10    1.47    0.27
   0   2 -10    1.12    0.25
   0  -2  10    1.42    0.26
   0  -2  10    1.54    0.35
  -1   2 -10   19.64    1.08
  -1   2 -10   19.60    1.08
   1  -2  10   17.40    1.07
   1  -2  10   16.98    1.14
  -2   2 -10    1.00    0.25
  -2   2 -10    1.41    0.23
   2  -2  10    1.04    0.30
   2  -2  10    0.34    0.38
  -3   2 -10    0.03    0.23
   3  -2  10   -0.58    0.40
   3  -2  10    0.04    0.32
  -4   2 -10    0.29    0.28
   4  -2  10   -0.04    0.37
   4  -2  10   -0.30    0.44
  -5   2 -10    1.60    0.35
   5  -2  10    0.77    0.44
   5  -2  10    0.48    0.53
  -6   2 -10    0.36    0.37
   6  -2  10    0.01    0.49
   6  -2  10   -0.48    0.53
   9   1 -10    0.06    0.36
   9   1 -10    0.30    0.50
  -9  -1  10    0.42    0.48
  -9  -1  10   -0.39    0.63
   8   1 -10   -0.09    0.42
   8   1 -10    0.35    0.30
  -8  -1  10   -0.08    0.50
  -8  -1  10    0.24    0.42
   7   1 -10   -0.11    0.27
   7   1 -10    0.18    0.35
  -7  -1  10    0.24    0.37
  -7  -1  10    0.39    0.43
   6   1 -10    0.78    0.28
   6   1 -10    1.50    0.33
  -6  -1  10    1.10    0.36
  -6  -1  10    1.19    0.37
   5   1 -10    0.65    0.26
   5   1 -10    0.69    0.28
  -5  -1  10    1.18    0.34
  -5  -1  10    1.40    0.34
   4   1 -10   10.52    0.80
   4   1 -10   10.31    0.70
  -4  -1  10   12.02    0.81
   3   1 -10    3.54    0.39
   3   1 -10    3.14    0.29
   3   1 -10    4.18    0.35
  -3  -1  10    3.23    0.29
  -3  -1  10    3.06    0.38
  -3  -1  10    3.50    0.42
   2   1 -10   13.15    0.81
   2   1 -10   12.21    0.75
  -2  -1  10   11.41    0.73
  -2  -1  10   12.51    0.83
  -2  -1  10   13.35    0.84
   1   1 -10    7.93    0.52
   1   1 -10    8.19    0.58
  -1  -1  10    7.62    0.65
  -1  -1  10    6.98    0.52
   0   1 -10    9.98    0.63
   0   1 -10   10.27    0.66
   0  -1  10    9.50    0.72
   0  -1  10    9.47    0.66
  -1   1 -10    9.22    0.60
  -1   1 -10    8.74    0.58
   1  -1  10    7.94    0.70
   1  -1  10    8.07    0.61
  -2   1 -10    0.31    0.21
  -2   1 -10    0.18    0.20
   2  -1  10   -0.74    0.32
   2  -1  10    0.23    0.28
  -3   1 -10    0.67    0.24
  -3   1 -10    1.18    0.23
   3  -1  10    0.38    0.41
   3  -1  10    0.15    0.30
  -4   1 -10   -0.08    0.26
   4  -1  10    0.02    0.37
   4  -1  10   -0.75    0.41
  -5   1 -10    4.43    0.46
   5  -1  10    3.99    0.66
   5  -1  10    6.14    0.59
  -6   1 -10    3.84    0.46
   6  -1  10    4.52    0.58
   6  -1  10    3.09    0.63
   9   0 -10   -0.29    0.48
  -9   0  10   -1.03    0.59
  -9   0  10    0.51    0.48
   8   0 -10    1.49    0.32
   8   0 -10    1.93    0.49
  -8   0  10    1.29    0.45
  -8   0  10    1.87    0.54
   7   0 -10    0.21    0.37
   7   0 -10    0.18    0.26
  -7   0  10    0.19    0.41
  -7   0  10    0.72    0.37
   6   0 -10    1.66    0.35
   6   0 -10    1.73    0.31
  -6   0  10    1.57    0.38
  -6   0  10    1.55    0.37
   5   0 -10    5.47    0.46
   5   0 -10    4.50    0.43
  -5   0  10    4.15    0.45
   4   0 -10    0.22    0.26
   4   0 -10    0.51    0.22
  -4   0  10    0.76    0.26
  -4   0  10    0.26    0.20
  -4   0  10    0.78    0.31
   3   0 -10   -0.13    0.17
   3   0 -10    0.02    0.22
  -3   0  10    0.12    0.19
  -3   0  10    0.14    0.30
   2   0 -10    8.95    0.54
   2   0 -10    8.38    0.53
   2   0 -10    8.99    0.62
  -2   0  10    7.48    0.54
  -2   0  10    8.23    0.69
   1   0 -10   20.05    1.08
   1   0 -10   19.78    1.03
  -1   0  10   18.07    1.10
  -1   0  10   15.71    1.03
   0   0 -10    3.75    0.35
   0   0 -10    4.29    0.38
   0   0  10    3.48    0.34
   0   0  10    4.01    0.44
  -1   0 -10    3.62    0.33
  -1   0 -10    3.88    0.31
   1   0  10    2.40    0.32
   1   0  10    2.83    0.43
  -2   0 -10    4.54    0.38
  -2   0 -10    4.19    0.36
   2   0  10    4.35    0.41
   2   0  10    3.00    0.48
  -3   0 -10   13.61    0.81
  -3   0 -10   13.20    0.78
   3   0  10   12.31    0.84
   3   0  10    9.20    0.90
  -4   0 -10    0.12    0.27
  -4   0 -10   -0.36    0.25
   4   0  10   -1.01    0.40
   4   0  10    0.05    0.33
  -5   0 -10    3.92    0.43
   5   0  10    4.41    0.53
   5   0  10    4.47    0.61
  -6   0 -10    0.48    0.36
   6   0  10    0.01    0.51
   6   0  10    0.28    0.45
   7   0  10    1.87    0.75
   9  -1 -10   -0.64    0.51
  -9   1  10   -0.86    0.61
  -9   1  10    0.46    0.49
   8  -1 -10    0.14    0.48
  -8   1  10    0.91    0.53
  -8   1  10    1.17    0.46
   7  -1 -10   -0.01    0.42
   7  -1 -10    0.34    0.24
  -7   1  10    0.13    0.37
  -7   1  10   -0.20    0.41
   6  -1 -10   -0.01    0.34
   6  -1 -10    0.23    0.25
  -6   1  10    0.03    0.33
  -6   1  10    0.07    0.34
   5  -1 -10    0.28    0.28
   5  -1 -10   -0.19    0.24
  -5   1  10    0.12    0.22
  -5   1  10    0.27    0.31
  -5   1  10    0.04    0.26
   4  -1 -10   18.04    1.12
   4  -1 -10   20.44    1.14
  -4   1  10   18.78    1.07
  -4   1  10   18.25    1.15
   3  -1 -10    3.67    0.38
   3  -1 -10    4.54    0.39
  -3   1  10    3.99    0.43
  -3   1  10    4.31    0.34
   2  -1 -10    1.48    0.26
   2  -1 -10    1.13    0.22
   2  -1 -10    1.25    0.19
  -2   1  10    0.94    0.22
  -2   1  10    0.97    0.34
   1  -1 -10    2.39    0.29
   1  -1 -10    2.70    0.25
   1  -1 -10    2.08    0.23
  -1   1  10    2.47    0.36
  -1   1  10    2.21    0.26
   0  -1 -10    1.27    0.26
   0  -1 -10    1.32    0.20
   0   1  10    1.00    0.34
   0   1  10    1.08    0.23
  -1  -1 -10   15.22    0.86
  -1  -1 -10   15.21    0.89
   1   1  10   13.22    0.87
   1   1  10   14.06    0.98
  -2  -1 -10    5.41    0.43
  -2  -1 -10    5.73    0.44
   2   1  10    3.92    0.52
   2   1  10    4.44    0.43
  -3  -1 -10   17.22    0.96
  -3  -1 -10   16.97    0.98
   3   1  10   15.92    0.99
   3   1  10   12.96    1.09
  -4  -1 -10    0.17    0.28
  -4  -1 -10    0.31    0.25
   4   1  10   -0.45    0.39
   4   1  10    0.18    0.34
  -5  -1 -10    0.85    0.32
  -5  -1 -10    0.24    0.30
   5   1  10    0.40    0.39
   5   1  10    0.50    0.48
  -6  -1 -10   -0.21    0.32
   6   1  10    0.10    0.43
   9  -2 -10   -1.24    0.52
  -9   2  10    0.33    0.49
   8  -2 -10   -1.02    0.50
  -8   2  10    0.21    0.46
   7  -2 -10    0.96    0.47
  -7   2  10    0.36    0.41
   6  -2 -10    2.63    0.45
   6  -2 -10    2.40    0.33
  -6   2  10    2.77    0.38
  -6   2  10    2.78    0.43
   5  -2 -10    5.50    0.53
   5  -2 -10    6.09    0.55
  -5   2  10    5.73    0.49
  -5   2  10    6.28    0.59
   4  -2 -10   11.87    0.76
   4  -2 -10   10.81    0.77
  -4   2  10   11.02    0.69
  -4   2  10   10.65    0.80
   3  -2 -10   19.81    1.08
   3  -2 -10   18.15    1.07
  -3   2  10   17.34    1.04
  -3   2  10   17.40    1.10
   2  -2 -10    1.62    0.25
   2  -2 -10    1.61    0.20
   2  -2 -10    1.68    0.26
  -2   2  10    1.50    0.25
  -2   2  10    1.49    0.36
   1  -2 -10    5.25    0.47
   1  -2 -10    5.04    0.41
  -1   2  10    4.61    0.39
  -1   2  10    4.34    0.45
   0  -2 -10    0.56    0.24
   0   2  10    1.73    0.35
   0   2  10    0.24    0.22
   0   2  10    0.46    0.21
  -1  -2 -10   19.06    1.11
   1   2  10   17.82    1.09
   1   2  10   19.65    1.09
  -2  -2 -10    2.94    0.34
   2   2  10    2.21    0.30
   2   2  10    2.81    0.34
  -3  -2 -10    4.92    0.45
   3   2  10    5.35    0.49
  -4  -2 -10    0.34    0.28
  -4  -2 -10    0.98    0.32
   4   2  10    0.77    0.36
  -5  -2 -10    1.28    0.37
  -5  -2 -10    1.04    0.36
   5   2  10    1.29    0.40
  -6  -2 -10    1.31    0.38
   6   2  10    0.81    0.45
   9  -3 -10    0.15    0.42
  -9   3  10   -0.53    0.82
   8  -3 -10   -0.09    0.36
   8  -3 -10   -0.84    0.50
  -8   3  10    0.69    0.50
   7  -3 -10   -0.68    0.44
  -7   3  10    0.73    0.44
   6  -3 -10    0.09    0.40
  -6   3  10    0.51    0.37
  -6   3  10    0.82    0.30
   5  -3 -10    4.60    0.51
   5  -3 -10    3.84    0.39
  -5   3  10    3.97    0.38
  -5   3  10    3.62    0.44
   4  -3 -10    2.45    0.31
   4  -3 -10    2.32    0.37
  -4   3  10    1.76    0.37
  -4   3  10    1.92    0.31
   3  -3 -10   14.08    0.84
   3  -3 -10   12.53    0.85
  -3   3  10   12.87    0.89
  -3   3  10   12.15    0.80
   2  -3 -10    1.97    0.30
   2  -3 -10    2.27    0.28
  -2   3  10    1.65    0.24
  -2   3  10    1.90    0.38
  -2   3  10    1.55    0.27
   1  -3 -10   10.01    0.65
   1  -3 -10    8.79    0.65
  -1   3  10    8.81    0.59
  -1   3  10    8.10    0.62
   0  -3 -10    2.73    0.32
   0  -3 -10    2.81    0.33
   0   3  10    2.76    0.40
   0   3  10    2.10    0.29
   0   3  10    2.64    0.31
  -1  -3 -10    5.33    0.44
   1   3  10    4.33    0.39
   1   3  10    4.67    0.41
  -2  -3 -10    0.17    0.27
   2   3  10    0.21    0.25
   2   3  10    0.20    0.27
  -3  -3 -10    9.57    0.73
   3   3  10    9.30    0.73
   3   3  10    9.33    0.71
  -4  -3 -10    0.84    0.33
   4   3  10    1.01    0.35
   4   3  10    0.89    0.32
  -5  -3 -10   13.96    0.94
   5   3  10   11.33    0.95
  -6  -3 -10    3.10    0.47
   8  -4 -10   -0.69    0.54
  -8   4  10    0.14    0.50
   7  -4 -10    4.31    0.63
  -7   4  10    3.42    0.44
  -7   4  10    2.47    0.52
   6  -4 -10   -0.26    0.42
  -6   4  10   -0.15    0.38
  -6   4  10    0.02    0.31
   5  -4 -10    1.00    0.41
  -5   4  10    0.52    0.35
  -5   4  10    1.24    0.33
   4  -4 -10    9.37    0.76
   4  -4 -10    8.54    0.65
  -4   4  10    8.60    0.67
  -4   4  10    8.10    0.73
   3  -4 -10    0.11    0.30
   3  -4 -10    0.79    0.25
  -3   4  10    0.59    0.28
   2  -4 -10   10.31    0.72
   2  -4 -10    9.77    0.69
  -2   4  10    9.87    0.68
  -2   4  10    8.53    0.63
  -2   4  10    9.57    0.79
   1  -4 -10   20.04    1.17
   1  -4 -10   20.33    1.15
  -1   4  10   18.54    1.11
  -1   4  10   18.39    1.14
   0  -4 -10    0.23    0.26
   0  -4 -10    0.20    0.30
   0   4  10    0.10    0.28
   0   4  10    0.19    0.23
  -1  -4 -10    6.04    0.55
   1   4  10    4.65    0.46
   1   4  10    5.36    0.49
  -2  -4 -10    1.02    0.30
   2   4  10    0.96    0.28
   2   4  10    0.66    0.30
  -3  -4 -10    2.90    0.39
   3   4  10    2.74    0.37
   3   4  10    3.58    0.41
  -4  -4 -10    0.55    0.31
   4   4  10    0.45    0.31
   4   4  10    0.88    0.37
  -5  -4 -10    1.42    0.39
   5   4  10    1.91    0.60
   5   4  10    2.89    0.45
  -8   5  10   -0.15    0.44
  -8   5  10   -0.04    0.54
   7  -5 -10    0.94    0.54
  -7   5  10    0.98    0.50
  -7   5  10    1.05    0.42
   6  -5 -10   -0.49    0.47
  -6   5  10    0.19    0.38
  -6   5  10   -0.05    0.42
   5  -5 -10    0.01    0.43
  -5   5  10    0.65    0.39
  -5   5  10    0.90    0.36
   4  -5 -10    0.18    0.26
   4  -5 -10   -0.16    0.36
  -4   5  10   -0.11    0.33
   3  -5 -10    0.18    0.27
   3  -5 -10    0.46    0.37
  -3   5  10    0.73    0.33
   2  -5 -10    2.61    0.35
   2  -5 -10    2.25    0.43
  -2   5  10    1.32    0.34
   1  -5 -10    3.38    0.44
   1  -5 -10    3.28    0.38
  -1   5  10    2.44    0.38
  -1   5  10    2.58    0.33
   0  -5 -10    1.02    0.39
   0  -5 -10    0.43    0.31
   0   5  10    0.79    0.28
   0   5  10    0.43    0.32
  -1  -5 -10    7.23    0.61
  -1  -5 -10    6.83    0.63
   1   5  10    7.11    0.60
   1   5  10    7.48    0.59
  -2  -5 -10    0.38    0.31
   2   5  10    1.01    0.35
   2   5  10    0.69    0.30
  -3  -5 -10    1.92    0.35
   3   5  10    1.53    0.35
   3   5  10    1.95    0.39
  -4  -5 -10    0.36    0.34
   4   5  10    0.45    0.39
   4   5  10    1.01    0.35
   7  -6 -10    2.66    0.73
  -7   6  10    2.87    0.51
   6  -6 -10    0.47    0.49
  -6   6  10    0.88    0.42
   5  -6 -10    1.29    0.51
  -5   6  10    0.87    0.42
   4  -6 -10    0.05    0.41
  -4   6  10    0.17    0.39
   3  -6 -10    5.56    0.50
   3  -6 -10    6.72    0.62
  -3   6  10    4.93    0.54
   2  -6 -10   -0.01    0.29
   2  -6 -10    0.83    0.46
  -2   6  10    0.08    0.37
   1  -6 -10    4.87    0.47
   1  -6 -10    5.43    0.58
  -1   6  10    4.66    0.49
  -1   6  10    4.30    0.43
   0  -6 -10    1.68    0.48
   0  -6 -10    0.74    0.34
   0   6  10    0.70    0.30
   0   6  10    0.46    0.37
  -1  -6 -10    1.91    0.48
  -1  -6 -10    0.82    0.35
   1   6  10    1.14    0.41
   1   6  10    1.41    0.33
  -2  -6 -10    0.99    0.35
   2   6  10    0.66    0.37
   2   6  10    0.63    0.33
  -3  -6 -10    0.33    0.36
   3   6  10    0.97    0.41
   3   6  10    0.36    0.33
  -6   7  10    0.12    0.51
   5  -7 -10    2.04    0.56
  -5   7  10    0.93    0.46
   4  -7 -10   -0.25    0.49
  -4   7  10    0.99    0.47
   3  -7 -10    1.07    0.52
  -3   7  10    0.39    0.41
   2  -7 -10   -0.29    0.33
   2  -7 -10    0.67    0.51
  -2   7  10    0.01    0.42
   1  -7 -10    3.20    0.45
   1  -7 -10    3.20    0.59
  -1   7  10    3.01    0.41
  -1   7  10    2.82    0.49
   0  -7 -10    0.23    0.37
   0  -7 -10    0.43    0.52
   0   7  10   -0.22    0.31
   0   7  10    0.10    0.43
  -1  -7 -10    0.60    0.37
  -1  -7 -10    1.61    0.54
   1   7  10    0.71    0.43
   1   7  10    0.84    0.36
  -2  -7 -10    0.22    0.60
   2   7  10    0.35    0.34
   2   7  10    0.09    0.42
   3  -8 -10    0.31    0.64
   2  -8 -10    0.91    0.59
  -2   8  10    0.94    0.56
   1  -8 -10    0.87    0.40
   1  -8 -10    0.53    0.60
  -1   8  10    1.28    0.60
   0  -8 -10    0.01    0.57
   0  -8 -10    0.48    0.47
   0   8  10    0.47    0.39
   3   8 -11    0.51    0.44
   3   8 -11    0.52    0.51
   2   8 -11   -0.04    0.51
  -2  -8  11   -0.26    0.76
   1   8 -11    0.34    0.56
  -1  -8  11   -0.15    0.60
   0   8 -11    0.22    0.67
   0  -8  11    0.24    0.59
   1  -8  11    0.19    0.66
   5   7 -11    0.11    0.49
   4   7 -11    0.78    0.45
  -4  -7  11    0.93    0.86
   3   7 -11   -0.39    0.37
   3   7 -11   -0.21    0.41
  -3  -7  11    0.24    0.74
   2   7 -11    1.24    0.42
   2   7 -11    2.16    0.52
  -2  -7  11    2.57    0.70
   1   7 -11    0.64    0.49
  -1  -7  11    0.38    0.54
   0   7 -11   -0.79    0.48
   0  -7  11    0.33    0.52
   0  -7  11   -0.01    0.50
  -1   7 -11    1.47    0.54
   1  -7  11    1.46    0.61
   1  -7  11    1.94    0.57
  -2   7 -11    0.10    0.52
   2  -7  11   -0.38    0.56
   2  -7  11   -0.29    0.43
   3  -7  11    1.26    0.62
   3  -7  11    1.69    0.52
   7   6 -11    0.24    0.70
   6   6 -11    0.36    0.46
  -6  -6  11    0.64    0.91
   5   6 -11    0.03    0.42
  -5  -6  11    1.45    0.87
   4   6 -11    0.93    0.42
  -4  -6  11    1.64    0.79
   3   6 -11   -0.59    0.36
   3   6 -11   -0.32    0.35
  -3  -6  11   -0.04    0.51
  -3  -6  11    0.26    0.66
   2   6 -11    0.98    0.36
   2   6 -11    0.54    0.42
  -2  -6  11    0.73    0.50
  -2  -6  11    1.50    0.62
   1   6 -11   -0.13    0.40
   1   6 -11   -0.36    0.33
  -1  -6  11   -0.38    0.45
  -1  -6  11    0.44    0.53
   0   6 -11    1.21    0.45
   0  -6  11    0.42    0.49
   0  -6  11    0.68    0.47
  -1   6 -11    2.45    0.50
   1  -6  11    1.03    0.50
   1  -6  11    2.41    0.52
  -2   6 -11    1.40    0.48
   2  -6  11    1.48    0.56
   2  -6  11    1.02    0.43
  -3   6 -11    2.94    0.53
  -3   6 -11    3.05    0.54
   3  -6  11    1.61    0.49
   3  -6  11    2.14    0.63
  -4   6 -11   -0.17    0.54
  -4   6 -11   -0.08    0.62
   4  -6  11   -0.14    0.63
   7   5 -11   -0.05    0.45
   7   5 -11    0.07    0.48
  -7  -5  11    2.22    0.92
   6   5 -11    0.09    0.41
   6   5 -11    0.10    0.48
  -6  -5  11    1.53    0.82
   5   5 -11    0.19    0.40
  -5  -5  11    0.78    0.73
  -5  -5  11    0.78    0.51
   4   5 -11   -0.07    0.36
  -4  -5  11    0.30    0.46
  -4  -5  11    1.17    0.69
   3   5 -11   -0.19    0.31
   3   5 -11    0.35    0.35
  -3  -5  11   -0.10    0.61
  -3  -5  11    0.50    0.43
   2   5 -11   -0.25    0.31
   2   5 -11    0.12    0.34
  -2  -5  11    0.66    0.55
  -2  -5  11   -0.07    0.43
   1   5 -11    0.80    0.33
   1   5 -11    1.72    0.40
  -1  -5  11    1.46    0.50
  -1  -5  11    1.42    0.48
   0   5 -11    4.98    0.52
   0   5 -11    3.58    0.44
   0  -5  11    3.64    0.55
   0  -5  11    4.88    0.53
  -1   5 -11    1.57    0.42
   1  -5  11    1.67    0.43
   1  -5  11    0.64    0.47
  -2   5 -11    0.25    0.39
  -2   5 -11   -0.62    0.37
   2  -5  11   -0.74    0.47
   2  -5  11    0.07    0.36
  -3   5 -11    1.13    0.46
  -3   5 -11    0.07    0.41
   3  -5  11   -0.21    0.50
  -4   5 -11   -0.42    0.43
  -4   5 -11    0.07    0.47
   4  -5  11   -0.55    0.55
   8   4 -11   -0.18    0.46
   7   4 -11   -0.34    0.38
   7   4 -11    0.19    0.41
  -7  -4  11    0.82    0.69
  -7  -4  11   -0.15    0.48
   6   4 -11    0.99    0.39
   6   4 -11    1.38    0.42
  -6  -4  11    2.63    0.68
  -6  -4  11    1.31    0.48
   5   4 -11    0.01    0.36
  -5  -4  11    0.53    0.64
  -5  -4  11    1.07    0.46
   4   4 -11    0.08    0.33
  -4  -4  11    0.52    0.58
  -4  -4  11    0.28    0.42
   3   4 -11    2.41    0.39
  -3  -4  11    2.13    0.44
  -3  -4  11    2.78    0.58
   2   4 -11    1.81    0.35
   2   4 -11    0.84    0.34
  -2  -4  11    1.24    0.40
  -2  -4  11    1.80    0.52
   1   4 -11    6.65    0.64
   1   4 -11    7.25    0.64
  -1  -4  11    7.35    0.65
  -1  -4  11    6.82    0.71
   0   4 -11   -0.10    0.28
   0   4 -11    0.17    0.30
   0  -4  11    0.13    0.38
  -1   4 -11    4.54    0.45
  -1   4 -11    4.84    0.46
   1  -4  11    5.33    0.48
   1  -4  11    2.98    0.51
  -2   4 -11   -0.07    0.32
   2  -4  11   -0.21    0.33
   2  -4  11   -0.50    0.42
  -3   4 -11    0.38    0.34
   3  -4  11   -0.29    0.48
  -4   4 -11    1.19    0.52
  -4   4 -11    0.18    0.38
   4  -4  11   -0.51    0.49
  -5   4 -11    2.78    0.64
  -5   4 -11    2.04    0.45
   5  -4  11    0.81    0.61
  -9  -3  11    0.42    0.56
   8   3 -11    1.33    0.49
   8   3 -11    0.48    0.39
  -8  -3  11    1.25    0.64
  -8  -3  11    0.56    0.52
   7   3 -11   -0.20    0.40
   7   3 -11   -0.13    0.35
  -7  -3  11    0.18    0.57
  -7  -3  11    0.33    0.46
   6   3 -11    1.40    0.40
   6   3 -11    0.39    0.36
  -6  -3  11    1.50    0.45
  -6  -3  11    1.80    0.55
   5   3 -11    1.01    0.34
   5   3 -11    1.37    0.31
  -5  -3  11    0.58    0.42
  -5  -3  11    1.43    0.53
   4   3 -11    0.25    0.33
  -4  -3  11    0.83    0.51
  -4  -3  11    0.60    0.41
   3   3 -11    0.49    0.25
   3   3 -11    0.55    0.31
  -3  -3  11    1.04    0.38
  -3  -3  11    0.99    0.49
   2   3 -11    2.79    0.41
   2   3 -11    4.18    0.39
  -2  -3  11    2.98    0.45
   1   3 -11    1.39    0.31
   1   3 -11    1.64    0.33
  -1  -3  11    1.15    0.40
  -1  -3  11    1.45    0.42
   0   3 -11   -0.27    0.26
   0   3 -11   -0.40    0.24
   0  -3  11   -0.08    0.37
   0  -3  11    0.05    0.25
  -1   3 -11    5.97    0.55
  -1   3 -11    6.33    0.56
   1  -3  11    4.84    0.56
   1  -3  11    6.35    0.51
  -2   3 -11    4.90    0.45
   2  -3  11    4.16    0.57
   2  -3  11    5.87    0.52
  -3   3 -11   15.61    0.96
   3  -3  11   11.57    1.10
   3  -3  11   16.12    1.03
  -4   3 -11    0.79    0.33
   4  -3  11    0.60    0.43
   4  -3  11   -0.82    0.48
  -5   3 -11    0.85    0.36
   5  -3  11    0.14    0.57
   9   2 -11    0.30    0.35
  -9  -2  11    0.73    0.56
   8   2 -11    0.43    0.35
   8   2 -11   -0.23    0.41
  -8  -2  11    0.00    0.46
  -8  -2  11   -0.27    0.56
   7   2 -11   -0.09    0.37
   7   2 -11   -0.07    0.32
  -7  -2  11    0.34    0.42
  -7  -2  11    0.59    0.50
   6   2 -11    2.59    0.40
   6   2 -11    2.62    0.43
  -6  -2  11    3.61    0.51
  -6  -2  11    3.04    0.49
   5   2 -11   -0.13    0.27
   5   2 -11   -0.09    0.31
  -5  -2  11    0.18    0.41
  -5  -2  11    0.25    0.37
   4   2 -11    9.74    0.68
   4   2 -11    8.47    0.78
  -4  -2  11   10.74    0.86
  -4  -2  11   11.03    0.83
   3   2 -11    5.66    0.51
  -3  -2  11    3.65    0.48
  -3  -2  11    4.04    0.55
   2   2 -11   -0.46    0.27
  -2  -2  11    0.16    0.33
  -2  -2  11   -0.34    0.41
   1   2 -11    4.24    0.42
   1   2 -11    5.00    0.40
  -1  -2  11    4.74    0.39
  -1  -2  11    3.85    0.47
   0   2 -11    0.63    0.25
   0   2 -11    0.20    0.26
   0  -2  11    0.46    0.34
   0  -2  11    0.18    0.25
  -1   2 -11    2.90    0.33
  -1   2 -11    3.47    0.35
   1  -2  11    2.23    0.42
   1  -2  11    3.03    0.38
  -2   2 -11    2.07    0.27
  -2   2 -11    1.27    0.29
   2  -2  11    0.48    0.41
   2  -2  11    1.23    0.34
   3  -2  11    9.31    0.94
   3  -2  11   12.33    0.84
  -4   2 -11    0.01    0.30
   4  -2  11   -1.15    0.47
   4  -2  11   -0.83    0.41
  -5   2 -11    0.35    0.35
   5  -2  11   -0.48    0.41
   5  -2  11   -0.76    0.52
  -6   2 -11    0.71    0.49
   9   1 -11    0.02    0.32
   9   1 -11   -0.08    0.55
  -9  -1  11   -0.47    0.64
  -9  -1  11    0.12    0.51
   8   1 -11    0.46    0.33
   8   1 -11    0.31    0.42
  -8  -1  11    1.34    0.53
  -8  -1  11    0.74    0.45
   7   1 -11   -0.16    0.38
   7   1 -11   -0.26    0.30
  -7  -1  11    0.24    0.43
  -7  -1  11    0.11    0.41
   6   1 -11    0.04    0.30
   6   1 -11   -0.04    0.29
  -6  -1  11    0.68    0.40
  -6  -1  11    0.30    0.38
   5   1 -11   -0.13    0.25
   5   1 -11   -0.07    0.32
  -5  -1  11    0.38    0.36
  -5  -1  11    0.48    0.34
   4   1 -11   11.12    0.83
   4   1 -11    9.72    0.69
  -4  -1  11   10.69    0.81
  -4  -1  11   11.95    0.81
   3   1 -11   13.72    0.95
  -3  -1  11   13.73    0.95
   2   1 -11    0.25    0.28
  -2  -1  11    0.81    0.22
  -2  -1  11    0.73    0.35
   1   1 -11    3.90    0.39
   1   1 -11    4.90    0.37
  -1  -1  11    3.08    0.34
  -1  -1  11    3.71    0.45
   0   1 -11    1.88    0.26
   0   1 -11    1.56    0.28
   0  -1  11    1.67    0.37
   0  -1  11    1.51    0.28
  -1   1 -11   14.81    0.89
  -1   1 -11   14.72    0.85
   1  -1  11   12.86    0.89
   1  -1  11   12.95    0.96
  -2   1 -11    3.47    0.35
  -2   1 -11    4.19    0.37
   2  -1  11    2.90    0.51
   2  -1  11    3.73    0.42
  -3   1 -11    1.58    0.29
  -3   1 -11    1.60    0.28
   3  -1  11    0.55    0.48
   3  -1  11    1.41    0.38
  -4   1 -11    5.49    0.48
   4  -1  11    6.11    0.58
   4  -1  11    4.48    0.63
  -5   1 -11    7.46    0.66
   5  -1  11    8.29    0.69
   5  -1  11    4.49    0.74
  -6   1 -11    1.53    0.42
   6  -1  11   -0.16    0.57
   9   0 -11    0.59    0.55
  -9   0  11   -0.21    0.62
  -9   0  11    0.26    0.51
   8   0 -11    0.48    0.46
   8   0 -11    0.35    0.30
  -8   0  11    0.21    0.45
  -8   0  11    0.28    0.51
   7   0 -11   -0.24    0.37
   7   0 -11    0.02    0.27
  -7   0  11    0.18    0.43
  -7   0  11    0.21    0.41
   6   0 -11   -0.11    0.30
   6   0 -11    0.15    0.33
  -6   0  11    0.42    0.35
  -6   0  11    0.49    0.37
   5   0 -11    7.01    0.60
   5   0 -11    7.54    0.67
  -5   0  11    7.37    0.63
  -5   0  11    6.43    0.67
   4   0 -11   -0.15    0.27
   4   0 -11    0.27    0.23
  -4   0  11    0.28    0.34
   3   0 -11    9.33    0.72
   3   0 -11    9.50    0.60
  -3   0  11    8.52    0.60
  -3   0  11    9.79    0.76
   2   0 -11    0.56    0.19
   2   0 -11    0.71    0.27
  -2   0  11    0.40    0.22
  -2   0  11    0.16    0.33
   1   0 -11    5.19    0.41
   1   0 -11    5.29    0.48
  -1   0  11    4.40    0.48
  -1   0  11    4.54    0.42
   0   0 -11    0.17    0.22
   0   0 -11    0.01    0.20
   0   0  11    0.21    0.33
   0   0  11   -0.18    0.22
  -1   0 -11    1.45    0.26
  -1   0 -11    1.63    0.28
   1   0  11    1.76    0.31
   1   0  11    1.09    0.39
  -2   0 -11    0.22    0.26
  -2   0 -11    0.13    0.23
   2   0  11   -0.31    0.40
   2   0  11    0.16    0.30
  -3   0 -11    0.10    0.25
  -3   0 -11    0.24    0.26
   3   0  11   -0.81    0.42
   3   0  11    0.08    0.34
  -4   0 -11   -0.11    0.29
  -4   0 -11    0.47    0.30
   4   0  11   -0.74    0.42
   4   0  11    0.01    0.37
  -5   0 -11    7.97    0.72
   5   0  11    6.22    0.77
   5   0  11    8.07    0.69
   6   0  11   -0.33    0.53
   9  -1 -11   -0.62    0.61
  -9   1  11    0.39    0.60
  -9   1  11    0.12    0.64
   8  -1 -11    0.81    0.52
  -8   1  11    0.63    0.50
  -8   1  11    1.10    0.47
   7  -1 -11   -0.22    0.27
   7  -1 -11    0.15    0.43
  -7   1  11    0.04    0.40
  -7   1  11    0.19    0.40
   6  -1 -11   -0.18    0.28
   6  -1 -11    0.46    0.38
  -6   1  11    0.69    0.38
   5  -1 -11    4.32    0.44
   5  -1 -11    4.72    0.47
  -5   1  11    3.58    0.47
   4  -1 -11    3.76    0.38
   4  -1 -11    3.50    0.41
  -4   1  11    3.44    0.46
  -4   1  11    3.96    0.35
   3  -1 -11    0.06    0.27
   3  -1 -11    0.03    0.23
  -3   1  11    0.22    0.36
  -3   1  11    0.10    0.22
   2  -1 -11    0.69    0.25
   2  -1 -11    0.69    0.25
   2  -1 -11    0.57    0.19
  -2   1  11    0.61    0.36
  -2   1  11    0.49    0.23
   1  -1 -11    8.79    0.54
   1  -1 -11    8.74    0.64
  -1   1  11    6.88    0.56
  -1   1  11    8.45    0.72
   0  -1 -11    0.50    0.21
   0  -1 -11    0.49    0.22
   0   1  11    0.21    0.37
   0   1  11    0.52    0.25
  -1  -1 -11    0.97    0.24
  -1  -1 -11    0.93    0.28
   1   1  11    1.21    0.41
   1   1  11    0.87    0.28
  -2  -1 -11    1.00    0.26
  -2  -1 -11    1.15    0.28
   2   1  11   -0.21    0.43
   2   1  11    0.28    0.29
  -3  -1 -11    4.03    0.39
  -3  -1 -11    3.47    0.39
   3   1  11    2.68    0.54
   3   1  11    4.06    0.45
  -4  -1 -11    0.45    0.28
  -4  -1 -11    0.03    0.29
   4   1  11    0.29    0.37
   4   1  11   -0.78    0.43
  -5  -1 -11    0.10    0.31
   5   1  11    0.14    0.40
  -9   2  11    0.01    0.62
   8  -2 -11   -0.07    0.52
  -8   2  11    0.32    0.53
  -8   2  11    0.41    0.47
   7  -2 -11   -0.48    0.43
  -7   2  11    0.82    0.43
   6  -2 -11    2.82    0.39
   6  -2 -11    3.67    0.50
  -6   2  11    3.79    0.49
   5  -2 -11   -0.04    0.28
   5  -2 -11   -0.03    0.34
  -5   2  11    0.10    0.37
  -5   2  11    0.11    0.27
   4  -2 -11    0.39    0.30
   4  -2 -11    0.02    0.28
  -4   2  11    0.43    0.26
  -4   2  11    0.80    0.36
   3  -2 -11    2.89    0.34
   3  -2 -11    2.53    0.34
  -3   2  11    2.03    0.42
  -3   2  11    2.47    0.31
   2  -2 -11    0.19    0.18
   2  -2 -11    0.43    0.25
   2  -2 -11   -0.14    0.22
  -2   2  11   -0.06    0.35
  -2   2  11   -0.08    0.24
   1  -2 -11   13.62    0.83
   1  -2 -11   13.42    0.79
  -1   2  11   13.84    0.92
  -1   2  11   11.42    0.81
   0  -2 -11    2.16    0.31
   0  -2 -11    1.57    0.26
   0   2  11    2.59    0.43
   0   2  11    1.74    0.29
  -1  -2 -11   11.49    0.71
  -1  -2 -11   10.84    0.76
   1   2  11   10.46    0.84
   1   2  11    9.52    0.72
  -2  -2 -11    1.92    0.30
  -2  -2 -11    1.71    0.32
   2   2  11    1.68    0.32
  -3  -2 -11    0.62    0.31
  -3  -2 -11    0.50    0.28
   3   2  11    0.28    0.33
  -4  -2 -11    5.61    0.51
  -4  -2 -11    5.06    0.51
   4   2  11    5.85    0.55
  -5  -2 -11    0.90    0.36
  -5  -2 -11    0.55    0.35
   5   2  11   -0.24    0.37
   8  -3 -11   -0.36    0.56
  -8   3  11    0.94    0.51
   7  -3 -11    0.14    0.48
  -7   3  11    0.44    0.46
   6  -3 -11   -0.21    0.43
   6  -3 -11   -0.13    0.27
  -6   3  11    0.31    0.31
  -6   3  11    0.19    0.39
   5  -3 -11    0.57    0.29
   5  -3 -11    0.43    0.37
  -5   3  11    1.10    0.32
  -5   3  11    0.60    0.38
   4  -3 -11    0.28    0.32
   4  -3 -11    0.64    0.28
  -4   3  11    0.34    0.39
  -4   3  11    0.47    0.29
   3  -3 -11    2.55    0.38
   3  -3 -11    3.09    0.37
  -3   3  11    2.65    0.35
  -3   3  11    3.29    0.46
   2  -3 -11    1.06    0.28
   2  -3 -11    0.83    0.26
  -2   3  11    0.63    0.39
  -2   3  11    1.05    0.36
  -2   3  11    0.88    0.27
   1  -3 -11    0.33    0.26
   1  -3 -11    0.16    0.27
  -1   3  11    0.23    0.25
  -1   3  11    0.05    0.26
   0  -3 -11    1.32    0.31
   0   3  11    0.97    0.44
   0   3  11    1.23    0.28
   0   3  11    1.40    0.29
  -1  -3 -11    3.95    0.41
   1   3  11    4.03    0.39
   1   3  11    3.58    0.40
  -2  -3 -11    0.31    0.30
   2   3  11    0.42    0.29
   2   3  11    0.38    0.31
  -3  -3 -11    3.68    0.43
   3   3  11    3.41    0.43
   3   3  11    3.34    0.41
  -4  -3 -11    2.48    0.41
   4   3  11    2.63    0.44
  -5  -3 -11    3.25    0.47
   5   3  11    3.21    0.73
   8  -4 -11   -0.87    0.61
  -8   4  11    0.22    0.53
   7  -4 -11    0.42    0.53
  -7   4  11    0.62    0.47
  -7   4  11    0.32    0.38
   6  -4 -11    0.18    0.46
  -6   4  11    0.29    0.42
  -6   4  11    0.38    0.35
   5  -4 -11    4.37    0.52
   5  -4 -11    2.85    0.39
  -5   4  11    2.55    0.40
  -5   4  11    2.82    0.47
   4  -4 -11    0.75    0.29
   4  -4 -11    0.72    0.39
  -4   4  11    0.43    0.41
  -4   4  11    0.67    0.34
   3  -4 -11    5.04    0.43
   3  -4 -11    4.45    0.46
  -3   4  11    2.88    0.42
   2  -4 -11    0.83    0.32
   2  -4 -11    1.12    0.31
  -2   4  11    0.60    0.31
   1  -4 -11    0.54    0.29
   1  -4 -11    0.33    0.32
  -1   4  11   -0.03    0.25
  -1   4  11    0.31    0.31
   0  -4 -11    0.69    0.31
   0   4  11    0.14    0.31
   0   4  11    0.54    0.28
  -1  -4 -11   -0.05    0.29
   1   4  11   -0.04    0.26
   1   4  11    0.42    0.31
  -2  -4 -11    0.44    0.32
   2   4  11    0.24    0.29
   2   4  11    0.23    0.34
  -3  -4 -11    3.82    0.46
   3   4  11    4.20    0.46
   3   4  11    4.06    0.43
  -4  -4 -11   -0.02    0.35
   4   4  11    0.06    0.34
   4   4  11    0.53    0.39
  -8   5  11    0.99    0.58
   7  -5 -11   -0.01    0.54
  -7   5  11    0.54    0.50
  -7   5  11    0.45    0.44
   6  -5 -11    0.02    0.49
  -6   5  11    0.51    0.47
  -6   5  11    0.88    0.43
   5  -5 -11    0.05    0.43
  -5   5  11    0.28    0.38
  -5   5  11   -0.05    0.44
   4  -5 -11    0.48    0.31
   4  -5 -11    0.32    0.40
  -4   5  11    0.26    0.37
   3  -5 -11    0.77    0.30
   3  -5 -11    0.73    0.39
  -3   5  11    1.19    0.37
   2  -5 -11    0.64    0.38
   2  -5 -11    0.07    0.30
  -2   5  11   -0.21    0.34
   1  -5 -11    2.37    0.38
   1  -5 -11    2.96    0.44
  -1   5  11    2.47    0.33
  -1   5  11    1.97    0.40
   0  -5 -11    0.30    0.38
   0  -5 -11    0.37    0.32
   0   5  11    0.42    0.29
   0   5  11    0.80    0.36
  -1  -5 -11    4.77    0.47
   1   5  11    3.97    0.48
   1   5  11    3.93    0.43
  -2  -5 -11   -0.02    0.32
   2   5  11    0.87    0.33
   2   5  11    0.08    0.37
  -3  -5 -11    0.65    0.36
   3   5  11    1.39    0.40
   3   5  11    1.12    0.36
  -7   6  11   -0.22    0.50
   6  -6 -11    1.16    0.56
  -6   6  11    1.20    0.49
   5  -6 -11    0.51    0.53
  -5   6  11    0.79    0.42
   4  -6 -11    0.64    0.45
  -4   6  11    0.91    0.42
   3  -6 -11    4.98    0.48
   3  -6 -11    5.83    0.60
  -3   6  11    3.42    0.53
   2  -6 -11    0.35    0.47
   2  -6 -11    0.29    0.33
  -2   6  11    0.04    0.37
   1  -6 -11    3.97    0.54
   1  -6 -11    3.92    0.45
  -1   6  11    2.43    0.47
  -1   6  11    2.92    0.39
   0  -6 -11    0.58    0.45
   0  -6 -11    0.32    0.36
   0   6  11    0.47    0.33
   0   6  11    0.70    0.41
  -1  -6 -11    1.86    0.39
   1   6  11    1.57    0.43
   1   6  11    1.61    0.37
  -2  -6 -11    2.55    0.42
   2   6  11    1.47    0.44
   2   6  11    1.55    0.38
  -5   7  11    2.55    0.72
   4  -7 -11    0.13    0.48
  -4   7  11    0.04    0.44
   3  -7 -11    1.81    0.54
  -3   7  11    1.26    0.48
   2  -7 -11    0.10    0.50
   2  -7 -11    0.36    0.37
  -2   7  11    0.63    0.46
   1  -7 -11    1.42    0.52
   1  -7 -11    0.96    0.39
  -1   7  11    0.66    0.46
   0  -7 -11    1.06    0.55
   0  -7 -11    0.33    0.39
   0   7  11    0.30    0.46
   0   7  11    0.33    0.35
   1   7  11    0.30    0.36
   3   8 -12    0.05    0.63
   4   7 -12   -0.41    0.43
  -4  -7  12    0.55    1.08
   3   7 -12    0.48    0.46
   3   7 -12    0.53    0.51
  -3  -7  12    0.17    0.73
   2   7 -12    0.06    0.52
   2   7 -12    1.05    0.44
  -2  -7  12    0.69    0.67
   1   7 -12    0.07    0.52
  -1  -7  12    0.55    0.56
   0   7 -12   -0.30    0.51
   0  -7  12    0.29    0.53
   0  -7  12   -0.48    0.53
  -1   7 -12    2.35    0.66
   1  -7  12    1.33    0.63
   1  -7  12    2.95    0.59
   2  -7  12   -0.55    0.46
   2  -7  12   -0.25    0.59
   5   6 -12   -0.40    0.44
  -5  -6  12    0.24    0.87
   4   6 -12    0.06    0.42
  -4  -6  12    0.60    0.79
   3   6 -12   -0.37    0.41
   3   6 -12   -0.30    0.40
  -3  -6  12    0.66    0.71
  -3  -6  12    0.80    0.52
   2   6 -12   -0.09    0.38
   2   6 -12   -0.67    0.44
  -2  -6  12    1.03    0.63
  -2  -6  12    0.41    0.53
   1   6 -12    0.32    0.41
   1   6 -12    1.63    0.51
  -1  -6  12    0.60    0.49
  -1  -6  12    1.46    0.52
   0   6 -12   -0.31    0.44
   0  -6  12   -0.56    0.52
   0  -6  12   -0.70    0.46
  -1   6 -12    1.03    0.49
   1  -6  12    0.16    0.50
   1  -6  12    0.46    0.49
  -2   6 -12   -0.68    0.46
   2  -6  12   -0.48    0.56
  -3   6 -12    3.35    0.75
   3  -6  12    3.24    0.69
   6   5 -12   -0.42    0.41
  -6  -5  12    1.14    0.84
   5   5 -12   -0.34    0.43
  -5  -5  12    0.80    0.52
  -5  -5  12    0.74    0.76
   4   5 -12    0.83    0.43
  -4  -5  12    2.15    0.73
  -4  -5  12    1.32    0.51
   3   5 -12    0.18    0.38
   3   5 -12    0.26    0.37
  -3  -5  12   -0.45    0.64
  -3  -5  12    0.68    0.49
   2   5 -12   -0.06    0.36
   2   5 -12   -0.12    0.39
  -2  -5  12    0.29    0.43
  -2  -5  12   -0.29    0.55
   1   5 -12    2.28    0.46
   1   5 -12    1.90    0.39
  -1  -5  12    1.50    0.51
  -1  -5  12    1.47    0.50
   0   5 -12    0.83    0.42
   0  -5  12    0.92    0.44
   0  -5  12    0.75    0.45
  -1   5 -12    1.11    0.44
   1  -5  12    0.37    0.48
  -2   5 -12    0.16    0.44
  -2   5 -12    0.16    0.41
   2  -5  12   -0.79    0.50
  -3   5 -12    1.09    0.52
  -3   5 -12    1.89    0.47
   3  -5  12    1.16    0.58
  -4   5 -12    0.57    0.55
   8   4 -12    0.55    0.65
   7   4 -12   -0.09    0.43
   7   4 -12    0.19    0.42
  -7  -4  12    0.99    0.75
  -7  -4  12    0.19    0.54
   6   4 -12   -0.22    0.40
  -6  -4  12    0.35    0.52
  -6  -4  12    0.53    0.72
   5   4 -12   -0.15    0.41
  -5  -4  12    0.42    0.50
  -5  -4  12    0.99    0.70
   4   4 -12    0.41    0.40
  -4  -4  12    0.63    0.46
  -4  -4  12    1.22    0.65
   3   4 -12    5.32    0.57
  -3  -4  12    7.96    0.79
  -3  -4  12    6.15    0.73
   2   4 -12    0.43    0.36
   2   4 -12    0.76    0.37
  -2  -4  12    0.56    0.44
  -2  -4  12    0.81    0.52
   1   4 -12   -0.06    0.36
   1   4 -12    0.10    0.35
  -1  -4  12    0.56    0.44
   0   4 -12   -0.34    0.32
   0   4 -12   -0.30    0.32
   0  -4  12   -0.34    0.41
  -1   4 -12    1.83    0.39
   1  -4  12    1.19    0.46
   1  -4  12    2.28    0.40
  -2   4 -12    1.38    0.38
   2  -4  12    0.76    0.49
   2  -4  12    1.27    0.41
  -3   4 -12    1.10    0.40
   3  -4  12   -0.28    0.50
  -4   4 -12    0.21    0.41
  -4   4 -12    1.15    0.57
   4  -4  12   -0.79    0.53
   8   3 -12    0.12    0.47
  -8  -3  12    0.10    0.68
  -8  -3  12    0.48    0.55
   7   3 -12   -0.27    0.41
   7   3 -12   -0.60    0.39
  -7  -3  12    0.60    0.62
  -7  -3  12    0.32    0.50
   6   3 -12   -0.92    0.36
   6   3 -12   -0.24    0.33
  -6  -3  12    0.55    0.58
  -6  -3  12    0.62    0.47
   5   3 -12    0.93    0.42
  -5  -3  12    1.85    0.62
  -5  -3  12    1.01    0.48
   4   3 -12    1.82    0.45
  -4  -3  12    1.77    0.46
  -4  -3  12    1.75    0.58
   3   3 -12   -0.38    0.35
  -3  -3  12    0.08    0.39
   2   3 -12    0.26    0.36
   2   3 -12    0.21    0.29
  -2  -3  12    0.08    0.38
   1   3 -12    2.24    0.35
   1   3 -12    1.38    0.36
  -1  -3  12    2.10    0.44
   0   3 -12    0.23    0.30
   0   3 -12   -0.17    0.28
   0  -3  12   -0.21    0.28
   0  -3  12   -0.17    0.41
  -1   3 -12    2.91    0.37
  -1   3 -12    2.34    0.36
   1  -3  12    1.70    0.43
   1  -3  12    2.07    0.39
  -2   3 -12    1.46    0.34
   2  -3  12    0.86    0.40
   2  -3  12    0.39    0.43
  -3   3 -12    0.66    0.34
   3  -3  12    0.24    0.53
   3  -3  12    0.44    0.44
  -4   3 -12   -0.07    0.35
   4  -3  12   -0.55    0.45
   4  -3  12   -1.05    0.50
   8   2 -12    2.10    0.43
   8   2 -12    1.83    0.50
  -8  -2  12    2.56    0.65
  -8  -2  12    1.56    0.54
   7   2 -12   -0.06    0.37
   7   2 -12    0.31    0.38
  -7  -2  12    0.97    0.54
  -7  -2  12    0.59    0.48
   6   2 -12    2.02    0.39
   6   2 -12    1.37    0.43
  -6  -2  12    2.30    0.49
  -6  -2  12    3.31    0.54
   5   2 -12    4.49    0.54
   5   2 -12    4.01    0.46
  -5  -2  12    5.28    0.59
  -5  -2  12    3.23    0.51
   4   2 -12   -0.56    0.36
  -4  -2  12   -0.03    0.43
   3   2 -12    0.21    0.34
  -3  -2  12    0.35    0.41
   2   2 -12    0.99    0.36
  -2  -2  12    1.44    0.40
   1   2 -12   15.52    1.02
   1   2 -12   16.15    0.92
  -1  -2  12   13.23    0.91
  -1  -2  12   15.04    1.02
   0   2 -12    0.40    0.29
   0   2 -12    0.40    0.26
   0  -2  12   -0.27    0.27
   0  -2  12   -0.15    0.38
  -1   2 -12    1.39    0.30
  -1   2 -12    1.32    0.31
   1  -2  12    1.26    0.35
   1  -2  12    0.93    0.39
  -2   2 -12   -0.01    0.25
  -2   2 -12    0.36    0.29
   2  -2  12   -0.46    0.42
   2  -2  12    0.33    0.35
  -3   2 -12    3.10    0.39
   3  -2  12    3.42    0.47
   3  -2  12    2.17    0.58
  -4   2 -12    0.93    0.36
   4  -2  12    0.90    0.46
   4  -2  12   -0.72    0.51
  -5   2 -12    0.01    0.38
   5  -2  12   -0.47    0.52
   5  -2  12   -1.42    0.56
   9   1 -12    0.31    0.37
   8   1 -12   -0.28    0.34
   8   1 -12   -0.27    0.46
  -8  -1  12    0.29    0.50
  -8  -1  12    0.01    0.55
   7   1 -12    0.20    0.36
   7   1 -12   -0.36    0.37
  -7  -1  12   -0.05    0.47
  -7  -1  12    0.49    0.45
   6   1 -12    1.63    0.41
   6   1 -12    0.79    0.34
  -6  -1  12    0.98    0.44
  -6  -1  12    1.32    0.43
   5   1 -12    3.22    0.49
   5   1 -12    2.48    0.35
  -5  -1  12    2.70    0.49
   4   1 -12    3.17    0.48
  -4  -1  12    3.53    0.49
   3   1 -12    0.26    0.35
  -3  -1  12    0.85    0.40
   2   1 -12    6.19    0.54
  -2  -1  12    5.05    0.46
  -2  -1  12    4.93    0.53
   1   1 -12    2.02    0.35
   1   1 -12    1.42    0.27
  -1  -1  12    1.57    0.29
  -1  -1  12    1.60    0.42
   0   1 -12    0.20    0.27
   0   1 -12    0.34    0.23
   0  -1  12    0.32    0.39
   0  -1  12    0.21    0.28
  -1   1 -12   12.85    0.83
  -1   1 -12   12.43    0.81
   1  -1  12   12.59    0.97
   1  -1  12   11.81    0.85
  -2   1 -12    0.65    0.29
  -2   1 -12    0.39    0.26
   2  -1  12   -0.37    0.43
   2  -1  12   -0.13    0.31
  -3   1 -12    3.47    0.39
  -3   1 -12    4.61    0.42
   3  -1  12    3.79    0.49
   3  -1  12    2.91    0.60
  -4   1 -12    6.59    0.61
   4  -1  12    4.84    0.69
   4  -1  12    7.62    0.66
  -5   1 -12    1.10    0.37
   5  -1  12   -0.77    0.55
   5  -1  12    0.49    0.46
  -9   0  12    1.02    0.65
   8   0 -12   -0.43    0.31
   8   0 -12    0.93    0.48
  -8   0  12   -0.43    0.50
  -8   0  12    1.05    0.53
   7   0 -12    0.48    0.33
   7   0 -12   -0.30    0.41
  -7   0  12    0.19    0.45
  -7   0  12    0.68    0.44
   6   0 -12   -0.05    0.34
   6   0 -12    0.34    0.36
  -6   0  12    0.17    0.39
   5   0 -12   -0.48    0.34
   5   0 -12   -0.05    0.30
  -5   0  12    0.56    0.40
   4   0 -12    1.12    0.27
   4   0 -12    0.20    0.36
  -4   0  12    1.27    0.43
   3   0 -12    4.01    0.46
  -3   0  12    3.42    0.49
  -3   0  12    3.70    0.35
   2   0 -12    0.49    0.31
   2   0 -12    0.69    0.24
  -2   0  12    0.53    0.39
  -2   0  12    0.82    0.26
   1   0 -12    2.12    0.33
   1   0 -12    3.08    0.31
  -1   0  12    2.79    0.44
  -1   0  12    2.58    0.32
   0   0 -12    0.12    0.23
   0   0 -12    0.25    0.27
   0   0  12    0.17    0.39
   0   0  12   -0.32    0.26
  -1   0 -12    0.90    0.27
  -1   0 -12    0.96    0.29
   1   0  12    1.35    0.32
   1   0  12    0.58    0.44
  -2   0 -12    2.09    0.33
  -2   0 -12    1.86    0.31
   2   0  12    0.79    0.48
   2   0  12    2.39    0.39
  -3   0 -12    2.45    0.35
  -3   0 -12    2.93    0.37
   3   0  12    2.95    0.43
   3   0  12    1.66    0.56
  -4   0 -12   -0.29    0.29
   4   0  12   -1.24    0.47
   4   0  12    0.18    0.40
  -5   0 -12    1.25    0.37
   5   0  12    0.74    0.59
   5   0  12   -0.34    0.57
  -9   1  12    1.69    0.63
   8  -1 -12   -0.30    0.52
  -8   1  12   -0.01    0.49
   7  -1 -12    1.05    0.47
   7  -1 -12    0.70    0.35
  -7   1  12    1.21    0.48
   6  -1 -12   -0.26    0.32
   6  -1 -12   -0.02    0.37
  -6   1  12   -0.09    0.39
   5  -1 -12    8.37    0.71
   5  -1 -12    9.09    0.78
  -5   1  12    9.16    0.80
   4  -1 -12   -0.30    0.32
   4  -1 -12    0.14    0.27
  -4   1  12    0.28    0.39
  -4   1  12   -0.13    0.25
   3  -1 -12    1.28    0.34
  -3   1  12    1.45    0.44
  -3   1  12    1.75    0.30
   2  -1 -12    4.81    0.45
   2  -1 -12    5.16    0.42
  -2   1  12    4.35    0.53
  -2   1  12    3.73    0.39
   1  -1 -12    5.64    0.46
   1  -1 -12    5.46    0.46
  -1   1  12    4.06    0.51
  -1   1  12    4.07    0.41
   0  -1 -12    0.23    0.23
   0  -1 -12    0.59    0.28
   0   1  12    0.24    0.29
   0   1  12    0.29    0.41
  -1  -1 -12    0.42    0.25
  -1  -1 -12    0.72    0.29
   1   1  12    0.37    0.43
   1   1  12    0.69    0.30
  -2  -1 -12    2.41    0.35
  -2  -1 -12    2.56    0.34
   2   1  12    1.99    0.50
   2   1  12    2.33    0.37
  -3  -1 -12    1.24    0.34
  -3  -1 -12    0.78    0.30
   3   1  12    0.02    0.46
   3   1  12    1.04    0.37
  -4  -1 -12    1.06    0.36
  -4  -1 -12    0.25    0.32
   4   1  12    0.06    0.50
   4   1  12    0.41    0.37
   8  -2 -12   -0.05    0.55
  -8   2  12    0.28    0.50
   7  -2 -12   -0.30    0.47
   7  -2 -12    0.24    0.34
  -7   2  12    0.62    0.46
   6  -2 -12    2.86    0.42
   6  -2 -12    3.41    0.51
  -6   2  12    3.14    0.51
   5  -2 -12   -0.15    0.36
   5  -2 -12   -0.62    0.30
  -5   2  12    0.42    0.42
  -5   2  12    0.51    0.30
   4  -2 -12    0.19    0.30
   4  -2 -12   -0.14    0.31
  -4   2  12    0.35    0.29
  -4   2  12   -0.16    0.40
   3  -2 -12    8.22    0.65
   3  -2 -12    6.96    0.57
  -3   2  12    6.65    0.58
  -3   2  12    5.41    0.62
   2  -2 -12    2.68    0.37
  -2   2  12    2.11    0.46
  -2   2  12    2.11    0.33
   1  -2 -12   17.59    1.07
   1  -2 -12   17.93    1.01
  -1   2  12   14.84    1.02
  -1   2  12   18.64    1.15
   0  -2 -12    4.19    0.43
   0  -2 -12    3.52    0.35
   0   2  12    2.80    0.37
   0   2  12    4.27    0.51
  -1  -2 -12    5.99    0.50
  -1  -2 -12    5.17    0.45
   1   2  12    5.31    0.59
   1   2  12    5.06    0.48
  -2  -2 -12    3.60    0.39
  -2  -2 -12    4.46    0.47
   2   2  12    3.53    0.43
  -3  -2 -12    0.11    0.33
  -3  -2 -12   -0.13    0.30
   3   2  12    0.65    0.36
  -4  -2 -12    4.93    0.50
  -4  -2 -12    5.84    0.54
   4   2  12    6.00    0.57
  -5  -2 -12    0.49    0.37
   8  -3 -12   -0.87    0.56
  -8   3  12    0.60    0.54
   7  -3 -12   -0.37    0.49
  -7   3  12   -0.45    0.46
   6  -3 -12    0.01    0.45
   6  -3 -12   -0.09    0.32
  -6   3  12    0.46    0.43
  -6   3  12    0.28    0.34
   5  -3 -12   -0.39    0.37
   5  -3 -12    0.32    0.32
  -5   3  12   -0.01    0.40
  -5   3  12    0.84    0.34
   4  -3 -12    0.00    0.36
   4  -3 -12   -0.01    0.31
  -4   3  12   -0.12    0.30
  -4   3  12   -0.01    0.43
   3  -3 -12    0.08    0.31
   3  -3 -12   -0.10    0.29
  -3   3  12   -0.58    0.29
  -3   3  12    0.75    0.45
   2  -3 -12    2.84    0.37
   2  -3 -12    3.37    0.39
  -2   3  12    2.55    0.37
  -2   3  12    3.23    0.51
   1  -3 -12    1.73    0.35
  -1   3  12    3.20    0.72
  -1   3  12    2.23    0.36
   0  -3 -12    0.56    0.32
   0   3  12    0.75    0.31
  -1  -3 -12    4.22    0.46
   1   3  12    4.61    0.46
  -2  -3 -12    5.65    0.51
   2   3  12    4.94    0.49
  -3  -3 -12    0.35    0.33
  -3  -3 -12    0.83    0.34
   3   3  12    0.41    0.38
  -4  -3 -12    2.93    0.43
  -4  -3 -12    1.66    0.47
   4   3  12    2.01    0.47
   7  -4 -12    3.32    0.63
  -7   4  12    2.68    0.58
   6  -4 -12   -0.02    0.45
  -6   4  12    0.40    0.39
  -6   4  12   -0.03    0.46
   5  -4 -12    4.13    0.46
   5  -4 -12    4.73    0.58
  -5   4  12    2.98    0.54
  -5   4  12    3.92    0.46
   4  -4 -12    1.10    0.40
   4  -4 -12    1.58    0.35
  -4   4  12    0.71    0.45
  -4   4  12    0.92    0.36
   3  -4 -12    0.45    0.33
   3  -4 -12   -0.10    0.35
  -3   4  12    0.46    0.49
  -3   4  12    0.65    0.34
   2  -4 -12    4.53    0.47
   2  -4 -12    4.91    0.47
  -2   4  12    3.98    0.47
   1  -4 -12    0.43    0.31
  -1   4  12    0.30    0.27
  -1   4  12    0.23    0.32
   0  -4 -12    1.65    0.36
   0   4  12    0.92    0.31
   0   4  12    0.89    0.36
  -1  -4 -12    0.50    0.33
   1   4  12    0.68    0.34
   1   4  12    0.01    0.30
  -2  -4 -12    0.83    0.35
   2   4  12    0.71    0.37
   2   4  12    0.80    0.34
  -3  -4 -12    0.43    0.34
   3   4  12   -0.38    0.33
   3   4  12    0.36    0.38
  -7   5  12    1.50    0.48
  -7   5  12    1.05    0.56
   6  -5 -12   -0.09    0.53
  -6   5  12   -0.56    0.49
  -6   5  12    0.54    0.44
   5  -5 -12    0.27    0.44
  -5   5  12    0.47    0.41
   4  -5 -12    2.60    0.51
   4  -5 -12    2.96    0.41
  -4   5  12    1.92    0.43
   3  -5 -12    0.19    0.32
   3  -5 -12    0.47    0.40
  -3   5  12    0.40    0.39
   2  -5 -12    0.72    0.34
   2  -5 -12    0.11    0.38
  -2   5  12    0.18    0.35
   1  -5 -12    1.02    0.44
   1  -5 -12    1.06    0.37
  -1   5  12    0.66    0.38
  -1   5  12    0.60    0.30
   0  -5 -12    0.72    0.35
   0   5  12    0.35    0.32
   0   5  12    0.58    0.39
  -1  -5 -12    0.25    0.35
   1   5  12    0.23    0.31
   1   5  12    0.37    0.36
  -2  -5 -12    0.20    0.36
   2   5  12    0.39    0.39
   2   5  12    0.48    0.34
  -6   6  12   -0.43    0.48
   5  -6 -12    0.71    0.52
  -5   6  12    0.04    0.43
   4  -6 -12    0.15    0.48
  -4   6  12    0.31    0.45
   3  -6 -12    1.91    0.50
   3  -6 -12    0.97    0.35
  -3   6  12    0.96    0.44
   2  -6 -12    0.16    0.45
   2  -6 -12    0.41    0.36
  -2   6  12   -0.48    0.41
   1  -6 -12    0.00    0.48
   1  -6 -12    0.80    0.38
  -1   6  12    1.20    0.45
   0  -6 -12    1.10    0.38
   0   6  12    0.57    0.42
   0   6  12    0.93    0.36
   1   6  12    0.68    0.54
   1   6  12   -0.10    0.33
   3  -7 -12    0.04    0.53
   2  -7 -12    1.58    0.42
   2  -7 -12    1.10    0.53
   1  -7 -12   -0.58    0.49
   1  -7 -12    0.44    0.55
   0   7  12    0.67    0.38
   3   7 -13    0.15    0.48
   2   7 -13   -0.34    0.56
  -2  -7  13   -0.15    0.67
   1   7 -13    0.52    0.68
  -1  -7  13   -0.20    0.57
  -1  -7  13   -0.52    0.64
   0  -7  13   -1.06    0.54
   0  -7  13   -0.52    0.55
   1  -7  13   -0.03    0.73
   4   6 -13   -0.29    0.45
  -4  -6  13   -0.78    0.80
   3   6 -13    0.37    0.44
  -3  -6  13    0.45    0.56
  -3  -6  13   -0.61    0.69
   2   6 -13   -0.28    0.40
   2   6 -13   -0.79    0.50
  -2  -6  13   -0.48    0.62
  -2  -6  13    0.04    0.54
   1   6 -13    2.71    0.57
  -1  -6  13    2.26    0.57
  -1  -6  13    2.71    0.57
   0   6 -13   -0.49    0.48
   0  -6  13   -0.03    0.56
  -1   6 -13    0.85    0.53
   1  -6  13    0.39    0.55
   2  -6  13   -1.15    0.73
  -6  -5  13    1.46    0.89
   5   5 -13   -0.87    0.46
  -5  -5  13    0.09    0.52
  -5  -5  13    1.49    0.83
   4   5 -13   -0.14    0.42
  -4  -5  13    0.12    0.50
  -4  -5  13    0.45    0.74
   3   5 -13   -0.02    0.41
  -3  -5  13    0.92    0.66
  -3  -5  13    0.62    0.50
   2   5 -13   -0.22    0.44
   2   5 -13    0.39    0.40
  -2  -5  13   -0.57    0.58
  -2  -5  13    1.14    0.50
   1   5 -13    0.46    0.46
   1   5 -13    0.03    0.38
  -1  -5  13    0.37    0.50
   0   5 -13   -0.72    0.40
   0  -5  13   -0.11    0.46
  -1   5 -13   -0.46    0.43
   1  -5  13   -0.51    0.48
  -2   5 -13    0.17    0.44
   2  -5  13   -0.43    0.52
  -3   5 -13    3.87    0.63
  -7  -4  13    1.07    0.62
  -7  -4  13    1.82    1.00
   6   4 -13    0.02    0.46
  -6  -4  13    1.17    0.80
  -6  -4  13    0.61    0.57
   5   4 -13    0.08    0.44
  -5  -4  13    1.04    0.54
  -5  -4  13    0.55    0.72
   4   4 -13   -0.07    0.46
  -4  -4  13    1.00    0.68
  -4  -4  13    0.67    0.46
   3   4 -13    2.91    0.50
  -3  -4  13    4.25    0.70
  -3  -4  13    3.06    0.54
   2   4 -13   -0.29    0.41
   2   4 -13   -0.82    0.37
  -2  -4  13   -0.01    0.44
   1   4 -13   -0.42    0.38
   1   4 -13   -0.02    0.39
  -1  -4  13    0.45    0.47
   0   4 -13    2.77    0.44
   0   4 -13    2.50    0.42
   0  -4  13    2.11    0.50
  -1   4 -13    0.77    0.38
   1  -4  13   -0.04    0.48
  -2   4 -13    0.30    0.39
   2  -4  13   -0.08    0.43
   2  -4  13   -0.54    0.47
  -3   4 -13   -0.23    0.39
   3  -4  13   -1.15    0.43
   3  -4  13   -0.91    0.51
   8   3 -13   -0.14    0.47
   7   3 -13    0.26    0.47
  -7  -3  13    0.64    0.53
  -7  -3  13    1.84    0.70
   6   3 -13   -0.14    0.46
  -6  -3  13    0.50    0.54
  -6  -3  13    0.34    0.62
   5   3 -13    0.04    0.45
  -5  -3  13    1.12    0.66
  -5  -3  13   -0.28    0.48
   4   3 -13    2.05    0.52
  -4  -3  13    2.05    0.51
   3   3 -13    3.20    0.53
  -3  -3  13    2.54    0.50
   2   3 -13    0.51    0.40
   2   3 -13    0.30    0.34
  -2  -3  13    0.22    0.43
   1   3 -13    3.00    0.42
   1   3 -13    2.24    0.43
  -1  -3  13    2.49    0.48
   0   3 -13   -0.32    0.32
   0   3 -13   -0.17    0.30
   0  -3  13   -0.23    0.44
  -1   3 -13    1.22    0.35
  -1   3 -13    1.37    0.35
   1  -3  13    1.01    0.47
   1  -3  13    1.38    0.40
  -2   3 -13    6.47    0.54
   2  -3  13    4.35    0.63
   2  -3  13    7.21    0.62
  -3   3 -13    0.41    0.36
   3  -3  13    0.49    0.46
   3  -3  13   -1.15    0.52
   4  -3  13    1.14    0.51
   8   2 -13    0.20    0.47
  -8  -2  13    0.46    0.72
  -8  -2  13    0.75    0.64
   7   2 -13   -0.62    0.42
   7   2 -13   -0.06    0.39
  -7  -2  13    0.40    0.58
  -7  -2  13    0.06    0.49
   6   2 -13   -0.32    0.42
  -6  -2  13    0.13    0.54
  -6  -2  13    0.48    0.50
   5   2 -13    3.31    0.56
  -5  -2  13    3.34    0.58
   4   2 -13    0.18    0.46
  -4  -2  13    0.67    0.46
   3   2 -13    1.48    0.48
  -3  -2  13    1.30    0.44
   2   2 -13    0.75    0.33
   2   2 -13    0.25    0.38
  -2  -2  13    1.09    0.43
   1   2 -13    3.15    0.36
   1   2 -13    2.18    0.42
  -1  -2  13    1.98    0.46
   0   2 -13   -0.09    0.33
   0   2 -13    0.07    0.27
   0  -2  13    0.67    0.42
   0  -2  13   -0.02    0.30
  -1   2 -13    0.12    0.29
  -1   2 -13   -0.17    0.30
   1  -2  13    0.08    0.33
   1  -2  13   -0.34    0.42
  -2   2 -13    1.18    0.33
  -2   2 -13    1.21    0.33
   2  -2  13    1.35    0.41
   2  -2  13    0.91    0.51
  -3   2 -13    0.27    0.34
   3  -2  13   -0.76    0.51
   3  -2  13    0.18    0.41
  -4   2 -13    0.78    0.39
   4  -2  13   -0.91    0.53
   4  -2  13   -0.20    0.46
   8   1 -13   -0.14    0.37
   8   1 -13   -0.12    0.46
  -8  -1  13    0.57    0.58
  -8  -1  13    0.60    0.56
   7   1 -13   -0.05    0.39
   7   1 -13   -0.26    0.39
  -7  -1  13    0.55    0.52
   6   1 -13    0.71    0.36
   6   1 -13   -0.58    0.42
  -6  -1  13    0.27    0.47
   5   1 -13    0.50    0.45
  -5  -1  13    0.39    0.46
   4   1 -13    0.59    0.44
  -4  -1  13    1.30    0.45
   3   1 -13   -0.08    0.40
  -3  -1  13    0.56    0.43
   2   1 -13    2.13    0.42
  -2  -1  13    2.12    0.46
   1   1 -13    5.24    0.44
   1   1 -13    5.24    0.51
  -1  -1  13    4.40    0.57
  -1  -1  13    3.93    0.43
   0   1 -13    5.34    0.46
   0   1 -13    6.34    0.52
   0  -1  13    5.23    0.60
   0  -1  13    5.12    0.49
  -1   1 -13    3.27    0.40
  -1   1 -13    2.63    0.36
   1  -1  13    2.80    0.50
   1  -1  13    2.81    0.41
  -2   1 -13    0.53    0.31
  -2   1 -13    0.85    0.31
   2  -1  13    0.13    0.35
   2  -1  13    0.08    0.50
  -3   1 -13   -0.06    0.31
   3  -1  13   -1.60    0.50
   3  -1  13    0.65    0.41
  -4   1 -13    1.64    0.36
   4  -1  13    0.65    0.56
   4  -1  13    2.23    0.50
   8   0 -13    0.05    0.36
   8   0 -13    0.11    0.48
  -8   0  13    0.06    0.55
   7   0 -13    0.82    0.45
   7   0 -13    0.92    0.40
  -7   0  13    0.51    0.48
   6   0 -13   -0.24    0.38
   6   0 -13   -0.51    0.36
  -6   0  13    0.35    0.47
   5   0 -13   -0.01    0.32
   5   0 -13   -0.11    0.39
  -5   0  13    0.19    0.44
   4   0 -13   -0.04    0.37
  -4   0  13    1.04    0.46
   3   0 -13   -0.42    0.35
  -3   0  13    0.15    0.43
   2   0 -13    0.98    0.37
  -2   0  13    0.89    0.29
  -2   0  13    1.53    0.43
   1   0 -13    2.35    0.31
   1   0 -13    2.51    0.39
  -1   0  13    2.02    0.34
  -1   0  13    2.20    0.47
   0   0 -13    0.80    0.33
   0   0 -13    0.55    0.27
   0   0  13    0.52    0.46
   0   0  13    0.82    0.31
  -1   0 -13    1.25    0.34
  -1   0 -13    0.64    0.28
   1   0  13    0.73    0.31
   1   0  13    0.52    0.46
  -2   0 -13    0.50    0.29
  -2   0 -13    0.81    0.32
   2   0  13    0.56    0.49
   2   0  13    1.12    0.39
  -3   0 -13   -0.19    0.30
  -3   0 -13   -0.19    0.30
   3   0  13   -1.61    0.51
   3   0  13   -0.03    0.37
  -4   0 -13    0.51    0.33
   4   0  13   -1.04    0.51
   4   0  13    0.61    0.43
   8  -1 -13    0.49    0.55
   7  -1 -13    1.04    0.46
   7  -1 -13    0.82    0.37
  -7   1  13    1.06    0.52
   6  -1 -13    0.36    0.40
   6  -1 -13   -0.09    0.38
  -6   1  13    0.38    0.46
   5  -1 -13    0.67    0.36
   5  -1 -13    1.16    0.41
  -5   1  13    1.49    0.49
   4  -1 -13   -0.12    0.37
  -4   1  13    0.29    0.47
   3  -1 -13   -0.15    0.35
  -3   1  13    0.32    0.45
  -3   1  13   -0.21    0.28
   2  -1 -13    3.57    0.43
  -2   1  13    2.98    0.37
  -2   1  13    3.52    0.51
   1  -1 -13    0.48    0.32
   1  -1 -13    0.55    0.25
  -1   1  13    0.33    0.29
  -1   1  13    0.19    0.44
   0  -1 -13    0.12    0.26
   0  -1 -13    0.08    0.32
   0   1  13   -0.26    0.45
   0   1  13    0.12    0.29
  -1  -1 -13    0.31    0.32
  -1  -1 -13    1.00    0.30
   1   1  13    0.50    0.31
   1   1  13    0.00    0.45
  -2  -1 -13    1.25    0.33
  -2  -1 -13    1.52    0.36
   2   1  13    1.36    0.36
   2   1  13    0.52    0.50
  -3  -1 -13   -0.12    0.33
  -3  -1 -13    0.22    0.32
   3   1  13   -0.01    0.49
   3   1  13    1.17    0.38
  -4  -1 -13    0.20    0.38
   4   1  13    0.34    0.61
   8  -2 -13   -0.16    0.54
   7  -2 -13   -1.12    0.45
   7  -2 -13   -0.18    0.34
  -7   2  13    0.01    0.49
   6  -2 -13    0.15    0.37
   6  -2 -13    0.68    0.44
  -6   2  13    0.70    0.48
   5  -2 -13    0.91    0.39
   5  -2 -13    1.36    0.40
  -5   2  13    0.90    0.47
   4  -2 -13   -0.04    0.33
   4  -2 -13   -0.13    0.35
  -4   2  13    0.37    0.31
  -4   2  13    0.19    0.47
   3  -2 -13    5.08    0.49
  -3   2  13    3.23    0.41
  -3   2  13    3.23    0.55
   2  -2 -13    1.31    0.35
  -2   2  13    1.06    0.33
  -2   2  13    1.46    0.45
   1  -2 -13    0.38    0.25
   1  -2 -13    0.23    0.32
  -1   2  13    0.37    0.29
  -1   2  13    0.59    0.44
   0  -2 -13    4.54    0.42
   0  -2 -13    5.15    0.48
   0   2  13    4.86    0.59
   0   2  13    4.44    0.46
  -1  -2 -13    0.13    0.33
  -1  -2 -13   -0.03    0.28
   1   2  13   -0.17    0.32
   1   2  13    0.15    0.46
  -2  -2 -13    0.42    0.35
  -2  -2 -13    0.16    0.30
   2   2  13    0.42    0.37
  -3  -2 -13    0.08    0.35
  -3  -2 -13   -0.24    0.31
   3   2  13    0.34    0.38
  -4  -2 -13    1.29    0.41
   7  -3 -13   -0.08    0.48
  -7   3  13    0.81    0.54
   6  -3 -13   -0.34    0.34
   6  -3 -13   -0.76    0.42
  -6   3  13    0.58    0.51
   5  -3 -13    0.63    0.42
   5  -3 -13    0.82    0.39
  -5   3  13    1.62    0.38
  -5   3  13    1.52    0.50
   4  -3 -13    2.76    0.44
   4  -3 -13    1.66    0.40
  -4   3  13    1.42    0.51
  -4   3  13    1.82    0.38
   3  -3 -13    0.51    0.34
  -3   3  13    0.80    0.49
  -3   3  13    0.23    0.33
   2  -3 -13    0.46    0.34
  -2   3  13    0.12    0.46
  -2   3  13    0.57    0.34
   1  -3 -13    3.65    0.38
   1  -3 -13    3.87    0.44
  -1   3  13    3.69    0.44
  -1   3  13    4.61    0.71
   0  -3 -13    0.19    0.27
   0  -3 -13    0.02    0.34
   0   3  13    0.08    0.34
  -1  -3 -13    3.33    0.39
  -1  -3 -13    3.40    0.43
   1   3  13    2.47    0.41
  -2  -3 -13    1.81    0.39
  -2  -3 -13    1.26    0.35
   2   3  13    1.17    0.38
  -3  -3 -13    0.16    0.36
  -3  -3 -13   -0.09    0.34
   3   3  13    1.10    0.43
   7  -4 -13   -0.30    0.57
  -7   4  13    0.76    0.58
   6  -4 -13   -0.59    0.49
  -6   4  13   -0.11    0.52
  -6   4  13    0.59    0.42
   5  -4 -13    0.17    0.36
   5  -4 -13    0.89    0.46
  -5   4  13    0.20    0.50
  -5   4  13    0.22    0.39
   4  -4 -13    0.40    0.35
   4  -4 -13    0.66    0.41
  -4   4  13    0.81    0.54
  -4   4  13    0.05    0.37
   3  -4 -13    1.33    0.42
   3  -4 -13    1.30    0.37
  -3   4  13    0.41    0.35
   2  -4 -13    1.12    0.36
  -2   4  13    1.06    0.39
   1  -4 -13    0.61    0.37
  -1   4  13    0.65    0.38
  -1   4  13    0.05    0.44
   0  -4 -13    0.32    0.36
   0   4  13    0.39    0.35
   0   4  13    0.22    0.33
  -1  -4 -13    0.66    0.37
   1   4  13    0.29    0.37
   1   4  13    0.56    0.35
  -2  -4 -13    2.36    0.42
   2   4  13    2.09    0.43
  -7   5  13    0.15    0.52
   6  -5 -13    0.06    0.54
  -6   5  13    0.35    0.45
   5  -5 -13    1.17    0.52
  -5   5  13    0.55    0.43
   4  -5 -13    0.54    0.46
   4  -5 -13    0.13    0.35
  -4   5  13    0.09    0.41
   3  -5 -13    1.16    0.43
   3  -5 -13    0.61    0.38
  -3   5  13    0.15    0.40
   2  -5 -13    0.18    0.36
  -2   5  13    0.33    0.39
   1  -5 -13    0.14    0.37
  -1   5  13    0.53    0.41
   0  -5 -13    2.57    0.45
   0   5  13    2.82    0.47
   0   5  13    2.29    0.40
  -1  -5 -13    0.45    0.52
   1   5  13    0.68    0.44
   1   5  13    0.37    0.36
   4  -6 -13   -0.09    0.51
  -4   6  13   -0.29    0.59
   3  -6 -13    0.47    0.39
   3  -6 -13    0.52    0.47
  -3   6  13    0.06    0.45
   2  -6 -13    0.94    0.39
   2  -6 -13    0.79    0.47
  -2   6  13    0.33    0.47
   1  -6 -13    1.24    0.45
   0   6  13    1.10    0.38
  -4  -6  14    0.03    1.01
   3   6 -14   -0.03    0.48
  -3  -6  14    0.32    0.59
  -3  -6  14    1.04    0.74
   2   6 -14   -0.95    0.43
   2   6 -14   -0.21    0.54
  -2  -6  14   -0.04    0.56
   1   6 -14    0.38    0.53
  -1  -6  14   -0.49    0.53
   0  -6  14    0.15    0.56
  -6  -5  14    0.10    0.65
  -5  -5  14    0.40    0.85
  -5  -5  14    0.62    0.59
   4   5 -14    0.03    0.47
  -4  -5  14    0.58    0.54
  -4  -5  14    0.33    0.77
   3   5 -14   -0.38    0.44
  -3  -5  14    0.21    0.53
   2   5 -14   -0.66    0.48
   2   5 -14   -0.03    0.42
  -2  -5  14   -0.16    0.50
   1   5 -14   -0.47    0.42
   1   5 -14   -0.52    0.46
  -1  -5  14   -0.08    0.50
   0   5 -14   -0.45    0.46
   0  -5  14    0.07    0.50
  -1   5 -14    0.16    0.46
   1  -5  14   -0.32    0.51
  -6  -4  14    0.85    0.61
  -6  -4  14    1.61    0.85
   5   4 -14   -0.31    0.50
  -5  -4  14    0.88    0.55
  -5  -4  14    1.07    0.86
   4   4 -14    0.70    0.51
  -4  -4  14    1.86    0.55
   3   4 -14   -1.11    0.44
  -3  -4  14    0.30    0.49
   2   4 -14   -0.08    0.45
   2   4 -14   -0.48    0.41
  -2  -4  14   -0.38    0.47
   1   4 -14   -0.07    0.41
   1   4 -14   -0.70    0.42
  -1  -4  14   -0.45    0.48
   0   4 -14    1.19    0.43
   0   4 -14    1.01    0.42
   0  -4  14    0.82    0.47
  -1   4 -14   -0.02    0.41
   1  -4  14   -0.52    0.50
  -2   4 -14    0.37    0.41
   2  -4  14   -0.17    0.53
   2  -4  14    0.21    0.48
  -7  -3  14    1.30    0.74
  -7  -3  14    0.96    0.79
   6   3 -14   -0.48    0.49
  -6  -3  14    0.92    0.59
   5   3 -14   -0.54    0.48
  -5  -3  14    0.52    0.55
   4   3 -14    0.50    0.53
  -4  -3  14    1.64    0.51
   3   3 -14    1.07    0.51
  -3  -3  14    0.99    0.46
   2   3 -14    0.22    0.37
   2   3 -14   -0.39    0.43
  -2  -3  14    0.05    0.47
   1   3 -14    0.27    0.42
   1   3 -14    0.37    0.36
  -1  -3  14    0.77    0.47
   0   3 -14    0.96    0.36
   0   3 -14   -0.05    0.36
   0  -3  14    0.52    0.46
  -1   3 -14    0.35    0.35
  -1   3 -14   -0.06    0.36
   1  -3  14    0.25    0.46
   1  -3  14    0.27    0.40
  -2   3 -14    4.11    0.49
   2  -3  14    4.41    0.56
   2  -3  14    3.06    0.59
   3  -3  14    0.13    0.48
   7   2 -14   -0.43    0.83
  -7  -2  14    1.25    0.59
   6   2 -14   -0.85    0.48
  -6  -2  14    0.08    0.52
   5   2 -14    0.32    0.53
  -5  -2  14    0.67    0.51
   4   2 -14    0.54    0.52
  -4  -2  14    0.82    0.49
   3   2 -14   -0.32    0.47
  -3  -2  14    0.65    0.47
   2   2 -14    1.07    0.46
  -2  -2  14    1.03    0.46
   1   2 -14   -0.09    0.38
   1   2 -14    0.52    0.33
  -1  -2  14    0.81    0.44
   0   2 -14   -0.03    0.29
   0   2 -14    0.25    0.37
   0  -2  14    0.05    0.46
   0  -2  14    0.33    0.34
  -1   2 -14    1.21    0.38
  -1   2 -14    1.16    0.35
   1  -2  14    0.81    0.48
   1  -2  14    0.83    0.39
  -2   2 -14    0.47    0.35
   2  -2  14    0.11    0.42
   2  -2  14   -0.08    0.49
  -3   2 -14    0.47    0.38
   3  -2  14   -0.58    0.56
   3  -2  14    0.25    0.46
   8   1 -14    0.13    0.50
   7   1 -14   -0.17    0.45
  -7  -1  14   -0.01    0.55
   6   1 -14   -0.10    0.49
  -6  -1  14    0.79    0.53
   5   1 -14   -1.00    0.48
  -5  -1  14   -0.03    0.51
   4   1 -14   -0.23    0.47
  -4  -1  14    1.29    0.50
   3   1 -14    0.39    0.46
  -3  -1  14    0.90    0.45
   2   1 -14    0.01    0.38
  -2  -1  14    0.24    0.44
   1   1 -14    0.44    0.38
   1   1 -14    0.90    0.32
  -1  -1  14    0.49    0.46
  -1  -1  14    0.60    0.31
   0   1 -14   -0.08    0.36
   0   1 -14    0.40    0.31
   0  -1  14   -0.27    0.33
   0  -1  14    0.41    0.48
  -1   1 -14    0.40    0.35
  -1   1 -14    0.21    0.32
   1  -1  14    0.22    0.37
   1  -1  14    0.43    0.49
  -2   1 -14   -0.02    0.33
  -2   1 -14    0.21    0.32
   2  -1  14   -0.19    0.52
   2  -1  14    0.14    0.39
  -3   1 -14    0.51    0.34
   3  -1  14   -1.18    0.54
   3  -1  14    0.17    0.40
   8   0 -14   -0.04    0.55
   7   0 -14   -0.13    0.44
   7   0 -14    0.02    0.43
  -7   0  14    0.71    0.56
   6   0 -14   -0.48    0.46
  -6   0  14    0.52    0.50
   5   0 -14   -0.75    0.44
  -5   0  14   -0.07    0.49
   4   0 -14    0.24    0.45
  -4   0  14    0.41    0.49
   3   0 -14    0.76    0.42
  -3   0  14    1.07    0.46
   2   0 -14    0.12    0.38
  -2   0  14   -0.27    0.28
  -2   0  14    0.38    0.45
   1   0 -14    2.67    0.43
   1   0 -14    1.73    0.32
  -1   0  14    1.11    0.34
  -1   0  14    1.67    0.51
   0   0 -14    0.71    0.36
   0   0 -14    0.56    0.30
   0   0  14    0.74    0.52
   0   0  14    0.49    0.34
  -1   0 -14    0.25    0.34
  -1   0 -14    0.04    0.30
   1   0  14    0.58    0.49
   1   0  14    0.99    0.38
  -2   0 -14    4.35    0.49
  -2   0 -14    3.90    0.44
   2   0  14    3.78    0.61
   2   0  14    3.92    0.50
  -3   0 -14    0.88    0.39
  -3   0 -14    0.17    0.32
   3   0  14   -1.01    0.51
   3   0  14   -0.02    0.38
   7  -1 -14    0.31    0.43
   7  -1 -14    1.03    0.48
  -7   1  14    0.88    0.53
   6  -1 -14   -0.29    0.43
   6  -1 -14   -0.26    0.44
  -6   1  14    0.69    0.51
   5  -1 -14    1.49    0.46
  -5   1  14    1.36    0.54
   4  -1 -14    0.06    0.41
  -4   1  14    0.41    0.50
   3  -1 -14    0.18    0.40
  -3   1  14   -0.05    0.28
  -3   1  14    0.20    0.49
   2  -1 -14    0.63    0.37
  -2   1  14    0.61    0.47
  -2   1  14    0.35    0.32
   1  -1 -14    0.00    0.35
   1  -1 -14    0.55    0.28
  -1   1  14    0.30    0.34
  -1   1  14    0.99    0.51
   0  -1 -14    3.88    0.40
   0  -1 -14    3.72    0.47
   0   1  14    3.17    0.58
   0   1  14    2.50    0.40
  -1  -1 -14    0.11    0.35
  -1  -1 -14    0.20    0.31
   1   1  14   -0.63    0.49
   1   1  14    0.20    0.35
  -2  -1 -14    4.60    0.48
  -2  -1 -14    4.56    0.49
   2   1  14    3.22    0.61
   2   1  14    4.28    0.51
  -3  -1 -14    0.16    0.35
   3   1  14    0.73    0.58
  -4  -1 -14   -0.19    0.58
   7  -2 -14    1.52    0.52
   7  -2 -14    2.35    0.47
  -7   2  14    2.39    0.70
   6  -2 -14    0.94    0.47
   6  -2 -14   -0.14    0.41
  -6   2  14    0.20    0.52
   5  -2 -14    0.90    0.43
   5  -2 -14    1.16    0.53
  -5   2  14    0.89    0.54
   4  -2 -14    2.46    0.48
  -4   2  14    2.58    0.41
  -4   2  14    2.90    0.57
   3  -2 -14   -0.26    0.38
  -3   2  14    0.35    0.36
  -3   2  14    0.57    0.53
   2  -2 -14    3.02    0.43
  -2   2  14    2.33    0.54
  -2   2  14    1.95    0.39
   1  -2 -14   -0.41    0.27
   1  -2 -14    0.78    0.36
  -1   2  14    0.57    0.34
  -1   2  14    0.83    0.53
   0  -2 -14    2.32    0.42
   0  -2 -14    2.79    0.37
   0   2  14    1.85    0.41
   0   2  14    3.31    0.59
  -1  -2 -14    0.40    0.36
  -1  -2 -14   -0.15    0.30
   1   2  14    0.38    0.36
  -2  -2 -14    0.75    0.38
  -2  -2 -14    0.31    0.33
   2   2  14    0.39    0.38
  -3  -2 -14    1.48    0.48
   7  -3 -14    0.08    0.53
   6  -3 -14   -0.28    0.44
   6  -3 -14    0.11    0.39
  -6   3  14    0.88    0.55
   5  -3 -14   -0.11    0.40
   5  -3 -14    0.40    0.46
  -5   3  14    0.44    0.52
  -5   3  14    0.47    0.37
   4  -3 -14    2.13    0.45
  -4   3  14    1.63    0.41
  -4   3  14    1.47    0.56
   3  -3 -14    0.09    0.37
  -3   3  14    0.34    0.54
  -3   3  14   -0.15    0.37
   2  -3 -14    0.30    0.37
  -2   3  14    0.27    0.50
  -2   3  14   -0.04    0.36
   1  -3 -14    0.40    0.36
  -1   3  14    0.79    0.35
   0  -3 -14   -0.01    0.30
   0  -3 -14    0.09    0.35
   0   3  14    0.07    0.37
  -1  -3 -14   -0.04    0.32
  -1  -3 -14    0.14    0.37
   1   3  14   -0.46    0.37
  -2  -3 -14    0.84    0.40
  -2  -3 -14    1.60    0.51
   6  -4 -14    0.09    0.53
  -6   4  14    0.25    0.57
  -6   4  14   -0.25    0.53
   5  -4 -14    1.00    0.42
   5  -4 -14   -0.30    0.47
  -5   4  14    0.85    0.43
  -5   4  14    0.78    0.59
   4  -4 -14   -0.78    0.45
   4  -4 -14   -0.06    0.39
  -4   4  14    0.54    0.41
   3  -4 -14    0.16    0.38
  -3   4  14    0.60    0.40
   2  -4 -14    2.15    0.44
  -2   4  14    2.05    0.46
   1  -4 -14    1.39    0.40
  -1   4  14    0.91    0.40
   0  -4 -14    0.41    0.39
   0  -4 -14   -0.14    0.31
   0   4  14    0.35    0.39
  -1  -4 -14   -0.17    0.33
   5  -5 -14    0.03    0.52
  -5   5  14    0.57    0.47
   4  -5 -14   -0.05    0.48
   4  -5 -14    0.20    0.38
  -4   5  14    0.05    0.44
   3  -5 -14   -0.04    0.38
  -3   5  14    0.33    0.43
   2  -5 -14    1.31    0.42
  -2   5  14    1.18    0.45
   1  -5 -14    1.67    0.69
  -1   5  14    0.78    0.66
   0   5  14    0.99    0.39
   2   6 -15   -0.95    0.63
  -4  -5  15    0.77    0.74
   3   5 -15    0.25    0.50
  -3  -5  15    1.38    0.59
   2   5 -15    0.05    0.46
  -2  -5  15    0.12    0.55
   1   5 -15   -0.51    0.51
   1   5 -15   -0.31    0.51
  -1  -5  15    0.35    0.61
  -5  -4  15    0.86    0.63
   4   4 -15    2.41    0.63
  -4  -4  15    2.16    0.59
   3   4 -15   -0.62    0.50
  -3  -4  15    1.15    0.54
   2   4 -15   -0.58    0.49
  -2  -4  15    0.43    0.52
   1   4 -15   -1.05    0.45
   1   4 -15   -1.10    0.43
  -1  -4  15    0.29    0.53
   0   4 -15   -0.29    0.42
   0  -4  15    0.44    0.49
   5   3 -15    0.25    0.64
  -5  -3  15    0.98    0.57
   4   3 -15   -0.70    0.55
  -4  -3  15    0.45    0.52
   3   3 -15   -0.49    0.51
  -3  -3  15   -0.07    0.51
   2   3 -15   -0.20    0.48
  -2  -3  15    0.04    0.50
   1   3 -15    1.06    0.42
   1   3 -15    0.81    0.48
  -1  -3  15    1.37    0.52
   0   3 -15    3.34    0.53
   0   3 -15    3.45    0.47
   0  -3  15    2.66    0.54
  -1   3 -15    0.01    0.37
   1  -3  15   -0.32    0.53
   2  -3  15    1.51    0.47
  -6  -2  15    0.18    0.68
   5   2 -15   -0.86    0.55
  -5  -2  15    1.14    0.57
   4   2 -15   -0.64    0.55
  -4  -2  15    0.26    0.52
   3   2 -15   -0.43    0.50
  -3  -2  15    0.38    0.48
   2   2 -15    1.13    0.49
  -2  -2  15    0.82    0.50
   1   2 -15   -0.27    0.42
   1   2 -15   -0.09    0.34
  -1  -2  15    1.12    0.49
   0   2 -15    0.52    0.35
   0   2 -15    0.62    0.40
   0  -2  15    0.24    0.50
  -1   2 -15    0.97    0.36
  -1   2 -15    0.56    0.41
   1  -2  15    0.18    0.52
   1  -2  15    0.86    0.41
   2  -2  15   -0.38    0.44
   6   1 -15   -0.72    0.54
  -6  -1  15    0.17    0.59
   5   1 -15   -0.37    0.56
  -5  -1  15   -0.13    0.55
   4   1 -15    1.53    0.57
  -4  -1  15    1.96    0.56
   3   1 -15    0.10    0.49
  -3  -1  15    0.65    0.51
   2   1 -15    0.39    0.44
  -2  -1  15    0.26    0.47
   1   1 -15    0.40    0.40
   1   1 -15    0.39    0.33
  -1  -1  15    0.34    0.49
   0   1 -15   -0.19    0.40
   0   1 -15    0.41    0.34
   0  -1  15    0.10    0.51
   0  -1  15   -0.52    0.33
  -1   1 -15    0.85    0.36
  -1   1 -15    0.90    0.40
   1  -1  15    0.62    0.40
   1  -1  15    0.76    0.53
  -2   1 -15    0.20    0.36
  -2   1 -15    0.36    0.39
   2  -1  15    0.08    0.42
   2  -1  15   -0.54    0.52
   6   0 -15   -0.22    0.52
  -6   0  15    0.91    0.58
   5   0 -15    0.54    0.53
  -5   0  15    0.39    0.56
   4   0 -15   -0.70    0.48
  -4   0  15   -0.17    0.51
   3   0 -15   -0.38    0.44
  -3   0  15    0.76    0.50
   2   0 -15   -0.47    0.42
  -2   0  15    0.63    0.53
   1   0 -15    0.49    0.33
   1   0 -15   -0.06    0.39
  -1   0  15    0.47    0.34
  -1   0  15    0.74    0.53
   0   0 -15    0.05    0.38
   0   0 -15   -0.06    0.32
   0   0  15    0.55    0.54
   0   0  15   -0.03    0.34
  -1   0 -15    0.56    0.38
  -1   0 -15    0.45    0.35
   1   0  15    0.21    0.38
   1   0  15   -0.61    0.52
  -2   0 -15    0.23    0.40
  -2   0 -15    0.28    0.38
   2   0  15    0.21    0.40
   2   0  15   -0.58    0.55
  -3   0 -15    1.17    0.51
   6  -1 -15   -0.94    0.47
  -6   1  15    0.35    0.58
   5  -1 -15    0.19    0.48
  -5   1  15    0.62    0.57
   4  -1 -15    0.71    0.47
  -4   1  15    1.07    0.55
   3  -1 -15    0.03    0.43
  -3   1  15    0.41    0.50
   2  -1 -15    0.03    0.40
  -2   1  15    0.58    0.52
  -2   1  15    0.24    0.36
   1  -1 -15    0.32    0.35
   1  -1 -15    0.16    0.37
  -1   1  15    0.30    0.54
  -1   1  15   -0.17    0.34
   0  -1 -15    0.71    0.40
   0  -1 -15    1.17    0.33
   0   1  15    0.81    0.38
   0   1  15    1.69    0.57
  -1  -1 -15    1.38    0.42
  -1  -1 -15    0.85    0.35
   1   1  15    0.88    0.54
   1   1  15    1.22    0.39
  -2  -1 -15    0.45    0.41
   2   1  15   -0.40    0.56
   7  -2 -15   -0.10    0.57
   6  -2 -15   -0.43    0.45
  -6   2  15    1.51    0.74
   5  -2 -15   -0.12    0.44
  -5   2  15    1.09    0.59
   4  -2 -15    1.14    0.47
  -4   2  15    0.73    0.59
   3  -2 -15    1.59    0.46
  -3   2  15    1.49    0.40
  -3   2  15    2.03    0.57
   2  -2 -15    0.02    0.37
  -2   2  15    0.59    0.36
  -2   2  15    1.11    0.58
   1  -2 -15   -0.17    0.39
  -1   2  15    0.20    0.55
  -1   2  15   -0.34    0.37
   0  -2 -15    0.81    0.43
   0  -2 -15    0.85    0.34
   0   2  15    0.83    0.39
   0   2  15    0.94    0.58
  -1  -2 -15   -0.11    0.35
  -1  -2 -15    0.51    0.38
   1   2  15    0.63    0.40
   6  -3 -15    0.23    0.51
   6  -3 -15   -0.03    0.46
   5  -3 -15    0.24    0.42
  -5   3  15    1.02    0.61
   4  -3 -15   -0.44    0.41
  -4   3  15    0.33    0.40
  -4   3  15    0.82    0.60
   3  -3 -15   -0.09    0.39
  -3   3  15   -0.26    0.38
  -3   3  15    0.52    0.57
   2  -3 -15    0.54    0.41
  -2   3  15    1.06    0.38
   1  -3 -15    2.84    0.47
  -1   3  15    2.10    0.44
   0  -3 -15    0.44    0.67
   0  -3 -15    0.69    0.35
   0   3  15    0.85    0.40
   5  -4 -15    1.01    0.76
  -5   4  15   -0.37    0.43
  -5   4  15    1.40    0.74
   4  -4 -15   -0.25    0.44
  -4   4  15    0.00    0.42
   3  -4 -15    0.93    0.45
  -3   4  15    0.50    0.43
  -2   4  15    1.06    0.42
   0  -4 -15    0.07    0.33
   2   4 -16   -0.37    0.60
   1   4 -16    0.13    0.48
   1   4 -16    0.22    0.51
   3   3 -16   -0.84    0.59
   2   3 -16    0.18    0.50
  -2  -3  16   -0.27    0.66
   1   3 -16   -0.09    0.43
   1   3 -16   -0.10    0.46
   0   3 -16    0.98    0.49
   0   3 -16    1.34    0.48
   4   2 -16    0.38    0.85
  -4  -2  16    0.28    0.62
   3   2 -16   -0.56    0.55
  -3  -2  16    0.48    0.54
   2   2 -16   -0.47    0.46
  -2  -2  16    0.47    0.52
   1   2 -16    0.74    0.39
   1   2 -16    0.71    0.49
  -1  -2  16    0.35    0.52
   0   2 -16    0.32    0.38
   0   2 -16    0.12    0.44
  -1   2 -16   -0.09    0.41
   1  -2  16    0.00    0.43
   4   1 -16   -0.43    0.58
  -4  -1  16    0.51    0.54
   3   1 -16    0.29    0.52
  -3  -1  16    0.84    0.54
   2   1 -16    0.67    0.49
  -2  -1  16    0.04    0.52
   1   1 -16    0.35    0.45
  -1  -1  16    0.40    0.54
   0   1 -16    0.61    0.37
   0   1 -16    0.25    0.43
   0  -1  16    0.22    0.41
   0  -1  16    0.07    0.55
  -1   1 -16    0.51    0.42
   1  -1  16    0.16    0.42
   4   0 -16    0.20    0.54
  -4   0  16    0.12    0.55
   3   0 -16   -0.59    0.47
  -3   0  16    0.49    0.54
   2   0 -16   -0.16    0.47
  -2   0  16    0.61    0.56
   1   0 -16    0.17    0.45
  -1   0  16    0.51    0.57
  -1   0  16    0.59    0.39
   0   0 -16    0.34    0.35
   0   0 -16    0.45    0.41
   0   0  16   -0.33    0.55
   0   0  16    0.33    0.38
  -1   0 -16   -0.51    0.71
   1   0  16    0.29    0.49
   4  -1 -16    0.29    0.52
  -4   1  16    1.58    0.62
   3  -1 -16    1.19    0.52
  -3   1  16    0.50    0.57
   2  -1 -16   -0.10    0.42
  -2   1  16    0.48    0.38
  -2   1  16    0.84    0.62
   1  -1 -16    0.23    0.43
  -1   1  16    0.09    0.37
  -1   1  16    0.70    0.61
   0  -1 -16    0.15    0.35
   0   1  16    0.58    0.58
   0   1  16    0.43    0.40
   1   1  16    0.16    0.90
  -4   2  16    1.01    0.64
   3  -2 -16    0.10    0.75
  -3   2  16    0.84    0.41
  -3   2  16    0.08    0.57
  -2   2  16    3.15    0.47
  -2   2  16    4.49    0.71
  -1   2  16    1.32    0.62
  -1   2  16    0.49    0.39
   0  -2 -16   -0.23    0.33
  -4   3  16    0.49    0.68
  -4   3  16    0.66    0.46
  -3   3  16    2.62    0.85
  -3   3  16    1.19    0.44
  -2   3  16   -0.31    0.44
   0   0   0    0.00    0.00


_chemical_formula_moiety          'C15 H12 Br N O4'

_exptl_crystal_description       prism
_exptl_crystal_colour            colourless

_cell_measurement_reflns_used       5076
_cell_measurement_theta_min         2.60
_cell_measurement_theta_max         27.50

_exptl_absorpt_correction_T_min   0.3569
_exptl_absorpt_correction_T_max   0.7459
_exptl_absorpt_correction_type    multi-scan
_exptl_absorpt_process_details   'SADABS-2014/5'

_chemical_absolute_configuration .

_diffrn_radiation_probe          x-ray
_diffrn_radiation_type           MoK\a
_diffrn_radiation_wavelength     0.71073
_diffrn_source                   'sealed tube'
_diffrn_source_type              MoK\a
_diffrn_measurement_device       'three-circle diffractometer'
_diffrn_radiation_monochromator  graphite
_diffrn_detector                 'CCD plate'
_diffrn_measurement_device_type  'Bruker APEX-II CCD'
_diffrn_measurement_method       '\w scans'

_computing_data_collection       'APEX2 v2014.11-0 (Bruker AXS)'
_computing_cell_refinement       'APEX2 v2014.11-0 (Bruker AXS)'
_computing_data_reduction        'APEX2 v2014.11-0 (Bruker AXS)'
_computing_structure_solution    'SHELXS-2013/1 (Sheldrick, 2008)'
_computing_structure_refinement  'SHELXL-2018/3 (Sheldrick, 2015)'
_computing_molecular_graphics
)
WinGX (Farrugia, 2012); Olex2 (Dolomanov et al., 2009);
ORTEP-3 (Farrugia, 2012); PLATON (Spek, 2009)
)
_computing_publication_material  'enCIFer (Allen, 2004)'
_refine_special_details
)
Refinement of F^2^ against ALL reflections. The weighted R-factor wR and
goodness of fit S are based on F^2^, conventional R-factors R are based
on F, with F set to zero for negative F^2^. The threshold expression of
F^2^ > 2sigma(F^2^) is used only for calculating R-factors(gt) etc. and is
not relevant to the choice of reflections for refinement. R-factors based
on F^2^ are statistically about twice as large as those based on F, and R-
factors based on ALL data will be even larger.
)


CELL 0.71073   7.74640   7.88120  12.46730  92.3698 103.4398  94.1357
ZERR    2.00   0.00220   0.00220   0.00350   0.0036   0.0036   0.0035
LATT   1
;
_shelx_hkl_checksum              70705
loop_
_space_group_symop_operation_xyz
'x, y, z'
'-x, -y, -z'
loop_
_atom_site_label
_atom_site_type_symbol
_atom_site_fract_x
_atom_site_fract_y
_atom_site_fract_z
_atom_site_U_iso_or_equiv
_atom_site_adp_type
_atom_site_occupancy
_atom_site_site_symmetry_order
_atom_site_calc_flag
_atom_site_refinement_flags_posn
_atom_site_refinement_flags_adp
Br1 Br 0.77319(6) 0.51163(5) 0.56737(4) 0.0666(2) Uani 1 1 d . .
O1 O 0.4967(3) 0.1779(3) 0.47698(19) 0.0430(5) Uani 1 1 d . .
O3 O 0.8399(3) -0.0015(3) 0.5906(2) 0.0437(5) Uani 1 1 d . .
H3 H 0.739366 -0.050072 0.578224 0.066 Uiso 1 1 calc R U
O11 O 0.8689(6) 0.4877(8) 0.8832(4) 0.1283(19) Uani 1 1 d . .
O12 O 0.7831(6) 0.2253(8) 0.8578(4) 0.1267(19) Uani 1 1 d . .
N1 N 0.8871(5) 0.3409(7) 0.8533(3) 0.0745(13) Uani 1 1 d . .
C1 C 0.6272(4) 0.2161(4) 0.4421(3) 0.0353(7) Uani 1 1 d . .
C2 C 0.8010(4) 0.2763(4) 0.5252(3) 0.0359(7) Uani 1 1 d . .
H2 H 0.900819 0.272490 0.489413 0.043 Uiso 1 1 calc R U
C3 C 0.8349(4) 0.1702(4) 0.6270(2) 0.0332(6) Uani 1 1 d . .
H31 H 0.740144 0.180123 0.666450 0.040 Uiso 1 1 calc R U
C11 C 0.6234(4) 0.2072(4) 0.3227(3) 0.0386(7) Uani 1 1 d . .
C12 C 0.4595(5) 0.1941(5) 0.2473(3) 0.0547(9) Uani 1 1 d . .
H12 H 0.355546 0.195747 0.272381 0.066 Uiso 1 1 calc R U
C13 C 0.4499(7) 0.1785(7) 0.1356(3) 0.0735(13) Uani 1 1 d . .
H13 H 0.339498 0.170369 0.085598 0.088 Uiso 1 1 calc R U
C14 C 0.6025(8) 0.1749(6) 0.0978(4) 0.0753(14) Uani 1 1 d . .
H14 H 0.594925 0.164013 0.022278 0.090 Uiso 1 1 calc R U
C15 C 0.7652(7) 0.1873(7) 0.1704(4) 0.0732(13) Uani 1 1 d . .
H15 H 0.868231 0.184222 0.144401 0.088 Uiso 1 1 calc R U
C16 C 0.7764(5) 0.2046(5) 0.2831(3) 0.0551(9) Uani 1 1 d . .
H16 H 0.887385 0.214476 0.332499 0.066 Uiso 1 1 calc R U
C31 C 1.0147(4) 0.2307(4) 0.7025(2) 0.0319(6) Uani 1 1 d . .
C32 C 1.0405(4) 0.3135(5) 0.8053(3) 0.0428(8) Uani 1 1 d . .
C33 C 1.2059(5) 0.3764(6) 0.8678(3) 0.0569(10) Uani 1 1 d . .
H33 H 1.216957 0.433844 0.936068 0.068 Uiso 1 1 calc R U
C34 C 1.3537(5) 0.3529(5) 0.8278(3) 0.0519(9) Uani 1 1 d . .
H34 H 1.466404 0.392751 0.869260 0.062 Uiso 1 1 calc R U
C35 C 1.3341(4) 0.2703(5) 0.7263(3) 0.0496(9) Uani 1 1 d . .
H35 H 1.433898 0.254327 0.698717 0.060 Uiso 1 1 calc R U
C36 C 1.1669(4) 0.2105(5) 0.6645(3) 0.0426(8) Uani 1 1 d . .
H36 H 1.156325 0.155256 0.595636 0.051 Uiso 1 1 calc R U
loop_
_atom_site_aniso_label
_atom_site_aniso_U_11
_atom_site_aniso_U_22
_atom_site_aniso_U_33
_atom_site_aniso_U_23
_atom_site_aniso_U_13
_atom_site_aniso_U_12
Br1 0.0579(3) 0.0399(2) 0.0884(4) 0.00032(19) -0.0085(2) 0.00113(17)
O1 0.0293(11) 0.0540(14) 0.0425(13) 0.0012(10) 0.0050(10) -0.0048(10)
O3 0.0313(11) 0.0391(12) 0.0570(14) -0.0034(10) 0.0053(10) -0.0011(9)
O11 0.110(3) 0.188(5) 0.096(3) -0.038(3) 0.036(3) 0.068(3)
O12 0.076(3) 0.225(6) 0.088(3) -0.020(3) 0.053(2) -0.022(3)
N1 0.048(2) 0.139(4) 0.0355(18) -0.025(2) 0.0151(15) 0.006(2)
C1 0.0314(16) 0.0341(16) 0.0373(17) 0.0035(13) 0.0018(13) 0.0030(12)
C2 0.0293(15) 0.0402(17) 0.0366(16) 0.0021(13) 0.0050(12) 0.0006(12)
C3 0.0257(14) 0.0435(17) 0.0305(15) -0.0015(12) 0.0068(12) 0.0051(12)
C11 0.0431(18) 0.0354(16) 0.0348(17) 0.0032(13) 0.0043(14) 0.0023(13)
C12 0.049(2) 0.068(3) 0.041(2) 0.0045(17) 0.0000(16) -0.0001(18)
C13 0.079(3) 0.087(3) 0.042(2) 0.005(2) -0.010(2) -0.003(3)
C14 0.110(4) 0.076(3) 0.038(2) -0.003(2) 0.017(2) -0.005(3)
C15 0.085(3) 0.084(3) 0.056(3) -0.004(2) 0.033(2) -0.002(3)
C16 0.052(2) 0.066(3) 0.048(2) 0.0004(18) 0.0119(17) 0.0035(18)
C31 0.0255(14) 0.0392(16) 0.0308(15) 0.0001(12) 0.0061(12) 0.0042(12)
C32 0.0322(16) 0.066(2) 0.0308(16) -0.0037(15) 0.0087(13) 0.0073(15)
C33 0.044(2) 0.085(3) 0.0360(19) -0.0169(18) -0.0002(15) 0.0057(19)
C34 0.0299(17) 0.068(2) 0.050(2) -0.0034(18) -0.0032(15) -0.0008(16)
C35 0.0259(16) 0.070(2) 0.053(2) -0.0033(18) 0.0094(15) 0.0068(15)
C36 0.0331(16) 0.058(2) 0.0373(17) -0.0095(15) 0.0099(14) 0.0069(14)
loop_
_atom_type_symbol
_atom_type_description
_atom_type_scat_dispersion_real
_atom_type_scat_dispersion_imag
_atom_type_scat_source
C C 0.0033 0.0016 'International Tables Vol C Tables 4.2.6.8 and 6.1.1.4'
H H 0.0000 0.0000 'International Tables Vol C Tables 4.2.6.8 and 6.1.1.4'
N N 0.0061 0.0033 'International Tables Vol C Tables 4.2.6.8 and 6.1.1.4'
O O 0.0106 0.0060 'International Tables Vol C Tables 4.2.6.8 and 6.1.1.4'
Br Br -0.2901 2.4595 'International Tables Vol C Tables 4.2.6.8 and 6.1.1.4'
loop_
_geom_angle_atom_site_label_1
_geom_angle_atom_site_label_2
_geom_angle_atom_site_label_3
_geom_angle
C3 O3 H3 109.5
O12 N1 O11 122.4(5)
O12 N1 C32 120.2(5)
O11 N1 C32 117.3(5)
O1 C1 C11 122.6(3)
O1 C1 C2 118.3(3)
C11 C1 C2 119.2(3)
C1 C2 C3 112.5(3)
C1 C2 Br1 104.8(2)
C3 C2 Br1 110.3(2)
C1 C2 H2 109.7
C3 C2 H2 109.7
Br1 C2 H2 109.7
O3 C3 C31 108.5(2)
O3 C3 C2 107.9(2)
C31 C3 C2 109.5(2)
O3 C3 H31 110.3
C31 C3 H31 110.3
C2 C3 H31 110.3
C16 C11 C12 118.6(3)
C16 C11 C1 122.8(3)
C12 C11 C1 118.5(3)
C13 C12 C11 120.4(4)
C13 C12 H12 119.8
C11 C12 H12 119.8
C14 C13 C12 120.2(4)
C14 C13 H13 119.9
C12 C13 H13 119.9
C15 C14 C13 120.4(4)
C15 C14 H14 119.8
C13 C14 H14 119.8
C14 C15 C16 119.8(4)
C14 C15 H15 120.1
C16 C15 H15 120.1
C11 C16 C15 120.5(4)
C11 C16 H16 119.7
C15 C16 H16 119.7
C32 C31 C36 115.9(3)
C32 C31 C3 125.4(3)
C36 C31 C3 118.6(3)
C31 C32 C33 123.3(3)
C31 C32 N1 120.2(3)
C33 C32 N1 116.5(3)
C34 C33 C32 119.0(3)
C34 C33 H33 120.5
C32 C33 H33 120.5
C35 C34 C33 119.5(3)
C35 C34 H34 120.2
C33 C34 H34 120.2
C34 C35 C36 120.4(3)
C34 C35 H35 119.8
C36 C35 H35 119.8
C35 C36 C31 121.8(3)
C35 C36 H36 119.1
C31 C36 H36 119.1
loop_
_geom_bond_atom_site_label_1
_geom_bond_atom_site_label_2
_geom_bond_distance
Br1 C2 1.947(3)
O1 C1 1.214(4)
O3 C3 1.416(4)
O3 H3 0.8200
O11 N1 1.229(7)
O12 N1 1.183(6)
N1 C32 1.475(5)
C1 C11 1.481(5)
C1 C2 1.527(4)
C2 C3 1.530(4)
C2 H2 0.9800
C3 C31 1.519(4)
C3 H31 0.9800
C11 C16 1.386(5)
C11 C12 1.387(5)
C12 C13 1.377(6)
C12 H12 0.9300
C13 C14 1.372(7)
C13 H13 0.9300
C14 C15 1.364(7)
C14 H14 0.9300
C15 C16 1.388(6)
C15 H15 0.9300
C16 H16 0.9300
C31 C32 1.379(4)
C31 C36 1.386(4)
C32 C33 1.381(5)
C33 C34 1.373(5)
C33 H33 0.9300
C34 C35 1.370(5)
C34 H34 0.9300
C35 C36 1.382(5)
C35 H35 0.9300
C36 H36 0.9300
loop_
_geom_hbond_atom_site_label_D
_geom_hbond_atom_site_label_H
_geom_hbond_atom_site_label_A
_geom_hbond_distance_DH
_geom_hbond_distance_HA
_geom_hbond_distance_DA
_geom_hbond_angle_DHA
_geom_hbond_site_symmetry_A
_geom_hbond_publ_flag
O3 H3 O1 0.82 1.98 2.793(3) 170.2 2_656 yes
C33 H33 O11 0.93 2.56 3.430(5) 156.4 2_767 yes
C36 H36 O3 0.93 2.58 3.509(4) 174.4 2_756 yes
loop_
_geom_torsion_atom_site_label_1
_geom_torsion_atom_site_label_2
_geom_torsion_atom_site_label_3
_geom_torsion_atom_site_label_4
_geom_torsion
O1 C1 C2 C3 42.1(4)
C11 C1 C2 C3 -138.3(3)
O1 C1 C2 Br1 -77.8(3)
C11 C1 C2 Br1 101.8(3)
C1 C2 C3 O3 58.7(3)
Br1 C2 C3 O3 175.40(18)
C1 C2 C3 C31 176.7(2)
Br1 C2 C3 C31 -66.6(3)
O1 C1 C11 C16 -161.9(3)
C2 C1 C11 C16 18.5(5)
O1 C1 C11 C12 15.4(5)
C2 C1 C11 C12 -164.2(3)
C16 C11 C12 C13 0.1(6)
C1 C11 C12 C13 -177.3(4)
C11 C12 C13 C14 0.4(7)
C12 C13 C14 C15 -0.2(8)
C13 C14 C15 C16 -0.4(8)
C12 C11 C16 C15 -0.7(6)
C1 C11 C16 C15 176.7(4)
C14 C15 C16 C11 0.8(7)
O3 C3 C31 C32 -130.8(3)
C2 C3 C31 C32 111.6(4)
O3 C3 C31 C36 52.8(4)
C2 C3 C31 C36 -64.8(4)
C36 C31 C32 C33 1.0(6)
C3 C31 C32 C33 -175.5(4)
C36 C31 C32 N1 -179.8(4)
C3 C31 C32 N1 3.8(6)
O12 N1 C32 C31 51.3(6)
O11 N1 C32 C31 -125.6(4)
O12 N1 C32 C33 -129.4(5)
O11 N1 C32 C33 53.7(6)
C31 C32 C33 C34 -1.5(6)
N1 C32 C33 C34 179.2(4)
C32 C33 C34 C35 1.0(6)
C33 C34 C35 C36 -0.2(6)
C34 C35 C36 C31 -0.3(6)
C32 C31 C36 C35 -0.1(5)
C3 C31 C36 C35 176.6(3)
