#------------------------------------------------------------------------------
#$Date: 2019-01-13 04:27:05 +0200 (Sun, 13 Jan 2019) $
#$Revision: 213043 $
#$URL: file:///home/coder/svn-repositories/cod/cif/7/23/21/7232167.cif $
#------------------------------------------------------------------------------
#
# This file is available in the Crystallography Open Database (COD),
# http://www.crystallography.net/
#
# All data on this site have been placed in the public domain by the
# contributors.
#
data_7232167
loop_
_publ_author_name
'Rendo\<sov\'a, Michaela'
'Gyepes, R\'obert'
'Alm\'a\<si, Miroslav'
'B\'artov\'a, Ingrida'
'Vargov\'a, Zuzana'
_publ_section_title
;
 Silver(i) pyridylphosphonates -- synthesis, structure, stability and
 light-insensitivity investigation
;
_journal_issue                   3
_journal_name_full               'RSC Advances'
_journal_page_first              1570
_journal_paper_doi               10.1039/C8RA10136A
_journal_volume                  9
_journal_year                    2019
_chemical_formula_moiety         'C10 H11 Ag N2 O6 P2'
_chemical_formula_sum            'C10 H11 Ag N2 O6 P2'
_chemical_formula_weight         425.02
_space_group_crystal_system      monoclinic
_space_group_IT_number           14
_space_group_name_Hall           '-P 2yn'
_space_group_name_H-M_alt        'P 1 21/n 1'
_symmetry_space_group_name_Hall  '-P 2yn'
_symmetry_space_group_name_H-M   'P 1 21/n 1'
_atom_sites_solution_hydrogens   mixed
_audit_creation_method           SHELXL-2017/1
_audit_update_record
;
2018-12-06 deposited with the CCDC.
2018-12-26 downloaded from the CCDC.
;
_cell_angle_alpha                90
_cell_angle_beta                 93.007(4)
_cell_angle_gamma                90
_cell_formula_units_Z            2
_cell_length_a                   8.3129(8)
_cell_length_b                   6.2896(6)
_cell_length_c                   12.7052(12)
_cell_measurement_reflns_used    4354
_cell_measurement_temperature    150(2)
_cell_measurement_theta_max      27.5253
_cell_measurement_theta_min      2.8609
_cell_volume                     663.37(11)
_computing_structure_refinement  'SHELXL-2017/1 (Sheldrick, 2017)'
_diffrn_ambient_temperature      150(2)
_diffrn_measured_fraction_theta_full 1.000
_diffrn_measured_fraction_theta_max 0.999
_diffrn_measurement_device_type  'Nonius KappaCCD with Bruker APEXII detector'
_diffrn_radiation_type           MoK\a
_diffrn_radiation_wavelength     0.71073
_diffrn_reflns_av_R_equivalents  0.0248
_diffrn_reflns_av_unetI/netI     0.0182
_diffrn_reflns_Laue_measured_fraction_full 1.000
_diffrn_reflns_Laue_measured_fraction_max 0.999
_diffrn_reflns_limit_h_max       10
_diffrn_reflns_limit_h_min       -10
_diffrn_reflns_limit_k_max       8
_diffrn_reflns_limit_k_min       -8
_diffrn_reflns_limit_l_max       16
_diffrn_reflns_limit_l_min       -16
_diffrn_reflns_number            7704
_diffrn_reflns_point_group_measured_fraction_full 1.000
_diffrn_reflns_point_group_measured_fraction_max 0.999
_diffrn_reflns_theta_full        25.242
_diffrn_reflns_theta_max         27.489
_diffrn_reflns_theta_min         2.861
_exptl_absorpt_coefficient_mu    1.790
_exptl_absorpt_correction_T_max  0.71
_exptl_absorpt_correction_T_min  0.58
_exptl_absorpt_correction_type   numerical
_exptl_absorpt_process_details   'SADABS V2014/5 (Bruker AXS Inc.)'
_exptl_crystal_colour            colourless
_exptl_crystal_density_diffrn    2.128
_exptl_crystal_description       prism
_exptl_crystal_F_000             420
_exptl_crystal_size_max          0.386
_exptl_crystal_size_mid          0.250
_exptl_crystal_size_min          0.112
_refine_diff_density_max         0.477
_refine_diff_density_min         -0.450
_refine_diff_density_rms         0.074
_refine_ls_extinction_method     none
_refine_ls_goodness_of_fit_ref   1.063
_refine_ls_hydrogen_treatment    mixed
_refine_ls_matrix_type           full
_refine_ls_number_parameters     100
_refine_ls_number_reflns         1521
_refine_ls_number_restraints     1
_refine_ls_restrained_S_all      1.064
_refine_ls_R_factor_all          0.0220
_refine_ls_R_factor_gt           0.0197
_refine_ls_shift/su_max          0.001
_refine_ls_shift/su_mean         0.000
_refine_ls_structure_factor_coef Fsqd
_refine_ls_weighting_details
'w=1/[\s^2^(Fo^2^)+(0.0259P)^2^+0.4690P] where P=(Fo^2^+2Fc^2^)/3'
_refine_ls_weighting_scheme      calc
_refine_ls_wR_factor_gt          0.0494
_refine_ls_wR_factor_ref         0.0511
_reflns_Friedel_coverage         0.000
_reflns_number_gt                1415
_reflns_number_total             1521
_reflns_threshold_expression     'I > 2\s(I)'
_cod_data_source_file            c8ra10136a2.cif
_cod_data_source_block           agpypo_meta
_cod_database_code               7232167
_shelx_shelxl_version_number     2017/1
_shelx_space_group_comment
;
The symmetry employed for this shelxl refinement is uniquely defined
by the following loop, which should always be used as a source of
symmetry information in preference to the above space-group names.
They are only intended as comments.
;
_shelx_estimated_absorpt_t_min   0.545
_shelx_estimated_absorpt_t_max   0.825
_shelx_res_file
;
TITL agpypo_meta_robert_0m in P2(1)/n
    agpypo_meta.res
    created by SHELXL-2017/1 at 20:41:39 on 07-Oct-2017
CELL 0.71073 8.3129 6.2896 12.7052 90.000 93.007 90.000
ZERR 2.00 0.0008 0.0006 0.0012 0.000 0.004 0.000
LATT 1
SYMM -x+1/2, y+1/2, -z+1/2
SFAC C  H  N  O  P  Ag
UNIT 20 22 4  12 4  2
OMIT -3 55
L.S. 5
EQIV $1 -x+2, -y+1, -z+1
RTAB OOD O3 O3_$1
ACTA
BOND $H
FMAP 2
PLAN -10
SIZE 0.112 0.250 0.386
HTAB
EQIV $3 -x+5/2, y+1/2, -z+1/2
HTAB O2 O1_$3
HTAB O3 O3_$1
EQIV $4 -x+5/2, y-1/2, -z+1/2
HTAB C1 O1_$4
CONF
TEMP -123.000
WGHT    0.025900    0.469000
FVAR       0.19646
AG1   6    1.000000    0.000000    0.000000    10.50000    0.02920    0.01493 =
         0.02254   -0.00802    0.00486   -0.00030
P1    5    1.070168    0.612572    0.324705    11.00000    0.01312    0.01222 =
         0.00935   -0.00059    0.00170   -0.00016
O1    4    1.225448    0.490825    0.329639    11.00000    0.01452    0.01656 =
         0.01320   -0.00112   -0.00097    0.00194
DFIX 0.82 0.03 O2 H2
O2    4    1.094272    0.858956    0.316234    11.00000    0.02004    0.01289 =
         0.01560   -0.00136    0.00480   -0.00230
H2    2    1.149495    0.895157    0.273864    11.00000   -1.20000
O3    4    0.961895    0.578551    0.415795    11.00000    0.01819    0.02532 =
         0.01275    0.00293    0.00542    0.00077
H3O   2    1.000000    0.500000    0.500000    10.50000   -1.50000
N1    3    0.910163    0.280854    0.068451    11.00000    0.01632    0.01447 =
         0.01454   -0.00404    0.00174   -0.00143
C1    1    0.990199    0.351083    0.156737    11.00000    0.01211    0.01377 =
         0.01495   -0.00028   -0.00030    0.00057
AFIX  43
H1    2    1.076375    0.267214    0.186091    11.00000   -1.20000
AFIX   0
C2    1    0.953485    0.538540    0.206738    11.00000    0.01220    0.01316 =
         0.01014    0.00081    0.00321   -0.00184
C3    1    0.825465    0.659937    0.163347    11.00000    0.01670    0.01393 =
         0.01529    0.00048    0.00387    0.00217
AFIX  43
H3    2    0.797168    0.790726    0.194888    11.00000   -1.20000
AFIX   0
C4    1    0.740399    0.586889    0.073697    11.00000    0.01750    0.01855 =
         0.01790    0.00343   -0.00131    0.00264
AFIX  43
H4    2    0.651649    0.665423    0.043877    11.00000   -1.20000
AFIX   0
C5    1    0.786750    0.397545    0.028198    11.00000    0.01624    0.01907 =
         0.01472    0.00080   -0.00119   -0.00335
AFIX  43
H5    2    0.729011    0.348834   -0.033669    11.00000   -1.20000
AFIX   0
HKLF 4 1 1 0 0 0 1 0 0 0 1




REM  agpypo_meta_robert_0m in P2(1)/n
REM R1 =  0.0197 for    1415 Fo > 4sig(Fo)  and  0.0220 for all    1521 data
REM    100 parameters refined using      1 restraints

END

WGHT      0.0255      0.4893

REM Instructions for potential hydrogen bonds
HTAB O2 O1_$3
HTAB O3 O3_$1
HTAB C1 O1_$4

REM Highest difference peak  0.477,  deepest hole -0.450,  1-sigma level  0.074
Q1    1   1.0754  0.3814  0.3244  11.00000  0.05    0.48
Q2    1   1.0052  0.5778  0.2555  11.00000  0.05    0.38
Q3    1   0.7542  0.4762  0.0624  11.00000  0.05    0.37
Q4    1   0.9594  0.4406  0.1936  11.00000  0.05    0.36
Q5    1   0.9030  0.6004  0.1797  11.00000  0.05    0.34
Q6    1   0.9330  0.1700  0.0560  11.00000  0.05    0.32
Q7    1   1.1480  0.5302  0.3249  11.00000  0.05    0.29
Q8    1   1.1549 -0.3210 -0.0594  11.00000  0.05    0.28
Q9    1   1.0561 -0.3158 -0.1140  11.00000  0.05    0.26
Q10   1   0.9987  0.5503  0.3848  11.00000  0.05    0.26
;
_shelx_res_checksum              18824
_shelx_hkl_file
;
   1   0   0   -0.27    0.08
   1   0   0   -0.41    0.06
  -1   0   0   -0.48    0.06
  -1   0   0   -0.29    0.08
  -1   0   0   -0.49    0.07
   1   0   0   -0.51    0.05
   1   0   0   -0.43    0.07
   2   0   0  493.40    9.72
   2   0   0  498.07    9.71
  -2   0   0  499.09   10.17
  -2   0   0  478.25    9.67
  -2   0   0  475.45    9.71
   2   0   0  487.16    9.67
  -3   0   0   -0.03    0.13
  -3   0   0   -0.05    0.10
   3   0   0    0.13    0.12
   3   0   0   -0.06    0.11
   3   0   0    0.05    0.12
  -3   0   0    0.36    0.15
  -4   0   0  294.57    6.49
  -4   0   0  313.20    6.61
   4   0   0  308.91    6.49
   4   0   0  321.22    6.63
  -4   0   0  304.88    6.59
  -5   0   0    0.02    0.18
   5   0   0   -0.18    0.12
  -5   0   0    0.09    0.15
   5   0   0   -0.06    0.14
   6   0   0    0.34    0.24
  -6   0   0    0.11    0.18
  -6   0   0    0.53    0.26
  -7   0   0    0.01    0.17
   7   0   0   -0.17    0.17
  -7   0   0   -0.18    0.23
   8   0   0    1.94    0.40
  -8   0   0    1.92    0.46
  -8   0   0    2.30    0.54
  -9   0   0    0.00    0.25
  -9   0   0   -0.31    0.22
   9   0   0    0.23    0.27
 -10   0   0    8.91    1.11
 -10   0   0    9.70    1.10
   0  -1   0   -0.45    0.05
   0  -1   0   -0.54    0.05
   0  -1   0   -0.40    0.07
   0   1   0   -0.49    0.04
   0   1   0   -0.47    0.07
   1  -1   0    2.23    0.20
  -1  -1   0    2.01    0.18
  -1  -1   0    2.34    0.14
   1  -1   0    1.83    0.20
  -1  -1   0    2.49    0.18
  -1  -1   0    2.17    0.15
   1  -1   0    2.07    0.17
  -1  -1   0    2.82    0.15
   1   1   0    2.17    0.09
   1   1   0    2.10    0.09
  -1   1   0    2.19    0.19
  -1   1   0    2.08    0.20
   1   1   0    2.79    0.20
   1   1   0    2.26    0.10
   1   1   0    2.15    0.18
  -1   1   0    1.93    0.19
  -1   1   0    1.93    0.18
   2  -1   0   83.96    2.07
  -2  -1   0   90.03    1.93
   2  -1   0   86.53    2.08
   2  -1   0   85.33    2.04
  -2  -1   0   87.20    1.96
  -2  -1   0   85.79    1.99
  -2  -1   0   84.52    1.96
  -2  -1   0   90.21    1.98
   2   1   0   88.37    1.86
  -2   1   0   86.13    2.09
   2   1   0   86.26    1.98
   2   1   0   88.51    1.90
  -2   1   0   86.91    2.03
   2   1   0   88.21    1.98
  -2   1   0   87.20    2.09
  -3  -1   0   76.79    1.84
   3  -1   0   74.42    1.95
  -3  -1   0   75.30    1.84
   3  -1   0   74.25    1.99
  -3  -1   0   78.03    1.90
  -3  -1   0   77.05    1.91
   3  -1   0   74.33    2.00
   3   1   0   78.39    1.82
   3   1   0   79.32    1.93
  -3   1   0   76.77    2.01
   3   1   0   78.99    1.78
  -3   1   0   80.91    2.04
  -3   1   0   75.54    1.94
  -4  -1   0   58.98    1.66
  -4  -1   0   56.30    1.66
  -4  -1   0   57.40    1.60
   4  -1   0   57.56    1.75
  -4  -1   0   58.07    1.54
   4  -1   0   59.44    1.71
  -4   1   0   60.11    1.78
  -4   1   0   59.01    1.77
   4   1   0   59.82    1.53
   4   1   0   57.04    1.66
   4   1   0   58.15    1.57
  -5  -1   0   32.23    1.22
  -5  -1   0   29.46    1.04
  -5  -1   0   32.36    1.19
   5  -1   0   31.80    1.23
   5   1   0   29.73    1.04
   5   1   0   31.40    1.20
  -5   1   0   30.69    1.27
  -5   1   0   30.18    1.26
  -6  -1   0    0.05    0.20
  -6  -1   0   -0.07    0.13
   6  -1   0    0.03    0.20
   6   1   0    0.33    0.23
  -6   1   0    0.40    0.24
   6   1   0    0.13    0.17
  -6   1   0   -0.02    0.21
  -7  -1   0  143.52    3.81
   7  -1   0  147.10    3.83
  -7  -1   0  143.98    3.89
  -7   1   0  149.18    4.01
   7   1   0  142.73    3.51
  -7   1   0  137.83    3.94
  -8  -1   0   19.58    1.21
  -8  -1   0   20.95    1.21
   8  -1   0   21.30    1.18
  -8   1   0   20.78    1.28
   8   1   0   20.13    0.96
  -8   1   0   19.13    1.23
  -9  -1   0   42.37    1.86
  -9  -1   0   40.40    1.93
   9  -1   0   38.76    1.74
  -9   1   0   41.82    1.99
  -9   1   0   42.37    1.98
 -10  -1   0    2.13    0.60
 -10  -1   0    1.42    0.52
  10  -1   0    1.77    0.53
 -10   1   0    1.85    0.58
 -10   1   0    1.95    0.57
   0  -2   0  428.00    8.57
   0  -2   0  423.41    8.63
   0  -2   0  425.18    8.56
   0   2   0  443.65    8.55
   0   2   0  442.64    8.82
   1  -2   0    6.22    0.36
  -1  -2   0    6.90    0.31
   1  -2   0    5.86    0.36
   1  -2   0    6.73    0.39
  -1  -2   0    6.45    0.28
  -1  -2   0    6.01    0.39
  -1   2   0    5.55    0.32
   1   2   0    6.01    0.38
  -1   2   0    6.28    0.32
  -1   2   0    6.82    0.41
   2  -2   0  124.00    2.86
  -2  -2   0  119.52    2.81
   2  -2   0  125.81    2.91
  -2  -2   0  122.86    2.69
  -2  -2   0  120.14    2.68
  -2  -2   0  120.10    2.63
   2  -2   0  126.42    2.90
   2   2   0  124.48    2.80
   2   2   0  124.55    2.85
  -2   2   0  122.01    2.92
  -2   2   0  121.99    2.79
  -2   2   0  124.74    2.86
  -3  -2   0    5.19    0.33
   3  -2   0    5.21    0.45
  -3  -2   0    5.58    0.40
  -3  -2   0    5.13    0.35
  -3  -2   0    5.73    0.38
   3  -2   0    5.92    0.47
  -3  -2   0    5.43    0.38
   3   2   0    5.06    0.38
   3   2   0    5.82    0.18
   3   2   0    5.55    0.17
  -3   2   0    5.40    0.46
  -3   2   0    5.16    0.45
  -4  -2   0  321.06    6.70
  -4  -2   0  309.34    6.68
  -4  -2   0  318.93    6.61
   4  -2   0  320.89    6.89
  -4  -2   0  322.04    6.65
  -4  -2   0  316.71    6.64
  -4   2   0  305.61    6.92
  -4   2   0  320.65    6.92
   4   2   0  306.09    6.30
   4   2   0  312.81    6.70
  -5  -2   0    6.92    0.51
  -5  -2   0    7.11    0.52
  -5  -2   0    8.72    0.61
   5  -2   0    7.85    0.66
  -5   2   0    9.75    0.73
   5   2   0    7.88    0.41
  -5   2   0    9.21    0.71
   5   2   0    7.60    0.58
   5   2   0    8.21    0.38
  -6  -2   0   37.82    1.48
  -6  -2   0   38.48    1.41
   6  -2   0   37.44    1.55
  -6   2   0   40.00    1.65
   6   2   0   38.35    1.49
   6   2   0   36.05    1.08
  -6   2   0   38.26    1.62
  -7  -2   0   -0.05    0.16
   7  -2   0   -0.30    0.23
  -7  -2   0    0.03    0.22
  -7   2   0   -0.18    0.22
  -7   2   0   -0.09    0.19
   7   2   0    0.15    0.12
  -8  -2   0   24.28    1.24
  -8  -2   0   24.04    1.34
   8  -2   0   24.05    1.34
  -8   2   0   21.87    1.38
  -8   2   0   22.73    1.40
   9  -2   0   10.00    1.02
  -9  -2   0   10.60    1.09
  -9   2   0    9.07    1.05
  -9   2   0   10.35    1.12
 -10  -2   0    1.40    0.51
  10  -2   0    0.73    0.42
 -10   2   0    1.18    0.49
 -10   2   0    1.25    0.52
   0  -3   0   -0.09    0.07
   0  -3   0    0.09    0.09
   0  -3   0   -0.04    0.09
   0   3   0    0.19    0.18
   0   3   0   -0.04    0.04
   0   3   0    0.00    0.05
  -1  -3   0  223.52    4.63
  -1  -3   0  222.14    4.67
   1  -3   0  223.04    4.80
   1  -3   0  221.32    4.80
   1  -3   0  217.31    4.82
  -1  -3   0  223.77    4.71
  -1   3   0  222.70    4.92
  -1   3   0  230.97    4.64
   1   3   0  219.61    4.98
  -1   3   0  221.65    4.61
  -1   3   0  217.49    5.03
   2  -3   0    7.70    0.52
  -2  -3   0    7.63    0.41
  -2  -3   0    8.24    0.45
  -2  -3   0    7.87    0.39
   2  -3   0    8.12    0.53
   2   3   0    7.58    0.49
   2   3   0    6.98    0.52
  -2   3   0    7.77    0.48
  -2   3   0    7.95    0.56
   3  -3   0  145.62    3.56
  -3  -3   0  144.74    3.33
  -3  -3   0  142.36    3.23
  -3  -3   0  146.38    3.26
  -3   3   0  145.69    3.65
   3   3   0  142.67    3.43
   3   3   0  146.30    3.53
  -3   3   0  149.76    3.53
  -4  -3   0    0.30    0.15
  -4  -3   0    0.37    0.19
   4  -3   0    0.64    0.27
  -4  -3   0    0.30    0.14
  -4   3   0    0.17    0.22
  -4   3   0    0.56    0.23
   4   3   0    0.34    0.22
  -5  -3   0   67.65    1.93
  -5  -3   0   66.62    2.04
   5  -3   0   73.63    2.29
  -5  -3   0   66.68    1.94
  -5   3   0   67.85    2.24
   5   3   0   67.84    2.07
  -5   3   0   70.24    2.34
  -6  -3   0    0.92    0.31
  -6  -3   0    0.74    0.23
   6  -3   0    0.86    0.29
  -6   3   0    0.88    0.33
  -6   3   0    0.97    0.35
  -7  -3   0   37.87    1.46
   7  -3   0   38.07    1.72
  -7  -3   0   37.65    1.60
  -7   3   0   34.64    1.69
  -7   3   0   35.04    1.75
  -8  -3   0    8.92    0.95
   8  -3   0    8.71    0.96
  -8   3   0    8.99    1.04
  -8   3   0    9.16    1.05
   9  -3   0    4.33    0.73
  -9  -3   0    5.18    0.81
  -9   3   0    4.70    0.81
  -9   3   0    4.88    0.81
  10  -3   0    3.99    0.77
 -10  -3   0    3.02    0.67
 -10   3   0    2.79    0.71
 -10   3   0    3.36    0.75
   0  -4   0    2.21    0.30
   0  -4   0    1.84    0.30
   0   4   0    2.29    0.40
   1  -4   0    0.40    0.19
   1  -4   0    0.21    0.18
  -1  -4   0    0.04    0.12
  -1  -4   0    0.39    0.18
  -1   4   0    0.11    0.09
   1   4   0    0.15    0.20
  -1   4   0    0.44    0.22
  -1   4   0    0.12    0.09
  -2  -4   0   26.51    0.95
   2  -4   0   30.34    1.19
  -2  -4   0   29.29    1.04
  -2   4   0   28.75    0.99
   2   4   0   27.66    1.24
   2   4   0   29.68    1.17
  -2   4   0   29.74    1.32
  -2   4   0   30.55    1.27
  -3  -4   0   -0.08    0.16
   3  -4   0   -0.07    0.20
  -3  -4   0   -0.04    0.10
  -3  -4   0    0.03    0.11
   3   4   0   -0.14    0.14
  -3   4   0    0.11    0.15
   3   4   0    0.00    0.17
  -3   4   0   -0.02    0.16
  -4  -4   0   81.48    2.23
  -4  -4   0   84.12    2.35
  -4  -4   0   87.11    2.19
   4  -4   0   88.06    2.63
  -4   4   0   85.72    2.49
  -4   4   0   83.31    2.67
   4   4   0   85.96    2.55
  -5  -4   0    8.44    0.55
  -5  -4   0    8.98    0.69
   5  -4   0    7.11    0.78
   5   4   0    8.52    0.69
  -5   4   0    9.17    0.81
  -5   4   0    8.59    0.73
  -6  -4   0   71.56    2.32
  -6  -4   0   69.31    2.07
   6  -4   0   71.41    2.54
  -6   4   0   75.32    2.68
  -6   4   0   72.78    2.49
   7  -4   0   -0.08    0.30
  -7  -4   0   -0.06    0.22
  -7   4   0    0.41    0.29
  -7   4   0    0.13    0.27
  -8  -4   0   51.81    2.11
   8  -4   0   46.41    2.17
  -8   4   0   46.46    2.15
  -8   4   0   47.62    2.29
  -9  -4   0    6.18    0.87
   9  -4   0    4.30    0.80
  -9   4   0    5.33    0.92
  -9   4   0    5.66    0.88
   0  -5   0   -0.14    0.19
   0   5   0   -0.17    0.18
  -1  -5   0  141.06    3.51
   1  -5   0  154.11    3.75
  -1  -5   0  150.82    3.63
  -1   5   0  145.32    4.09
   1   5   0  144.54    4.02
  -2  -5   0    9.86    0.65
  -2  -5   0    8.45    0.56
   2  -5   0    9.67    0.73
  -2   5   0    9.39    0.47
  -2   5   0    9.74    0.85
   2   5   0    8.68    0.76
   2   5   0    8.75    0.69
  -3  -5   0  104.72    2.82
  -3  -5   0  105.61    2.56
  -3  -5   0   96.48    2.65
   3  -5   0  103.10    3.04
  -3   5   0  109.83    3.33
   3   5   0  106.81    2.99
   3   5   0  105.59    3.15
  -3   5   0  106.96    3.19
   4  -5   0   27.21    1.37
  -4  -5   0   23.29    1.12
  -4  -5   0   23.77    0.90
   4   5   0   23.47    1.27
  -4   5   0   20.73    1.27
  -4   5   0   23.12    1.10
  -4   5   0   25.09    1.42
   4   5   0   23.70    1.18
   5  -5   0   24.61    1.40
  -5  -5   0   25.73    1.21
  -5   5   0   25.87    1.26
  -5   5   0   27.20    1.50
   5   5   0   26.68    1.36
  -6  -5   0    4.59    0.63
   6  -5   0    4.73    0.74
   6   5   0    4.25    0.64
  -6   5   0    4.54    0.77
  -6   5   0    3.93    0.62
   7  -5   0    6.23    0.87
  -7  -5   0    6.40    0.79
  -7   5   0    6.62    0.84
  -7   5   0    6.56    0.92
   8  -5   0    0.70    0.44
  -8  -5   0   -0.08    0.28
  -8   5   0   -0.17    0.27
  -8   5   0   -0.10    0.27
   0  -6   0   37.74    1.54
   0   6   0   36.01    1.76
  -1  -6   0    1.63    0.36
   1  -6   0    2.18    0.45
  -1   6   0    1.78    0.48
   1   6   0    2.09    0.48
   2  -6   0   28.99    1.42
  -2  -6   0   28.62    1.31
  -2   6   0   29.42    1.65
   2   6   0   27.69    1.40
   2   6   0   32.89    1.65
   3  -6   0    3.28    0.56
  -3  -6   0    2.96    0.48
   3   6   0    2.74    0.57
   3   6   0    3.39    0.54
  -3   6   0    2.51    0.60
  -4  -6   0   33.41    1.47
   4  -6   0   29.96    1.59
  -4   6   0   31.06    1.75
   4   6   0   28.75    1.57
   4   6   0   32.26    1.50
  -5  -6   0   15.97    1.03
   5  -6   0   14.80    1.16
  -5   6   0   13.25    1.19
  -5   6   0   11.32    1.18
   5   6   0   15.31    1.14
   6  -6   0   50.87    2.34
  -6  -6   0   49.88    2.03
  -6   6   0   53.96    2.46
  -6   6   0   56.08    2.49
   6   6   0   55.54    2.26
  -7  -6   0    4.79    0.72
   7  -6   0    4.09    0.78
  -7   6   0    3.43    0.73
  -7   6   0    4.90    0.86
   0  -7   0   -0.08    0.21
   0   7   0   -0.26    0.25
   1  -7   0   40.00    1.82
  -1  -7   0   44.58    1.84
   1   7   0   42.85    1.94
   1   7   0   40.68    2.10
  -1   7   0   42.20    2.15
  -2  -7   0   16.35    1.08
   2  -7   0   16.60    1.19
  -2   7   0   19.33    1.46
   2   7   0   17.57    1.33
   2   7   0   17.59    1.18
  -3  -7   0   31.53    1.52
   3  -7   0   32.90    1.73
   3   7   0   31.50    1.80
  -3   7   0   32.52    1.92
   3   7   0   32.58    1.65
   4  -7   0    5.80    0.86
  -4  -7   0    6.43    0.79
   4   7   0    6.55    0.91
   4   7   0    5.76    0.79
  -4   7   0    4.17    0.84
   5  -7   0    3.23    0.70
  -5  -7   0    2.44    0.56
   5   7   0    1.80    0.51
  -5   7   0    2.59    0.70
   0  -8   0   73.59    2.76
   0   8   0   71.24    3.16
  -1  -8   0    5.32    0.80
   1  -8   0    6.17    0.87
   1   8   0    6.88    1.05
   1   8   0    4.43    0.78
  -1   8   0    5.61    0.98
   2  -8   0   26.44    1.64
  -2  -8   0   29.20    1.58
   2   8   0   26.41    1.61
  -2   8   0   30.05    1.93
   2   8   0   29.48    1.89
 -10   0   1   -0.35    0.22
 -10   0   1   -0.14    0.31
  -9   0   1    3.98    0.68
  -9   0   1    3.34    0.61
  -8   0   1   -0.19    0.19
   8   0  -1    0.13    0.19
  -8   0   1    0.30    0.23
   7   0  -1   25.22    1.11
  -7   0   1   23.32    1.24
  -7   0   1   22.15    1.18
   6   0  -1    0.19    0.19
  -6   0   1   -0.07    0.16
  -6   0   1    0.03    0.21
  -5   0   1  220.52    5.03
   5   0  -1  218.74    5.05
  -5   0   1  217.03    5.05
   5   0  -1  224.94    4.89
  -4   0   1   -0.18    0.10
  -4   0   1   -0.15    0.10
  -4   0   1   -0.06    0.14
   4   0  -1   -0.12    0.12
   4   0  -1    0.07    0.16
  -4   0   1   -0.14    0.09
   4   0  -1   -0.15    0.13
   3   0  -1  223.91    4.67
  -3   0   1  209.22    4.59
  -3   0   1  221.16    4.65
   3   0  -1  220.04    4.60
  -3   0   1  213.81    4.64
   3   0  -1  215.98    4.56
   2   0  -1   -0.09    0.09
   2   0  -1   -0.02    0.09
   2   0  -1   -0.14    0.09
  -2   0   1   -0.17    0.08
  -2   0   1    0.08    0.10
  -2   0   1   -0.07    0.09
  -1   0   1  304.20    5.92
  -1   0   1  287.68    5.75
   1   0  -1  299.84    6.10
   1   0  -1  276.43    5.70
  -1   0   1  280.57    5.86
   1   0  -1  294.75    5.75
   0   0   1    0.05    0.04
   0   0  -1    0.00    0.03
   0   0   1   -0.04    0.03
   0   0   1   -0.11    0.02
   0   0  -1    0.03    0.03
   0   0  -1   -0.06    0.02
  -1   0  -1  103.91    2.25
  -1   0  -1  105.24    2.23
  -1   0  -1  104.49    2.26
   1   0   1  108.10    2.23
   1   0   1  107.65    2.26
   1   0   1  104.00    2.25
   2   0   1   -0.34    0.12
   2   0   1   -0.35    0.11
   2   0   1   -0.11    0.12
  -2   0  -1   -0.25    0.12
  -2   0  -1   -0.39    0.12
  -2   0  -1   -0.42    0.10
   3   0   1   36.40    1.17
  -3   0  -1   36.56    1.12
   3   0   1   36.53    1.15
  -3   0  -1   38.26    1.18
  -3   0  -1   38.70    1.18
   3   0   1   38.90    1.14
  -4   0  -1   -0.11    0.14
   4   0   1    0.27    0.16
  -4   0  -1    0.26    0.15
   4   0   1    0.08    0.15
   4   0   1    0.06    0.10
   5   0   1   69.59    1.99
  -5   0  -1   68.67    2.09
  -5   0  -1   68.59    2.07
  -6   0  -1   -0.03    0.22
  -6   0  -1   -0.09    0.15
   6   0   1   -0.09    0.15
  -7   0  -1  175.42    4.57
   7   0   1  175.99    4.38
  -7   0  -1  179.07    4.64
  -8   0  -1    0.29    0.24
   8   0   1   -0.36    0.22
  -8   0  -1    0.10    0.21
  -9   0  -1   94.63    3.23
   9   0   1   89.93    2.84
  -9   0  -1   92.58    3.14
 -10   0  -1    0.07    0.36
 -10   0  -1    0.22    0.30
 -10  -1   1   13.29    1.17
 -10   1   1   12.48    1.28
 -10   1   1   15.13    1.25
   9  -1  -1   10.29    0.86
  -9  -1   1   10.58    0.96
  -9  -1   1    9.26    0.84
  -9   1   1    9.76    1.06
  -9   1   1    9.57    1.06
   8  -1  -1   46.79    1.83
  -8  -1   1   49.14    1.99
  -8  -1   1   46.06    1.86
  -8   1   1   50.67    2.05
  -8   1   1   52.17    2.09
   8   1  -1   48.62    1.75
  -7  -1   1   13.52    0.86
  -7  -1   1   14.41    0.94
   7  -1  -1   12.00    0.84
   7   1  -1   12.70    0.67
  -7   1   1   12.30    0.92
  -7   1   1   13.24    0.96
   6  -1  -1   41.66    1.52
  -6  -1   1   40.50    1.48
  -6  -1   1   39.26    1.51
   6   1  -1   40.16    1.51
  -6   1   1   39.72    1.60
   6   1  -1   41.12    1.27
  -6   1   1   43.25    1.64
  -5  -1   1   15.62    0.79
   5  -1  -1   14.40    0.76
  -5  -1   1   13.97    0.70
  -5  -1   1   14.24    0.74
   5   1  -1   13.70    0.59
  -5   1   1   13.97    0.81
   5   1  -1   13.01    0.72
  -5   1   1   14.24    0.80
  -4  -1   1  170.59    3.79
  -4  -1   1  162.24    3.72
   4  -1  -1  173.13    4.00
   4  -1  -1  166.67    3.88
  -4  -1   1  168.14    3.83
  -4  -1   1  164.22    3.78
  -4   1   1  170.52    3.98
   4   1  -1  169.80    3.63
  -4   1   1  170.56    3.97
   4   1  -1  169.82    3.83
   4   1  -1  172.65    3.58
  -3  -1   1    4.92    0.33
  -3  -1   1    4.64    0.35
   3  -1  -1    4.65    0.38
   3  -1  -1    4.96    0.39
  -3  -1   1    5.16    0.31
   3  -1  -1    4.60    0.39
  -3  -1   1    5.27    0.33
  -3  -1   1    5.03    0.31
   3   1  -1    5.09    0.34
   3   1  -1    4.70    0.25
  -3   1   1    5.41    0.43
  -3   1   1    4.54    0.40
  -3   1   1    4.95    0.37
   2  -1  -1  509.06   10.38
  -2  -1   1  534.52   10.69
   2  -1  -1  520.66   10.42
   2  -1  -1  500.60   10.44
  -2  -1   1  526.75   10.40
  -2  -1   1  515.31   10.44
  -2  -1   1  533.33   10.40
  -2  -1   1  526.58   10.64
  -2   1   1  495.10   10.43
   2   1  -1  537.89   10.24
  -2   1   1  506.42   10.37
  -2   1   1  523.99   10.43
   2   1  -1  530.04   10.40
   1  -1  -1   64.75    1.52
  -1  -1   1   64.57    1.53
  -1  -1   1   64.89    1.30
   1  -1  -1   65.99    1.57
   1  -1  -1   63.00    1.53
  -1  -1   1   64.11    1.54
  -1   1   1   65.57    1.57
  -1   1   1   63.62    1.53
   1   1  -1   63.56    1.55
  -1   1   1   62.76    1.50
   1   1  -1   65.22    1.54
   0  -1  -1  220.06    4.59
   0  -1  -1  228.69    4.63
   0  -1   1  223.41    4.66
   0  -1   1  237.57    4.66
   0   1   1  222.32    4.60
   0   1   1  229.39    4.59
   0   1  -1  230.52    4.67
   0   1  -1  234.73    4.63
  -1  -1  -1   47.59    1.16
   1  -1   1   44.83    1.13
  -1  -1  -1   46.63    1.11
   1  -1   1   46.59    1.11
   1  -1   1   46.24    1.13
  -1   1  -1   46.20    1.08
   1   1   1   46.45    1.09
   1   1   1   47.43    1.03
  -1   1  -1   46.22    1.16
   1   1   1   46.31    1.09
  -1   1  -1   45.71    1.14
  -1   1  -1   45.66    1.11
   1   1   1   47.21    1.13
   2  -1   1  388.56    7.87
  -2  -1  -1  402.65    7.87
  -2  -1  -1  391.68    7.70
   2  -1   1  382.74    7.90
  -2  -1  -1  390.11    7.85
  -2  -1  -1  390.39    7.67
   2  -1   1  376.61    7.89
  -2  -1  -1  390.20    7.80
  -2   1  -1  390.40    7.90
  -2   1  -1  367.44    7.89
   2   1   1  392.95    7.77
   2   1   1  391.82    7.83
  -2   1  -1  388.61    7.84
   2   1   1  403.73    7.70
   3  -1   1    1.60    0.26
   3  -1   1    1.99    0.28
  -3  -1  -1    1.72    0.28
  -3  -1  -1    1.78    0.17
  -3  -1  -1    1.95    0.25
   3  -1   1    1.57    0.26
   3  -1   1    1.44    0.27
  -3  -1  -1    1.90    0.27
   3   1   1    1.43    0.25
  -3   1  -1    1.90    0.30
  -3   1  -1    1.75    0.28
   3   1   1    1.74    0.27
  -3   1  -1    1.82    0.26
   3   1   1    1.52    0.23
  -4  -1  -1  102.38    2.57
  -4  -1  -1  105.88    2.37
  -4  -1  -1  104.36    2.64
   4  -1   1  103.57    2.71
  -4  -1  -1  104.47    2.66
   4  -1   1  105.02    2.67
   4  -1   1  101.22    2.65
   4   1   1  106.11    2.52
  -4   1  -1  107.54    2.75
   4   1   1  106.58    2.67
   4   1   1  105.37    2.52
  -4   1  -1  108.09    2.75
  -5  -1  -1    5.74    0.59
  -5  -1  -1    5.47    0.35
   5  -1   1    5.44    0.56
  -5  -1  -1    5.49    0.56
   5   1   1    5.12    0.54
  -5   1  -1    5.11    0.58
   5   1   1    5.56    0.45
  -5   1  -1    5.11    0.57
  -6  -1  -1   71.57    2.27
  -6  -1  -1   68.12    2.18
  -6  -1  -1   68.39    1.84
   6  -1   1   72.61    2.23
  -6   1  -1   70.77    2.32
   6   1   1   73.39    2.05
  -6   1  -1   71.85    2.33
  -7  -1  -1    9.06    0.75
  -7  -1  -1   10.61    0.86
   7  -1   1    9.51    0.79
  -7   1  -1   10.31    0.85
   7   1   1    9.92    0.69
  -7   1  -1    8.50    0.89
  -8  -1  -1    0.40    0.24
  -8  -1  -1    0.47    0.33
   8  -1   1    0.23    0.28
  -8   1  -1    0.28    0.24
  -8   1  -1    0.35    0.29
   8   1   1    0.16    0.19
  -9  -1  -1    3.93    0.65
  -9  -1  -1    4.50    0.76
   9  -1   1    6.02    0.77
  -9   1  -1    7.50    0.93
  -9   1  -1    5.20    0.79
 -10  -1  -1    0.64    0.44
 -10  -1  -1    1.77    0.50
  10  -1   1    0.35    0.34
 -10   1  -1    0.88    0.48
 -10   1  -1    1.36    0.48
 -10  -2   1   32.75    1.83
  10  -2  -1   35.55    1.79
 -10   2   1   37.23    2.02
 -10   2   1   33.87    1.94
   9  -2  -1    6.55    0.82
  -9  -2   1    7.42    0.89
  -9   2   1    8.28    0.99
  -9   2   1    7.35    0.94
  -8  -2   1   16.34    0.98
  -8  -2   1   16.30    1.10
   8  -2  -1   14.24    1.04
  -8   2   1   18.16    1.24
  -8   2   1   17.50    1.22
  -7  -2   1   42.21    1.59
   7  -2  -1   43.30    1.76
  -7  -2   1   45.07    1.72
  -7   2   1   41.62    1.82
  -7   2   1   43.33    1.86
  -6  -2   1   16.09    0.88
  -6  -2   1   14.71    0.80
   6  -2  -1   14.65    0.92
  -6   2   1   16.07    0.98
  -6   2   1   15.94    1.01
   6   2  -1   14.28    0.83
   5  -2  -1   79.67    2.32
  -5  -2   1   75.65    2.12
  -5  -2   1   76.60    2.07
  -5  -2   1   76.20    2.06
  -5   2   1   74.91    2.37
  -5   2   1   80.74    2.40
   5   2  -1   74.49    2.12
  -4  -2   1    1.49    0.23
  -4  -2   1    1.32    0.24
  -4  -2   1    1.60    0.22
   4  -2  -1    1.42    0.31
   4   2  -1    1.72    0.26
  -4   2   1    1.74    0.33
  -4   2   1    1.20    0.31
  -3  -2   1   69.69    1.66
  -3  -2   1   68.64    1.66
  -3  -2   1   67.49    1.61
   3  -2  -1   70.73    1.93
   3  -2  -1   67.55    1.97
  -3  -2   1   66.76    1.85
  -3  -2   1   69.62    1.88
   3   2  -1   71.15    1.92
  -3   2   1   67.29    1.94
   3   2  -1   70.98    1.73
  -3   2   1   70.95    2.01
   2  -2  -1    0.52    0.19
  -2  -2   1    0.03    0.06
  -2  -2   1   -0.05    0.12
  -2  -2   1    0.06    0.05
  -2  -2   1    0.00    0.06
   2  -2  -1   -0.05    0.10
   2  -2  -1    0.11    0.12
  -2  -2   1    0.00    0.12
  -2   2   1    0.04    0.13
  -2   2   1    0.13    0.12
   2   2  -1   -0.06    0.12
   2   2  -1    0.16    0.15
  -2   2   1    0.08    0.14
   1  -2  -1  178.25    3.82
  -1  -2   1  178.59    3.90
   1  -2  -1  172.93    3.87
  -1  -2   1  175.72    3.55
   1  -2  -1  174.61    3.83
  -1   2   1  180.00    3.80
  -1   2   1  173.26    3.90
   1   2  -1  174.11    3.91
  -1   2   1  175.79    3.77
   1   2  -1  174.99    3.85
   0  -2  -1   32.04    0.92
   0  -2   1   32.00    0.77
   0  -2   1   33.00    0.78
   0  -2   1   30.76    1.01
   0  -2  -1   33.09    0.96
   0  -2   1   31.18    0.83
   0   2   1   31.40    0.88
   0   2   1   32.56    0.88
   0   2  -1   32.04    0.88
   0   2  -1   31.04    1.04
  -1  -2  -1   18.94    0.63
   1  -2   1   18.66    0.63
  -1  -2  -1   20.62    0.70
   1  -2   1   18.23    0.64
   1  -2   1   19.20    0.66
  -1   2  -1   18.91    0.76
  -1   2  -1   19.28    0.56
   1   2   1   18.31    0.70
   1   2   1   18.91    0.59
  -1   2  -1   19.56    0.69
   1   2   1   19.35    0.58
  -1   2  -1   19.36    0.58
  -2  -2  -1   13.23    0.56
   2  -2   1   14.49    0.63
  -2  -2  -1   13.83    0.60
  -2  -2  -1   14.65    0.59
   2  -2   1   13.98    0.61
   2  -2   1   14.47    0.64
  -2  -2  -1   14.22    0.55
   2  -2   1   14.33    0.62
   2   2   1   13.65    0.48
   2   2   1   14.18    0.50
  -2   2  -1   14.09    0.61
  -2   2  -1   13.51    0.56
   2   2   1   14.19    0.59
  -2   2  -1   14.33    0.66
   2   2   1   14.81    0.55
  -3  -2  -1  236.16    4.94
   3  -2   1  232.80    5.22
  -3  -2  -1  237.60    5.07
  -3  -2  -1  232.98    4.97
  -3  -2  -1  236.35    5.10
   3  -2   1  225.81    5.17
  -3  -2  -1  235.51    5.01
   3  -2   1  240.20    5.19
  -3   2  -1  235.40    5.24
   3   2   1  231.81    4.91
   3   2   1  242.99    4.87
   3   2   1  239.79    5.01
  -3   2  -1  239.71    5.20
  -4  -2  -1    0.09    0.16
  -4  -2  -1    0.85    0.23
   4  -2   1    0.11    0.15
  -4  -2  -1    0.23    0.14
  -4  -2  -1    0.06    0.12
  -4  -2  -1    0.00    0.09
  -4   2  -1    0.22    0.20
   4   2   1   -0.02    0.11
   4   2   1    0.11    0.10
   4   2   1    0.04    0.09
  -4   2  -1   -0.02    0.16
   4   2   1    0.13    0.11
  -5  -2  -1   87.92    2.23
  -5  -2  -1   91.95    2.49
  -5  -2  -1   91.40    2.55
   5  -2   1   92.53    2.61
  -5  -2  -1   90.00    2.35
   5   2   1   86.83    2.50
  -5   2  -1   93.72    2.68
   5   2   1   91.67    2.22
  -5   2  -1   93.59    2.70
  -6  -2  -1    1.90    0.41
  -6  -2  -1    2.23    0.39
   6  -2   1    1.65    0.39
  -6  -2  -1    2.71    0.33
  -6   2  -1    2.17    0.45
   6   2   1    1.79    0.29
  -6   2  -1    2.19    0.45
   6   2   1    2.30    0.45
  -7  -2  -1   76.47    2.45
   7  -2   1   76.64    2.58
  -7  -2  -1   83.41    2.63
  -7   2  -1   80.17    2.69
   7   2   1   79.48    2.13
  -7   2  -1   77.64    2.70
  -8  -2  -1   27.76    1.39
  -8  -2  -1   29.77    1.54
   8  -2   1   28.64    1.50
  -8   2  -1   29.50    1.61
  -8   2  -1   30.14    1.61
   9  -2   1   21.49    1.36
  -9  -2  -1   25.20    1.40
  -9  -2  -1   25.25    1.50
  -9   2  -1   21.17    1.45
  -9   2  -1   22.96    1.51
  10  -2   1   -0.02    0.33
 -10  -2  -1   -0.09    0.27
 -10   2  -1    0.16    0.37
 -10   2  -1   -0.27    0.28
 -10  -3   1    8.14    1.04
  10  -3  -1    8.12    1.03
 -10   3   1   11.52    1.28
 -10   3   1    9.79    1.22
  -9  -3   1   19.74    1.28
   9  -3  -1   16.94    1.26
  -9   3   1   18.26    1.39
  -9   3   1   17.40    1.34
  -8  -3   1   54.40    2.11
   8  -3  -1   53.29    2.20
  -8   3   1   53.34    2.33
  -8   3   1   53.82    2.29
  -7  -3   1   40.62    1.65
  -7  -3   1   39.18    1.48
   7  -3  -1   46.23    1.89
  -7   3   1   41.37    1.91
  -7   3   1   42.08    1.87
  -6  -3   1   70.24    2.19
  -6  -3   1   70.87    2.05
   6  -3  -1   73.30    2.46
  -6   3   1   74.81    2.57
  -6   3   1   75.77    2.53
  -5  -3   1    8.70    0.55
  -5  -3   1    9.53    0.54
   5  -3  -1    9.59    0.77
  -5  -3   1    9.01    0.62
  -5   3   1   10.59    0.81
  -5   3   1   10.15    0.80
   4  -3  -1  219.81    5.13
  -4  -3   1  213.65    4.65
  -4  -3   1  212.76    4.72
  -4  -3   1  221.18    4.63
  -4   3   1  212.18    5.20
  -4   3   1  217.42    5.11
   4   3  -1  221.96    5.07
  -3  -3   1   34.13    0.97
  -3  -3   1   34.77    0.98
  -3  -3   1   36.02    1.04
   3  -3  -1   34.62    1.31
   3   3  -1   35.16    1.27
  -3   3   1   35.80    1.30
   3   3  -1   33.34    1.29
  -3   3   1   35.66    1.37
  -2  -3   1   55.47    1.32
  -2  -3   1   55.50    1.33
  -2  -3   1   54.34    1.30
   2  -3  -1   54.41    1.65
   2   3  -1   55.85    1.74
   2   3  -1   55.49    1.67
  -2   3   1   58.06    1.63
  -2   3   1   56.08    1.75
   1  -3  -1  140.52    3.28
   1  -3  -1  142.54    3.34
  -1  -3   1  140.12    2.95
  -1  -3   1  141.05    2.99
  -1  -3   1  143.71    2.94
   1  -3  -1  138.61    3.27
   1   3  -1  140.62    3.44
  -1   3   1  141.58    3.16
  -1   3   1  135.84    3.13
   0  -3  -1  385.64    7.78
   0  -3   1  362.96    7.53
   0  -3  -1  359.50    7.69
   0  -3   1  379.97    7.55
   0  -3   1  375.48    7.58
   0  -3  -1  380.24    7.82
   0   3   1  380.11    7.55
   0   3   1  376.30    7.96
   0   3  -1  374.18    8.00
   0   3   1  379.04    7.55
   1  -3   1   67.85    1.72
  -1  -3  -1   64.10    1.69
  -1  -3  -1   66.58    1.77
   1  -3   1   64.78    1.72
   1  -3   1   64.21    1.72
  -1   3  -1   67.06    1.82
   1   3   1   66.15    1.50
   1   3   1   68.70    1.92
  -1   3  -1   68.48    2.00
   1   3   1   67.90    1.52
  -1   3  -1   66.82    1.48
   2  -3   1  138.08    3.33
  -2  -3  -1  136.63    3.16
   2  -3   1  140.75    3.30
  -2  -3  -1  143.35    3.28
  -2   3  -1  143.23    3.41
  -2   3  -1  140.93    3.16
   2   3   1  141.72    2.87
  -2   3  -1  139.89    3.49
   2   3   1  139.58    2.87
   2   3   1  142.58    3.24
  -2   3  -1  141.58    3.13
   2   3   1  142.44    3.38
  -3  -3  -1    0.13    0.13
  -3  -3  -1   -0.11    0.14
   3  -3   1    0.08    0.19
  -3  -3  -1    0.27    0.16
  -3   3  -1    0.10    0.16
   3   3   1    0.33    0.07
   3   3   1    0.24    0.06
   3   3   1    0.13    0.13
   3   3   1    0.25    0.16
  -3   3  -1    0.39    0.17
  -4  -3  -1   33.17    1.18
   4  -3   1   33.67    1.35
  -4  -3  -1   33.13    1.17
  -4  -3  -1   35.91    1.29
  -4   3  -1   33.43    1.38
   4   3   1   33.43    0.79
   4   3   1   32.18    1.19
  -4   3  -1   34.33    1.33
   4   3   1   33.56    0.80
  -5  -3  -1   26.12    1.08
   5  -3   1   26.99    1.28
  -5  -3  -1   26.74    1.18
   5   3   1   26.44    0.68
   5   3   1   27.32    1.08
  -5   3  -1   26.96    1.31
   5   3   1   26.66    0.69
  -5   3  -1   27.09    1.27
  -6  -3  -1   41.82    1.53
   6  -3   1   41.43    1.74
  -6  -3  -1   41.22    1.64
  -6   3  -1   43.94    1.78
  -6   3  -1   44.04    1.84
   6   3   1   40.38    1.06
  -7  -3  -1    2.25    0.44
  -7  -3  -1    2.48    0.50
   7  -3   1    1.37    0.38
  -7   3  -1    1.58    0.46
  -7   3  -1    1.60    0.44
  -8  -3  -1   22.97    1.34
   8  -3   1   20.11    1.32
  -8  -3  -1   21.57    1.17
  -8   3  -1   19.89    1.37
  -8   3  -1   19.62    1.33
   9  -3   1    2.01    0.55
  -9  -3  -1    1.53    0.49
  -9   3  -1    0.15    0.32
  -9   3  -1    1.15    0.47
   9  -4  -1   26.11    1.63
  -9  -4   1   24.22    1.45
  -9   4   1   21.19    1.50
  -9   4   1   21.78    1.60
   8  -4  -1    0.81    0.45
  -8  -4   1    1.08    0.38
  -8   4   1    0.90    0.41
  -8   4   1    2.09    0.56
  -7  -4   1   17.03    1.03
   7  -4  -1   14.72    1.14
  -7   4   1   16.64    1.17
  -7   4   1   17.09    1.25
   6  -4  -1   17.18    1.12
  -6  -4   1   16.41    0.77
  -6  -4   1   15.67    0.91
  -6   4   1   15.56    1.07
  -6   4   1   15.93    1.15
  -5  -4   1   -0.07    0.13
  -5  -4   1    0.09    0.17
  -5  -4   1    0.03    0.09
   5  -4  -1   -0.19    0.24
  -5   4   1    0.16    0.22
   5   4  -1    0.20    0.21
  -5   4   1    0.00    0.20
  -4  -4   1    6.83    0.40
   4  -4  -1    7.76    0.70
  -4  -4   1    7.85    0.54
  -4  -4   1    7.43    0.46
  -4   4   1    7.62    0.65
  -4   4   1    7.13    0.78
   4   4  -1    8.08    0.69
   3  -4  -1    3.53    0.50
  -3  -4   1    3.06    0.33
  -3  -4   1    3.29    0.32
  -3  -4   1    3.21    0.25
   3   4  -1    2.59    0.43
  -3   4   1    3.60    0.46
  -3   4   1    2.43    0.44
   3   4  -1    2.78    0.42
  -2  -4   1   30.72    0.89
   2  -4  -1   30.77    1.23
  -2  -4   1   29.33    0.92
  -2  -4   1   29.99    0.90
  -2  -4   1   31.22    0.99
   2   4  -1   32.35    1.27
   2   4  -1   30.82    1.33
  -2   4   1   31.90    1.12
  -1  -4   1  198.52    4.34
   1  -4  -1  204.86    4.70
  -1  -4   1  197.81    4.31
  -1  -4   1  207.13    4.39
   1   4  -1  206.48    4.94
  -1   4   1  204.65    4.95
  -1   4   1  207.85    4.41
   0  -4  -1   28.87    1.08
   0  -4  -1   30.50    1.15
   0  -4   1   28.42    0.98
   0  -4   1   30.73    1.02
   0   4  -1   30.04    1.31
   0   4   1   30.77    0.86
   0   4   1   29.52    1.29
   0   4   1   30.36    0.85
   1  -4   1  215.97    4.73
  -1  -4  -1  209.57    4.69
  -1  -4  -1  214.19    4.79
   1  -4   1  209.21    4.74
  -1   4  -1  209.95    5.13
  -1   4  -1  216.36    4.88
   1   4   1  210.05    5.03
  -2  -4  -1   16.78    0.83
   2  -4   1   16.98    0.85
  -2  -4  -1   19.39    0.79
   2   4   1   17.09    0.83
  -2   4  -1   16.29    0.64
  -2   4  -1   17.54    0.91
   2   4   1   18.22    0.94
  -2   4  -1   17.62    1.01
   3  -4   1  419.91    8.75
  -3  -4  -1  412.69    8.44
  -3  -4  -1  384.09    8.40
  -3  -4  -1  403.85    8.58
   3   4   1  403.82    8.53
  -3   4  -1  391.30    8.90
  -3   4  -1  403.47    8.82
   3   4   1  403.30    8.72
  -3   4  -1  407.03    8.44
  -4  -4  -1    1.57    0.33
  -4  -4  -1    2.44    0.34
   4  -4   1    1.70    0.39
   4   4   1    2.54    0.43
  -4   4  -1    2.05    0.36
  -4   4  -1    1.69    0.40
  -4   4  -1    2.16    0.41
  -5  -4  -1   30.35    1.19
   5  -4   1   32.31    1.49
  -5  -4  -1   31.66    1.35
  -5   4  -1   29.76    1.36
   5   4   1   28.32    1.26
  -5   4  -1   29.61    1.48
   6  -4   1    0.25    0.29
  -6  -4  -1    0.32    0.18
  -6  -4  -1    0.27    0.25
  -6   4  -1   -0.09    0.25
  -6   4  -1    0.62    0.31
   7  -4   1    8.05    0.96
  -7  -4  -1    7.48    0.83
  -7   4  -1    6.66    0.88
  -7   4  -1    7.53    0.92
   8  -4   1    0.35    0.37
  -8  -4  -1   -0.31    0.18
  -8   4  -1   -0.27    0.26
  -8   4  -1   -0.34    0.19
  -9  -4  -1    0.91    0.41
   9  -4   1    0.28    0.42
  -9   4  -1    1.10    0.49
  -9   4  -1    1.04    0.47
  -8  -5   1   35.34    1.70
   8  -5  -1   37.73    2.01
  -8   5   1   31.01    1.76
  -8   5   1   34.53    2.01
   7  -5  -1    3.37    0.68
  -7  -5   1    4.76    0.66
  -7   5   1    5.32    0.76
  -7   5   1    6.03    0.90
  -6  -5   1   47.89    1.79
   6  -5  -1   47.85    2.12
   6   5  -1   49.43    2.01
  -6   5   1   48.73    2.20
  -6   5   1   42.24    1.87
  -5  -5   1    5.43    0.60
   5  -5  -1    3.73    0.63
  -5   5   1    3.34    0.62
   5   5  -1    4.13    0.64
  -5   5   1    3.51    0.54
   4  -5  -1  192.64    4.89
  -4  -5   1  182.40    3.93
  -4  -5   1  181.59    4.37
  -4   5   1  179.27    4.95
   4   5  -1  184.52    4.87
  -4   5   1  186.83    4.59
   4   5  -1  192.04    4.75
  -3  -5   1    0.19    0.14
  -3  -5   1    0.58    0.22
  -3  -5   1    0.46    0.12
   3  -5  -1    0.53    0.30
  -3   5   1    0.56    0.20
   3   5  -1    0.28    0.26
   3   5  -1    0.76    0.31
  -2  -5   1   29.83    1.06
  -2  -5   1   33.52    1.17
  -2  -5   1   30.42    0.94
   2  -5  -1   33.18    1.41
   2   5  -1   28.99    1.35
  -2   5   1   30.87    1.09
  -2   5   1   30.24    1.49
   2   5  -1   29.47    1.45
  -1  -5   1    5.65    0.43
   1  -5  -1    5.92    0.64
  -1  -5   1    7.24    0.54
  -1   5   1    5.60    0.70
   1   5  -1    6.35    0.74
  -1   5   1    5.98    0.36
   0  -5   1   54.81    1.67
   0  -5   1   47.63    1.57
   0  -5  -1   52.34    1.78
   0   5  -1   53.52    2.04
   0   5   1   51.33    2.00
  -1  -5  -1    0.42    0.24
   1  -5   1    0.02    0.21
  -1   5  -1    0.07    0.18
   1   5   1    0.11    0.23
  -2  -5  -1    0.21    0.21
   2  -5   1    0.14    0.22
  -2   5  -1    0.07    0.26
  -2   5  -1    0.15    0.07
   2   5   1    0.07    0.22
  -2   5  -1    0.20    0.07
   2   5   1    0.05    0.22
  -2   5  -1    0.07    0.19
  -3  -5  -1   34.55    1.38
  -3  -5  -1   30.88    1.17
   3  -5   1   33.46    1.44
  -3   5  -1   32.03    1.49
   3   5   1   33.89    1.49
  -3   5  -1   33.27    1.62
   3   5   1   31.04    1.31
  -3   5  -1   32.24    1.09
   4  -5   1   26.25    1.35
  -4  -5  -1   25.89    1.06
  -4  -5  -1   26.03    1.25
   4   5   1   27.82    1.23
   4   5   1   25.63    1.29
  -4   5  -1   25.33    1.08
  -4   5  -1   27.64    1.48
  -4   5  -1   25.47    1.38
   5  -5   1    8.92    0.93
  -5  -5  -1   10.11    0.80
  -5   5  -1    7.98    0.92
  -5   5  -1   10.40    0.93
  -5   5  -1    9.66    0.75
   5   5   1    9.14    0.77
  -6  -5  -1   26.88    1.39
   6  -5   1   28.06    1.55
  -6   5  -1   28.37    1.58
  -6   5  -1   25.69    1.34
  -6   5  -1   26.54    1.57
   6   5   1   27.95    1.38
  -7  -5  -1    8.07    0.92
   7  -5   1    5.60    0.85
  -7   5  -1    6.24    0.97
  -7   5  -1    5.90    0.77
  -7   5  -1    7.10    0.92
   8  -5   1   35.05    1.97
  -8  -5  -1   39.70    1.89
  -8   5  -1   36.77    1.91
  -8   5  -1   34.19    2.02
  -7  -6   1    7.37    0.84
   7  -6  -1    7.54    1.05
  -7   6   1    8.49    1.15
  -7   6   1    7.27    1.04
  -6  -6   1    4.71    0.65
   6  -6  -1    3.65    0.75
   6   6  -1    3.55    0.66
  -6   6   1    3.66    0.76
  -6   6   1    2.08    0.62
  -5  -6   1   40.27    1.62
   5  -6  -1   37.62    1.91
  -5   6   1   40.25    2.07
   5   6  -1   42.35    1.96
  -4  -6   1    1.47    0.34
   4  -6  -1    1.67    0.49
  -4   6   1    1.14    0.46
   4   6  -1    0.98    0.35
   4   6  -1    0.98    0.39
   3  -6  -1   33.49    1.66
  -3  -6   1   36.23    1.43
  -3   6   1   32.84    1.80
   3   6  -1   37.71    1.68
   3   6  -1   39.99    1.86
   2  -6  -1    1.49    0.42
  -2  -6   1    2.62    0.42
   2   6  -1    2.54    0.50
  -2   6   1    1.98    0.53
   2   6  -1    2.86    0.58
   1  -6  -1   91.38    2.87
  -1  -6   1   95.42    2.67
  -1   6   1   92.59    3.19
   1   6  -1   94.96    3.21
   0  -6  -1    4.24    0.59
   0  -6   1    3.55    0.51
   0   6   1    3.92    0.67
   0   6  -1    3.38    0.63
  -1  -6  -1   65.50    2.23
   1  -6   1   65.62    2.17
   1   6   1   64.57    2.48
  -1   6  -1   66.46    2.57
  -2  -6  -1    1.47    0.38
   2  -6   1    1.08    0.36
   2   6   1    0.92    0.38
   2   6   1    1.56    0.39
  -2   6  -1    3.20    0.63
  -3  -6  -1  100.06    2.99
   3  -6   1   95.93    3.06
   3   6   1   98.79    2.97
  -3   6  -1  101.71    3.44
   3   6   1  100.71    3.24
  -4  -6  -1    7.37    0.80
   4  -6   1    6.56    0.82
   4   6   1    6.04    0.77
  -4   6  -1    4.29    0.71
   4   6   1    5.38    0.66
  -4   6  -1    4.92    0.78
   5  -6   1   24.39    1.48
  -5  -6  -1   27.02    1.42
   5   6   1   22.65    1.38
  -5   6  -1   26.44    1.63
  -5   6  -1   23.79    1.50
   6  -6   1    5.43    0.84
  -6  -6  -1    4.93    0.72
  -6   6  -1    5.31    0.85
  -6   6  -1    3.71    0.76
   6   6   1    4.76    0.68
  -7  -6  -1   38.67    1.88
   7  -6   1   40.89    2.14
  -7   6  -1   38.91    2.10
  -7   6  -1   39.72    2.16
  -5  -7   1   -0.01    0.27
   5  -7  -1    0.19    0.34
  -5   7   1    0.66    0.43
   5   7  -1   -0.02    0.30
  -4  -7   1   16.71    1.07
   4  -7  -1   19.16    1.38
   4   7  -1   16.60    1.30
   4   7  -1   16.83    1.20
  -4   7   1   13.92    1.44
   3  -7  -1    3.41    0.66
  -3  -7   1    2.69    0.51
  -3   7   1    3.04    0.66
   3   7  -1    2.53    0.62
   3   7  -1    3.91    0.67
   2  -7  -1   19.24    1.27
  -2  -7   1   17.01    1.04
   2   7  -1   19.64    1.42
   2   7  -1   18.21    1.25
  -2   7   1   20.05    1.46
   1  -7  -1    5.28    0.72
  -1  -7   1    6.07    0.70
   1   7  -1    4.18    0.70
   1   7  -1    4.91    0.81
  -1   7   1    4.36    0.82
   0  -7   1   42.82    1.78
   0  -7  -1   40.79    1.85
   0   7  -1   39.61    2.10
   0   7   1   41.28    2.10
  -1  -7  -1    3.16    0.61
   1  -7   1    2.66    0.51
   1   7   1    2.93    0.62
  -1   7  -1    3.17    0.67
   2  -7   1   16.64    1.14
  -2  -7  -1   16.96    1.13
   2   7   1   16.38    1.12
   2   7   1   17.40    1.31
  -2   7  -1   16.56    1.34
  -3  -7  -1   -0.02    0.24
   3  -7   1    0.76    0.37
   3   7   1    0.24    0.23
  -3   7  -1    0.20    0.35
   3   7   1   -0.04    0.25
   4  -7   1   32.76    1.79
  -4  -7  -1   30.82    1.63
  -4   7  -1   31.29    1.90
   4   7   1   29.34    1.71
   4   7   1   31.69    1.55
  -5  -7  -1    9.24    1.00
   5  -7   1    9.46    1.10
  -5   7  -1    8.77    1.17
  -2  -8   1    0.13    0.27
   2  -8  -1    0.30    0.34
  -2   8   1    0.57    0.42
   2   8  -1    0.75    0.39
   2   8  -1    0.22    0.37
  -1  -8   1   39.18    1.84
   1  -8  -1   39.00    2.01
  -1   8   1   39.73    2.28
   1   8  -1   42.58    2.32
   1   8  -1   39.70    2.08
   0  -8  -1    4.18    0.75
   0  -8   1    3.85    0.67
   0   8   1    4.01    0.83
   0   8  -1    2.86    0.73
  -1  -8  -1    3.84    0.72
   1  -8   1    2.38    0.55
  -1   8  -1    2.73    0.68
   1   8   1    2.52    0.68
   1   8   1    3.11    0.67
   2  -8   1    1.80    0.53
  -2  -8  -1    3.88    0.74
   2   8   1    2.74    0.57
  -2   8  -1    4.80    0.92
   2   8   1    1.88    0.58
 -10   0   2   52.14    2.29
 -10   0   2   55.24    2.41
  -9   0   2    0.30    0.28
  -9   0   2    0.03    0.21
  -8   0   2  158.56    4.24
  -8   0   2  153.68    4.30
   8   0  -2  153.61    3.88
   7   0  -2   -0.18    0.18
  -7   0   2    0.09    0.24
  -7   0   2   -0.09    0.15
  -6   0   2   60.15    1.96
  -6   0   2   57.40    1.90
   6   0  -2   57.52    1.74
   5   0  -2   -0.17    0.11
   5   0  -2    0.04    0.15
  -5   0   2   -0.13    0.16
  -5   0   2   -0.23    0.10
   4   0  -2  106.91    2.50
   4   0  -2  102.64    2.59
   4   0  -2  105.95    2.46
  -4   0   2  100.52    2.56
  -4   0   2  100.51    2.51
  -4   0   2  102.31    2.57
   3   0  -2   -0.33    0.09
  -3   0   2   -0.35    0.10
  -3   0   2   -0.06    0.14
   3   0  -2   -0.43    0.10
  -3   0   2   -0.34    0.08
   3   0  -2   -0.11    0.13
  -2   0   2   43.18    1.15
  -2   0   2   42.93    1.11
   2   0  -2   45.41    1.17
   2   0  -2   43.62    1.08
  -2   0   2   42.31    1.12
   2   0  -2   42.97    1.08
   1   0  -2   -0.55    0.06
  -1   0   2   -0.54    0.08
  -1   0   2   -0.47    0.08
   1   0  -2   -0.24    0.09
   0   0  -2   77.85    1.67
   0   0   2   77.61    1.68
   0   0   2   79.68    1.70
   0   0   2   78.44    1.70
   0   0  -2   83.46    1.70
   1   0   2    0.00    0.08
  -1   0  -2   -0.05    0.08
   1   0   2    0.12    0.08
  -1   0  -2    0.04    0.07
  -1   0  -2    0.01    0.06
   1   0   2   -0.01    0.04
   2   0   2  551.17   10.78
  -2   0  -2  547.01   10.83
   2   0   2  518.90   10.81
  -2   0  -2  544.21   10.78
  -2   0  -2  551.32   10.77
   2   0   2  545.54   10.82
  -2   0  -2  529.89   10.82
  -3   0  -2   -0.03    0.15
  -3   0  -2    0.06    0.13
   3   0   2   -0.04    0.13
   3   0   2    0.19    0.14
  -3   0  -2   -0.02    0.10
   3   0   2   -0.18    0.12
   4   0   2  303.31    6.58
   4   0   2  299.91    6.49
  -4   0  -2  309.35    6.61
  -4   0  -2  302.35    6.60
  -5   0  -2   -0.09    0.15
  -5   0  -2   -0.29    0.17
   5   0   2   -0.01    0.17
   5   0   2    0.12    0.18
  -6   0  -2  161.20    4.11
  -6   0  -2  154.08    4.06
   6   0   2  156.94    3.92
   6   0   2  159.24    3.93
  -7   0  -2   -0.10    0.25
   7   0   2    0.21    0.24
  -7   0  -2    0.03    0.22
  -8   0  -2   18.71    1.22
   8   0   2   17.55    1.05
  -8   0  -2   12.82    1.02
  -9   0  -2    0.33    0.33
   9   0   2   -0.11    0.28
  -9   0  -2    0.04    0.27
 -10   0  -2    0.91    0.45
 -10   0  -2    1.23    0.46
 -10  -1   2    4.12    0.73
 -10   1   2    3.69    0.73
 -10   1   2    2.88    0.66
  -9  -1   2    2.35    0.49
   9  -1  -2    2.61    0.48
  -9  -1   2    2.57    0.55
  -9   1   2    3.29    0.63
  -9   1   2    2.34    0.54
  -8  -1   2    3.07    0.52
  -8  -1   2    3.38    0.58
   8  -1  -2    2.39    0.49
  -8   1   2    3.17    0.56
  -8   1   2    3.96    0.66
  -7  -1   2   17.76    1.02
  -7  -1   2   16.16    0.92
   7  -1  -2   16.53    0.95
   7   1  -2   16.15    0.69
  -7   1   2   14.67    1.00
  -7   1   2   18.34    1.11
   6  -1  -2   18.09    0.95
  -6  -1   2   20.22    0.99
  -6  -1   2   18.55    0.91
   6   1  -2   19.11    0.97
   6   1  -2   19.27    0.71
  -6   1   2   19.39    1.07
  -6   1   2   18.69    1.04
   5  -1  -2  210.85    4.76
  -5  -1   2  199.04    4.59
  -5  -1   2  210.35    4.66
  -5  -1   2  208.99    4.68
  -5  -1   2  204.64    4.61
   5   1  -2  209.67    4.35
   5   1  -2  206.87    4.71
   5   1  -2  204.99    4.31
  -5   1   2  202.05    4.87
  -5   1   2  211.52    4.89
  -4  -1   2   41.45    1.23
  -4  -1   2   38.07    1.17
   4  -1  -2   41.05    1.33
  -4  -1   2   39.83    1.22
   4  -1  -2   40.09    1.40
   4   1  -2   41.23    1.26
   4   1  -2   40.88    0.97
  -4   1   2   41.44    1.40
  -4   1   2   42.39    1.42
  -3  -1   2  123.91    2.73
   3  -1  -2  122.15    2.93
   3  -1  -2  124.50    3.00
  -3  -1   2  122.63    2.68
   3  -1  -2  122.95    2.90
  -3  -1   2  123.61    2.96
  -3  -1   2  127.31    2.71
  -3   1   2  123.42    2.98
  -3   1   2  121.45    2.91
   3   1  -2  125.32    2.77
  -3   1   2  125.92    2.98
  -2  -1   2  135.98    3.13
   2  -1  -2  139.58    3.15
  -2  -1   2  141.14    2.84
  -2  -1   2  138.79    2.71
  -2  -1   2  135.91    3.13
   2  -1  -2  140.45    3.09
   2  -1  -2  137.11    3.09
  -2  -1   2  138.04    2.71
  -2   1   2  135.32    3.11
  -2   1   2  134.23    3.07
   2   1  -2  140.20    2.87
  -2   1   2  136.13    3.14
  -1  -1   2  878.66   17.35
   1  -1  -2  865.98   17.49
   1  -1  -2  768.12   17.17
   1  -1  -2  755.88   16.56
  -1  -1   2  903.51   17.10
   1   1  -2  884.33   17.10
   1   1  -2  901.95   17.61
  -1   1   2  855.42   17.39
  -1   1   2  777.98   16.91
   0  -1  -2  144.34    3.10
   0  -1  -2  142.68    3.15
   0  -1   2  150.24    3.17
   0   1  -2  146.90    3.16
   0   1  -2  148.77    2.95
   0   1   2  151.66    3.12
   0   1   2  140.63    3.13
   1  -1   2   70.35    1.60
   1  -1   2   66.80    1.55
  -1  -1  -2   67.36    1.62
   1  -1   2   68.61    1.62
   1  -1   2   68.05    1.59
  -1  -1  -2   70.11    1.69
  -1   1  -2   68.18    1.63
   1   1   2   69.17    1.67
  -1   1  -2   70.30    1.52
  -1   1  -2   70.28    1.62
   1   1   2   69.59    1.63
  -1   1  -2   69.29    1.55
  -2  -1  -2  152.32    3.30
  -2  -1  -2  148.45    2.95
   2  -1   2  141.07    3.25
   2  -1   2  149.58    3.27
  -2  -1  -2  147.89    3.30
  -2  -1  -2  143.66    3.21
   2  -1   2  148.25    3.23
  -2   1  -2  144.84    3.25
  -2   1  -2  148.53    3.16
  -2   1  -2  148.22    3.19
   2   1   2  148.90    2.98
  -2   1  -2  147.75    3.29
   2   1   2  142.46    3.26
   2   1   2  147.86    3.20
   3  -1   2  282.31    6.37
  -3  -1  -2  311.27    6.39
  -3  -1  -2  300.23    6.30
   3  -1   2  300.11    6.35
   3  -1   2  303.38    6.40
  -3  -1  -2  305.54    6.40
  -3  -1  -2  302.54    5.93
   3   1   2  298.32    6.35
  -3   1  -2  305.88    6.43
  -3   1  -2  300.58    6.30
  -3   1  -2  295.24    6.40
   3   1   2  306.15    6.28
  -4  -1  -2    9.37    0.60
   4  -1   2    9.89    0.61
  -4  -1  -2    9.14    0.34
  -4  -1  -2    7.49    0.58
   4   1   2    8.93    0.54
  -4   1  -2    8.94    0.63
  -4   1  -2    8.84    0.61
   4   1   2    9.79    0.61
   5  -1   2   23.68    1.09
   5  -1   2   26.64    1.14
  -5  -1  -2   25.21    1.11
  -5  -1  -2   25.81    0.75
  -5  -1  -2   26.26    1.16
   5   1   2   24.83    1.25
  -5   1  -2   26.07    1.16
  -5   1  -2   26.86    1.19
   5   1   2   26.30    1.03
   6  -1   2   17.96    1.00
  -6  -1  -2   15.71    0.95
  -6  -1  -2   15.87    0.59
  -6  -1  -2   16.52    0.95
   6   1   2   17.31    0.90
  -6   1  -2   16.77    1.03
  -6   1  -2   16.08    0.99
  -7  -1  -2   26.82    1.33
  -7  -1  -2   24.47    1.32
   7  -1   2   25.30    1.26
  -7   1  -2   24.93    1.35
   7   1   2   23.02    1.10
  -7   1  -2   23.65    1.31
   8  -1   2    1.38    0.41
  -8  -1  -2    1.12    0.41
  -8  -1  -2    1.44    0.40
  -8   1  -2    1.54    0.46
   8   1   2    1.03    0.34
  -8   1  -2    1.34    0.40
  -9  -1  -2   14.17    1.17
  -9  -1  -2   13.84    1.08
   9  -1   2   13.26    1.03
  -9   1  -2   13.77    1.16
  -9   1  -2   13.93    1.14
  10  -1   2    0.18    0.30
 -10  -1  -2    0.00    0.28
 -10  -1  -2    0.51    0.39
 -10   1  -2   -0.16    0.27
 -10   1  -2    0.50    0.42
 -10  -2   2   10.24    1.15
 -10   2   2    8.49    1.10
 -10   2   2    9.53    1.15
   9  -2  -2    1.25    0.42
  -9  -2   2    1.46    0.46
  -9   2   2    1.56    0.50
  -9   2   2    1.60    0.51
   8  -2  -2   45.77    1.88
  -8  -2   2   45.94    1.86
  -8  -2   2   44.26    1.70
  -8   2   2   47.06    2.04
  -8   2   2   42.14    1.97
  -7  -2   2   12.26    0.85
   7  -2  -2   12.66    0.93
  -7  -2   2   14.30    0.82
  -7   2   2   15.56    1.07
  -7   2   2   16.13    1.09
  -6  -2   2   68.43    1.98
  -6  -2   2   70.90    2.10
   6  -2  -2   73.41    2.28
  -6   2   2   70.60    2.34
   6   2  -2   64.28    2.04
  -6   2   2   65.23    2.31
   5  -2  -2    7.68    0.61
  -5  -2   2    7.94    0.53
  -5  -2   2    8.65    0.50
  -5  -2   2    8.15    0.50
  -5   2   2    8.30    0.70
   5   2  -2    8.42    0.56
  -5   2   2    9.00    0.72
  -4  -2   2  167.94    3.55
  -4  -2   2  164.55    3.59
   4  -2  -2  160.07    3.91
  -4  -2   2  158.27    3.52
  -4  -2   2  157.60    3.52
   4   2  -2  160.65    3.63
  -4   2   2  168.42    4.05
  -4   2   2  168.14    4.01
  -3  -2   2   19.55    0.56
  -3  -2   2   20.56    0.58
  -3  -2   2   19.14    0.85
   3  -2  -2   20.56    0.89
  -3  -2   2   19.94    0.59
   3  -2  -2   19.03    0.90
  -3   2   2   19.16    0.89
   3   2  -2   18.92    0.87
  -3   2   2   20.18    0.92
   3   2  -2   19.28    0.65
  -2  -2   2  211.14    4.65
   2  -2  -2  214.53    4.73
   2  -2  -2  209.17    4.65
   2  -2  -2  210.66    4.65
   2   2  -2  211.70    4.67
  -2   2   2  213.07    4.66
  -2   2   2  201.72    4.58
  -2   2   2  211.13    4.74
   2   2  -2  216.75    4.72
   1  -2  -2  130.03    2.98
   1  -2  -2  127.11    2.94
   1  -2  -2  130.03    3.03
  -1  -2   2  125.74    3.01
   1   2  -2  127.58    3.00
  -1   2   2  130.92    2.94
  -1   2   2  129.76    2.92
   1   2  -2  124.66    3.02
   0  -2  -2  126.06    2.90
   0  -2  -2  123.48    2.84
   0  -2   2  126.34    2.95
   0  -2   2  127.77    2.59
   0   2   2  127.30    2.84
   0   2  -2  123.00    2.97
   0   2  -2  127.94    2.66
   0   2   2  125.99    2.81
  -1  -2  -2   35.76    1.13
   1  -2   2   35.91    1.01
   1  -2   2   35.77    1.00
  -1  -2  -2   35.28    1.05
   1  -2   2   36.84    0.98
  -1   2  -2   35.63    0.82
  -1   2  -2   36.17    1.16
   1   2   2   35.09    1.02
  -1   2  -2   34.70    1.03
   1   2   2   36.41    1.06
   2  -2   2  111.25    2.56
  -2  -2  -2  105.75    2.53
  -2  -2  -2  108.35    2.64
   2  -2   2  106.07    2.57
   2  -2   2  102.52    2.56
   2   2   2  109.61    2.48
   2   2   2  112.89    2.36
  -2   2  -2  107.06    2.64
   2   2   2  107.07    2.53
  -2   2  -2  109.88    2.52
   2   2   2  110.62    2.48
  -2   2  -2  107.01    2.61
  -2   2  -2  109.52    2.45
   3  -2   2   72.09    2.06
  -3  -2  -2   73.24    1.95
  -3  -2  -2   77.08    2.04
   3  -2   2   73.95    2.02
  -3  -2  -2   73.99    2.05
  -3   2  -2   73.68    2.08
   3   2   2   77.47    1.83
   3   2   2   76.47    1.96
   3   2   2   76.03    1.88
  -3   2  -2   77.17    2.03
  -3   2  -2   75.89    2.04
  -4  -2  -2   74.64    2.15
  -4  -2  -2   74.35    2.10
  -4  -2  -2   72.10    1.78
  -4  -2  -2   77.12    1.84
   4  -2   2   76.88    2.17
   4  -2   2   75.25    2.16
   4   2   2   75.67    1.94
  -4   2  -2   75.52    2.22
  -4   2  -2   70.56    2.14
   4   2   2   73.64    1.82
  -5  -2  -2   12.18    0.76
  -5  -2  -2   12.54    0.81
   5  -2   2   12.43    0.81
  -5  -2  -2   11.42    0.50
  -5  -2  -2   11.30    0.57
  -5   2  -2   12.44    0.83
   5   2   2   11.77    0.62
  -5   2  -2   12.26    0.82
   5   2   2   10.79    0.60
  -6  -2  -2  115.69    3.18
  -6  -2  -2  107.03    3.02
  -6  -2  -2  106.10    2.51
   6  -2   2  111.74    3.15
  -6   2  -2  105.90    3.17
   6   2   2  106.08    2.76
  -6   2  -2  112.88    3.27
  -7  -2  -2    4.75    0.62
   7  -2   2    3.81    0.59
  -7  -2  -2    4.71    0.66
  -7   2  -2    4.91    0.71
   7   2   2    4.94    0.51
  -7   2  -2    3.67    0.61
   8  -2   2   25.09    1.41
  -8  -2  -2   24.87    1.43
  -8  -2  -2   23.75    1.31
  -8   2  -2   27.02    1.50
  -8   2  -2   22.28    1.42
  -9  -2  -2    0.16    0.25
  -9  -2  -2    0.57    0.34
   9  -2   2   -0.11    0.28
  -9   2  -2    0.23    0.32
  -9   2  -2    0.06    0.29
 -10  -2  -2   17.09    1.34
  10  -2   2   18.61    1.33
 -10   2  -2   17.30    1.40
 -10   2  -2   17.65    1.41
  10  -3  -2    3.25    0.68
 -10  -3   2    3.44    0.68
 -10   3   2    3.41    0.73
 -10   3   2    2.71    0.71
  -9  -3   2   44.57    1.97
   9  -3  -2   43.69    2.05
  -9   3   2   43.78    2.15
  -9   3   2   41.72    2.14
   8  -3  -2    5.14    0.76
  -8  -3   2    5.86    0.72
  -8   3   2    4.62    0.77
  -8   3   2    7.65    0.94
  -7  -3   2    6.58    0.68
   7  -3  -2    7.72    0.82
  -7  -3   2    6.14    0.52
  -7   3   2    8.18    0.92
  -7   3   2    6.58    0.83
  -6  -3   2    0.93    0.23
  -6  -3   2    0.88    0.23
   6  -3  -2    0.06    0.28
  -6  -3   2    0.74    0.24
   6   3  -2    0.80    0.24
  -6   3   2    0.58    0.28
  -6   3   2    0.77    0.34
  -5  -3   2   64.94    1.83
   5  -3  -2   64.74    2.18
  -5  -3   2   66.28    1.69
  -5  -3   2   62.68    1.76
  -5   3   2   64.95    2.21
  -5   3   2   64.41    2.25
  -4  -3   2   34.98    0.97
   4  -3  -2   35.74    1.43
  -4  -3   2   35.76    1.03
  -4  -3   2   34.41    1.06
  -4   3   2   34.43    1.41
  -4   3   2   38.00    1.52
   4   3  -2   37.71    1.45
  -3  -3   2   36.85    0.94
   3  -3  -2   36.86    1.38
  -3  -3   2   35.77    0.90
  -3  -3   2   36.75    0.85
   3   3  -2   38.87    1.43
   3   3  -2   37.53    1.37
  -3   3   2   35.58    1.34
  -3   3   2   36.08    1.43
   2  -3  -2    3.36    0.42
   2   3  -2    3.48    0.42
  -2   3   2    4.27    0.44
   2   3  -2    3.58    0.45
   1  -3  -2  185.02    4.29
   1  -3  -2  183.24    4.24
  -1  -3   2  193.23    3.72
   1   3  -2  192.25    4.36
  -1   3   2  192.53    4.19
   1   3  -2  183.10    4.40
   0  -3  -2   24.13    0.95
   0  -3   2   23.58    0.68
   0  -3  -2   22.42    0.87
   0  -3   2   23.75    0.69
   0  -3   2   23.71    0.68
   0   3   2   23.88    0.83
   0   3   2   23.06    0.82
   0   3  -2   24.15    0.80
   0   3  -2   24.03    1.03
  -1  -3  -2  152.19    3.53
  -1  -3  -2  153.23    3.63
   1  -3   2  154.13    3.44
   1  -3   2  159.83    3.42
   1  -3   2  154.73    3.42
   1   3   2  154.71    3.66
  -1   3  -2  155.43    3.79
   1   3   2  156.45    3.42
   1   3   2  160.43    3.41
  -1   3  -2  156.23    3.53
  -2  -3  -2  103.32    2.56
   2  -3   2  100.53    2.59
   2  -3   2  107.34    2.59
   2  -3   2  105.70    2.58
  -2  -3  -2  102.00    2.66
  -2   3  -2  106.99    2.82
  -2   3  -2  105.22    2.39
   2   3   2  103.43    2.45
  -2   3  -2  104.94    2.66
   2   3   2  106.64    2.39
   2   3   2  101.76    2.62
  -2   3  -2  105.41    2.35
   2   3   2  107.57    2.43
  -3  -3  -2  160.80    3.82
  -3  -3  -2  156.26    3.67
  -3  -3  -2  157.92    3.73
   3  -3   2  161.96    3.80
   3  -3   2  155.91    3.77
   3   3   2  154.40    3.66
   3   3   2  159.74    3.53
  -3   3  -2  157.04    3.87
  -3   3  -2  158.82    3.91
  -3   3  -2  163.29    3.70
  -4  -3  -2   28.55    1.21
  -4  -3  -2   29.66    1.14
   4  -3   2   29.71    1.25
  -4   3  -2   28.49    1.27
   4   3   2   27.62    0.89
   4   3   2   28.75    1.05
  -4   3  -2   27.42    1.20
  -4   3  -2   26.47    1.15
  -5  -3  -2   52.72    1.85
   5  -3   2   53.37    1.90
  -5  -3  -2   52.26    1.74
   5   3   2   50.99    1.57
  -5   3  -2   55.03    1.99
  -5   3  -2   50.50    1.84
   6  -3   2    1.96    0.45
  -6  -3  -2    2.26    0.46
  -6  -3  -2    2.57    0.43
  -6   3  -2    3.04    0.54
  -6   3  -2    2.06    0.47
   6   3   2    2.05    0.27
  -7  -3  -2   47.41    1.90
   7  -3   2   39.86    1.81
  -7  -3  -2   41.67    1.68
  -7   3  -2   43.05    1.88
  -7   3  -2   40.22    1.90
  -8  -3  -2   10.25    1.06
  -8  -3  -2    9.10    0.80
   8  -3   2    9.73    1.03
  -8   3  -2    7.88    0.96
  -8   3  -2    7.83    0.96
   9  -3   2   13.77    1.18
  -9  -3  -2   16.81    1.28
  -9   3  -2   15.27    1.02
  -9   3  -2   16.98    1.30
  -9   3  -2   17.00    1.34
   9  -4  -2    0.00    0.36
  -9  -4   2    0.51    0.35
  -9   4   2    0.02    0.31
  -9   4   2   -0.30    0.32
  -8  -4   2    5.51    0.69
   8  -4  -2    2.57    0.63
  -8   4   2    4.52    0.79
  -8   4   2    5.59    0.84
   7  -4  -2    0.13    0.32
  -7  -4   2    0.23    0.20
  -7   4   2    0.68    0.37
  -7   4   2    0.11    0.27
   6  -4  -2   22.99    1.34
  -6  -4   2   22.51    1.07
  -6   4   2   23.73    1.34
  -6   4   2   23.80    1.41
   5  -4  -2    0.03    0.28
  -5  -4   2   -0.02    0.12
  -5  -4   2    0.23    0.18
  -5  -4   2    0.10    0.10
  -5   4   2   -0.10    0.20
   5   4  -2    0.13    0.20
  -5   4   2    0.12    0.24
  -4  -4   2   64.09    1.74
  -4  -4   2   64.92    1.41
  -4  -4   2   65.72    1.43
   4  -4  -2   64.82    2.21
  -4  -4   2   62.38    1.66
  -4   4   2   67.41    2.16
  -4   4   2   62.78    2.28
   4   4  -2   66.82    2.25
  -3  -4   2    5.19    0.33
  -3  -4   2    5.35    0.31
   3  -4  -2    5.19    0.61
   3   4  -2    5.75    0.66
   3   4  -2    5.39    0.59
  -3   4   2    5.55    0.58
  -2  -4   2  353.56    7.20
   2  -4  -2  361.19    7.88
  -2  -4   2  348.33    7.17
   2   4  -2  360.82    7.90
  -2   4   2  365.28    7.68
   2   4  -2  366.58    8.04
  -1  -4   2    0.81    0.12
  -1  -4   2    0.99    0.17
  -1  -4   2    0.55    0.12
   1  -4  -2    1.08    0.29
   1   4  -2    0.40    0.20
  -1   4   2    0.65    0.21
   1   4  -2    0.80    0.28
   0  -4   2  164.72    3.56
   0  -4   2  161.28    3.49
   0  -4  -2  163.17    3.92
   0  -4   2  153.02    3.53
   0   4   2  167.04    3.61
   0   4   2  162.40    4.08
   0   4  -2  160.86    4.14
   1  -4   2   12.51    0.64
   1  -4   2   12.48    0.63
  -1  -4  -2   12.74    0.75
  -1   4  -2   10.92    0.80
  -1   4  -2   11.80    0.68
   1   4   2   11.96    0.51
   1   4   2   12.64    0.78
   2  -4   2  116.22    2.91
  -2  -4  -2  117.90    3.03
   2  -4   2  111.89    2.94
  -2   4  -2  111.12    2.43
   2   4   2  118.36    2.85
  -2   4  -2  114.59    2.42
   2   4   2  116.64    3.07
  -2   4  -2  117.81    3.25
  -2   4  -2  118.50    3.04
   2   4   2  117.52    2.51
   2   4   2  103.88    2.47
  -3  -4  -2    5.02    0.50
  -3  -4  -2    3.54    0.49
   3  -4   2    2.66    0.43
  -3   4  -2    3.69    0.54
  -3   4  -2    3.28    0.47
  -3   4  -2    2.63    0.32
   3   4   2    2.61    0.41
   3   4   2    3.69    0.42
   3   4   2    3.63    0.21
   3   4   2    3.44    0.20
   4  -4   2    0.27    0.22
  -4  -4  -2   -0.17    0.20
  -4  -4  -2    0.06    0.13
  -4   4  -2   -0.08    0.17
  -4   4  -2    0.89    0.25
   4   4   2    0.15    0.16
  -4   4  -2    0.43    0.24
  -5  -4  -2    0.79    0.24
   5  -4   2    0.39    0.29
  -5  -4  -2    0.96    0.38
  -5   4  -2    0.71    0.27
  -5   4  -2    0.46    0.31
  -5   4  -2    0.32    0.28
   5   4   2    0.76    0.24
  -6  -4  -2   13.05    0.86
  -6  -4  -2   13.41    0.97
   6  -4   2   15.32    1.08
  -6   4  -2   15.33    1.03
  -6   4  -2   14.08    0.95
  -6   4  -2   15.34    1.11
   6   4   2   13.33    0.80
  -7  -4  -2    1.93    0.48
   7  -4   2    3.02    0.61
  -7  -4  -2    2.19    0.51
  -7   4  -2    2.52    0.58
  -7   4  -2    2.80    0.54
  -7   4  -2    3.76    0.65
  -8  -4  -2    8.55    0.99
   8  -4   2    8.46    1.01
  -8   4  -2    6.49    0.96
  -8   4  -2    5.93    0.85
  -8   4  -2    8.46    0.91
  -9  -4  -2    1.27    0.48
   9  -4   2    2.05    0.62
  -9   4  -2    2.64    0.55
  -9   4  -2    2.23    0.62
  -9   4  -2    2.17    0.57
   8  -5  -2    2.85    0.69
  -8  -5   2    2.23    0.49
  -8   5   2    2.72    0.63
  -8   5   2    2.09    0.63
  -7  -5   2   35.39    1.52
   7  -5  -2   34.17    1.87
  -7   5   2   33.69    1.92
  -7   5   2   37.27    1.82
  -6  -5   2    5.40    0.61
   6  -5  -2    4.33    0.74
  -6   5   2    5.36    0.74
  -6   5   2    5.50    0.85
   6   5  -2    5.37    0.74
  -5  -5   2   62.62    1.89
   5  -5  -2   60.30    2.34
  -5   5   2   59.45    2.16
   5   5  -2   59.70    2.30
  -5   5   2   56.68    2.38
  -4  -5   2    3.12    0.39
   4  -5  -2    2.28    0.52
   4   5  -2    2.52    0.52
   4   5  -2    3.57    0.59
  -4   5   2    3.13    0.49
   3  -5  -2   24.36    1.30
  -3  -5   2   23.35    0.86
  -3  -5   2   24.98    0.94
   3   5  -2   24.78    1.34
   3   5  -2   25.04    1.28
  -3   5   2   25.56    1.13
  -2  -5   2    0.08    0.13
   2  -5  -2    0.03    0.22
  -2  -5   2    0.14    0.11
   2   5  -2   -0.17    0.22
  -2   5   2   -0.01    0.11
   2   5  -2    0.20    0.24
  -1  -5   2   45.77    1.37
   1  -5  -2   46.72    1.76
  -1  -5   2   49.66    1.43
   1   5  -2   46.94    1.82
  -1   5   2   46.85    1.42
   1   5  -2   43.75    1.85
  -1   5   2   48.97    1.93
   0  -5   2    9.22    0.57
   0  -5  -2   10.42    0.77
   0  -5   2    8.48    0.55
   0   5   2    9.36    0.46
   0   5   2    9.65    0.79
   0   5  -2    9.70    0.84
  -1  -5  -2   52.31    1.83
   1  -5   2   51.14    1.65
   1  -5   2   52.68    1.66
   1   5   2   51.43    1.95
  -1   5  -2   51.40    2.03
   1   5   2   48.67    1.16
   1   5   2   49.47    1.16
  -2  -5  -2   20.04    1.09
   2  -5   2   20.20    1.02
   2   5   2   22.43    1.18
  -2   5  -2   21.49    1.10
   2   5   2   21.98    1.01
  -2   5  -2   19.74    1.22
   3  -5   2   64.18    2.16
  -3  -5  -2   63.39    1.98
  -3  -5  -2   67.39    2.20
   3   5   2   63.95    2.00
  -3   5  -2   64.07    2.40
  -3   5  -2   64.88    2.24
   3   5   2   64.82    2.22
   4  -5   2   16.90    1.07
  -4  -5  -2   17.48    1.06
  -4  -5  -2   17.55    0.91
  -4   5  -2   15.68    1.13
  -4   5  -2   17.02    1.10
   4   5   2   18.72    1.05
  -4   5  -2   17.56    0.81
   5  -5   2  109.69    3.43
  -5  -5  -2  113.97    3.07
  -5  -5  -2  117.48    3.38
   5   5   2  109.36    3.21
  -5   5  -2  113.87    3.09
  -5   5  -2  114.96    3.59
  -5   5  -2  112.40    3.54
  -6  -5  -2    0.47    0.36
   6  -5   2    0.73    0.41
   6   5   2    0.80    0.31
  -6   5  -2    1.30    0.45
  -6   5  -2    0.73    0.36
   7  -5   2   23.98    1.52
  -7  -5  -2   23.48    1.42
  -7   5  -2   25.94    1.53
  -7   5  -2   24.75    1.60
  -8  -5  -2    0.02    0.27
   8  -5   2    0.66    0.46
  -8   5  -2    0.19    0.34
  -8   5  -2    0.09    0.34
  -7  -6   2    4.97    0.67
   7  -6  -2    5.28    0.90
  -6  -6   2   13.06    0.89
   6  -6  -2   12.17    1.26
   6   6  -2   11.43    1.18
  -5  -6   2    3.53    0.52
   5  -6  -2    4.60    0.78
   5   6  -2    4.20    0.74
  -4  -6   2   36.63    1.39
   4  -6  -2   33.88    1.75
   4   6  -2   34.83    1.69
   4   6  -2   36.02    1.84
  -3  -6   2    2.23    0.37
   3  -6  -2    1.56    0.45
  -3   6   2    1.55    0.49
   3   6  -2    2.67    0.58
   3   6  -2    2.62    0.53
  -2  -6   2   59.82    1.85
   2  -6  -2   57.55    2.23
   2   6  -2   58.17    2.25
  -2   6   2   63.22    2.52
   2   6  -2   61.54    2.45
   1  -6  -2    0.96    0.35
  -1  -6   2    1.62    0.34
   1   6  -2    1.29    0.37
   1   6  -2    0.99    0.36
  -1   6   2    1.08    0.43
   0  -6   2   18.47    0.94
   0  -6  -2   19.46    1.18
   0   6   2   18.11    1.22
   0   6  -2   17.33    1.25
   1  -6   2    6.06    0.64
  -1  -6  -2    6.75    0.79
  -1   6  -2    6.55    0.87
   1   6   2    5.57    0.77
  -2  -6  -2   75.38    2.58
   2  -6   2   77.34    2.50
   2   6   2   79.55    2.79
  -2   6  -2   84.11    2.98
   2   6   2   81.40    2.52
   3  -6   2   17.61    1.13
  -3  -6  -2   14.83    1.04
  -3   6  -2   17.60    1.26
  -3   6  -2   17.87    1.16
   3   6   2   16.43    0.97
   3   6   2   20.32    1.24
   4  -6   2    5.91    0.77
  -4  -6  -2    6.89    0.81
  -4   6  -2    5.66    0.82
   4   6   2    7.41    0.84
   4   6   2    6.69    0.70
  -4   6  -2    6.17    0.81
  -5  -6  -2    6.30    0.81
   5  -6   2    6.92    0.88
  -5   6  -2    7.79    1.01
   5   6   2    6.03    0.79
  -5   6  -2    6.92    0.91
  -6  -6  -2   30.85    1.64
   6  -6   2   30.62    1.74
   6   6   2   28.70    1.50
  -6   6  -2   31.35    1.81
   7  -6   2    1.13    0.53
  -7  -6  -2    1.20    0.46
  -7   6  -2    1.62    0.54
  -7   6  -2    1.10    0.49
  -5  -7   2   33.47    1.51
   5  -7  -2   30.93    1.86
   5   7  -2   34.93    1.95
  -5   7   2   31.09    1.94
  -4  -7   2   10.27    0.80
   4  -7  -2    9.69    1.12
   4   7  -2    8.90    1.12
  -4   7   2   10.85    1.26
   4   7  -2   11.45    1.15
   3  -7  -2   22.90    1.48
  -3  -7   2   21.95    1.16
  -3   7   2   27.25    1.75
   3   7  -2   23.15    1.57
   3   7  -2   22.83    1.43
   2  -7  -2   -0.12    0.28
  -2  -7   2   -0.15    0.19
   2   7  -2   -0.09    0.27
  -2   7   2   -0.22    0.32
   2   7  -2   -0.24    0.28
  -1  -7   2   56.56    2.01
   1  -7  -2   51.30    2.24
   1   7  -2   58.57    2.58
   1   7  -2   57.83    2.42
  -1   7   2   60.58    2.62
   0  -7   2   21.50    1.19
   0  -7  -2   22.75    1.36
   0   7  -2   20.20    1.48
   0   7   2   18.57    1.40
  -1  -7  -2   41.84    1.91
   1  -7   2   42.84    1.78
   1   7   2   39.56    2.04
  -1   7  -2   43.52    2.22
  -2  -7  -2   15.46    1.17
   2  -7   2   17.60    1.15
   2   7   2   15.62    1.07
   2   7   2   19.57    1.38
  -2   7  -2   16.43    1.37
   3  -7   2   34.29    1.73
  -3  -7  -2   39.60    1.84
   3   7   2   35.34    1.63
   3   7   2   35.92    1.88
  -3   7  -2   39.98    2.12
   4  -7   2    3.76    0.69
  -4  -7  -2    6.20    0.83
  -4   7  -2    4.12    0.81
   4   7   2    4.89    0.68
   4   7   2    6.18    0.86
   5  -7   2   18.95    1.40
  -5  -7  -2   21.14    1.37
  -5   7  -2   16.99    1.44
  -5   7  -2   18.43    1.40
   5   7   2   18.72    1.35
  -1  -8   2    2.60    0.56
   1  -8  -2    1.98    0.58
   1   8  -2    3.01    0.75
  -1   8   2    1.89    0.64
   1   8  -2    2.17    0.61
   0  -8   2    6.37    0.82
   0  -8  -2    5.99    0.90
   0   8  -2    8.30    1.11
   0   8   2    6.00    0.99
   0   8  -2    5.97    1.01
  -1  -8  -2    9.80    1.11
   1  -8   2   10.72    1.10
   1   8   2    9.70    1.24
   1   8   2   11.07    1.14
  -1   8  -2   11.04    1.37
 -10   0   3    0.44    0.34
  -9   0   3   30.05    1.61
  -9   0   3   26.84    1.50
   8   0  -3   -0.26    0.13
  -8   0   3    0.09    0.25
  -8   0   3   -0.15    0.17
  -7   0   3    1.57    0.40
  -7   0   3    1.21    0.35
   7   0  -3    0.82    0.26
  -6   0   3   -0.01    0.15
   6   0  -3   -0.15    0.14
   6   0  -3   -0.28    0.14
  -6   0   3   -0.18    0.16
   5   0  -3    2.16    0.35
   5   0  -3    2.69    0.32
  -5   0   3    2.41    0.38
  -5   0   3    2.65    0.38
   4   0  -3    0.11    0.11
  -4   0   3   -0.04    0.10
   4   0  -3    0.03    0.09
  -4   0   3    0.09    0.12
   4   0  -3    0.05    0.12
  -4   0   3    0.06    0.14
   3   0  -3   33.93    0.99
  -3   0   3   34.87    1.09
  -3   0   3   34.79    1.06
  -3   0   3   36.68    1.09
   3   0  -3   36.57    1.00
   3   0  -3   34.90    1.11
   2   0  -3    0.03    0.07
  -2   0   3    0.03    0.09
   2   0  -3   -0.07    0.07
  -2   0   3   -0.06    0.08
   2   0  -3    0.76    0.16
  -1   0   3  131.64    2.85
   1   0  -3  136.77    2.81
  -1   0   3  135.84    2.86
   1   0  -3  137.40    2.80
   0   0   3   -0.49    0.10
   0   0  -3   -0.76    0.09
   0   0   3   -0.18    0.13
   0   0   3   -0.62    0.09
   0   0  -3   -0.55    0.09
  -1   0  -3  934.81   19.43
  -1   0  -3  969.55   19.51
   1   0   3  932.87   19.33
  -1   0  -3  969.75   19.56
   1   0   3 1000.00   20.01
   1   0   3  911.70   19.41
   2   0   3   -0.14    0.10
  -2   0  -3   -0.15    0.15
   2   0   3   -0.11    0.04
  -2   0  -3   -0.15    0.04
  -2   0  -3   -0.14    0.11
   2   0   3   -0.14    0.13
  -2   0  -3   -0.32    0.11
   3   0   3  168.43    4.01
   3   0   3  180.98    3.98
   3   0   3  175.47    4.03
  -3   0  -3  179.17    4.05
  -3   0  -3  177.70    3.49
  -3   0  -3  177.90    4.05
  -3   0  -3  178.77    4.08
  -4   0  -3    0.04    0.04
  -4   0  -3    0.17    0.19
  -4   0  -3   -0.08    0.12
   4   0   3   -0.22    0.15
  -5   0  -3   55.41    1.88
   5   0   3   56.74    1.80
  -5   0  -3   55.61    1.87
  -6   0  -3   -0.14    0.17
   6   0   3    0.07    0.21
  -6   0  -3    0.07    0.23
   7   0   3   14.54    0.93
  -7   0  -3   15.87    1.05
  -7   0  -3   15.11    1.05
   7   0   3   15.06    0.96
   8   0   3   -0.07    0.22
  -8   0  -3    0.41    0.31
  -8   0  -3   -0.14    0.22
   9   0   3   17.65    1.17
  -9   0  -3   17.31    1.30
  -9   0  -3   19.43    1.33
 -10   0  -3   -0.15    0.33
 -10   0  -3   -0.02    0.31
 -10  -1   3   20.76    1.42
 -10   1   3   17.55    1.31
 -10   1   3   17.52    1.37
  -9  -1   3    5.39    0.70
   9  -1  -3    7.53    0.87
  -9  -1   3    6.60    0.85
  -9   1   3    6.77    0.91
  -9   1   3    7.32    0.90
  -8  -1   3   68.84    2.37
   8  -1  -3   65.81    2.19
  -8  -1   3   61.58    2.18
  -8   1   3   68.56    2.49
  -8   1   3   63.96    2.40
  -7  -1   3    5.27    0.63
   7  -1  -3    4.90    0.57
  -7  -1   3    6.00    0.62
  -7   1   3    4.64    0.63
  -7   1   3    4.88    0.66
   7   1  -3    3.59    0.26
   7   1  -3    5.25    0.71
   6  -1  -3  237.92    5.36
  -6  -1   3  236.35    5.33
  -6  -1   3  235.04    5.27
   6   1  -3  226.13    4.68
  -6   1   3  226.26    5.50
   6   1  -3  226.43    5.34
   6   1  -3  227.80    4.69
  -6   1   3  231.49    5.53
  -5  -1   3    0.23    0.16
   5  -1  -3    0.57    0.23
  -5  -1   3    0.30    0.17
  -5  -1   3    0.51    0.17
  -5   1   3    0.65    0.24
   5   1  -3    0.38    0.18
  -5   1   3    0.22    0.21
  -4  -1   3   95.71    2.32
  -4  -1   3   99.33    2.36
  -4  -1   3   95.59    2.33
   4  -1  -3   98.03    2.50
   4  -1  -3   96.10    2.61
  -4   1   3   98.45    2.60
  -4   1   3   99.23    2.60
   4   1  -3   98.23    2.40
  -3  -1   3   23.69    0.71
   3  -1  -3   22.59    0.89
  -3  -1   3   24.48    0.72
   3  -1  -3   24.11    0.90
  -3  -1   3   23.60    0.74
   3  -1  -3   24.15    0.97
  -3   1   3   24.13    0.91
  -3   1   3   26.38    0.99
   3   1  -3   25.49    0.80
  -3   1   3   24.29    0.95
   2  -1  -3  487.48   10.06
  -2  -1   3  500.66   10.09
  -2  -1   3  506.95   10.12
   2  -1  -3  492.45    9.99
   2  -1  -3  499.48    9.99
  -2   1   3  483.69    9.99
  -2   1   3  504.44   10.03
   2   1  -3  478.34    9.72
  -1  -1   3  194.46    4.20
   1  -1  -3  192.35    4.10
  -1  -1   3  193.18    4.17
   1  -1  -3  193.22    4.14
  -1   1   3  193.67    4.13
   1   1  -3  190.85    4.18
   1   1  -3  193.57    4.22
  -1   1   3  188.66    4.13
   0  -1  -3   85.53    2.10
   0  -1  -3   87.84    2.05
   0  -1   3   86.07    2.08
   0  -1   3   86.37    1.77
   0  -1   3   86.85    1.77
   0   1  -3   89.04    2.09
   0   1   3   88.20    2.10
   0   1  -3   91.18    2.12
   0   1   3   86.37    2.05
   1  -1   3   26.21    0.81
  -1  -1  -3   27.27    0.85
   1  -1   3   26.25    0.76
   1  -1   3   26.73    0.78
  -1  -1  -3   25.12    0.89
   1  -1   3   26.56    0.79
  -1   1  -3   26.17    0.73
   1   1   3   25.28    0.88
  -1   1  -3   26.92    0.81
  -1   1  -3   26.07    0.70
   1   1   3   26.72    0.85
  -1   1  -3   25.48    0.82
   2  -1   3  359.46    7.30
   2  -1   3  351.97    7.25
  -2  -1  -3  355.10    7.38
   2  -1   3  343.32    7.29
  -2  -1  -3  355.64    7.28
   2   1   3  353.53    7.36
  -2   1  -3  354.80    7.19
   2   1   3  358.20    7.29
  -2   1  -3  358.79    7.33
  -2   1  -3  362.76    7.18
  -2   1  -3  342.06    7.26
  -3  -1  -3   85.19    2.20
   3  -1   3   81.98    2.25
   3  -1   3   89.05    2.27
  -3  -1  -3   84.76    2.27
   3  -1   3   86.20    2.22
  -3  -1  -3   88.05    2.32
  -3   1  -3   86.73    2.03
  -3   1  -3   88.08    2.29
   3   1   3   87.47    2.20
  -3   1  -3   88.02    2.27
  -4  -1  -3   42.72    1.49
   4  -1   3   43.53    1.45
  -4  -1  -3   41.95    1.47
  -4   1  -3   44.60    1.20
  -4   1  -3   41.37    1.47
   4   1   3   42.64    1.39
  -4   1  -3   43.32    1.50
  -5  -1  -3   26.65    1.17
   5  -1   3   24.43    1.12
  -5  -1  -3   24.42    1.17
  -5   1  -3   25.90    1.18
  -5   1  -3   26.93    1.22
   5   1   3   25.22    1.07
  -6  -1  -3  121.29    2.51
   6  -1   3  127.71    3.43
  -6  -1  -3  129.24    3.53
   6  -1   3  125.86    3.41
  -6  -1  -3  122.44    3.43
  -6   1  -3  124.64    3.52
   6   1   3  128.79    3.29
  -6   1  -3  127.68    3.53
  -7  -1  -3    1.39    0.43
   7  -1   3    1.99    0.45
  -7  -1  -3    2.79    0.51
  -7   1  -3    3.27    0.59
   7   1   3    3.11    0.47
   7   1   3    2.37    0.43
  -7   1  -3    2.87    0.55
  -8  -1  -3   46.69    1.97
  -8  -1  -3   45.24    2.01
   8  -1   3   43.85    1.86
  -8   1  -3   44.28    2.01
   8   1   3   47.31    1.79
  -8   1  -3   44.80    2.01
   9  -1   3   15.60    1.13
  -9  -1  -3   18.29    1.31
  -9  -1  -3   15.99    1.18
  -9   1  -3   17.56    1.31
  -9   1  -3   15.38    1.25
   9   1   3   18.42    1.12
 -10  -1  -3   14.93    1.31
  10  -1   3   15.42    1.18
 -10  -1  -3   16.40    1.29
 -10   1  -3   17.09    1.36
 -10   1  -3   14.74    1.28
 -10  -2   3    5.29    0.82
 -10   2   3    5.87    0.95
 -10   2   3    5.33    0.88
  -9  -2   3   16.29    1.14
   9  -2  -3   18.22    1.17
  -9   2   3   14.61    1.21
  -9   2   3   15.35    1.21
   8  -2  -3    2.94    0.55
  -8  -2   3    3.01    0.47
  -8  -2   3    3.44    0.56
  -8   2   3    3.60    0.64
  -8   2   3    2.80    0.59
  -7  -2   3   19.69    1.07
   7  -2  -3   20.95    1.16
  -7  -2   3   20.41    0.97
  -7   2   3   19.16    1.21
  -7   2   3   18.99    1.20
  -6  -2   3   17.69    0.89
  -6  -2   3   17.12    0.82
   6  -2  -3   17.43    0.99
  -6  -2   3   18.31    0.83
  -6   2   3   19.11    1.11
  -6   2   3   16.84    1.06
   6   2  -3   16.11    0.85
  -5  -2   3  127.53    2.95
  -5  -2   3  125.63    2.99
   5  -2  -3  129.55    3.37
  -5  -2   3  128.46    3.04
  -5   2   3  128.07    3.45
  -5   2   3  127.82    3.46
   5   2  -3  125.63    3.07
  -4  -2   3    0.28    0.11
  -4  -2   3    0.27    0.11
   4  -2  -3    0.23    0.22
  -4  -2   3    0.23    0.12
  -4   2   3    0.39    0.22
   4   2  -3    0.28    0.13
  -4   2   3    1.22    0.33
   3  -2  -3  166.25    3.91
   3  -2  -3  165.59    4.00
  -3   2   3  167.75    3.96
   3   2  -3  165.22    4.00
  -3   2   3  166.76    4.03
  -2  -2   3   38.38    1.41
   2  -2  -3   39.95    1.35
   2  -2  -3   38.43    1.28
  -2   2   3   36.29    1.26
   2   2  -3   38.31    1.30
   2   2  -3   36.69    1.31
   2   2  -3   38.00    0.85
   1  -2  -3  196.01    4.35
   1  -2  -3  190.54    4.29
  -1   2   3  189.40    4.30
   1   2  -3  190.71    4.41
   1   2  -3  195.94    3.80
  -1   2   3  201.29    4.32
   1   2  -3  201.67    4.40
   0  -2  -3    7.48    0.49
   0  -2  -3    8.34    0.47
   0   2  -3    7.72    0.51
   0   2   3    8.29    0.47
   0   2   3    8.74    0.48
   0   2  -3    8.09    0.32
  -1  -2  -3  205.04    4.41
   1  -2   3  204.83    4.20
   1  -2   3  200.48    4.65
   1  -2   3  211.12    4.25
   1  -2   3  193.50    4.23
  -1  -2  -3  200.56    4.51
  -1   2  -3  206.55    4.52
   1   2   3  198.13    4.43
   1   2   3  204.23    4.38
  -1   2  -3  204.48    4.30
   2  -2   3   16.92    0.72
   2  -2   3   18.76    0.72
  -2  -2  -3   18.06    0.83
   2  -2   3   17.86    0.72
  -2  -2  -3   16.91    0.72
  -2   2  -3   16.67    0.75
   2   2   3   16.47    0.82
  -2   2  -3   16.85    0.73
  -2   2  -3   17.83    0.61
  -2   2  -3   17.71    0.66
   2   2   3   16.97    0.70
   2   2   3   17.32    0.64
   2   2   3   17.85    0.49
  -3  -2  -3   20.33    0.90
  -3  -2  -3   20.89    0.94
   3  -2   3   19.80    0.86
   3  -2   3   19.44    0.98
  -3   2  -3   20.17    0.90
   3   2   3   21.25    0.82
  -3   2  -3   18.98    0.82
  -3   2  -3   19.45    0.84
   3   2   3   20.11    0.66
  -4  -2  -3   12.70    0.74
  -4  -2  -3   12.99    0.77
  -4  -2  -3   12.04    0.46
   4  -2   3   14.62    0.80
  -4   2  -3   11.87    0.65
  -4   2  -3   12.17    0.76
   4   2   3   11.35    0.47
   4   2   3   12.59    0.66
  -4   2  -3   13.62    0.77
   5  -2   3  143.67    3.69
   5  -2   3  144.04    3.70
  -5  -2  -3  140.59    3.17
  -5  -2  -3  144.32    3.68
  -5  -2  -3  146.70    3.75
  -5   2  -3  142.27    3.73
  -5   2  -3  140.53    3.77
   5   2   3  147.00    3.48
  -5   2  -3  139.08    3.43
   6  -2   3   12.38    0.87
  -6  -2  -3   13.23    0.65
  -6  -2  -3   15.35    0.94
  -6  -2  -3   13.93    0.97
   6  -2   3   14.10    0.91
   6   2   3   14.28    0.80
  -6   2  -3   14.77    1.00
  -6   2  -3   16.13    1.01
  -6   2  -3   13.77    0.74
   6   2   3   13.72    0.79
  -7  -2  -3   24.53    1.30
   7  -2   3   25.25    1.35
  -7  -2  -3   23.69    1.34
  -7   2  -3   23.50    1.04
  -7   2  -3   23.18    1.37
   7   2   3   24.79    1.11
  -7   2  -3   24.33    1.36
  -8  -2  -3    0.02    0.26
   8  -2   3   -0.04    0.25
  -8  -2  -3    0.24    0.25
   8   2   3    0.14    0.18
  -8   2  -3    0.16    0.28
  -8   2  -3   -0.18    0.15
  -8   2  -3    0.00    0.25
   9  -2   3   35.60    1.82
  -9  -2  -3   36.62    1.81
  -9  -2  -3   33.88    1.85
  -9   2  -3   36.30    1.94
  -9   2  -3   35.61    1.86
 -10  -2  -3   16.85    1.39
  10  -2   3   16.23    1.28
 -10   2  -3   16.48    1.37
 -10   2  -3   14.75    1.33
   9  -3  -3    4.53    0.74
  -9  -3   3    4.21    0.68
  -9   3   3    5.94    0.91
  -9   3   3    4.32    0.78
   8  -3  -3    2.66    0.58
  -8  -3   3    4.62    0.62
  -8   3   3    4.56    0.76
  -8   3   3    3.86    0.69
  -7  -3   3    0.18    0.18
   7  -3  -3    0.31    0.33
  -7   3   3    0.15    0.25
  -7   3   3    0.02    0.25
  -6  -3   3   12.48    0.68
   6  -3  -3   13.50    0.93
  -6  -3   3   13.10    0.75
  -6  -3   3   12.95    0.60
  -6   3   3   14.15    1.02
  -6   3   3   10.44    0.90
  -5  -3   3   18.72    0.64
  -5  -3   3   19.37    0.79
  -5  -3   3   19.84    0.76
   5  -3  -3   18.99    1.09
  -5   3   3   17.63    1.06
   5   3  -3   18.90    0.81
  -5   3   3   18.71    1.13
   4  -3  -3   46.28    1.70
  -4  -3   3   45.56    1.17
  -4  -3   3   45.66    1.19
  -4   3   3   45.17    1.77
  -4   3   3   46.00    1.71
   4   3  -3   48.47    1.76
   3  -3  -3   11.16    0.75
   3   3  -3   11.59    0.78
  -3   3   3   12.31    0.76
   3   3  -3   10.79    0.75
   2  -3  -3  186.24    4.39
  -2   3   3  187.17    4.35
   2   3  -3  185.78    4.43
   2   3  -3  185.30    4.49
   1  -3  -3    1.95    0.34
   1   3  -3    2.06    0.36
   1   3  -3    1.85    0.34
  -1   3   3    1.83    0.30
   0  -3   3   62.32    1.38
   0  -3  -3   64.16    1.88
   0  -3   3   61.37    1.39
   0  -3   3   62.19    1.39
   0   3  -3   62.54    1.94
   0   3   3   60.18    1.70
   0   3  -3   63.47    1.56
  -1  -3  -3   38.89    1.28
   1  -3   3   42.10    1.14
   1  -3   3   40.22    1.12
  -1  -3  -3   39.93    1.39
   1  -3   3   39.61    1.15
   1   3   3   39.10    1.22
  -1   3  -3   38.49    1.42
  -1   3  -3   38.99    1.20
  -2  -3  -3  247.85    5.60
   2  -3   3  235.62    5.39
   2  -3   3  254.93    5.38
   2   3   3  254.83    5.33
  -2   3  -3  250.92    5.66
  -2   3  -3  245.28    5.45
  -2   3  -3  248.99    5.06
   2   3   3  250.00    5.16
   2   3   3  250.93    5.44
  -2   3  -3  246.81    5.03
   3  -3   3   56.91    1.76
  -3  -3  -3   56.52    1.85
  -3  -3  -3   58.00    1.80
  -3   3  -3   58.88    1.87
   3   3   3   59.73    1.62
  -3   3  -3   57.62    1.83
   3   3   3   54.69    1.62
  -3   3  -3   57.71    1.64
   4  -3   3   74.00    2.23
   4  -3   3   74.55    2.22
  -4  -3  -3   72.54    2.18
  -4  -3  -3   72.47    2.27
  -4   3  -3   75.97    2.17
   4   3   3   70.99    1.92
   4   3   3   73.06    1.95
  -4   3  -3   70.47    2.20
  -4   3  -3   70.14    2.26
   5  -3   3    9.64    0.78
   5  -3   3    9.87    0.78
  -5  -3  -3    9.87    0.71
  -5  -3  -3   10.81    0.83
   5   3   3    9.08    0.57
  -5   3  -3    9.27    0.78
  -5   3  -3   10.42    0.73
  -5   3  -3    9.90    0.74
   5   3   3    9.67    0.54
  -6  -3  -3   26.94    1.37
  -6  -3  -3   25.91    1.25
   6  -3   3   24.85    1.33
  -6   3  -3   26.15    1.33
  -6   3  -3   26.23    1.40
   6   3   3   25.69    1.02
  -6   3  -3   26.25    1.22
   6   3   3   25.82    1.02
   7  -3   3    1.63    0.47
  -7  -3  -3    2.32    0.45
  -7  -3  -3    2.86    0.58
  -7   3  -3    2.66    0.57
  -7   3  -3    1.58    0.37
  -7   3  -3    2.59    0.53
  -8  -3  -3    2.96    0.55
   8  -3   3    3.31    0.64
  -8  -3  -3    2.71    0.61
  -8   3  -3    2.72    0.60
  -8   3  -3    1.74    0.48
  -8   3  -3    2.50    0.46
   9  -3   3    6.69    0.92
  -9  -3  -3    6.98    0.95
  -9   3  -3    7.49    1.00
  -9   3  -3    7.15    1.00
   9  -4  -3   46.76    2.24
  -9  -4   3   43.85    1.96
  -9   4   3   48.86    2.33
  -9   4   3   51.23    2.48
  -8  -4   3    1.30    0.37
   8  -4  -3    1.21    0.48
  -8   4   3    0.72    0.43
  -8   4   3    0.93    0.43
   7  -4  -3  114.83    3.66
  -7  -4   3  115.15    3.17
  -7   4   3  114.51    3.67
  -7   4   3  118.31    3.81
   6  -4  -3    4.80    0.71
  -6  -4   3    5.14    0.53
  -6   4   3    4.98    0.71
  -6   4   3    5.30    0.79
  -5  -4   3  209.66    4.67
   5  -4  -3  216.07    5.41
  -5  -4   3  200.70    4.58
   5   4  -3  214.94    5.41
  -5   4   3  217.24    5.56
  -5   4   3  213.97    5.34
  -4  -4   3    6.43    0.35
  -4  -4   3    6.86    0.39
   4  -4  -3    6.08    0.71
   4   4  -3    5.68    0.70
  -4   4   3    6.54    0.70
   3  -4  -3   59.58    2.05
  -3  -4   3   58.49    1.33
  -3  -4   3   58.32    1.31
  -3   4   3   59.40    1.97
   3   4  -3   59.27    2.12
   3   4  -3   60.70    2.07
   2  -4  -3    1.90    0.36
  -2  -4   3    1.55    0.10
  -2  -4   3    1.46    0.09
   2   4  -3    1.32    0.32
  -2   4   3    1.79    0.34
   2   4  -3    1.34    0.37
  -1  -4   3   42.02    1.02
   1  -4  -3   47.26    1.64
  -1  -4   3   43.04    1.03
  -1   4   3   42.56    1.42
   1   4  -3   41.06    1.60
   1   4  -3   42.76    1.67
   0  -4   3    4.15    0.29
   0  -4  -3    4.06    0.51
   0  -4   3    4.50    0.26
   0  -4   3    4.77    0.32
   0   4  -3    3.71    0.53
   0   4  -3    5.04    0.39
   0   4   3    3.89    0.40
   1  -4   3    6.26    0.43
  -1  -4  -3    7.51    0.63
   1  -4   3    7.34    0.47
   1   4   3    6.72    0.57
  -1   4  -3    5.87    0.66
  -1   4  -3    6.54    0.48
   1   4   3    6.69    0.45
   2  -4   3    3.12    0.40
  -2  -4  -3    4.04    0.55
   2  -4   3    3.02    0.38
   2  -4   3    3.03    0.39
  -2   4  -3    3.05    0.42
   2   4   3    3.16    0.32
   2   4   3    2.86    0.42
  -2   4  -3    3.57    0.53
   2   4   3    3.34    0.37
   3  -4   3   48.89    1.67
   3  -4   3   49.92    1.68
  -3  -4  -3   49.29    1.80
  -3   4  -3   51.80    1.90
   3   4   3   47.86    1.36
   3   4   3   47.01    1.42
  -3   4  -3   46.54    1.70
  -3   4  -3   48.00    1.34
   3   4   3   50.71    1.67
  -4  -4  -3   15.16    0.95
   4  -4   3   12.88    0.87
  -4  -4  -3   10.61    0.74
  -4   4  -3   12.95    0.72
   4   4   3   13.14    0.76
  -4   4  -3   13.54    0.91
  -4   4  -3   12.30    0.89
   4   4   3   12.15    0.56
   5  -4   3  104.89    3.14
  -5  -4  -3  105.80    2.98
  -5  -4  -3  106.14    3.16
   5   4   3  102.81    2.79
  -5   4  -3  109.93    3.21
  -5   4  -3  103.88    3.21
  -5   4  -3  105.28    2.95
   6  -4   3    0.11    0.26
  -6  -4  -3    0.09    0.24
  -6  -4  -3   -0.09    0.16
   6   4   3    0.06    0.16
  -6   4  -3   -0.06    0.16
  -6   4  -3    0.28    0.25
  -6   4  -3    0.05    0.22
  -7  -4  -3   74.73    2.49
  -7  -4  -3   71.90    2.66
   7  -4   3   74.46    2.74
  -7   4  -3   71.14    2.77
  -7   4  -3   72.16    2.58
  -7   4  -3   73.74    2.57
   8  -4   3    0.07    0.33
  -8  -4  -3    0.17    0.33
  -8   4  -3   -0.03    0.29
  -8   4  -3   -0.05    0.28
  -8   4  -3    0.06    0.24
   9  -4   3   22.25    1.59
  -9  -4  -3   26.12    1.64
  -9   4  -3   24.78    1.59
  -9   4  -3   27.43    1.79
  -8  -5   3    0.36    0.31
   8  -5  -3    0.67    0.41
  -8   5   3   -0.12    0.30
  -8   5   3   -0.09    0.33
  -7  -5   3   -0.10    0.20
   7  -5  -3    0.39    0.35
  -7   5   3   -0.11    0.23
  -7   5   3    0.20    0.33
  -6  -5   3    3.29    0.45
   6  -5  -3    2.68    0.60
  -6   5   3    3.21    0.61
  -5  -5   3    0.35    0.19
   5  -5  -3    0.52    0.31
   5   5  -3    0.26    0.28
  -5   5   3   -0.01    0.24
  -4  -5   3   27.49    0.98
   4  -5  -3   25.70    1.42
   4   5  -3   27.50    1.47
   4   5  -3   27.28    1.43
  -4   5   3   25.94    1.30
   3  -5  -3    5.54    0.72
  -3  -5   3    5.84    0.38
  -3  -5   3    5.12    0.33
  -3   5   3    5.50    0.61
   3   5  -3    5.42    0.74
   3   5  -3    5.17    0.68
  -2  -5   3  123.27    2.84
   2  -5  -3  129.92    3.62
  -2  -5   3  131.95    2.89
  -2   5   3  126.91    3.30
   2   5  -3  125.90    3.73
   2   5  -3  131.62    3.67
   1  -5  -3   15.51    0.99
  -1  -5   3   15.99    0.65
  -1  -5   3   17.17    0.69
  -1   5   3   17.74    0.84
   1   5  -3   15.34    1.07
   1   5  -3   16.39    1.05
   0  -5   3  152.68    3.49
   0  -5  -3  159.05    4.04
   0  -5   3  142.45    3.47
   0   5   3  144.14    3.48
   0   5   3  159.31    4.17
   0   5  -3  148.74    4.20
   1  -5   3    3.78    0.44
  -1  -5  -3    3.00    0.51
   1  -5   3    3.23    0.41
  -1   5  -3    3.38    0.44
   1   5   3    3.73    0.57
  -1   5  -3    4.14    0.64
   1   5   3    3.41    0.31
  -2  -5  -3  118.07    3.41
   2  -5   3  126.83    3.23
   2   5   3  123.56    3.47
   2   5   3  126.71    3.15
  -2   5  -3  119.87    3.63
   2   5   3  120.40    2.72
  -2   5  -3  124.24    3.33
   3  -5   3    0.31    0.24
  -3  -5  -3    0.02    0.23
  -3   5  -3    0.22    0.21
   3   5   3    0.55    0.25
   3   5   3    0.09    0.13
  -3   5  -3    0.40    0.27
  -4  -5  -3   41.44    1.77
   4  -5   3   38.80    1.68
  -4  -5  -3   41.09    1.58
  -4   5  -3   41.82    1.78
  -4   5  -3   43.32    1.91
   4   5   3   42.17    1.65
  -5  -5  -3    0.45    0.29
   5  -5   3    0.51    0.31
  -5  -5  -3    0.03    0.22
   5   5   3    0.27    0.20
  -5   5  -3   -0.16    0.24
  -5   5  -3    0.25    0.25
  -6  -5  -3   22.94    1.38
   6  -5   3   21.35    1.38
  -6   5  -3   21.06    1.36
  -6   5  -3   25.55    1.51
   6   5   3   21.06    1.11
  -7  -5  -3    2.56    0.57
   7  -5   3    2.01    0.56
  -7   5  -3    1.75    0.53
  -7   5  -3    3.02    0.63
   8  -5   3    3.05    0.70
  -8  -5  -3    2.98    0.68
  -8   5  -3    2.60    0.59
  -8   5  -3    2.08    0.63
   7  -6  -3   18.32    1.45
  -7  -6   3   17.88    1.08
  -6  -6   3    5.36    0.62
   6  -6  -3    4.41    0.82
   6   6  -3    5.36    0.85
  -6   6   3    5.74    0.86
  -5  -6   3   43.79    1.58
   5  -6  -3   47.92    2.20
   5   6  -3   46.60    2.18
  -4  -6   3    1.30    0.28
   4  -6  -3    1.14    0.45
   4   6  -3    0.88    0.40
  -4   6   3    0.85    0.31
   4   6  -3    1.49    0.47
  -3  -6   3   33.58    1.22
   3  -6  -3   35.77    1.74
   3   6  -3   33.25    1.68
   3   6  -3   32.58    1.76
  -2  -6   3    0.30    0.18
   2  -6  -3    0.37    0.32
   2   6  -3    0.48    0.29
   2   6  -3    0.20    0.31
  -2   6   3    0.38    0.28
   1  -6  -3   39.02    1.76
  -1  -6   3   38.09    1.33
   1   6  -3   36.36    1.76
   1   6  -3   35.71    1.84
  -1   6   3   33.82    1.78
   0  -6  -3    2.04    0.46
   0  -6   3    2.16    0.36
   0   6   3    1.86    0.50
   0   6  -3    2.19    0.54
   1  -6   3    6.01    0.63
  -1  -6  -3    8.09    0.87
  -1   6  -3    5.23    0.77
   1   6   3    7.48    0.88
   2  -6   3    6.73    0.73
  -2  -6  -3    7.04    0.83
  -2   6  -3    7.66    0.94
  -2   6  -3    6.77    0.75
   2   6   3    7.78    0.88
   2   6   3    8.09    0.76
   3  -6   3   30.26    1.44
  -3  -6  -3   27.45    1.47
  -3   6  -3   24.63    1.38
   3   6   3   27.16    1.46
  -3   6  -3   28.58    1.65
   3   6   3   28.68    1.26
   4  -6   3    0.55    0.35
  -4  -6  -3    0.22    0.30
   4   6   3    0.32    0.23
  -4   6  -3    0.19    0.25
   4   6   3    0.33    0.28
  -4   6  -3    0.38    0.30
   5  -6   3    6.43    0.86
  -5  -6  -3    5.32    0.77
  -5   6  -3    4.35    0.73
   5   6   3    5.88    0.75
  -5   6  -3    5.42    0.84
   6  -6   3    2.13    0.58
  -6  -6  -3    1.87    0.55
   6   6   3    2.20    0.47
  -6   6  -3    1.23    0.44
  -6   6  -3    1.06    0.43
   5  -7  -3    7.02    1.01
  -5  -7   3    8.05    0.80
  -5   7   3    7.78    1.12
   5   7  -3    5.61    0.92
   4  -7  -3    7.27    1.00
  -4  -7   3    8.12    0.68
  -4   7   3    7.60    1.06
   4   7  -3    6.41    0.96
   4   7  -3    6.90    0.97
   3  -7  -3    3.42    0.69
  -3  -7   3    4.05    0.54
  -3   7   3    1.55    0.60
   3   7  -3    2.44    0.64
   3   7  -3    3.02    0.65
  -2  -7   3   31.24    1.31
   2  -7  -3   28.91    1.67
   2   7  -3   29.37    1.69
  -2   7   3   27.36    1.76
   2   7  -3   28.68    1.78
   1  -7  -3    5.64    0.82
  -1  -7   3    4.90    0.60
  -1   7   3    5.71    0.92
   1   7  -3    4.68    0.78
   1   7  -3    5.72    0.87
   0  -7  -3   49.02    2.19
   0  -7   3   48.82    1.83
   0   7  -3   47.96    2.24
   0   7  -3   48.94    2.38
   0   7   3   51.56    2.35
  -1  -7  -3    1.47    0.53
   1  -7   3    0.97    0.34
   1   7   3    2.04    0.55
  -1   7  -3    2.85    0.67
  -2  -7  -3   60.39    2.42
   2  -7   3   58.42    2.23
   2   7   3   59.70    2.53
   2   7   3   55.78    2.14
  -2   7  -3   61.25    2.73
  -3  -7  -3    7.27    0.93
   3  -7   3    6.77    0.83
   3   7   3    7.45    0.79
  -3   7  -3    5.59    0.92
   3   7   3    4.31    0.74
  -4  -7  -3   28.20    1.64
   4  -7   3   31.22    1.68
   4   7   3   29.57    1.65
  -4   7  -3   29.37    1.85
  -4   7  -3   25.20    1.59
   5  -7   3    4.29    0.78
  -5  -7  -3    5.28    0.83
   5   7   3    5.45    0.82
  -5   7  -3    5.54    0.89
  -5   7  -3    7.56    1.09
  -1  -8   3   52.89    2.08
   1  -8  -3   55.00    2.54
  -1   8   3   55.73    2.74
   1   8  -3   56.58    2.77
   1   8  -3   56.69    2.61
   0  -8   3    0.51    0.35
   0  -8  -3    0.07    0.32
   0   8  -3   -0.20    0.34
   0   8  -3    0.27    0.38
   0   8   3    0.10    0.37
   1   8   3   63.30    2.49
  -1   8  -3   65.25    3.01
   1   8   3   59.22    2.80
 -10   0   4    5.01    0.81
  -9   0   4   -0.03    0.21
  -9   0   4    0.31    0.30
  -8   0   4   33.88    1.60
  -8   0   4   32.42    1.52
  -7   0   4   -0.03    0.22
   7   0  -4    0.00    0.16
  -7   0   4    0.20    0.21
  -6   0   4  239.53    5.57
  -6   0   4  239.93    5.53
   6   0  -4  234.57    5.17
   6   0  -4  239.86    5.62
   5   0  -4    0.06    0.15
  -5   0   4   -0.04    0.14
  -5   0   4   -0.04    0.12
   5   0  -4    0.10    0.13
  -4   0   4  290.01    6.32
   4   0  -4  291.29    6.09
   4   0  -4  299.56    6.39
  -4   0   4  289.00    6.27
   4   0  -4  298.84    6.09
  -4   0   4  297.62    6.31
   3   0  -4    0.10    0.11
  -3   0   4   -0.08    0.11
   3   0  -4    0.11    0.15
  -3   0   4   -0.10    0.09
   3   0  -4   -0.12    0.07
  -2   0   4  546.35   10.94
   2   0  -4  569.74   10.82
   2   0  -4  554.75   10.81
  -2   0   4  521.46   10.93
   2   0  -4  553.21   11.03
   1   0  -4    0.03    0.07
  -1   0   4   -0.06    0.08
   1   0  -4   -0.04    0.09
  -1   0   4    0.23    0.12
   0   0   4   43.78    1.15
   0   0   4   44.58    1.17
   0   0   4   44.58    1.18
   0   0  -4   44.09    1.15
   0   0  -4   42.42    1.10
  -1   0  -4   -0.09    0.10
  -1   0  -4   -0.08    0.13
  -1   0  -4   -0.05    0.08
   1   0   4   -0.06    0.08
   1   0   4   -0.21    0.07
   1   0   4    0.13    0.14
   2   0   4    8.12    0.50
  -2   0  -4    7.65    0.50
  -2   0  -4    7.90    0.45
   2   0   4    8.24    0.31
  -2   0  -4    9.13    0.53
   2   0   4    6.86    0.45
  -3   0  -4   -0.42    0.15
  -3   0  -4   -0.47    0.14
   3   0   4   -0.39    0.12
  -4   0  -4    3.27    0.45
  -4   0  -4    3.35    0.46
   4   0   4    3.10    0.41
   5   0   4    0.05    0.21
  -5   0  -4    0.01    0.19
  -5   0  -4    0.00    0.15
   6   0   4    2.47    0.45
  -6   0  -4    2.23    0.44
  -6   0  -4    3.49    0.55
   7   0   4    0.20    0.24
  -7   0  -4   -0.22    0.19
  -7   0  -4   -0.12    0.23
   7   0   4    0.02    0.21
  -8   0  -4   26.67    1.53
  -8   0  -4   24.84    1.45
   8   0   4   24.45    1.33
  -9   0  -4   -0.11    0.26
   9   0   4    0.06    0.28
  -9   0  -4   -0.04    0.30
 -10   0  -4   19.39    1.44
  10   0   4   17.27    1.23
 -10   0  -4   19.94    1.49
 -10  -1   4    0.44    0.33
 -10   1   4    0.33    0.36
 -10   1   4    0.04    0.33
  -9  -1   4   18.26    1.22
  -9   1   4   17.34    1.24
  -9   1   4   16.01    1.23
  -8  -1   4    0.71    0.30
  -8  -1   4    0.54    0.31
   8  -1  -4    0.22    0.25
  -8   1   4    0.19    0.25
  -8   1   4    0.03    0.22
   7  -1  -4    4.54    0.54
  -7  -1   4    5.46    0.63
  -7  -1   4    4.83    0.56
  -7   1   4    5.35    0.70
  -7   1   4    5.12    0.67
   6  -1  -4   12.51    0.80
  -6  -1   4   15.22    0.83
  -6  -1   4   13.00    0.75
   6   1  -4   14.21    0.83
  -6   1   4   13.73    0.89
  -6   1   4   13.62    0.88
  -5  -1   4   11.95    0.67
  -5  -1   4   11.82    0.63
  -5  -1   4   12.26    0.64
   5  -1  -4   12.81    0.72
  -5   1   4   11.34    0.76
  -5   1   4   12.50    0.79
   5   1  -4   10.68    0.64
  -4  -1   4    8.94    0.46
   4  -1  -4    8.66    0.57
  -4  -1   4    8.40    0.47
   4  -1  -4    9.03    0.63
  -4  -1   4    8.58    0.46
  -4   1   4    9.34    0.64
  -4   1   4    7.67    0.59
   4   1  -4    8.14    0.49
  -3  -1   4   64.84    1.53
  -3  -1   4   65.29    1.55
   3  -1  -4   66.18    1.80
   3  -1  -4   64.72    1.90
  -3   1   4   65.35    1.87
   3   1  -4   67.53    1.66
  -3   1   4   62.29    1.81
  -2  -1   4   12.74    0.33
   2  -1  -4   14.75    0.66
  -2  -1   4   12.11    0.33
   2  -1  -4   12.54    0.59
  -2  -1   4   11.67    0.65
   2  -1  -4   11.78    0.64
  -2   1   4   11.31    0.60
  -2   1   4   12.46    0.60
   2   1  -4   12.99    0.47
  -1  -1   4  216.43    4.64
   1  -1  -4  209.78    4.58
   1  -1  -4  206.68    4.52
  -1  -1   4  214.17    4.68
   1   1  -4  213.45    4.64
  -1   1   4  209.57    4.57
  -1   1   4  211.76    4.60
   0  -1   4   10.76    0.37
   0  -1   4   10.31    0.54
   0  -1   4    9.87    0.36
   0  -1  -4   11.28    0.58
   0  -1  -4   10.03    0.49
   0   1   4   10.21    0.54
   0   1   4   10.10    0.52
   0   1  -4   10.53    0.55
   0   1  -4    9.88    0.52
   1  -1   4  448.79    8.86
   1  -1   4  431.32    8.77
  -1  -1  -4  423.95    8.97
   1  -1   4  443.89    8.75
  -1  -1  -4  434.81    8.88
   1   1   4  446.12    8.77
   1   1   4  432.76    8.90
  -1   1  -4  446.15    8.83
   1   1   4  412.43    8.95
  -1   1  -4  433.15    8.63
  -1   1  -4  440.25    9.02
  -1   1  -4  450.70    8.88
   2  -1   4   12.81    0.60
   2  -1   4   12.03    0.52
   2  -1   4   12.45    0.58
  -2  -1  -4   12.79    0.68
  -2  -1  -4   11.83    0.59
   2  -1   4   12.56    0.60
  -2   1  -4   12.39    0.53
  -2   1  -4   11.69    0.60
  -2   1  -4   11.51    0.52
   2   1   4   12.76    0.64
   2   1   4   12.38    0.62
  -2   1  -4   12.54    0.58
  -3  -1  -4  310.80    6.65
  -3  -1  -4  310.43    6.66
   3  -1   4  304.51    6.51
  -3   1  -4  306.47    6.60
  -3   1  -4  307.00    6.26
  -3   1  -4  290.46    6.51
   3   1   4  303.65    6.51
  -4  -1  -4    7.49    0.60
   4  -1   4    9.10    0.63
  -4  -1  -4    8.13    0.65
  -4   1  -4    7.41    0.60
  -4   1  -4    8.43    0.63
   4   1   4    8.57    0.59
  -4   1  -4    8.76    0.43
  -5  -1  -4  213.93    5.09
  -5  -1  -4  205.94    5.03
   5  -1   4  203.99    4.95
   5   1   4  210.11    4.90
  -5   1  -4  210.82    5.05
  -5   1  -4  211.76    5.09
  -5   1  -4  208.16    4.45
  -6  -1  -4    8.17    0.73
  -6  -1  -4    8.59    0.87
   6  -1   4    7.03    0.72
   6   1   4    7.74    0.66
  -6   1  -4    8.55    0.77
  -6   1  -4    6.44    0.73
  -6   1  -4    7.85    0.44
   7  -1   4   86.72    2.76
  -7  -1  -4   85.53    2.81
   7  -1   4   84.31    2.74
  -7  -1  -4   88.98    2.88
  -7   1  -4   83.52    2.85
  -7   1  -4   81.84    2.08
   7   1   4   85.31    2.61
  -7   1  -4   88.31    2.89
  -8  -1  -4    0.06    0.26
  -8  -1  -4   -0.15    0.23
   8  -1   4   -0.08    0.25
  -8   1  -4   -0.53    0.19
  -8   1  -4   -0.13    0.24
   8   1   4   -0.04    0.21
   9  -1   4    8.79    0.98
  -9  -1  -4    8.04    1.04
  -9  -1  -4    9.06    1.06
   9   1   4    8.89    0.89
  -9   1  -4    8.10    1.01
  -9   1  -4    9.95    1.14
 -10  -1  -4   -0.02    0.29
  10  -1   4    0.11    0.30
 -10  -1  -4   -0.09    0.36
 -10   1  -4   -0.07    0.31
 -10   1  -4    0.42    0.39
 -10  -2   4   18.92    1.32
 -10   2   4   18.19    1.41
 -10   2   4   21.28    1.53
  -9  -2   4    6.02    0.79
   9  -2  -4    6.67    0.80
  -9   2   4    6.41    0.91
  -9   2   4    6.56    0.93
  -8  -2   4   13.18    0.93
   8  -2  -4   12.77    0.94
  -8   2   4   14.60    1.12
  -8   2   4   13.33    1.11
  -7  -2   4    2.89    0.40
  -7  -2   4    2.39    0.42
   7  -2  -4    2.58    0.49
  -7   2   4    3.30    0.59
  -7   2   4    2.99    0.57
  -6  -2   4  128.01    3.09
   6  -2  -4  130.70    3.51
  -6  -2   4  133.66    3.26
  -6  -2   4  129.11    3.21
  -6   2   4  135.23    3.70
   6   2  -4  125.06    3.25
  -6   2   4  127.63    3.66
  -5  -2   4    3.19    0.32
  -5  -2   4    2.67    0.32
  -5  -2   4    3.24    0.34
   5  -2  -4    2.60    0.44
  -5   2   4    3.26    0.51
  -5   2   4    2.80    0.47
   5   2  -4    2.92    0.35
  -4  -2   4  162.38    3.42
   4  -2  -4  158.79    3.92
  -4  -2   4  159.08    3.41
   4   2  -4  160.51    3.53
  -4   2   4  159.57    4.06
  -4   2   4  162.53    4.02
   3  -2  -4   60.72    1.83
   3  -2  -4   59.13    2.09
  -3   2   4   56.65    1.83
   2  -2  -4  325.23    7.26
   2  -2  -4  325.40    7.17
   2   2  -4  339.78    7.32
  -2   2   4  342.17    7.19
   2   2  -4  340.03    6.56
   2   2  -4  341.08    7.27
   1  -2  -4   23.86    0.98
   1   2  -4   22.19    0.97
  -1   2   4   23.29    0.93
   1   2  -4   23.37    0.99
   0  -2  -4  155.78    3.68
   0  -2   4  163.69    3.18
   0  -2   4  164.18    3.19
   0  -2  -4  164.11    3.80
   0   2  -4  163.76    3.82
   0   2   4  163.04    3.71
   0   2  -4  161.12    3.78
   0   2  -4  164.14    3.40
   1  -2   4    1.32    0.20
   1  -2   4    1.09    0.17
  -1  -2  -4    1.08    0.27
   1  -2   4    1.39    0.19
  -1  -2  -4    1.13    0.25
  -1   2  -4    0.78    0.16
   1   2   4    1.66    0.28
  -1   2  -4    1.06    0.24
  -2  -2  -4   75.94    2.19
   2  -2   4   76.35    2.02
   2  -2   4   77.06    2.00
   2  -2   4   79.08    1.99
  -2   2  -4   77.85    1.81
  -2   2  -4   81.33    2.12
  -2   2  -4   80.15    1.88
  -2   2  -4   74.81    2.04
   2   2   4   78.83    2.07
  -3  -2  -4    0.16    0.17
   3  -2   4    0.50    0.20
  -3  -2  -4    0.06    0.14
   3   2   4    0.26    0.09
  -3   2  -4    0.14    0.15
   3   2   4    0.08    0.14
  -3   2  -4    0.09    0.13
  -3   2  -4    0.02    0.11
  -4  -2  -4   20.83    1.07
  -4  -2  -4   22.59    1.06
   4  -2   4   23.18    1.04
  -4   2  -4   23.59    1.09
  -4   2  -4   19.78    0.98
  -4   2  -4   22.74    0.93
   4   2   4   21.27    0.95
   4   2   4   22.81    0.62
   5  -2   4    8.76    0.70
  -5  -2  -4    7.63    0.78
  -5  -2  -4    7.23    0.34
  -5  -2  -4    7.56    0.66
  -5   2  -4    9.05    0.73
  -5   2  -4    7.60    0.52
  -5   2  -4    7.92    0.68
   5   2   4    7.93    0.60
   6  -2   4   23.45    1.20
  -6  -2  -4   23.73    1.28
  -6  -2  -4   20.05    0.84
  -6  -2  -4   21.15    1.17
   6  -2   4   19.67    1.13
   6   2   4   22.63    1.06
  -6   2  -4   21.16    1.18
  -6   2  -4   22.75    1.25
  -6   2  -4   20.44    0.92
   7  -2   4    0.74    0.38
  -7  -2  -4    1.29    0.43
   7  -2   4    1.73    0.46
  -7  -2  -4    1.76    0.42
   7   2   4    1.89    0.41
   7   2   4    1.99    0.38
  -7   2  -4    1.29    0.27
  -7   2  -4    1.71    0.48
  -7   2  -4    2.02    0.49
  -8  -2  -4   30.61    1.67
   8  -2   4   27.56    1.54
  -8  -2  -4   33.14    1.64
  -8   2  -4   30.03    1.68
  -8   2  -4   27.96    1.58
   8   2   4   31.25    1.39
  -9  -2  -4    2.40    0.60
  -9  -2  -4    3.38    0.64
   9  -2   4    4.34    0.74
  -9   2  -4    2.57    0.63
  -9   2  -4    2.11    0.58
   9  -3  -4   19.10    1.30
  -9  -3   4   19.16    1.20
  -9   3   4   19.30    1.42
  -9   3   4   18.47    1.42
   8  -3  -4    0.94    0.39
  -8  -3   4    1.22    0.37
  -8   3   4    0.85    0.40
  -8   3   4    0.70    0.40
  -7  -3   4   56.13    1.90
   7  -3  -4   57.80    2.22
  -7   3   4   61.73    2.41
  -7   3   4   58.58    2.33
  -6  -3   4   29.26    1.14
   6  -3  -4   34.10    1.54
  -6  -3   4   29.17    1.10
  -6  -3   4   32.19    0.93
  -6   3   4   33.28    1.59
  -6   3   4   32.37    1.60
  -5  -3   4   41.72    1.24
  -5  -3   4   45.26    1.30
   5  -3  -4   44.34    1.74
  -5   3   4   49.07    1.92
   5   3  -4   41.37    1.31
  -5   3   4   46.83    1.82
  -4  -3   4    0.31    0.08
  -4  -3   4    0.47    0.10
   4  -3  -4   -0.04    0.21
   4   3  -4    0.58    0.28
   4   3  -4    0.18    0.08
  -4   3   4    0.61    0.25
   3  -3  -4   90.20    2.62
   3   3  -4   91.74    2.73
   3   3  -4   92.51    2.71
  -3   3   4   91.02    2.61
   2  -3  -4    4.58    0.52
   2   3  -4    3.60    0.51
   2   3  -4    4.14    0.52
  -2   3   4    3.84    0.47
   1  -3  -4   24.08    1.09
   1   3  -4   23.98    1.13
  -1   3   4   25.64    1.03
   1   3  -4   25.78    0.67
   1   3  -4   27.53    1.16
   0  -3   4   36.29    0.86
   0  -3   4   37.21    0.85
   0  -3  -4   37.21    1.39
   0   3  -4   36.66    1.01
   0   3  -4   34.11    1.37
   0   3   4   37.13    1.26
   1  -3   4  127.50    2.85
  -1  -3  -4  128.89    3.29
   1  -3   4  131.07    2.85
   1  -3   4  120.88    2.87
   1   3   4  126.46    3.08
  -1   3  -4  129.49    2.97
  -1   3  -4  129.50    3.32
   2  -3   4    3.64    0.38
  -2  -3  -4    4.40    0.54
   2  -3   4    4.04    0.43
  -2   3  -4    4.11    0.49
  -2   3  -4    4.54    0.16
   2   3   4    4.38    0.26
   2   3   4    4.32    0.43
  -2   3  -4    4.40    0.16
  -2   3  -4    4.08    0.44
   2   3   4    3.64    0.39
   3  -3   4   55.60    1.71
  -3  -3  -4   54.75    1.87
   3   3   4   52.58    1.52
  -3   3  -4   51.29    1.75
  -3   3  -4   52.72    1.74
  -3   3  -4   54.71    1.51
   3   3   4   52.28    1.60
   4  -3   4   15.36    0.90
  -4  -3  -4   17.47    0.95
  -4  -3  -4   15.08    0.97
  -4   3  -4   17.08    0.86
  -4   3  -4   16.57    0.90
   4   3   4   16.62    0.69
  -4   3  -4   16.50    0.95
   4   3   4   15.97    0.80
  -5  -3  -4   62.93    2.13
  -5  -3  -4   64.23    2.25
   5  -3   4   60.12    2.12
   5   3   4   63.32    1.91
  -5   3  -4   64.28    2.24
  -5   3  -4   64.10    2.06
   5   3   4   65.33    1.66
  -5   3  -4   63.00    2.08
   6  -3   4   19.88    1.18
  -6  -3  -4   18.57    1.18
   6  -3   4   20.03    1.18
  -6  -3  -4   19.62    1.12
  -6   3  -4   17.58    1.08
  -6   3  -4   16.97    1.15
  -6   3  -4   18.61    1.00
   6   3   4   18.87    0.93
   7  -3   4    4.31    0.66
  -7  -3  -4    4.92    0.74
  -7  -3  -4    4.37    0.62
  -7   3  -4    4.90    0.74
  -7   3  -4    5.49    0.76
  -7   3  -4    4.25    0.54
  -8  -3  -4    0.80    0.40
  -8  -3  -4    1.01    0.41
   8  -3   4    0.73    0.42
  -8   3  -4    0.99    0.41
  -8   3  -4    0.74    0.29
  -8   3  -4    1.28    0.46
  -9  -3  -4   24.10    1.62
   9  -3   4   26.24    1.63
  -9   3  -4   26.29    1.74
   9  -4  -4    2.11    0.63
  -9  -4   4    2.74    0.56
  -9   4   4    2.27    0.65
  -9   4   4    2.11    0.62
   8  -4  -4   20.28    1.39
  -8  -4   4   22.92    1.20
  -8   4   4   22.66    1.56
  -8   4   4   20.66    1.44
   7  -4  -4    0.04    0.31
  -7  -4   4    0.19    0.19
  -7   4   4    0.61    0.36
  -7   4   4    0.57    0.37
  -6  -4   4   37.62    1.30
   6  -4  -4   38.56    1.78
  -6   4   4   35.18    1.73
   5  -4  -4   23.78    1.33
  -5  -4   4   23.27    0.84
  -5  -4   4   22.97    0.81
   5   4  -4   20.74    1.30
  -5   4   4   25.34    1.35
  -4  -4   4    0.39    0.10
  -4  -4   4    0.37    0.09
  -4  -4   4    0.31    0.09
   4  -4  -4    0.52    0.31
   4   4  -4   -0.03    0.21
  -4   4   4    0.43    0.27
   3  -4  -4    3.27    0.53
   3   4  -4    4.07    0.60
  -3   4   4    2.91    0.47
   3   4  -4    3.70    0.56
   2  -4  -4   35.39    1.51
   2   4  -4   38.40    1.58
   2   4  -4   36.88    1.60
  -2   4   4   36.43    1.42
   1  -4  -4    0.39    0.26
  -1   4   4    0.39    0.21
   1   4  -4    0.02    0.23
   1   4  -4    0.44    0.28
   0  -4   4  140.74    3.03
   0  -4  -4  138.45    3.68
   0  -4   4  134.80    3.04
   0   4  -4  138.53    3.78
   0   4   4  148.38    3.46
   0   4  -4  140.30    3.20
   1  -4   4   -0.13    0.10
  -1  -4  -4   -0.30    0.20
   1  -4   4    0.03    0.10
  -1   4  -4   -0.11    0.11
  -1   4  -4   -0.07    0.18
   1   4   4    0.11    0.12
  -2  -4  -4  368.82    8.20
   2  -4   4  378.21    7.83
   2  -4   4  339.57    7.81
   2   4   4  366.32    7.75
  -2   4  -4  377.40    7.93
   2   4   4  375.81    8.03
  -2   4  -4  370.06    8.29
  -3  -4  -4   13.06    0.92
   3  -4   4   13.89    0.82
  -3   4  -4   12.80    0.46
  -3   4  -4   15.46    0.97
   3   4   4   13.63    0.69
   3   4   4   13.77    0.59
  -3   4  -4   13.70    0.48
  -3   4  -4   13.24    0.83
   3   4   4   12.78    0.76
   4  -4   4  212.57    5.09
  -4  -4  -4  205.58    5.06
   4  -4   4  209.36    5.07
  -4  -4  -4  211.66    5.25
   4   4   4  206.81    4.78
  -4   4  -4  205.01    5.18
  -4   4  -4  211.73    5.19
   4   4   4  201.50    4.64
  -5  -4  -4    7.73    0.84
  -5  -4  -4    7.89    0.69
   5  -4   4    8.52    0.78
  -5   4  -4    8.33    0.65
   5   4   4    9.28    0.57
  -5   4  -4    7.77    0.80
  -5   4  -4    8.07    0.88
   5   4   4    7.58    0.55
  -6  -4  -4   35.54    1.71
   6  -4   4   35.08    1.67
  -6  -4  -4   33.48    1.53
  -6   4  -4   31.46    1.46
  -6   4  -4   32.16    1.66
  -6   4  -4   33.43    1.55
   7  -4   4    1.71    0.48
  -7  -4  -4    1.06    0.44
  -7  -4  -4    0.55    0.36
  -7   4  -4    1.67    0.46
  -7   4  -4    0.91    0.41
  -7   4  -4    1.75    0.44
   8  -4   4    3.77    0.75
  -8  -4  -4    4.27    0.73
  -8   4  -4    5.20    0.91
  -8   4  -4    4.15    0.63
  -8   4  -4    3.39    0.71
   8  -5  -4    0.63    0.46
  -8  -5   4    1.39    0.38
  -8   5   4    1.29    0.51
  -7  -5   4   31.29    1.32
   7  -5  -4   30.92    1.76
  -7   5   4   28.88    1.65
   6  -5  -4    6.61    0.89
  -6  -5   4    8.48    0.60
  -6   5   4    9.50    1.01
   5  -5  -4   89.51    3.07
  -5  -5   4   88.95    2.27
  -5   5   4   89.15    2.94
   5   5  -4   88.90    3.11
   4  -5  -4    0.49    0.35
  -4  -5   4    0.52    0.16
   4   5  -4    0.28    0.30
   4   5  -4    0.02    0.28
  -4   5   4    0.49    0.26
  -3  -5   4  164.98    3.54
   3  -5  -4  174.61    4.61
  -3  -5   4  167.14    3.52
   3   5  -4  171.32    4.73
  -3   5   4  170.26    4.36
   3   5  -4  170.95    4.61
  -2  -5   4   16.70    0.54
  -2  -5   4   15.85    0.55
   2  -5  -4   15.42    1.03
   2   5  -4   16.46    1.09
   2   5  -4   18.21    1.18
  -2   5   4   17.47    0.97
  -1  -5   4   30.53    0.94
   1  -5  -4   32.18    1.51
  -1  -5   4   30.46    0.93
   1   5  -4   32.02    1.59
   1   5  -4   34.21    1.58
  -1   5   4   30.85    1.25
   0  -5   4   30.08    1.01
   0  -5  -4   29.71    1.43
   0  -5   4   31.22    1.03
   0  -5   4   27.48    1.00
   0   5   4   28.17    1.12
   0   5  -4   27.89    1.49
   1  -5   4   55.81    1.67
  -1  -5  -4   56.52    2.07
   1  -5   4   50.28    1.66
   1  -5   4   53.76    1.65
   1   5   4   52.91    2.01
  -1   5  -4   52.40    2.12
  -1   5  -4   56.35    1.77
   1   5   4   54.38    1.63
  -2  -5  -4   18.07    1.12
   2  -5   4   19.64    0.97
   2   5   4   16.91    1.03
  -2   5  -4   16.82    1.15
   2   5   4   17.68    0.77
   2   5   4   17.45    0.84
  -2   5  -4   18.75    0.99
   3  -5   4    4.94    0.61
  -3  -5  -4    5.58    0.74
  -3   5  -4    4.39    0.58
   3   5   4    5.26    0.44
   3   5   4    4.39    0.56
  -3   5  -4    4.50    0.68
  -4  -5  -4    2.41    0.46
   4  -5   4    2.62    0.49
  -4  -5  -4    1.84    0.47
   4   5   4    2.22    0.41
  -4   5  -4    2.88    0.52
  -4   5  -4    2.53    0.52
   5  -5   4   28.24    1.47
  -5  -5  -4   29.89    1.57
  -5  -5  -4   25.33    1.31
  -5   5  -4   27.44    1.50
  -5   5  -4   29.41    1.55
   5   5   4   25.66    1.21
   6  -5   4    9.44    1.00
  -6  -5  -4   12.90    1.07
  -6   5  -4    9.15    1.03
   6   5   4   10.90    0.74
  -6   5  -4   11.20    1.13
   7  -5   4    9.08    1.08
  -7  -5  -4    9.59    1.09
  -7   5  -4    9.72    1.15
  -7   5  -4    9.93    1.05
  -6  -6   4    7.32    0.61
   6  -6  -4    7.69    1.03
  -6   6   4    9.60    1.03
   6   6  -4    9.67    1.14
   5  -6  -4   -0.28    0.28
  -5  -6   4    0.40    0.22
  -5   6   4    0.45    0.31
   5   6  -4   -0.09    0.29
   4  -6  -4    7.08    0.92
  -4  -6   4    5.61    0.46
   4   6  -4    6.16    0.85
  -4   6   4    5.37    0.69
   4   6  -4    4.90    0.80
  -3  -6   4   13.40    0.65
   3  -6  -4   16.27    1.20
  -3   6   4   12.88    0.88
   3   6  -4   13.11    1.08
   3   6  -4   13.00    1.13
   2  -6  -4   70.11    2.61
  -2  -6   4   67.94    1.85
   2   6  -4   68.55    2.61
  -2   6   4   66.90    2.15
   2   6  -4   68.89    2.73
   1  -6  -4   23.77    1.40
  -1  -6   4   23.41    0.95
   1   6  -4   24.96    1.46
  -1   6   4   22.81    1.17
   1   6  -4   25.62    1.54
  -1   6   4   22.01    1.42
   0  -6   4   38.19    1.36
   0  -6  -4   37.56    1.77
   0   6  -4   38.81    1.91
   0   6  -4   34.48    1.77
   0   6   4   35.95    1.80
  -1  -6  -4   28.12    1.51
   1  -6   4   27.25    1.20
  -1   6  -4   27.06    1.60
   1   6   4   27.81    1.53
  -2  -6  -4   51.19    2.14
   2  -6   4   51.80    1.89
  -2   6  -4   49.70    2.27
   2   6   4   55.11    2.17
  -2   6  -4   53.27    1.96
   2   6   4   51.45    1.79
  -3  -6  -4    3.29    0.65
   3  -6   4    3.46    0.56
  -3   6  -4    3.55    0.68
   3   6   4    3.34    0.45
  -3   6  -4    3.28    0.56
   3   6   4    2.97    0.59
   4  -6   4   49.06    2.07
  -4  -6  -4   51.73    2.21
  -4   6  -4   52.84    2.18
  -4   6  -4   51.79    2.34
   4   6   4   51.45    2.04
   5  -6   4    1.87    0.50
  -5  -6  -4    0.83    0.42
  -5   6  -4    1.64    0.46
  -5   6  -4    1.08    0.40
   5   6   4    1.30    0.36
   6  -6   4   11.58    1.19
  -6  -6  -4   11.79    1.25
  -6   6  -4   13.30    1.34
  -6   6  -4   13.82    1.19
   5  -7  -4   19.84    1.55
  -5  -7   4   21.07    1.06
   5   7  -4   20.40    1.56
   4  -7  -4    0.13    0.35
  -4  -7   4    0.41    0.21
  -4   7   4    0.42    0.44
   4   7  -4    0.07    0.34
   4   7  -4   -0.04    0.31
  -3  -7   4   38.19    1.41
   3  -7  -4   39.42    2.04
   3   7  -4   35.26    2.05
   3   7  -4   36.60    1.96
  -3   7   4   39.34    2.16
   2  -7  -4    2.64    0.62
  -2  -7   4    2.91    0.42
   2   7  -4    2.26    0.62
  -2   7   4    2.67    0.66
   2   7  -4    3.10    0.65
  -1  -7   4   16.24    0.91
   1  -7  -4   13.97    1.18
  -1   7   4   17.50    1.37
   1   7  -4   16.57    1.29
   1   7  -4   14.84    1.31
   0  -7  -4   14.13    1.17
   0  -7   4   14.94    0.92
   0   7   4   12.96    1.33
   0   7  -4   13.30    1.34
   0   7  -4    8.76    1.13
  -1  -7  -4   60.88    2.55
   1  -7   4   62.23    2.19
   1   7   4   67.39    2.74
  -1   7  -4   65.97    2.84
   2  -7   4    0.40    0.34
  -2  -7  -4    0.46    0.38
   2   7   4    0.53    0.30
   2   7   4    0.14    0.31
  -2   7  -4    0.37    0.40
  -3  -7  -4   13.15    1.16
   3  -7   4   13.53    1.05
   3   7   4   10.92    1.14
  -3   7  -4    9.84    1.20
  -3   7  -4   12.00    0.99
   4  -7   4    1.26    0.46
  -4  -7  -4    1.01    0.45
  -4   7  -4    1.24    0.48
  -4   7  -4    1.85    0.60
   4   7   4    0.91    0.39
 -10   0   5    0.18    0.32
  -9   0   5   39.04    1.81
  -9   0   5   39.96    1.89
  -8   0   5    0.23    0.25
  -8   0   5    0.17    0.25
   7   0  -5  173.93    3.92
  -7   0   5  174.93    4.43
  -7   0   5  175.15    4.50
  -6   0   5    0.08    0.21
   6   0  -5    0.28    0.15
  -6   0   5   -0.22    0.13
   6   0  -5   -0.08    0.16
  -5   0   5   58.93    1.85
   5   0  -5   59.07    1.89
   5   0  -5   59.30    1.55
   4   0  -5   -0.06    0.10
  -4   0   5   -0.07    0.11
   4   0  -5    0.01    0.10
  -4   0   5    0.06    0.13
   4   0  -5    0.01    0.13
  -3   0   5   85.50    2.18
   3   0  -5   88.97    1.99
   3   0  -5   87.52    1.98
   3   0  -5   87.59    2.27
  -3   0   5   86.65    2.20
   2   0  -5   -0.06    0.09
  -2   0   5   -0.04    0.11
   2   0  -5   -0.05    0.08
  -2   0   5   -0.01    0.13
  -1   0   5    0.44    0.17
  -1   0   5    1.69    0.26
   1   0  -5    1.12    0.18
  -1   0   5    0.56    0.22
   1   0  -5    0.40    0.15
   0   0   5   -0.12    0.08
   0   0   5   -0.21    0.08
   0   0  -5    0.00    0.08
   0   0   5    0.02    0.11
   0   0  -5   -0.08    0.09
  -1   0  -5  467.71    9.37
  -1   0  -5  450.04    9.27
   1   0   5  462.22    9.40
  -1   0  -5  463.20    9.22
   1   0   5  464.38    9.36
   1   0   5  456.96    9.27
  -2   0  -5    0.04    0.08
   2   0   5   -0.08    0.12
   2   0   5    0.12    0.07
   2   0   5   -0.02    0.08
  -2   0  -5    0.18    0.15
  -2   0  -5   -0.20    0.13
   3   0   5  330.46    7.06
  -3   0  -5  324.85    7.13
  -3   0  -5  333.96    7.17
  -4   0  -5    0.07    0.17
  -4   0  -5   -0.07    0.18
   4   0   5    0.32    0.19
  -5   0  -5  524.83   11.21
   5   0   5  531.19   11.09
  -5   0  -5  512.74   11.19
  -6   0  -5    0.24    0.25
   6   0   5    0.26    0.26
  -6   0  -5    0.24    0.27
   7   0   5   38.72    1.67
  -7   0  -5   37.04    1.74
  -7   0  -5   38.42    1.78
   8   0   5    0.24    0.27
  -8   0  -5   -0.02    0.21
  -8   0  -5    0.01    0.30
   8   0   5    0.54    0.31
   9   0   5    2.11    0.53
  -9   0  -5    1.91    0.54
  -9   0  -5    1.48    0.48
 -10   0  -5    0.75    0.44
 -10   0  -5    0.24    0.35
  10   0   5    0.48    0.36
 -10  -1   5    8.82    1.03
 -10   1   5    7.74    1.04
  -9  -1   5    0.51    0.34
  -9   1   5    0.29    0.35
  -9   1   5   -0.01    0.29
   8  -1  -5   11.07    0.79
  -8  -1   5   11.47    0.90
  -8  -1   5   11.06    0.81
  -8   1   5   10.88    0.95
  -8   1   5    9.54    0.99
  -7  -1   5   23.42    1.16
  -7  -1   5   20.60    1.02
   7  -1  -5   21.47    1.03
  -7   1   5   17.78    1.14
  -7   1   5   19.08    1.14
  -6  -1   5   65.66    1.94
  -6  -1   5   66.70    2.02
   6  -1  -5   63.53    1.97
  -6   1   5   66.42    2.22
   6   1  -5   58.28    1.96
  -6   1   5   68.06    2.22
  -5  -1   5   43.18    1.39
   5  -1  -5   41.05    1.43
  -5  -1   5   41.50    1.35
  -5   1   5   41.24    1.58
   5   1  -5   43.05    1.43
   4  -1  -5  175.02    3.99
  -4  -1   5  163.83    3.77
   4  -1  -5  166.30    4.15
  -4  -1   5  169.22    3.77
   4   1  -5  173.45    3.88
  -4   1   5  177.51    4.15
   3  -1  -5  200.76    4.48
  -3  -1   5  193.60    4.17
   3  -1  -5  202.97    4.65
  -3  -1   5  199.78    4.19
   3   1  -5  202.57    4.32
  -3   1   5  198.81    4.71
  -3   1   5  201.24    4.58
   2  -1  -5  124.60    2.94
  -2  -1   5  121.21    2.56
  -2  -1   5  121.66    2.56
  -2   1   5  120.71    2.96
  -2   1   5  123.75    2.98
  -1  -1   5    0.50    0.17
   1  -1  -5    0.38    0.15
  -1  -1   5    0.25    0.09
  -1  -1   5    0.40    0.09
   1  -1  -5    0.64    0.20
  -1   1   5    0.44    0.18
   1   1  -5    0.32    0.18
  -1   1   5    0.34    0.17
   0  -1   5  124.84    3.01
   0  -1   5  121.76    2.72
   0  -1   5  130.51    2.73
   0  -1  -5  122.94    2.91
   0  -1  -5  127.41    3.01
   0   1  -5  126.37    3.00
   0   1   5  124.12    3.01
   0   1  -5  128.38    3.05
   0   1   5  128.53    2.97
   1  -1   5   69.91    1.81
   1  -1   5   65.96    1.71
  -1  -1  -5   69.82    1.93
   1  -1   5   67.91    1.74
  -1   1  -5   69.49    1.80
   1   1   5   69.70    1.55
  -1   1  -5   69.11    1.83
   1   1   5   65.25    1.90
  -1   1  -5   67.98    1.82
  -1   1  -5   72.35    1.64
  -1   1  -5   67.16    1.58
   1   1   5   70.26    1.87
   2  -1   5   11.57    0.59
  -2  -1  -5   11.94    0.70
   2  -1   5   12.10    0.62
   2  -1   5   11.65    0.54
  -2   1  -5   12.13    0.53
  -2   1  -5   11.93    0.56
  -2   1  -5   11.97    0.59
  -2   1  -5   11.55    0.63
   2   1   5   11.36    0.62
  -3  -1  -5   19.98    0.97
  -3  -1  -5   18.59    0.94
   3  -1   5   19.49    0.87
  -3  -1  -5   18.15    0.44
  -3   1  -5   20.76    0.90
   3   1   5   19.07    0.87
  -3   1  -5   19.08    0.71
  -3   1  -5   20.62    0.94
   4  -1   5   51.47    1.68
  -4  -1  -5   47.38    1.70
  -4  -1  -5   46.73    1.71
  -4   1  -5   46.24    1.68
   4   1   5   46.67    1.60
  -4   1  -5   49.71    1.31
  -4   1  -5   48.41    1.66
  -5  -1  -5    0.31    0.27
   5  -1   5    0.94    0.32
  -5  -1  -5    0.99    0.34
  -5   1  -5    1.06    0.34
  -5   1  -5    0.85    0.16
  -5   1  -5    1.25    0.34
   5   1   5    0.71    0.28
   6  -1   5    0.61    0.31
  -6  -1  -5    0.11    0.26
  -6  -1  -5   -0.13    0.19
  -6   1  -5    0.16    0.09
  -6   1  -5    0.23    0.28
   6   1   5    0.04    0.21
  -6   1  -5    0.30    0.25
  -7  -1  -5   15.34    1.11
  -7  -1  -5   15.10    1.07
   7  -1   5   14.52    0.99
  -7   1  -5   14.66    1.08
  -7   1  -5   15.49    1.11
   7   1   5   15.27    0.99
  -8  -1  -5   36.21    1.80
  -8  -1  -5   39.05    1.91
   8  -1   5   36.63    1.75
   8  -1   5   41.27    1.83
  -8   1  -5   34.95    1.81
  -8   1  -5   35.44    1.83
   8   1   5   39.32    1.71
   8   1   5   36.44    1.66
   9  -1   5    9.86    1.05
  -9  -1  -5    9.33    1.07
  -9  -1  -5   10.88    1.19
  -9   1  -5    9.70    1.18
   9   1   5    8.99    0.95
  -9   1  -5    9.24    1.10
  10  -1   5    6.59    0.93
 -10  -1  -5    6.68    1.04
 -10  -1  -5    7.36    1.02
 -10   1  -5    7.18    1.05
 -10   1  -5    7.25    1.04
 -10  -2   5    2.69    0.61
 -10   2   5    3.17    0.73
 -10   2   5    2.39    0.64
  -9  -2   5    5.63    0.78
  -9   2   5    5.68    0.85
  -9   2   5    5.44    0.85
   8  -2  -5   30.22    1.46
  -8  -2   5   30.64    1.45
  -8   2   5   32.13    1.67
  -8   2   5   29.78    1.63
  -7  -2   5   23.11    1.11
  -7  -2   5   22.83    0.98
   7  -2  -5   24.20    1.24
  -7   2   5   21.11    1.28
  -7   2   5   21.95    1.31
  -6  -2   5   27.87    1.09
  -6  -2   5   29.81    1.15
   6  -2  -5   28.72    1.32
  -6   2   5   29.84    1.46
   6   2  -5   29.26    1.17
  -6   2   5   31.56    1.50
  -5  -2   5   22.26    0.84
  -5  -2   5   23.49    0.87
   5  -2  -5   24.01    1.14
  -5   2   5   23.07    1.20
   5   2  -5   22.45    0.90
   4  -2  -5   69.38    2.12
  -4  -2   5   67.25    1.61
  -4  -2   5   70.12    1.62
   4   2  -5   66.37    1.72
  -4   2   5   67.64    2.17
   3  -2  -5  282.93    6.33
   3   2  -5  284.77    5.78
  -3   2   5  287.71    6.39
   2  -2  -5   14.60    0.77
   2  -2  -5   13.75    0.81
  -2   2   5   14.79    0.79
   2   2  -5   13.01    0.80
   2   2  -5   13.21    0.81
   1  -2  -5  140.43    3.46
  -1   2   5  143.69    3.42
   1   2  -5  142.70    3.55
   1   2  -5  139.29    3.49
   0  -2   5    4.49    0.22
   0  -2   5    4.39    0.22
   0  -2  -5    4.45    0.50
   0   2  -5    4.57    0.29
   0   2   5    4.50    0.46
   0   2  -5    4.12    0.45
   0   2  -5    4.19    0.47
   1  -2   5  356.28    7.47
   1  -2   5  366.76    7.44
  -1  -2  -5  356.95    7.86
  -1   2  -5  371.12    7.55
  -1   2  -5  374.31    7.82
   1   2   5  374.58    7.76
   2  -2   5    5.06    0.42
  -2  -2  -5    5.88    0.60
   2  -2   5    5.85    0.43
   2   2   5    6.04    0.50
  -2   2  -5    5.34    0.33
  -2   2  -5    6.24    0.32
  -2   2  -5    6.51    0.49
  -2   2  -5    6.02    0.47
   3  -2   5   69.29    1.99
  -3  -2  -5   68.63    2.16
  -3   2  -5   69.73    1.91
   3   2   5   69.42    1.62
   3   2   5   66.91    1.99
  -3   2  -5   69.31    2.05
  -3   2  -5   67.71    1.93
  -4  -2  -5    4.25    0.54
  -4  -2  -5    4.39    0.57
   4  -2   5    4.39    0.52
  -4   2  -5    4.77    0.54
   4   2   5    3.78    0.16
   4   2   5    4.78    0.51
  -4   2  -5    3.82    0.51
  -4   2  -5    4.38    0.39
  -5  -2  -5   74.74    2.48
   5  -2   5   76.89    2.40
  -5  -2  -5   76.95    2.46
  -5   2  -5   76.34    2.47
  -5   2  -5   73.50    2.35
  -5   2  -5   73.74    2.07
   5   2   5   76.14    2.28
   6  -2   5    0.76    0.36
  -6  -2  -5    1.38    0.41
  -6  -2  -5    1.45    0.40
  -6   2  -5    1.07    0.25
  -6   2  -5    1.08    0.35
   6   2   5    1.13    0.32
  -6   2  -5    1.19    0.39
   7  -2   5   32.83    1.61
   7  -2   5   35.17    1.66
  -7  -2  -5   32.67    1.62
  -7  -2  -5   33.77    1.70
  -7   2  -5   34.70    1.65
  -7   2  -5   33.16    1.21
  -7   2  -5   32.90    1.68
   7   2   5   33.21    1.46
  -8  -2  -5    9.02    1.00
  -8  -2  -5    8.44    1.02
   8  -2   5    6.93    0.89
   8   2   5    7.86    0.80
  -8   2  -5    9.52    1.06
   8   2   5    8.11    0.74
  -8   2  -5    8.28    0.96
   9  -2   5   15.59    1.24
  -9  -2  -5   14.79    1.25
  -9  -2  -5   14.47    1.28
  -9   2  -5   13.31    1.38
  -9   2  -5   14.24    1.21
   9  -3  -5    0.68    0.34
  -9  -3   5    0.01    0.31
  -9   3   5    0.23    0.36
  -9   3   5    0.36    0.35
   8  -3  -5   51.60    2.16
  -8  -3   5   54.36    1.98
  -8   3   5   56.37    2.42
  -8   3   5   54.42    2.36
  -7  -3   5   31.32    1.29
   7  -3  -5   32.38    1.57
  -7   3   5   32.16    1.68
  -6  -3   5   68.08    1.92
   6  -3  -5   65.86    2.35
  -6   3   5   69.83    2.49
  -5  -3   5   23.35    0.80
  -5  -3   5   21.24    0.77
   5  -3  -5   23.41    1.24
  -5   3   5   23.20    1.28
  -4  -3   5   30.78    0.68
   4  -3  -5   30.39    1.38
  -4  -3   5   30.93    0.67
   4   3  -5   29.36    0.87
  -4   3   5   31.87    1.40
   3  -3  -5   90.23    2.62
   3   3  -5   88.58    2.73
  -3   3   5   87.82    2.60
   3   3  -5   84.92    1.82
   2  -3  -5   49.78    1.74
   2   3  -5   47.36    1.79
  -2   3   5   47.62    1.67
   2   3  -5   46.31    1.73
   1  -3  -5    0.11    0.21
   1   3  -5    0.24    0.21
   1   3  -5    0.08    0.06
   1   3  -5   -0.36    0.14
  -1   3   5   -0.15    0.14
   0  -3   5  131.49    2.71
   0  -3  -5  131.24    3.42
   0  -3   5  130.34    2.73
   0   3  -5  132.58    3.43
   0   3   5  130.01    3.26
   0   3  -5  132.47    3.47
   0   3  -5  130.42    2.88
  -1  -3  -5    0.15    0.18
   1  -3   5    0.15    0.11
   1  -3   5   -0.09    0.10
  -1   3  -5   -0.03    0.09
   1   3   5   -0.04    0.09
  -1   3  -5    0.44    0.21
   2  -3   5   27.67    1.03
  -2  -3  -5   28.64    1.29
   2  -3   5   26.47    1.04
  -2   3  -5   29.52    1.24
  -2   3  -5   28.43    1.09
   2   3   5   30.33    1.16
   2   3   5   28.67    0.75
   3  -3   5   24.94    1.07
  -3  -3  -5   25.57    1.26
  -3   3  -5   25.32    0.87
   3   3   5   26.22    0.93
   3   3   5   25.71    1.08
  -3   3  -5   26.16    1.13
  -3   3  -5   25.46    1.15
  -4  -3  -5  124.03    3.50
   4  -3   5  124.29    3.31
  -4  -3  -5  122.21    3.41
  -4   3  -5  125.14    3.12
   4   3   5  123.27    2.84
   4   3   5  121.83    3.17
  -4   3  -5  123.22    3.38
  -4   3  -5  125.92    3.30
  -5  -3  -5    2.40    0.44
  -5  -3  -5    2.19    0.51
   5  -3   5    1.76    0.41
   5   3   5    2.07    0.22
  -5   3  -5    2.14    0.44
   5   3   5    2.57    0.41
  -5   3  -5    2.30    0.41
  -5   3  -5    1.87    0.38
   6  -3   5   41.08    1.76
  -6  -3  -5   40.58    1.74
   6  -3   5   35.84    1.68
  -6  -3  -5   38.65    1.79
  -6   3  -5   37.82    1.49
   6   3   5   37.99    1.49
  -6   3  -5   39.22    1.79
  -6   3  -5   38.45    1.63
   7  -3   5    1.37    0.45
  -7  -3  -5    1.52    0.48
   7  -3   5    0.75    0.38
  -7  -3  -5    1.57    0.45
  -7   3  -5    0.58    0.22
   7   3   5    0.93    0.29
  -7   3  -5    1.19    0.41
  -7   3  -5    0.75    0.39
   8  -3   5   24.02    1.52
  -8  -3  -5   24.64    1.46
  -8  -3  -5   22.79    1.50
  -8   3  -5   26.12    1.62
  -8   3  -5   24.81    1.47
   9  -3   5    1.48    0.54
  -9  -3  -5    1.31    0.50
  -9   3  -5    2.98    0.70
  -9   3  -5    2.13    0.57
  -8  -4   5    0.16    0.25
   8  -4  -5    0.44    0.35
  -8   4   5    0.34    0.36
  -7  -4   5    6.95    0.58
   7  -4  -5    6.16    0.81
  -7   4   5    7.19    0.95
  -6  -4   5    2.00    0.32
   6  -4  -5    1.58    0.47
  -6   4   5    2.03    0.50
  -5  -4   5   24.16    0.80
   5  -4  -5   23.18    1.33
  -5  -4   5   22.13    0.83
  -5   4   5   26.34    1.38
   4  -4  -5    9.90    0.86
  -4   4   5   11.18    0.86
   4   4  -5    7.65    0.87
   3  -4  -5  195.02    4.86
  -3   4   5  190.97    4.75
   3   4  -5  182.83    4.85
   3   4  -5  183.44    4.93
   2  -4  -5   -0.21    0.22
  -2   4   5    0.07    0.18
   2   4  -5    0.15    0.23
   2   4  -5    0.08    0.23
   1  -4  -5  174.85    4.50
   1   4  -5  174.86    3.70
  -1   4   5  180.84    4.32
   1   4  -5  176.62    4.61
   1   4  -5  174.30    4.53
   0  -4  -5   -0.19    0.14
   0  -4   5    0.07    0.09
   0  -4   5    0.04    0.08
   0   4  -5   -0.02    0.20
   0   4   5    0.08    0.17
   0   4  -5    0.24    0.12
   0   4  -5    0.20    0.23
   1  -4   5  144.25    3.43
  -1  -4  -5  145.76    3.95
   1  -4   5  145.17    3.38
   1   4   5  153.41    3.69
  -1   4  -5  152.23    3.53
  -1   4  -5  154.30    4.05
   2  -4   5   13.61    0.73
  -2  -4  -5   13.11    0.96
   2  -4   5   11.99    0.70
   2   4   5   14.38    0.83
  -2   4  -5   12.60    0.91
   2   4   5   14.41    0.77
  -2   4  -5   15.23    0.81
  -3  -4  -5   34.09    1.57
   3  -4   5   35.60    1.39
  -3   4  -5   34.16    1.40
  -3   4  -5   36.99    1.59
   3   4   5   35.11    1.30
   3   4   5   33.26    1.29
  -4  -4  -5   14.45    0.95
   4  -4   5   13.62    0.91
  -4  -4  -5   15.77    1.09
  -4   4  -5   15.27    0.97
   4   4   5   14.01    0.75
  -4   4  -5   13.86    0.64
  -4   4  -5   16.49    1.03
   4   4   5   14.15    0.78
   5  -4   5    0.32    0.27
  -5  -4  -5    0.42    0.29
  -5  -4  -5   -0.23    0.23
   5  -4   5    0.16    0.25
   5   4   5    0.05    0.18
  -5   4  -5   -0.20    0.11
  -5   4  -5    0.29    0.24
   5   4   5    0.25    0.15
  -5   4  -5   -0.09    0.19
   6  -4   5    4.89    0.72
  -6  -4  -5    3.61    0.61
  -6  -4  -5    3.86    0.68
   6  -4   5    3.26    0.60
  -6   4  -5    3.74    0.63
  -6   4  -5    3.55    0.59
  -6   4  -5    3.79    0.58
  -7  -4  -5    7.35    0.88
  -7  -4  -5    8.35    1.03
   7  -4   5    8.02    0.96
  -7   4  -5    6.23    0.87
  -7   4  -5    8.58    0.88
   8  -4   5    1.62    0.54
  -8  -4  -5    1.04    0.49
  -8   4  -5    1.90    0.59
   8  -5  -5   18.68    1.46
  -8  -5   5   21.15    1.14
  -8   5   5   20.67    1.50
  -7  -5   5    0.00    0.18
   7  -5  -5    0.37    0.36
  -7   5   5    0.27    0.32
   6  -5  -5   29.02    1.65
  -6  -5   5   25.26    1.02
  -6   5   5   25.54    1.49
  -5  -5   5    0.08    0.12
   5  -5  -5    0.64    0.38
   5   5  -5   -0.07    0.26
  -5   5   5    0.23    0.25
   4  -5  -5   25.73    1.47
  -4  -5   5   24.63    0.71
   4   5  -5   25.12    1.51
  -4   5   5   24.60    1.33
   3  -5  -5    1.56    0.44
  -3   5   5    1.07    0.36
   3   5  -5    0.73    0.31
   3   5  -5    1.11    0.44
  -2  -5   5   14.65    0.40
  -2  -5   5   15.14    0.40
   2  -5  -5   14.40    1.05
  -2   5   5   14.15    0.91
   2   5  -5   15.36    1.12
   2   5  -5   14.29    1.05
  -1  -5   5    0.71    0.15
  -1  -5   5    0.69    0.14
   1  -5  -5    1.32    0.41
   1   5  -5    0.55    0.32
  -1   5   5    1.00    0.30
   1   5  -5    0.94    0.36
   0  -5   5   48.55    1.44
   0  -5  -5   53.15    2.06
   0  -5   5   50.51    1.43
   0   5  -5   48.78    2.02
   0   5   5   49.61    1.71
   0   5  -5   49.55    1.51
   0   5  -5   51.19    2.12
  -1  -5  -5   11.73    0.94
   1  -5   5   10.99    0.65
   1  -5   5   11.13    0.67
  -1   5  -5   11.50    0.98
   1   5   5   11.49    0.72
   1   5   5   13.31    0.93
  -1   5  -5   12.25    0.72
   2  -5   5   52.35    1.72
  -2  -5  -5   51.63    2.07
  -2   5  -5   50.92    1.79
  -2   5  -5   51.82    2.13
   2   5   5   50.84    1.65
   2   5   5   48.91    1.90
   3  -5   5    0.19    0.22
   3  -5   5    0.77    0.28
  -3  -5  -5    0.36    0.31
  -3   5  -5   -0.03    0.20
   3   5   5    0.42    0.26
  -3   5  -5    0.34    0.22
   3   5   5    0.24    0.14
   3   5   5    0.36    0.15
   4  -5   5   73.57    2.51
   4  -5   5   76.22    2.53
  -4  -5  -5   77.19    2.76
  -4  -5  -5   77.71    2.58
  -4   5  -5   78.87    2.63
   4   5   5   76.78    2.39
  -4   5  -5   77.01    2.76
  -5  -5  -5    0.53    0.38
  -5  -5  -5    0.67    0.30
   5  -5   5    0.49    0.31
  -5   5  -5    0.10    0.25
  -5   5  -5    0.52    0.34
   5   5   5    0.44    0.24
  -6  -5  -5   55.77    2.37
   6  -5   5   50.15    2.20
  -6   5  -5   51.59    2.20
  -6   5  -5   53.35    2.31
   7  -5   5    6.04    0.88
  -7  -5  -5    6.69    0.94
  -7   5  -5    7.96    1.05
  -7   5  -5    7.13    0.91
  -6  -6   5    3.57    0.45
   6  -6  -5    3.90    0.74
  -6   6   5    3.21    0.63
  -5  -6   5   26.16    1.01
   5  -6  -5   29.02    1.73
  -5   6   5   23.78    1.42
   5   6  -5   26.99    1.70
   4  -6  -5   -0.36    0.27
  -4  -6   5    0.35    0.15
   4   6  -5    0.56    0.34
   4   6  -5    0.11    0.28
  -4   6   5    0.07    0.23
  -3  -6   5   56.57    1.50
   3  -6  -5   54.97    2.36
   3   6  -5   55.09    2.47
  -3   6   5   54.94    2.08
   3   6  -5   57.94    2.41
   2  -6  -5    0.08    0.32
  -2  -6   5    0.20    0.13
  -2   6   5    0.50    0.24
   2   6  -5    0.08    0.34
   2   6  -5    0.87    0.42
   1  -6  -5   67.30    2.58
  -1  -6   5   69.05    1.84
  -1   6   5   65.33    2.11
   1   6  -5   61.11    2.61
   1   6  -5   65.14    2.57
   0  -6   5    0.76    0.24
   0  -6  -5    1.04    0.42
   0   6   5    1.24    0.44
   0   6  -5    0.91    0.36
   0   6  -5    0.92    0.40
  -1  -6  -5   21.96    1.37
   1  -6   5   23.48    1.08
  -1   6  -5   23.75    1.51
   1   6   5   22.64    1.38
  -1   6  -5   22.99    1.12
   2  -6   5    0.78    0.31
  -2  -6  -5    0.81    0.41
  -2   6  -5    0.44    0.25
   2   6   5    0.97    0.26
   2   6   5    0.72    0.32
  -2   6  -5    0.70    0.39
  -3  -6  -5   23.03    1.43
   3  -6   5   22.69    1.23
  -3   6  -5   24.02    1.30
   3   6   5   22.37    1.29
  -3   6  -5   20.56    1.43
   3   6   5   22.19    1.00
   4  -6   5   -0.30    0.21
  -4  -6  -5    0.10    0.30
  -4   6  -5   -0.15    0.25
  -4   6  -5   -0.31    0.24
   4   6   5    0.00    0.20
   5  -6   5    4.79    0.74
  -5  -6  -5    4.32    0.79
  -5   6  -5    5.85    0.84
  -5   6  -5    6.72    0.95
   5   6   5    5.30    0.69
   6  -6   5    1.62    0.50
  -6  -6  -5    1.61    0.54
  -6   6  -5    1.35    0.46
  -6   6  -5    2.05    0.56
   4  -7  -5   26.76    1.74
   4   7  -5   25.48    1.76
   4   7  -5   23.21    1.61
   3  -7  -5    1.31    0.54
  -3  -7   5    1.21    0.28
   3   7  -5    1.05    0.50
   3   7  -5    0.69    0.43
  -2  -7   5   19.49    0.93
   2  -7  -5   18.35    1.41
   2   7  -5   17.65    1.44
  -2   7   5   22.49    1.58
   2   7  -5   19.50    1.41
   1  -7  -5    9.46    1.09
  -1  -7   5    9.31    0.66
   1   7  -5    9.19    1.12
   1   7  -5    8.31    1.09
  -1   7   5    8.67    1.10
   0  -7   5   27.69    1.23
   0  -7  -5   26.82    1.65
   0   7  -5   26.18    1.75
   0   7   5   28.35    1.74
   0   7  -5   25.04    1.67
  -1  -7  -5    9.05    1.06
   1  -7   5   10.13    0.79
   1   7   5   11.53    1.19
  -1   7  -5   10.78    1.27
   2  -7   5   46.13    1.89
  -2  -7  -5   42.76    2.15
  -2   7  -5   42.69    2.27
   2   7   5   48.13    2.19
   3  -7   5   14.99    1.09
  -3  -7  -5   14.11    1.28
  -3   7  -5   13.55    1.07
   3   7   5   14.24    1.15
  -3   7  -5   13.39    1.39
   4  -7   5   37.05    1.87
  -4  -7  -5   36.54    2.04
   4   7   5   38.91    1.89
  -4   7  -5   41.47    2.23
  -4   7  -5   38.23    1.92
 -10   0   6   31.47    1.79
  -9   0   6    0.34    0.33
  -8   0   6   14.71    1.06
  -7   0   6   -0.12    0.18
  -6   0   6    4.17    0.55
   6   0  -6    4.54    0.59
   5   0  -6    0.14    0.17
   5   0  -6   -0.02    0.07
   5   0  -6   -0.02    0.10
  -5   0   6    0.15    0.18
  -4   0   6   20.44    0.91
  -4   0   6   22.25    0.95
   4   0  -6   21.69    0.68
   4   0  -6   21.22    0.97
   3   0  -6    0.07    0.08
   3   0  -6    0.03    0.05
  -3   0   6    0.21    0.14
   3   0  -6    0.03    0.14
  -3   0   6    0.07    0.11
  -2   0   6   21.00    0.81
   2   0  -6   20.76    0.66
  -2   0   6   21.78    0.83
   2   0  -6   21.34    0.66
  -1   0   6   -0.11    0.09
   1   0  -6   -0.06    0.09
  -1   0   6    0.02    0.11
   1   0  -6   -0.07    0.07
  -1   0   6    0.10    0.14
   0   0   6  543.78   11.18
   0   0   6  545.07   11.16
   0   0   6  553.33   11.16
   0   0  -6  569.97   11.10
   0   0  -6  550.84   11.03
   1   0   6   -0.13    0.10
  -1   0  -6    0.08    0.12
  -1   0  -6   -0.01    0.11
   1   0   6   -0.05    0.13
   1   0   6   -0.10    0.13
  -1   0  -6    0.20    0.16
   2   0   6  311.29    6.39
  -2   0  -6  316.38    6.41
  -2   0  -6  311.39    6.79
   2   0   6  311.99    6.69
  -2   0  -6  308.57    6.70
  -3   0  -6    0.26    0.20
  -3   0  -6   -0.12    0.14
   3   0   6   -0.13    0.15
   3   0   6   -0.06    0.05
  -4   0  -6  138.78    3.67
  -4   0  -6  141.34    3.66
   4   0   6  140.56    3.58
  -5   0  -6   -0.13    0.22
   5   0   6    0.21    0.25
  -5   0  -6   -0.34    0.17
   6   0   6   38.72    1.64
  -6   0  -6   35.85    1.66
  -6   0  -6   39.08    1.73
  -7   0  -6    0.35    0.28
   7   0   6   -0.12    0.15
  -7   0  -6   -0.03    0.27
  -8   0  -6    1.47    0.45
  -8   0  -6    0.36    0.34
   8   0   6    0.86    0.37
   9   0   6    0.38    0.35
  -9   0  -6    0.06    0.29
  -9   0  -6   -0.31    0.29
   9   0   6   -0.29    0.26
 -10  -1   6   -0.05    0.25
 -10   1   6    0.18    0.33
  -9  -1   6   16.96    1.17
  -9   1   6   16.18    1.23
  -8  -1   6    4.53    0.64
  -8   1   6    2.92    0.60
   7  -1  -6  119.92    3.20
  -7  -1   6  121.32    3.37
  -7   1   6  129.77    3.67
   6  -1  -6    0.32    0.20
  -6  -1   6   -0.04    0.15
  -6   1   6   -0.05    0.20
   6   1  -6    0.08    0.14
  -5  -1   6   96.40    2.54
  -5  -1   6  102.39    2.58
   5  -1  -6   98.87    2.63
   5   1  -6   94.96    2.60
  -5   1   6  102.20    2.87
   4  -1  -6    9.99    0.72
  -4  -1   6   10.44    0.55
  -4  -1   6    9.68    0.53
   4  -1  -6   10.37    0.63
   4   1  -6   10.20    0.59
  -4   1   6   10.64    0.73
  -3  -1   6  182.84    3.97
  -3  -1   6  184.82    3.99
   3  -1  -6  187.23    4.44
   3  -1  -6  191.31    4.26
  -3   1   6  187.32    4.37
   3   1  -6  184.35    4.10
   2  -1  -6    8.80    0.56
  -2  -1   6    8.83    0.40
  -2  -1   6    8.13    0.38
  -2   1   6    9.40    0.60
  -2   1   6    9.57    0.66
  -1  -1   6  160.03    3.43
  -1  -1   6  157.07    3.42
   1  -1  -6  163.29    3.74
  -1   1   6  158.30    3.77
  -1   1   6  167.71    3.79
   0  -1   6   12.64    0.54
   0  -1  -6   13.98    0.72
   0  -1   6   13.50    0.56
   0   1  -6   13.26    0.69
   0   1   6   13.30    0.77
   0   1   6   12.79    0.68
   1  -1   6   36.89    1.14
   1  -1   6   36.32    1.15
  -1  -1  -6   38.69    1.32
  -1   1  -6   37.22    1.20
  -1   1  -6   36.27    1.23
   1   1   6   37.83    1.27
  -1   1  -6   33.94    0.96
  -1   1  -6   35.90    1.20
   1   1   6   35.56    0.97
  -1   1  -6   37.06    1.01
   2  -1   6    2.82    0.37
   2  -1   6    2.30    0.29
  -2  -1  -6    3.61    0.47
   2  -1   6    2.39    0.33
   2   1   6    2.99    0.40
  -2   1  -6    2.49    0.36
  -2   1  -6    2.55    0.32
  -2   1  -6    2.74    0.33
  -3  -1  -6  140.10    3.58
   3  -1   6  138.26    3.11
  -3  -1  -6  134.45    3.53
   3  -1   6  139.68    3.41
   3   1   6  137.65    2.82
  -3   1  -6  135.51    3.48
   3   1   6  137.45    3.45
  -3   1  -6  137.26    3.39
  -3   1  -6  139.09    3.15
  -4  -1  -6   59.06    2.03
   4  -1   6   55.37    1.88
  -4  -1  -6   59.94    2.03
  -4  -1  -6   60.00    1.28
  -4   1  -6   59.70    1.93
   4   1   6   59.99    1.93
  -4   1  -6   58.33    1.99
  -4   1  -6   56.56    1.53
  -5  -1  -6    6.97    0.79
  -5  -1  -6    6.11    0.69
   5  -1   6    6.10    0.67
  -5   1  -6    7.11    0.75
   5   1   6    7.61    0.67
  -5   1  -6    6.37    0.37
  -5   1  -6    6.03    0.70
  -6  -1  -6   18.55    1.17
  -6  -1  -6   18.58    1.16
   6  -1   6   19.12    1.13
  -6   1  -6   20.24    1.22
   6   1   6   19.28    1.10
  -6   1  -6   19.06    0.64
  -6   1  -6   20.94    1.21
   7  -1   6   67.00    2.44
  -7  -1  -6   71.30    2.59
  -7  -1  -6   63.29    2.48
   7   1   6   65.84    2.34
  -7   1  -6   66.65    2.54
  -7   1  -6   68.16    2.52
   8  -1   6    0.81    0.39
   8  -1   6    0.76    0.38
  -8  -1  -6    0.81    0.39
  -8  -1  -6    0.87    0.43
   8   1   6    0.94    0.36
  -8   1  -6    0.34    0.34
  -8   1  -6    1.68    0.54
   9  -1   6   10.38    1.10
  -9  -1  -6    9.79    1.13
   9  -1   6   12.01    1.06
  -9  -1  -6    9.18    1.13
   9   1   6    8.56    0.94
  -9   1  -6   11.83    1.27
   9   1   6   10.39    0.93
  -9   1  -6   10.13    1.16
  -9  -2   6    0.16    0.24
  -9   2   6   -0.09    0.29
  -8  -2   6   12.80    0.89
   8  -2  -6   10.93    0.87
  -8   2   6   13.54    1.08
  -7  -2   6    0.17    0.21
   7  -2  -6    0.04    0.28
  -7   2   6   -0.13    0.21
  -6  -2   6    5.46    0.47
   6  -2  -6    5.49    0.63
  -6  -2   6    5.55    0.55
  -6   2   6    3.99    0.62
   5  -2  -6   65.65    2.12
  -5  -2   6   65.47    1.74
  -5  -2   6   62.06    1.72
  -5   2   6   64.16    2.23
   5   2  -6   64.70    1.81
  -4  -2   6   66.81    1.63
   4  -2  -6   69.79    2.15
  -4  -2   6   67.93    1.63
  -4   2   6   66.66    2.22
   4   2  -6   67.79    1.74
   3  -2  -6    3.01    0.44
   3   2  -6    3.95    0.26
  -3   2   6    3.15    0.45
   2  -2  -6   63.19    1.97
  -2   2   6   64.51    1.98
   1  -2  -6    7.01    0.59
  -1   2   6    7.58    0.58
   1   2  -6    6.56    0.58
   1   2  -6    6.93    0.60
   0  -2  -6  161.80    3.97
   0  -2   6  161.34    3.42
   0  -2   6  164.12    3.42
   0   2  -6  159.66    3.93
   0   2  -6  166.04    3.55
   0   2  -6  158.60    3.96
   0   2   6  165.18    3.89
   1  -2   6    3.31    0.29
   1  -2   6    3.49    0.31
  -1  -2  -6    3.47    0.46
  -1   2  -6    3.33    0.43
  -1   2  -6    3.01    0.41
   1   2   6    2.92    0.39
  -1   2  -6    3.93    0.34
  -2  -2  -6   65.75    2.14
   2  -2   6   68.65    1.88
   2  -2   6   63.89    1.88
  -2   2  -6   68.32    1.96
  -2   2  -6   66.96    1.57
  -2   2  -6   69.49    2.01
   2   2   6   71.26    2.05
  -2   2  -6   69.31    1.63
   3  -2   6   18.04    0.88
  -3  -2  -6   18.57    1.04
  -3   2  -6   18.40    0.80
  -3   2  -6   19.54    0.87
   3   2   6   17.52    0.92
  -3   2  -6   16.09    0.88
   4  -2   6   63.37    2.08
  -4  -2  -6   65.91    2.22
  -4  -2  -6   67.99    2.27
   4   2   6   68.13    2.10
  -4   2  -6   63.35    1.99
  -4   2  -6   65.75    1.90
  -4   2  -6   66.75    2.17
  -5  -2  -6   36.05    1.62
   5  -2   6   31.71    1.44
  -5  -2  -6   35.18    1.56
   5   2   6   32.37    1.40
  -5   2  -6   33.17    1.42
  -5   2  -6   33.24    1.19
  -5   2  -6   31.15    1.48
  -6  -2  -6   23.84    1.34
  -6  -2  -6   24.55    1.38
   6  -2   6   23.74    1.30
  -6   2  -6   25.24    1.38
   6   2   6   23.41    1.20
  -6   2  -6   22.38    1.24
  -6   2  -6   23.03    0.95
   7  -2   6    7.36    0.85
  -7  -2  -6    8.40    0.91
  -7  -2  -6    7.12    0.88
  -7   2  -6    8.97    0.98
  -7   2  -6    7.80    0.87
   7   2   6    7.94    0.82
   8  -2   6   22.93    1.43
   8  -2   6   21.18    1.38
  -8  -2  -6   19.87    1.39
  -8  -2  -6   21.87    1.47
  -8   2  -6   19.07    1.39
   8   2   6   20.45    1.20
  -8   2  -6   19.41    1.33
   9  -2   6   -0.13    0.31
  -9  -2  -6   -0.29    0.29
  -9  -2  -6   -0.20    0.24
  -9   2  -6    0.13    0.33
  -9   2  -6   -0.09    0.32
  -9  -3   6    5.27    0.73
  -9   3   6    5.75    0.92
   8  -3  -6    3.24    0.61
  -8  -3   6    4.33    0.58
  -8   3   6    5.04    0.82
   7  -3  -6   41.74    1.84
  -7  -3   6   40.84    1.50
  -7   3   6   41.16    1.94
  -6  -3   6    2.50    0.34
   6  -3  -6    2.50    0.51
  -6   3   6    1.67    0.47
  -5  -3   6   74.51    1.86
  -5  -3   6   78.21    1.88
   5  -3  -6   77.44    2.55
  -5   3   6   77.92    2.62
   4  -3  -6   37.99    1.60
  -4   3   6   36.01    1.56
   4   3  -6   37.75    1.00
   3  -3  -6  132.68    3.53
  -3   3   6  129.17    3.49
   3   3  -6  124.05    2.59
   3   3  -6  128.89    3.68
   2  -3  -6   26.33    1.24
   2   3  -6   21.90    1.21
  -2   3   6   25.14    1.18
   2   3  -6   24.62    1.24
   1  -3  -6  163.64    4.21
   1   3  -6  166.82    4.26
  -1   3   6  169.38    4.13
   1   3  -6  169.24    3.45
   1   3  -6  165.98    4.29
   0  -3   6    0.26    0.09
   0  -3  -6    0.22    0.25
   0  -3   6    0.11    0.08
   0   3   6    0.05    0.13
   0   3  -6    0.36    0.22
   0   3  -6    0.00    0.10
   0   3  -6    0.20    0.17
   1  -3   6  123.05    2.93
  -1  -3  -6  124.52    3.44
   1  -3   6  125.20    2.90
  -1   3  -6  126.91    3.41
  -1   3  -6  131.03    3.02
   1   3   6  128.93    3.27
   2  -3   6   60.59    1.84
  -2  -3  -6   64.85    2.18
   2  -3   6   61.21    1.80
  -2   3  -6   63.48    1.89
  -2   3  -6   64.82    2.08
   2   3   6   62.87    1.34
   2   3   6   65.29    1.99
   3  -3   6   97.89    2.61
  -3  -3  -6   96.70    2.90
  -3   3  -6   97.32    2.67
   3   3   6   94.66    2.64
   3   3   6   95.64    2.35
  -3   3  -6   93.64    2.69
  -3   3  -6   79.51    2.11
  -4  -3  -6   62.59    2.20
  -4  -3  -6   66.03    2.32
   4  -3   6   60.04    2.05
  -4   3  -6   62.90    2.14
   4   3   6   62.66    2.02
   4   3   6   60.35    1.59
  -4   3  -6   60.12    1.82
  -4   3  -6   64.04    2.05
  -5  -3  -6   44.29    1.91
  -5  -3  -6   46.27    1.87
   5  -3   6   46.15    1.81
  -5   3  -6   45.63    1.66
  -5   3  -6   46.30    1.88
   5   3   6   43.26    1.67
  -5   3  -6   42.13    1.61
  -6  -3  -6   11.78    0.95
  -6  -3  -6   10.68    0.94
   6  -3   6   11.04    0.92
  -6   3  -6   10.16    0.74
  -6   3  -6   11.70    0.85
   6   3   6   10.06    0.80
  -6   3  -6   12.21    0.98
  -7  -3  -6   20.39    1.31
   7  -3   6   19.98    1.32
   7  -3   6   18.94    1.29
  -7  -3  -6   21.63    1.43
  -7   3  -6   19.53    1.25
  -7   3  -6   23.81    1.12
   7   3   6   21.46    1.15
  -7   3  -6   20.55    1.37
  -8  -3  -6    0.05    0.31
  -8  -3  -6   -0.02    0.27
   8  -3   6    0.12    0.35
  -8   3  -6   -0.21    0.25
  -8   3  -6    0.05    0.27
   9  -3   6   -0.16    0.33
  -9  -3  -6   -0.13    0.33
  -9  -3  -6   -0.10    0.38
  -9   3  -6    0.44    0.40
   8  -4  -6   35.27    1.88
  -8  -4   6   39.97    1.59
  -8   4   6   37.27    2.00
  -7  -4   6    0.29    0.21
   7  -4  -6    0.50    0.36
  -7   4   6    0.57    0.31
  -6  -4   6   69.73    1.89
   6  -4  -6   66.08    2.55
  -6   4   6   72.21    2.66
  -5  -4   6    8.90    0.41
   5  -4  -6   10.72    0.93
  -5   4   6    9.45    0.97
   4  -4  -6  128.00    3.73
   4   4  -6  131.17    3.92
  -4   4   6  125.48    3.67
   3  -4  -6   10.75    0.86
   3   4  -6    8.27    0.88
   3   4  -6   10.05    0.90
  -3   4   6   11.86    0.84
   2  -4  -6   18.32    1.14
   2   4  -6   18.57    1.17
  -2   4   6   18.13    1.05
   2   4  -6   21.40    1.22
   1  -4  -6   16.18    1.04
   1   4  -6   14.60    1.00
  -1   4   6   14.42    0.89
   1   4  -6   13.38    0.50
   1   4  -6   17.15    1.07
   0  -4   6    5.99    0.34
   0  -4   6    5.86    0.33
   0  -4  -6    6.50    0.76
   0   4   6    6.59    0.59
   0   4  -6    5.80    0.70
   0   4  -6    4.86    0.63
   0   4  -6    6.87    0.42
   1  -4   6    9.38    0.54
  -1  -4  -6   11.74    0.90
   1  -4   6   10.82    0.58
  -1   4  -6   10.12    0.60
  -1   4  -6   11.16    0.86
   1   4   6   11.01    0.74
   2  -4   6    1.02    0.26
   2  -4   6    0.89    0.26
  -2  -4  -6    1.33    0.42
   2   4   6    1.04    0.28
   2   4   6    0.87    0.27
  -2   4  -6    0.91    0.24
  -2   4  -6    0.61    0.24
  -3  -4  -6    4.84    0.69
   3  -4   6    4.98    0.56
  -3   4  -6    6.12    0.65
   3   4   6    5.54    0.49
   3   4   6    4.87    0.56
  -3   4  -6    5.15    0.66
  -4  -4  -6   85.90    2.74
  -4  -4  -6   81.32    2.81
   4  -4   6   82.89    2.59
   4   4   6   80.70    2.41
  -4   4  -6   81.13    2.66
  -4   4  -6   84.27    2.67
   4   4   6   80.46    2.24
   5  -4   6    0.79    0.34
  -5  -4  -6    0.75    0.36
  -5  -4  -6    0.75    0.38
  -5   4  -6    0.72    0.34
   5   4   6    0.99    0.28
  -5   4  -6    0.93    0.32
   5   4   6    1.03    0.22
  -6  -4  -6   51.12    2.22
   6  -4   6   49.86    2.09
   6  -4   6   46.20    2.04
  -6  -4  -6   47.51    2.03
  -6   4  -6   47.47    2.10
  -6   4  -6   47.45    1.91
   7  -4   6    0.19    0.35
  -7  -4  -6    0.15    0.29
  -7  -4  -6   -0.04    0.26
  -7   4  -6   -0.06    0.20
  -7   4  -6   -0.51    0.20
   8  -4   6   70.02    2.82
  -8  -4  -6   65.09    2.82
  -8   4  -6   63.85    2.82
   7  -5  -6    1.29    0.53
  -7  -5   6    1.37    0.30
  -7   5   6    1.35    0.46
  -6  -5   6    0.22    0.16
   6  -5  -6    0.30    0.36
  -6   5   6    0.10    0.28
   5  -5  -6    3.06    0.62
  -5  -5   6    2.86    0.26
  -5   5   6    3.02    0.61
   5   5  -6    2.77    0.65
   4  -5  -6    8.83    0.95
   4   5  -6    9.03    1.02
  -4   5   6    9.39    0.86
   3  -5  -6   59.03    2.36
   3   5  -6   60.90    2.42
  -3   5   6   58.95    2.21
   3   5  -6   64.23    2.54
   2  -5  -6   14.08    1.08
  -2   5   6   12.71    0.91
   2   5  -6   15.17    1.11
   2   5  -6   14.18    1.13
  -1  -5   6   85.37    1.89
   1  -5  -6   82.84    2.85
  -1  -5   6   82.15    1.90
   1   5  -6   81.20    2.83
   1   5  -6   86.54    2.99
  -1   5   6   81.57    2.56
   0  -5  -6    8.93    0.96
   0  -5   6    9.10    0.51
   0  -5   6    9.43    0.51
   0   5  -6   10.02    0.57
   0   5   6   10.35    0.74
   0   5  -6    8.79    0.97
   0   5  -6    9.21    0.96
  -1  -5  -6  121.71    3.67
   1  -5   6  120.91    3.00
   1   5   6  119.27    3.23
  -1   5  -6  119.08    3.71
  -1   5  -6  124.18    3.12
  -2  -5  -6    0.53    0.34
   2  -5   6   -0.03    0.20
   2   5   6    0.42    0.21
  -2   5  -6   -0.34    0.22
  -2   5  -6    0.36    0.22
   2   5   6   -0.06    0.18
  -3  -5  -6   37.06    1.81
   3  -5   6   37.08    1.52
  -3   5  -6   36.41    1.56
   3   5   6   37.82    1.42
  -3   5  -6   36.42    1.77
   3   5   6   36.36    1.07
   3   5   6   39.45    1.58
  -4  -5  -6    4.77    0.77
   4  -5   6    4.92    0.67
   4  -5   6    5.13    0.68
  -4  -5  -6    4.39    0.66
  -4   5  -6    3.97    0.66
   4   5   6    4.26    0.55
  -4   5  -6    4.49    0.65
   5  -5   6    8.11    0.88
  -5  -5  -6    8.57    1.02
  -5  -5  -6    9.31    0.97
   5  -5   6    8.10    0.88
  -5   5  -6    7.66    0.90
   5   5   6    6.90    0.58
  -5   5  -6    7.56    0.90
   6  -5   6    0.37    0.35
  -6  -5  -6    0.60    0.39
  -6  -5  -6    0.24    0.34
  -6   5  -6    0.32    0.34
  -6   5  -6    0.78    0.42
   7  -5   6    1.22    0.50
  -7  -5  -6    1.05    0.51
  -7   5  -6    1.51    0.47
  -7   5  -6    1.04    0.51
   6  -6  -6   30.58    1.87
  -6   6   6   31.89    1.79
   5  -6  -6    7.89    1.02
  -5   6   6    8.07    0.95
   5   6  -6    7.51    1.04
   4  -6  -6   51.16    2.34
   4   6  -6   50.13    2.41
  -4   6   6   48.54    2.07
  -3  -6   6    4.54    0.28
   3  -6  -6    4.91    0.81
   3   6  -6    3.88    0.73
   3   6  -6    5.37    0.88
  -3   6   6    3.87    0.64
  -2  -6   6   27.49    0.87
   2  -6  -6   25.00    1.53
  -2   6   6   28.66    1.39
   2   6  -6   26.32    1.60
   2   6  -6   28.61    1.72
  -1  -6   6    4.13    0.36
  -1  -6   6    3.73    0.33
   1  -6  -6    3.66    0.69
  -1   6   6    3.98    0.57
   1   6  -6    2.90    0.62
   1   6  -6    3.81    0.71
   0  -6  -6   94.89    3.28
   0  -6   6   94.05    2.49
   0  -6   6   93.90    2.49
   0   6  -6   89.93    3.28
   0   6   6   99.38    3.30
   0   6  -6   99.40    3.46
   1  -6   6    4.46    0.52
   1  -6   6    4.66    0.52
  -1  -6  -6    4.37    0.74
  -1   6  -6    4.57    0.55
  -1   6  -6    2.20    0.57
  -1   6  -6    4.97    0.81
   1   6   6    3.41    0.63
  -2  -6  -6   17.72    1.30
   2  -6   6   18.54    1.02
   2  -6   6   17.78    1.00
  -2   6  -6   17.54    1.03
  -2   6  -6   15.73    1.27
   2   6   6   15.48    0.82
   2   6   6   17.49    1.17
  -3  -6  -6    6.87    0.91
   3  -6   6    6.92    0.79
   3   6   6    6.95    0.81
  -3   6  -6    8.18    0.86
  -3   6  -6    8.01    1.02
   4  -6   6   43.83    1.93
  -4  -6  -6   44.45    2.16
  -4   6  -6   41.43    1.93
   4   6   6   45.01    1.84
  -4   6  -6   45.84    2.19
  -5  -6  -6    7.45    1.02
   5  -6   6    7.55    0.93
  -5   6  -6    6.79    0.88
  -5   6  -6    6.70    0.93
  -6   6  -6   14.78    1.24
   4  -7  -6    9.93    1.21
   4   7  -6    9.51    1.22
   4   7  -6    8.22    1.18
   3  -7  -6   13.98    1.43
   3   7  -6   13.02    1.42
   3   7  -6    9.14    1.14
  -2  -7   6   24.76    1.00
   2  -7  -6   23.64    1.62
   2   7  -6   22.14    1.59
  -2   7   6   23.45    1.64
   2   7  -6   23.02    1.69
  -1  -7   6    4.33    0.50
   1  -7  -6    4.54    0.81
  -1   7   6    4.39    0.83
   1   7  -6    5.31    0.90
   1   7  -6    5.04    0.90
   0  -7  -6   12.75    1.30
   0  -7   6   12.46    0.81
   0   7   6   14.10    1.22
   0   7  -6   11.30    1.27
   0   7  -6   13.84    1.47
   1  -7   6   11.78    0.87
  -1  -7  -6   11.70    1.25
   1   7   6   14.61    1.21
  -1   7  -6   13.00    1.42
  -1   7  -6   10.81    1.25
  -2  -7  -6    0.83    0.46
   2  -7   6    0.94    0.41
  -2   7  -6    1.01    0.49
  -2   7  -6    1.17    0.36
   2   7   6    1.10    0.43
  -3  -7  -6   20.90    1.51
   3  -7   6   20.67    1.28
  -3   7  -6   20.85    1.59
   3   7   6   19.70    1.35
  -3   7  -6   18.47    1.25
 -10   0   7   -0.50    0.24
  -9   0   7    5.71    0.83
  -8   0   7   -0.10    0.25
  -7   0   7   32.38    1.50
   6   0  -7   -0.19    0.16
  -6   0   7    0.12    0.20
   5   0  -7  329.82    7.67
   5   0  -7  347.62    6.85
   5   0  -7  359.24    6.86
  -5   0   7  357.17    7.67
   4   0  -7    0.00    0.06
  -4   0   7    0.11    0.18
   4   0  -7    0.11    0.18
  -4   0   7    0.04    0.14
   4   0  -7    0.09    0.06
   3   0  -7  319.64    6.69
  -3   0   7  330.49    7.16
  -3   0   7  347.65    7.21
   3   0  -7  349.43    6.72
   3   0  -7  336.19    7.27
  -2   0   7   -0.12    0.10
   2   0  -7   -0.10    0.07
   2   0  -7    0.15    0.09
  -2   0   7   -0.17    0.09
   1   0  -7  276.24    5.64
  -1   0   7  271.70    5.85
  -1   0   7  265.56    5.85
   1   0  -7  273.69    5.61
   0   0  -7    0.07    0.13
   0   0  -7    0.05    0.10
   0   0   7    0.02    0.12
   0   0   7   -0.03    0.12
   0   0   7    0.08    0.11
   1   0   7   51.93    1.68
   1   0   7   52.94    1.61
  -1   0  -7   53.26    1.58
  -2   0  -7    0.03    0.09
   2   0   7   -0.04    0.09
  -2   0  -7    0.13    0.17
   2   0   7    0.11    0.10
  -3   0  -7    7.50    0.62
   3   0   7    7.19    0.59
   3   0   7    6.93    0.36
  -3   0  -7    6.33    0.64
  -3   0  -7    6.93    0.41
  -4   0  -7   -0.03    0.20
  -4   0  -7    0.26    0.24
   4   0   7    0.08    0.20
   5   0   7   16.36    1.01
  -5   0  -7   15.03    1.02
  -5   0  -7   16.98    1.03
  -6   0  -7   -0.23    0.23
  -6   0  -7    0.28    0.30
   6   0   7   -0.48    0.18
  -7   0  -7   82.72    2.92
   7   0   7   76.85    2.70
  -7   0  -7   77.54    2.82
  -8   0  -7   -0.11    0.28
  -8   0  -7   -0.24    0.27
   8   0   7   -0.23    0.26
   9   0   7   36.23    1.86
  -9   0  -7   35.55    1.97
  -9   0  -7   37.21    2.02
   9   0   7   35.48    1.84
  -9  -1   7   10.49    0.95
  -9   1   7   11.84    1.08
  -8  -1   7   32.92    1.53
  -8   1   7   27.91    1.57
  -7  -1   7    4.58    0.59
  -7   1   7    5.77    0.74
   6  -1  -7    0.71    0.25
  -6  -1   7    1.72    0.37
  -6   1   7    0.74    0.30
   5  -1  -7   16.27    0.81
  -5  -1   7   17.02    0.83
  -5  -1   7   16.51    0.81
   5   1  -7   15.63    0.82
  -5   1   7   16.76    0.99
  -4  -1   7   27.00    0.98
   4  -1  -7   26.66    1.24
  -4  -1   7   26.49    0.97
   4  -1  -7   27.18    1.06
  -4   1   7   26.08    1.19
   4   1  -7   24.54    1.01
  -3  -1   7    7.38    0.43
   3  -1  -7    6.73    0.51
  -3  -1   7    6.03    0.40
   3  -1  -7    6.54    0.58
   3   1  -7    4.96    0.40
  -3   1   7    5.32    0.56
   2  -1  -7   39.26    1.32
  -2  -1   7   38.96    1.14
  -2  -1   7   40.03    1.15
  -2   1   7   39.52    1.40
  -1  -1   7   22.34    0.79
   1  -1  -7   23.15    0.96
  -1  -1   7   20.68    0.76
  -1   1   7   22.64    0.98
   0  -1   7  167.41    3.73
   0  -1  -7  177.60    4.01
   0  -1   7  163.89    3.74
   0   1  -7  168.57    3.99
   0   1   7  164.93    3.96
   0   1   7  166.41    3.77
  -1  -1  -7   14.51    0.81
   1  -1   7   12.32    0.64
   1  -1   7   12.91    0.66
   1   1   7   13.00    0.53
   1   1   7   13.32    0.75
  -1   1  -7   12.83    0.52
  -1   1  -7   12.14    0.68
  -1   1  -7   13.39    0.50
   2  -1   7   92.63    2.51
  -2  -1  -7   95.89    2.69
  -2   1  -7   95.43    2.42
   2   1   7   97.21    2.64
  -2   1  -7   97.84    2.62
  -2   1  -7   97.43    2.49
   3  -1   7   12.56    0.61
  -3  -1  -7   12.67    0.85
  -3  -1  -7   13.61    0.87
   3  -1   7   13.04    0.78
  -3   1  -7   13.01    0.64
   3   1   7   12.96    0.80
   3   1   7   12.98    0.47
  -3   1  -7   11.89    0.79
  -3   1  -7   12.94    0.75
  -4  -1  -7  125.31    3.56
  -4  -1  -7  128.90    3.56
   4  -1   7  126.61    3.41
  -4   1  -7  127.64    3.51
  -4   1  -7  129.15    3.41
  -4   1  -7  128.22    2.97
   4   1   7  135.69    3.49
  -5  -1  -7   11.99    0.91
   5  -1   7   11.68    0.87
  -5  -1  -7   10.99    0.37
  -5  -1  -7    9.14    0.84
  -5   1  -7   10.38    0.84
  -5   1  -7   10.78    0.49
  -5   1  -7   10.89    0.83
   5   1   7   11.75    0.86
  -6  -1  -7   21.43    1.31
   6  -1   7   22.69    1.28
  -6  -1  -7   22.10    1.32
   6   1   7   23.60    1.27
  -6   1  -7   25.24    1.38
  -6   1  -7   21.14    1.25
   7  -1   7    6.77    0.83
  -7  -1  -7    7.25    0.91
  -7  -1  -7    8.38    0.99
   7   1   7    8.08    0.85
  -7   1  -7    7.77    0.92
  -7   1  -7    6.25    0.83
   8  -1   7    6.80    0.88
  -8  -1  -7    8.93    1.06
  -8  -1  -7    7.98    1.02
  -8   1  -7    9.15    1.08
   8   1   7   10.22    0.91
  -8   1  -7   10.48    1.12
  -9  -1  -7    0.60    0.42
   9  -1   7    0.25    0.36
  -9  -1  -7    1.38    0.54
   9  -1   7    0.85    0.38
  -9   1  -7    0.18    0.35
  -9   1  -7    0.48    0.36
   9   1   7    0.08    0.29
   9   1   7    1.02    0.41
  -9  -2   7   20.81    1.29
  -9   2   7   21.80    1.50
  -8  -2   7   21.96    1.19
  -8   2   7   20.39    1.39
   7  -2  -7   26.99    1.31
  -7  -2   7   27.31    1.22
  -7   2   7   26.78    1.48
  -6  -2   7    4.47    0.49
   6  -2  -7    4.57    0.58
  -6   2   7    2.96    0.56
   5  -2  -7   51.52    1.86
  -5  -2   7   53.86    1.54
  -5  -2   7   51.26    1.53
  -5   2   7   58.43    2.09
   5   2  -7   51.33    1.57
  -4  -2   7    1.88    0.24
   4  -2  -7    1.66    0.37
  -4  -2   7    1.82    0.22
   4   2  -7    1.91    0.26
  -4   2   7    2.02    0.45
   3  -2  -7   64.98    2.03
  -3  -2   7   61.34    1.43
  -3  -2   7   61.25    1.42
  -3   2   7   64.51    2.08
  -2  -2   7   17.70    0.49
  -2  -2   7   17.13    0.48
   2  -2  -7   17.89    0.96
  -2   2   7   19.09    0.99
   1  -2  -7  189.92    4.53
  -1  -2   7  185.30    3.86
  -1  -2   7  182.63    3.85
   1   2  -7  185.57    4.65
   1   2  -7  188.72    4.58
  -1   2   7  190.13    4.50
   0  -2   7    0.04    0.11
   0  -2  -7    0.46    0.27
   0  -2   7   -0.03    0.10
   0   2  -7   -0.07    0.12
   0   2  -7    0.13    0.13
   0   2  -7    0.00    0.20
   0   2   7   -0.51    0.14
   1  -2   7   57.69    1.62
   1  -2   7   59.10    1.65
  -1  -2  -7   60.14    1.98
  -1   2  -7   58.33    1.88
  -1   2  -7   59.58    1.91
   1   2   7   59.34    1.89
   1   2   7   56.99    1.45
  -1   2  -7   59.98    1.71
   2  -2   7    1.34    0.27
  -2  -2  -7    2.21    0.46
   2  -2   7    1.69    0.31
  -2   2  -7    1.81    0.16
  -2   2  -7    1.72    0.31
  -2   2  -7    2.30    0.37
   2   2   7    1.67    0.36
   3  -2   7   86.16    2.44
  -3  -2  -7   88.08    2.70
  -3   2  -7   86.87    2.41
   3   2   7   84.62    2.52
  -3   2  -7   83.25    2.49
  -3   2  -7   88.38    2.26
   4  -2   7   12.61    0.85
  -4  -2  -7   13.14    0.97
  -4  -2  -7   15.29    1.00
  -4   2  -7   11.23    0.83
   4   2   7   12.05    0.83
  -4   2  -7   11.76    0.74
  -4   2  -7   12.82    0.71
   5  -2   7   11.39    0.88
  -5  -2  -7   14.41    1.02
  -5  -2  -7   12.51    0.99
   5   2   7   12.85    0.89
  -5   2  -7   12.57    0.93
  -5   2  -7   13.83    0.88
  -5   2  -7   13.30    0.71
  -6  -2  -7    7.34    0.87
  -6  -2  -7    7.21    0.88
   6  -2   7    6.96    0.79
   6   2   7    7.43    0.79
  -6   2  -7    7.48    0.85
  -6   2  -7    8.18    0.75
  -6   2  -7    7.52    0.52
  -7  -2  -7   16.47    1.24
   7  -2   7   16.46    1.18
  -7  -2  -7   15.61    1.18
  -7   2  -7   17.26    1.24
  -7   2  -7   16.99    1.15
   7   2   7   15.78    1.06
  -8  -2  -7   13.35    1.16
   8  -2   7    9.46    1.04
   8  -2   7   13.10    1.09
  -8  -2  -7   11.84    1.22
   8   2   7   10.31    0.91
  -8   2  -7   10.12    1.14
  -8   2  -7    9.87    1.09
  -9  -2  -7   13.72    1.39
   9  -2   7   13.05    1.31
   9  -2   7   14.72    1.25
  -9  -2  -7   13.34    1.40
  -9   2  -7   11.65    1.30
  -9   2  -7   12.41    1.29
  -9  -3   7    2.91    0.55
  -9   3   7    2.33    0.61
   8  -3  -7   28.96    1.55
  -8  -3   7   29.97    1.37
  -8   3   7   28.70    1.71
   7  -3  -7    1.10    0.37
  -7  -3   7    0.25    0.21
  -7   3   7    0.60    0.36
  -6  -3   7   65.62    1.85
   6  -3  -7   63.18    2.34
  -6   3   7   67.49    2.52
  -5  -3   7   21.65    0.76
   5  -3  -7   21.69    1.22
  -5  -3   7   22.19    0.76
  -5   3   7   20.32    1.25
  -4  -3   7  183.80    3.61
  -4  -3   7  178.75    3.61
   4  -3  -7  184.29    4.70
   4   3  -7  181.50    3.82
  -4   3   7  186.12    4.76
   3  -3  -7    5.86    0.71
  -3   3   7    5.66    0.66
   3   3  -7    5.89    0.25
   2  -3  -7   56.14    1.98
   2   3  -7   49.73    2.01
   2   3  -7   55.77    2.05
   2   3  -7   54.12    1.22
  -2   3   7   55.10    1.94
   1  -3  -7    4.86    0.63
  -1   3   7    4.05    0.56
   1   3  -7    4.80    0.63
   1   3  -7    5.45    0.30
   1   3  -7    5.00    0.64
   0  -3  -7  121.39    3.45
   0  -3   7  122.00    2.75
   0  -3   7  125.68    2.75
   0   3  -7  126.36    3.49
   0   3   7  122.49    3.30
   0   3  -7  128.45    2.88
   0   3  -7  124.90    3.43
   1  -3   7   47.08    1.37
  -1  -3  -7   46.17    1.80
   1  -3   7   47.52    1.41
   1   3   7   45.49    1.67
  -1   3  -7   44.05    1.74
  -1   3  -7   47.31    1.77
  -1   3  -7   47.39    1.45
   2  -3   7   82.28    2.24
   2  -3   7   78.87    2.25
  -2  -3  -7   78.91    2.61
  -2   3  -7   81.37    2.52
  -2   3  -7   83.48    2.32
   2   3   7   84.93    2.47
  -3  -3  -7    0.27    0.25
   3  -3   7    0.17    0.19
  -3   3  -7    0.46    0.09
   3   3   7    0.05    0.19
  -3   3  -7    0.40    0.08
  -3   3  -7    0.17    0.19
  -3   3  -7    0.36    0.21
   3   3   7    0.18    0.14
   4  -3   7   33.68    1.43
  -4  -3  -7   33.70    1.63
  -4  -3  -7   31.01    1.51
  -4   3  -7   30.99    1.13
   4   3   7   28.99    1.34
   4   3   7   32.88    0.98
  -4   3  -7   32.70    1.37
  -4   3  -7   32.46    1.47
  -5  -3  -7    8.43    0.96
  -5  -3  -7    7.85    0.88
   5  -3   7    7.98    0.83
   5   3   7    8.87    0.74
  -5   3  -7    7.95    0.63
  -5   3  -7    8.49    0.68
  -5   3  -7   10.49    0.86
  -6  -3  -7   47.24    2.05
  -6  -3  -7   49.01    2.15
   6  -3   7   45.17    1.98
  -6   3  -7   50.17    2.11
  -6   3  -7   46.10    1.82
  -6   3  -7   47.74    1.71
   6   3   7   47.93    1.86
  -7  -3  -7   17.57    1.24
  -7  -3  -7   15.63    1.24
   7  -3   7   15.46    1.18
  -7   3  -7   14.21    1.16
   7   3   7   14.14    0.98
  -7   3  -7   11.21    1.19
  -8  -3  -7    9.83    1.17
   8  -3   7    8.06    1.02
   8  -3   7    7.41    0.98
  -8  -3  -7    7.70    0.98
  -8   3  -7    7.93    1.05
   8  -4  -7    0.38    0.42
  -8  -4   7   -0.15    0.20
  -8   4   7    0.00    0.30
  -7  -4   7   32.49    1.26
   7  -4  -7   34.40    1.79
  -7   4   7   33.93    1.84
  -6  -4   7    2.98    0.35
   6  -4  -7    3.95    0.66
  -6   4   7    2.40    0.58
   5  -4  -7    3.53    0.64
  -5  -4   7    3.82    0.25
  -5   4   7    2.75    0.56
   4  -4  -7    2.24    0.52
  -4   4   7    2.58    0.57
   3  -4  -7    0.78    0.40
   3   4  -7    0.49    0.34
  -3   4   7    0.97    0.34
   3   4  -7    0.23    0.22
   2  -4  -7    0.89    0.37
  -2   4   7   -0.05    0.20
   2   4  -7    0.08    0.18
   2   4  -7    0.14    0.27
   1  -4  -7   21.90    1.26
  -1   4   7   22.24    1.17
   1   4  -7   21.77    0.67
   1   4  -7   21.50    1.26
   1   4  -7   22.06    1.30
   0  -4   7    0.25    0.11
   0  -4   7    0.26    0.11
   0  -4  -7    0.15    0.23
   0   4  -7    0.31    0.29
   0   4  -7    0.23    0.12
   0   4   7    0.22    0.25
   0   4  -7    0.18    0.21
   1  -4   7   22.08    0.88
   1  -4   7   19.96    0.88
  -1  -4  -7   25.03    1.37
  -1   4  -7   24.14    0.96
  -1   4  -7   22.38    1.26
   1   4   7   23.99    1.16
  -1   4  -7   22.48    1.25
   2  -4   7    7.77    0.58
   2  -4   7    7.59    0.64
  -2  -4  -7    8.33    0.90
  -2   4  -7    9.19    0.66
   2   4   7    7.28    0.66
  -2   4  -7    7.62    0.82
  -3  -4  -7  202.85    5.36
   3  -4   7  206.52    4.91
   3   4   7  200.29    4.74
   3   4   7  207.04    4.98
  -3   4  -7  203.52    4.97
  -3   4  -7  199.37    5.18
   4  -4   7    2.99    0.52
  -4  -4  -7    4.13    0.71
  -4  -4  -7    3.98    0.63
  -4   4  -7    5.39    0.68
  -4   4  -7    4.04    0.60
   4   4   7    4.13    0.45
   4   4   7    4.28    0.57
  -5  -4  -7   54.26    2.15
   5  -4   7   46.42    1.96
  -5  -4  -7   50.57    2.21
   5   4   7   49.28    1.83
  -5   4  -7   46.61    1.92
  -5   4  -7   46.54    2.00
   6  -4   7    5.32    0.76
  -6  -4  -7    5.91    0.83
  -6  -4  -7    4.98    0.80
  -6   4  -7    4.53    0.66
  -6   4  -7    4.26    0.71
  -7  -4  -7   15.79    1.31
  -7  -4  -7   12.74    1.15
   7  -4   7   14.50    1.19
   7  -4   7   15.44    1.22
  -7   4  -7   15.63    1.24
   7  -5  -7    4.55    0.79
  -7  -5   7    3.46    0.44
  -7   5   7    4.44    0.80
   6  -5  -7   29.92    1.74
  -6  -5   7   31.54    1.16
  -6   5   7   30.29    1.72
   5  -5  -7    5.63    0.84
  -5   5   7    5.03    0.78
   4  -5  -7  121.43    3.82
   4   5  -7  123.33    4.01
  -4   5   7  114.50    3.63
   3  -5  -7    8.84    0.98
   3   5  -7    8.34    1.00
  -3   5   7    8.75    0.92
   3   5  -7    5.86    0.84
   2  -5  -7  107.33    3.49
   2   5  -7  109.08    3.53
  -2   5   7  109.77    3.30
   2   5  -7  111.04    3.64
  -1  -5   7    5.39    0.29
   1  -5  -7    3.98    0.68
   1   5  -7    5.66    0.82
  -1   5   7    4.74    0.63
   1   5  -7    5.01    0.74
   0  -5   7   63.97    1.72
   0  -5  -7   66.68    2.52
   0   5  -7   63.86    2.49
   0   5   7   62.13    2.17
   0   5  -7   66.82    2.58
   0   5  -7   65.62    1.80
   1  -5   7    0.97    0.24
  -1  -5  -7    0.55    0.40
  -1   5  -7    0.64    0.22
  -1   5  -7    0.73    0.37
   1   5   7    0.63    0.27
  -1   5  -7    0.66    0.37
   2  -5   7   26.80    1.16
  -2  -5  -7   23.75    1.45
  -2   5  -7   24.65    1.46
   2   5   7   25.44    1.31
  -2   5  -7   26.15    1.20
   2   5   7   26.32    1.23
   3  -5   7    0.45    0.27
  -3  -5  -7    1.41    0.46
  -3   5  -7    0.00    0.22
   3   5   7    0.84    0.27
  -3   5  -7    0.17    0.24
   3   5   7    0.28    0.21
  -4  -5  -7    0.93    0.37
  -4  -5  -7    0.36    0.38
   4  -5   7    0.89    0.36
  -4   5  -7    0.31    0.29
   4   5   7    0.55    0.25
  -4   5  -7    0.79    0.34
   5  -5   7    6.10    0.79
   5  -5   7    4.38    0.68
  -5  -5  -7    5.21    0.75
  -5  -5  -7    5.17    0.84
  -5   5  -7    6.48    0.85
  -5   5  -7    5.24    0.74
   6  -5   7   12.47    1.09
  -6  -5  -7   13.79    1.13
  -6  -5  -7   16.30    1.34
   6  -5   7   12.01    1.07
  -6   5  -7   10.89    0.98
  -6   5  -7   14.75    1.19
   5  -6  -7   11.86    1.25
  -5   6   7   12.29    1.08
   5   6  -7   14.05    1.50
   4  -6  -7    0.85    0.39
  -4   6   7    0.88    0.39
   4   6  -7    0.34    0.39
   3  -6  -7    8.12    1.03
   3   6  -7    5.45    0.89
   3   6  -7    8.50    1.06
  -3   6   7    7.75    0.89
   2  -6  -7    7.57    0.96
  -2  -6   7    7.38    0.37
   2   6  -7    7.34    0.98
   2   6  -7    6.33    0.92
  -2   6   7    7.66    0.85
   1  -6  -7   45.00    2.16
  -1  -6   7   44.58    1.33
   1   6  -7   44.89    2.18
   1   6  -7   47.48    2.27
  -1   6   7   46.96    1.86
   0  -6  -7    8.22    0.99
   0  -6   7    9.87    0.60
   0   6  -7    9.01    1.09
   0   6   7    8.36    0.74
   0   6  -7    9.35    1.10
   1  -6   7   35.74    1.37
  -1  -6  -7   36.06    1.90
   1   6   7   32.96    1.71
  -1   6  -7   37.37    1.95
  -1   6  -7   31.97    1.32
  -1   6  -7   32.30    1.86
  -2  -6  -7    3.64    0.73
   2  -6   7    3.83    0.53
   2  -6   7    4.00    0.54
   2   6   7    3.47    0.61
  -2   6  -7    3.96    0.57
  -2   6  -7    3.06    0.68
  -3  -6  -7   55.49    2.48
   3  -6   7   56.54    2.10
   3  -6   7   52.73    2.05
  -3   6  -7   53.70    2.46
   3   6   7   55.53    2.15
  -3   6  -7   58.15    2.17
   4  -6   7    0.29    0.34
  -4  -6  -7   -0.03    0.34
   4  -6   7    0.42    0.38
   4   6   7    0.04    0.23
  -4   6  -7    0.27    0.33
  -4   6  -7   -0.10    0.22
   5  -6   7   15.65    1.20
  -5  -6  -7   13.16    1.38
  -5   6  -7   14.48    1.16
  -5   6  -7   12.19    1.28
   3  -7  -7    4.49    0.85
   3   7  -7    4.09    0.80
   3   7  -7    4.81    0.92
   2  -7  -7   29.56    1.86
   2   7  -7   25.65    1.76
   2   7  -7   26.41    1.83
  -1  -7   7    1.51    0.32
   1  -7  -7    0.84    0.51
  -1   7   7    0.93    0.49
   1   7  -7    0.73    0.46
   1   7  -7    1.67    0.60
   0  -7  -7   14.10    1.29
   0  -7   7   13.69    0.83
   0   7  -7   11.20    1.32
   0   7  -7   13.43    1.40
   0   7   7   13.91    1.40
   1  -7   7    3.27    0.49
  -1  -7  -7    2.82    0.71
   1   7   7    3.23    0.69
  -1   7  -7    3.52    0.75
  -1   7  -7    3.79    0.80
  -2  -7  -7   18.56    1.47
   2  -7   7   16.37    1.06
   2   7   7   15.17    1.22
  -2   7  -7   17.22    1.44
  -2   7  -7   16.28    1.43
  -2   7  -7   16.31    1.06
  -9   0   8    0.03    0.26
  -8   0   8   86.41    2.93
  -7   0   8    0.02    0.22
  -6   0   8   81.06    2.55
  -5   0   8   -0.08    0.18
   5   0  -8    0.15    0.19
  -4   0   8   76.29    2.22
   4   0  -8   71.28    2.23
  -3   0   8   -0.13    0.14
   3   0  -8    0.02    0.05
   3   0  -8   -0.07    0.15
   3   0  -8   -0.05    0.05
  -3   0   8    0.06    0.13
  -2   0   8    0.77    0.22
  -2   0   8    0.25    0.17
   2   0  -8    0.64    0.13
   1   0  -8    0.04    0.10
  -1   0   8   -0.22    0.13
  -1   0   8    0.17    0.17
   1   0  -8   -0.07    0.11
   0   0   8   41.35    1.39
   0   0  -8   40.01    1.26
   1   0   8   -0.02    0.14
  -1   0  -8   -0.02    0.13
   2   0   8  114.93    3.11
  -2   0  -8  125.23    3.12
  -2   0  -8  122.34    2.85
   2   0   8  117.12    2.88
  -3   0  -8    0.21    0.12
   3   0   8    0.05    0.09
  -3   0  -8   -0.38    0.14
   3   0   8   -0.04    0.20
  -3   0  -8   -0.01    0.19
  -4   0  -8   69.32    2.27
  -4   0  -8   67.02    1.77
  -4   0  -8   68.05    2.32
   4   0   8   64.31    2.19
   5   0   8    0.24    0.26
  -5   0  -8    0.16    0.25
  -5   0  -8    0.02    0.22
  -6   0  -8  254.81    6.42
   6   0   8  256.41    6.26
  -6   0  -8  245.57    6.28
  -7   0  -8   -0.06    0.27
  -7   0  -8   -0.19    0.26
   7   0   8   -0.01    0.27
  -8   0  -8   21.72    1.48
  -8   0  -8   22.87    1.53
   8   0   8   22.14    1.42
   9   0   8   -0.07    0.31
  -9   0  -8   -0.31    0.29
  -9   0  -8    0.07    0.35
  -9  -1   8    0.52    0.34
  -9   1   8    0.43    0.36
  -8  -1   8    7.01    0.82
  -8   1   8    6.15    0.85
  -7  -1   8   13.68    0.91
  -7   1   8   13.52    1.04
  -6  -1   8    3.50    0.50
   6  -1  -8    2.85    0.39
  -6   1   8    3.31    0.58
  -5  -1   8   90.16    2.50
  -5  -1   8   95.80    2.55
   5  -1  -8   91.42    2.46
  -5   1   8   93.60    2.82
   5   1  -8   90.72    2.56
   4  -1  -8   13.38    0.72
  -4  -1   8   13.39    0.69
  -4  -1   8   14.75    0.74
   4   1  -8   13.69    0.75
  -4   1   8   15.00    0.93
  -3  -1   8  125.79    3.05
   3  -1  -8  135.54    3.52
  -3  -1   8  129.10    3.07
   3  -1  -8  127.61    3.16
  -3   1   8  133.11    3.42
   3   1  -8  126.19    3.14
   2  -1  -8   12.71    0.71
  -2  -1   8   13.12    0.63
  -2  -1   8   13.66    0.63
  -2   1   8   14.91    0.83
  -1  -1   8  360.13    7.54
   1  -1  -8  373.26    7.77
  -1  -1   8  348.17    7.51
  -1   1   8  368.17    7.87
   0  -1   8    4.24    0.38
   0  -1   8    3.96    0.42
   0  -1  -8    4.02    0.49
   0   1   8    3.98    0.49
   0   1   8    4.61    0.45
   0   1  -8    5.02    0.53
  -1  -1  -8   97.70    2.66
   1  -1   8   90.98    2.48
   1  -1   8   95.26    2.48
   1   1   8   91.97    2.25
   1   1   8   92.87    2.62
  -1   1  -8   95.82    2.15
  -1   1  -8   95.27    2.19
  -1   1  -8   96.05    2.56
   2  -1   8   35.63    1.33
  -2  -1  -8   37.79    1.48
   2   1   8   37.30    1.44
  -2   1  -8   36.09    1.39
   2   1   8   34.56    1.17
  -2   1  -8   34.81    1.28
  -2   1  -8   35.96    1.21
  -3  -1  -8   80.09    2.54
   3  -1   8   81.59    2.39
  -3  -1  -8   78.27    2.48
   3   1   8   77.11    1.88
  -3   1  -8   78.45    2.44
  -3   1  -8   78.40    2.26
   3   1   8   79.20    2.42
  -3   1  -8   78.60    2.20
   4  -1   8   33.52    1.44
  -4  -1  -8   31.24    1.50
  -4  -1  -8   31.50    1.49
   4   1   8   32.36    1.44
  -4   1  -8   34.38    1.40
  -4   1  -8   30.98    1.46
  -5  -1  -8   12.12    0.97
   5  -1   8   13.05    0.93
  -5  -1  -8   11.16    0.94
  -5   1  -8   13.40    0.92
  -5   1  -8   11.55    0.92
   5   1   8   13.32    0.93
   6  -1   8    3.10    0.57
  -6  -1  -8    3.31    0.64
  -6  -1  -8    3.99    0.66
  -6   1  -8    3.52    0.58
   6   1   8    3.32    0.59
  -6   1  -8    3.98    0.67
   7  -1   8    0.31    0.34
  -7  -1  -8    0.60    0.34
  -7  -1  -8    0.66    0.36
   7   1   8    0.35    0.33
  -7   1  -8   -0.15    0.27
  -7   1  -8    0.60    0.32
   8  -1   8    6.21    0.88
  -8  -1  -8    7.59    1.03
  -8  -1  -8    6.59    0.94
  -8   1  -8    5.82    0.93
   8   1   8    7.40    0.91
  -8   1  -8    7.84    0.99
   9  -1   8    4.92    0.85
   9  -1   8    3.79    0.78
  -9  -1  -8    4.14    0.83
  -9  -1  -8    3.00    0.70
  -9   1  -8    3.29    0.74
  -9   1  -8    3.20    0.70
   9   1   8    3.30    0.67
  -9  -2   8    6.46    0.82
  -9   2   8    5.16    0.86
  -8  -2   8   37.70    1.63
  -8   2   8   35.63    1.87
  -7  -2   8    4.17    0.53
   7  -2  -8    3.72    0.62
  -7   2   8    2.88    0.58
  -6  -2   8   27.88    1.15
   6  -2  -8   30.40    1.35
  -6   2   8   30.28    1.54
   5  -2  -8    1.98    0.38
  -5  -2   8    2.64    0.35
  -5  -2   8    2.38    0.32
  -5   2   8    2.62    0.53
   4  -2  -8   24.45    1.16
  -4  -2   8   22.84    0.83
  -4  -2   8   25.51    0.86
  -4   2   8   22.37    1.23
   4   2  -8   24.53    0.91
   3  -2  -8    0.80    0.28
  -3  -2   8    0.98    0.17
  -3  -2   8    1.11    0.17
  -3   2   8    0.73    0.30
  -2  -2   8   81.22    1.94
  -2  -2   8   84.39    1.96
   2  -2  -8   88.11    2.54
  -2   2   8   84.69    2.55
  -1  -2   8   17.19    0.65
   1  -2  -8   16.30    0.94
  -1  -2   8   16.06    0.61
   1   2  -8   16.04    0.97
  -1   2   8   15.23    0.92
   0  -2   8   62.87    1.66
   0  -2   8   58.65    1.64
   0  -2  -8   61.33    2.05
   0   2  -8   62.34    1.75
   0   2  -8   63.13    2.06
   0   2   8   61.69    2.00
  -1  -2  -8    4.13    0.58
   1  -2   8    5.77    0.46
   1  -2   8    4.99    0.42
  -1   2  -8    4.96    0.58
  -1   2  -8    4.88    0.43
  -1   2  -8    4.66    0.55
   1   2   8    5.08    0.33
   1   2   8    5.17    0.60
   2  -2   8  110.56    2.87
  -2  -2  -8  108.82    3.18
  -2   2  -8  109.90    3.03
  -2   2  -8  108.97    2.28
   2   2   8  114.98    3.11
  -2   2  -8  110.00    2.27
  -2   2  -8  112.92    2.97
  -2   2  -8  110.26    3.01
   3  -2   8   27.67    1.22
  -3  -2  -8   29.34    1.42
   3   2   8   27.05    1.28
  -3   2  -8   28.32    1.18
  -3   2  -8   28.44    1.02
  -3   2  -8   26.08    1.24
  -4  -2  -8   13.56    0.99
  -4  -2  -8   12.69    0.99
   4  -2   8   13.11    0.88
  -4   2  -8   12.80    0.76
  -4   2  -8   12.85    0.75
   4   2   8   13.45    0.91
  -4   2  -8   15.33    0.98
  -5  -2  -8    1.58    0.49
   5  -2   8    1.61    0.41
  -5  -2  -8    1.16    0.40
  -5   2  -8    2.06    0.33
  -5   2  -8    1.87    0.48
  -5   2  -8    1.45    0.38
   5   2   8    1.23    0.38
  -6  -2  -8   35.94    1.84
   6  -2   8   40.73    1.84
  -6  -2  -8   39.67    1.91
  -6   2  -8   39.53    1.71
  -6   2  -8   42.62    1.93
   6   2   8   41.22    1.78
   7  -2   8    0.59    0.38
  -7  -2  -8    0.50    0.37
  -7  -2  -8    0.91    0.42
  -7   2  -8    1.35    0.44
   7   2   8    0.84    0.36
  -7   2  -8    1.81    0.52
   8  -2   8    3.31    0.69
  -8  -2  -8    1.63    0.52
  -8  -2  -8    2.46    0.61
  -8   2  -8    3.60    0.72
  -8   2  -8    2.73    0.58
  -8  -3   8    0.10    0.19
  -8   3   8    0.39    0.36
   7  -3  -8    8.39    0.90
  -7  -3   8    8.96    0.66
  -7   3   8    8.69    1.06
  -6  -3   8   11.73    0.65
   6  -3  -8   11.62    0.94
  -6   3   8   14.53    1.12
   5  -3  -8   51.05    2.00
  -5  -3   8   49.00    1.39
  -5   3   8   54.15    2.14
   4  -3  -8    6.27    0.74
  -4  -3   8    6.87    0.30
  -4  -3   8    7.43    0.32
  -4   3   8    9.19    0.94
   4   3  -8    6.89    0.36
   3  -3  -8   19.17    1.14
   3   3  -8   20.10    0.61
  -3   3   8   18.90    1.14
   2  -3  -8    6.28    0.73
   2   3  -8    6.36    0.32
  -2   3   8    6.35    0.72
   2   3  -8    6.12    0.74
  -1  -3   8   50.89    1.25
  -1  -3   8   51.03    1.25
   1  -3  -8   50.93    1.97
   1   3  -8   51.10    1.36
  -1   3   8   51.82    1.89
   1   3  -8   51.81    1.98
   1   3  -8   53.12    2.05
   0  -3   8    9.89    0.49
   0  -3  -8    8.88    0.80
   0  -3   8    9.68    0.49
   0   3  -8    9.12    0.52
   0   3  -8    9.57    0.80
   0   3   8   10.73    0.76
   0   3  -8    8.91    0.79
   1  -3   8   61.65    1.75
   1  -3   8   57.27    1.74
  -1  -3  -8   63.26    2.23
  -1   3  -8   61.78    2.15
  -1   3  -8   62.48    1.82
  -1   3  -8   62.32    2.16
   1   3   8   62.80    2.10
  -2  -3  -8    1.11    0.43
   2  -3   8    1.32    0.29
  -2   3  -8    1.51    0.36
  -2   3  -8    1.53    0.33
  -2   3  -8    1.39    0.36
   2   3   8    1.64    0.38
   3  -3   8   77.21    2.36
  -3  -3  -8   77.95    2.68
  -3   3  -8   76.44    2.46
   3   3   8   78.12    2.48
  -3   3  -8   80.22    2.45
  -4  -3  -8    2.60    0.56
   4  -3   8    1.61    0.40
  -4  -3  -8    2.05    0.47
   4   3   8    2.40    0.46
  -4   3  -8    2.58    0.47
  -4   3  -8    1.63    0.41
   4   3   8    1.91    0.24
  -5  -3  -8   42.65    2.03
   5  -3   8   47.12    1.93
  -5  -3  -8   45.97    2.03
   5   3   8   49.10    1.89
  -5   3  -8   48.89    2.00
   6  -3   8    5.37    0.77
  -6  -3  -8    5.72    0.80
  -6  -3  -8    6.58    0.90
   6   3   8    5.54    0.72
  -6   3  -8    5.66    0.81
  -6   3  -8    5.93    0.63
  -7  -3  -8   45.88    2.22
   7  -3   8   42.79    2.05
  -7  -3  -8   40.65    2.05
  -7   3  -8   43.34    2.11
   7   3   8   42.88    1.86
   8  -3   8    5.10    0.82
  -8  -3  -8    7.20    1.00
   8  -3   8    5.77    0.90
  -8  -3  -8    5.43    0.93
  -8   3  -8    4.81    0.88
  -8  -4   8    3.53    0.52
  -8   4   8    2.47    0.65
   7  -4  -8    0.75    0.42
  -7  -4   8    0.48    0.19
  -7   4   8    0.63    0.31
  -6  -4   8   22.59    0.88
   6  -4  -8   23.00    1.47
  -6   4   8   24.91    1.52
  -5  -4   8    0.85    0.15
   5  -4  -8    0.55    0.41
  -5   4   8    0.71    0.36
   4  -4  -8   62.27    2.42
  -4   4   8   64.84    2.44
   3  -4  -8    3.11    0.59
  -3   4   8    2.47    0.52
   3   4  -8    2.63    0.61
   2  -4  -8  196.45    5.19
   2   4  -8  203.64    5.40
  -2   4   8  197.46    5.09
   2   4  -8  194.41    5.26
  -1  -4   8    4.24    0.23
  -1  -4   8    4.12    0.24
   1  -4  -8    4.58    0.71
   1   4  -8    3.05    0.54
   1   4  -8    2.85    0.58
   1   4  -8    4.55    0.29
  -1   4   8    4.45    0.63
   0  -4   8  127.75    2.85
   0  -4  -8  127.91    3.73
   0  -4   8  121.92    2.86
   0   4   8  121.66    3.47
   0   4  -8  121.88    3.66
   0   4  -8  125.75    2.93
   0   4  -8  116.84    3.67
   1  -4   8    0.67    0.21
  -1  -4  -8    0.03    0.22
   1  -4   8    0.29    0.17
   1   4   8    0.41    0.26
  -1   4  -8    0.31    0.16
  -1   4  -8    0.27    0.22
  -1   4  -8    0.26    0.24
   2  -4   8   36.12    1.36
  -2  -4  -8   39.13    1.81
  -2   4  -8   35.68    1.40
   2   4   8   35.67    1.54
  -2   4  -8   34.20    1.64
  -2   4  -8   37.53    1.71
   2   4   8   35.81    0.83
   3  -4   8    0.33    0.23
  -3  -4  -8    0.20    0.34
   3   4   8   -0.03    0.15
  -3   4  -8    0.20    0.24
   3   4   8    0.12    0.17
  -3   4  -8   -0.17    0.19
  -4  -4  -8    2.29    0.57
   4  -4   8    1.50    0.41
  -4  -4  -8    2.55    0.54
  -4   4  -8    1.50    0.40
  -4   4  -8    1.95    0.43
   4   4   8    2.59    0.49
   4   4   8    1.86    0.30
   5  -4   8    1.92    0.48
  -5  -4  -8    1.73    0.57
  -5  -4  -8    1.74    0.47
   5   4   8    1.25    0.37
  -5   4  -8    1.58    0.41
  -5   4  -8    1.58    0.43
   6  -4   8    0.15    0.33
  -6  -4  -8    0.13    0.29
  -6  -4  -8    0.51    0.40
  -6   4  -8   -0.08    0.22
  -6   4  -8   -0.11    0.29
   7  -4   8    0.12    0.32
   7  -4   8    0.30    0.36
  -7  -4  -8    0.22    0.33
  -7  -4  -8    0.28    0.45
  -7   4  -8    0.07    0.25
   7  -5  -8   14.53    1.27
  -7   5   8   11.39    1.24
   6  -5  -8    0.08    0.34
  -6   5   8    1.17    0.47
   5  -5  -8   16.74    1.29
  -5   5   8   18.06    1.28
   4  -5  -8    1.18    0.48
  -4   5   8    0.90    0.36
   4   5  -8    0.60    0.36
   3  -5  -8    0.48    0.39
   3   5  -8    0.48    0.34
  -3   5   8    0.41    0.32
   3   5  -8    0.62    0.41
   2  -5  -8    0.29    0.38
   2   5  -8    0.93    0.43
  -2   5   8    1.25    0.40
   2   5  -8    1.29    0.46
   1  -5  -8   14.82    1.17
  -1  -5   8   16.02    0.57
   1   5  -8   17.22    1.28
  -1   5   8   14.60    1.02
   1   5  -8   16.22    0.57
   1   5  -8   16.21    1.22
   0  -5  -8    5.56    0.81
   0  -5   8    6.66    0.44
   0   5  -8    5.03    0.79
   0   5   8    5.18    0.68
   0   5  -8    6.45    0.45
   0   5  -8    4.79    0.73
  -1  -5  -8   25.20    1.53
   1  -5   8   25.51    1.06
   1   5   8   24.65    1.28
  -1   5  -8   26.19    1.54
  -1   5  -8   25.61    1.53
  -1   5  -8   24.86    1.07
  -2  -5  -8   21.72    1.45
   2  -5   8   23.21    1.11
   2   5   8   22.37    1.22
  -2   5  -8   22.12    1.11
   2   5   8   22.46    1.20
  -2   5  -8   21.47    1.40
  -2   5  -8   21.32    1.40
  -3  -5  -8   50.88    2.32
   3  -5   8   53.62    1.97
   3   5   8   58.50    2.01
  -3   5  -8   57.82    2.36
  -3   5  -8   55.14    2.03
   3   5   8   49.31    1.93
   4  -5   8   15.82    1.06
  -4  -5  -8   13.91    1.21
  -4  -5  -8   12.51    1.12
  -4   5  -8   14.93    1.05
   4   5   8   15.26    0.88
  -4   5  -8   16.06    1.18
  -5  -5  -8   58.20    2.43
  -5  -5  -8   57.48    2.58
   5  -5   8   58.79    2.35
  -5   5  -8   56.28    2.33
  -5   5  -8   55.22    2.32
  -6  -5  -8    0.63    0.39
   6  -5   8    0.27    0.36
  -6  -5  -8   -0.09    0.37
   6  -5   8    0.26    0.37
  -6   5  -8    0.84    0.42
  -6   5  -8    0.61    0.33
   5  -6  -8    7.14    1.03
  -5   6   8    6.62    0.92
   4  -6  -8   47.05    2.32
   4   6  -8   46.95    2.44
  -4   6   8   45.66    2.10
   3  -6  -8    4.69    0.83
   3   6  -8    3.78    0.78
   3   6  -8    2.97    0.64
  -3   6   8    3.19    0.64
   2  -6  -8   52.27    2.38
   2   6  -8   49.07    2.44
  -2   6   8   48.01    2.05
   2   6  -8   50.17    2.37
  -1  -6   8    0.19    0.14
   1  -6  -8    0.80    0.41
   1   6  -8    0.21    0.25
  -1   6   8   -0.02    0.23
   1   6  -8   -0.48    0.26
   0  -6   8   43.60    1.43
   0  -6  -8   45.72    2.20
   0   6  -8   42.02    2.13
   0   6  -8   44.20    1.41
   0   6   8   40.18    1.76
   0   6  -8   42.03    2.20
  -1  -6  -8    1.40    0.54
   1  -6   8    1.19    0.29
  -1   6  -8    1.10    0.30
   1   6   8    1.17    0.44
  -1   6  -8    1.38    0.48
  -1   6  -8    0.50    0.39
   2  -6   8   41.57    1.64
  -2  -6  -8   38.92    2.07
  -2   6  -8   36.81    1.59
  -2   6  -8   40.08    2.10
  -2   6  -8   41.26    2.12
   2   6   8   39.11    1.84
   3  -6   8    0.35    0.28
  -3  -6  -8    0.09    0.36
  -3   6  -8    0.27    0.26
   3   6   8    0.32    0.23
  -3   6  -8    0.30    0.34
   4  -6   8    8.54    0.94
  -4  -6  -8   10.05    1.23
   4  -6   8    9.55    1.00
  -4   6  -8    8.98    0.97
  -4   6  -8    7.85    1.07
   2  -7  -8    5.77    0.97
   2   7  -8    4.95    0.89
   2   7  -8    7.37    1.10
   1  -7  -8   28.19    1.83
   1   7  -8   25.20    1.76
   1   7  -8   20.99    1.68
   0  -7   8   10.69    0.75
   0  -7  -8    9.52    1.21
   0   7  -8   10.95    1.31
   0   7   8   10.00    1.20
   0   7  -8    9.86    1.27
   1  -7   8    5.39    0.65
  -1  -7  -8    4.82    0.90
  -1   7  -8    6.30    1.03
   1   7   8    4.25    0.79
  -1   7  -8    5.23    0.96
  -9   0   9   29.93    1.68
  -8   0   9    0.15    0.27
  -7   0   9    0.67    0.31
  -6   0   9   -0.15    0.16
  -5   0   9   25.47    1.24
  -4   0   9   -0.41    0.14
   4   0  -9   -0.02    0.16
  -3   0   9   70.86    2.14
   2   0  -9    0.01    0.07
  -2   0   9    0.01    0.15
   2   0  -9    0.05    0.07
  -1   0   9  135.56    3.38
   1   0  -9  131.50    3.00
   0   0   9   -0.20    0.15
   0   0  -9   -0.10    0.11
   1   0   9  193.66    4.65
  -1   0  -9  197.59    4.51
  -2   0  -9    0.14    0.17
   2   0   9    0.14    0.21
   3   0   9   77.50    2.41
  -3   0  -9   74.97    2.49
  -3   0  -9   74.16    1.99
   3   0   9   76.27    1.97
  -3   0  -9   76.93    2.38
   4   0   9    0.06    0.08
  -4   0  -9    0.29    0.24
   4   0   9    0.03    0.23
  -4   0  -9    0.14    0.23
  -4   0  -9   -0.02    0.10
  -5   0  -9    5.73    0.41
  -5   0  -9    5.00    0.70
   5   0   9    5.92    0.74
  -5   0  -9    5.07    0.72
   6   0   9    0.09    0.30
  -6   0  -9    0.13    0.28
  -6   0  -9   -0.25    0.26
   7   0   9    4.23    0.72
  -7   0  -9    4.16    0.74
  -7   0  -9    3.41    0.68
  -8   0  -9    0.39    0.39
   8   0   9    0.04    0.29
  -8   0  -9    0.59    0.38
  -9  -1   9    4.10    0.72
  -9   1   9    4.42    0.79
  -8  -1   9   22.56    1.29
  -8   1   9   21.27    1.40
  -7  -1   9    0.99    0.32
  -7   1   9    2.02    0.50
  -6  -1   9   97.41    2.83
  -6   1   9  101.05    3.13
  -5  -1   9    1.35    0.34
   5  -1  -9    1.02    0.24
  -5   1   9    0.72    0.31
  -4  -1   9   21.07    0.94
  -4  -1   9   19.28    0.90
   4  -1  -9   19.98    0.88
  -4   1   9   20.07    1.11
   4   1  -9   18.83    0.93
  -3  -1   9   11.31    0.65
  -3  -1   9    9.31    0.58
   3  -1  -9    9.40    0.60
  -3   1   9   10.21    0.76
   2  -1  -9   55.30    1.73
  -2  -1   9   57.85    1.68
  -2  -1   9   54.86    1.66
  -2   1   9   58.44    1.94
  -1  -1   9   32.56    1.19
  -1  -1   9   35.93    1.23
   1  -1  -9   34.86    1.30
  -1   1   9   35.88    1.40
   0  -1  -9   29.30    1.22
   0  -1   9   26.79    1.09
   0  -1   9   30.70    1.14
   0   1   9   27.98    1.24
   1  -1   9    1.55    0.31
  -1  -1  -9    1.18    0.33
  -1   1  -9    1.25    0.31
   1   1   9    1.24    0.33
  -1   1  -9    0.36    0.11
   1   1   9    0.66    0.18
  -1   1  -9    0.84    0.15
  -2  -1  -9   55.25    1.92
   2  -1   9   54.01    1.80
  -2   1  -9   53.53    1.74
  -2   1  -9   52.86    1.58
  -2   1  -9   51.01    1.84
   2   1   9   52.97    1.88
   3  -1   9    1.48    0.36
  -3  -1  -9    1.64    0.42
  -3  -1  -9    1.51    0.38
  -3   1  -9    0.91    0.26
  -3   1  -9    0.74    0.26
  -3   1  -9    1.55    0.37
   3   1   9    1.64    0.41
   3   1   9    1.38    0.22
  -4  -1  -9   63.68    2.32
  -4  -1  -9   66.26    2.41
   4  -1   9   65.69    2.26
  -4   1  -9   69.15    2.38
   4   1   9   67.70    2.31
  -4   1  -9   63.37    1.97
  -4   1  -9   66.71    2.17
   5  -1   9    1.27    0.39
  -5  -1  -9    1.21    0.41
  -5  -1  -9    1.01    0.40
   5   1   9    1.00    0.36
  -5   1  -9    0.67    0.31
  -5   1  -9    1.14    0.36
  -6  -1  -9   55.28    2.31
   6  -1   9   56.07    2.23
  -6  -1  -9   56.05    2.36
  -6   1  -9   53.22    2.15
  -6   1  -9   56.77    2.35
   6   1   9   58.71    2.28
  -7  -1  -9    2.15    0.54
  -7  -1  -9    2.48    0.63
   7  -1   9    2.59    0.56
   7   1   9    2.12    0.50
  -7   1  -9    2.55    0.58
  -7   1  -9    3.42    0.68
   8  -1   9   51.88    2.39
  -8  -1  -9   57.36    2.57
  -8  -1  -9   56.09    2.60
   8   1   9   62.03    2.50
  -8   1  -9   59.81    2.52
  -8   1  -9   56.93    2.60
  -8  -2   9    1.05    0.33
  -8   2   9    0.43    0.37
  -7  -2   9   20.63    1.08
  -7   2   9   20.29    1.35
  -6  -2   9    0.52    0.21
  -6   2   9    1.37    0.42
   5  -2  -9   67.46    2.22
  -5  -2   9   70.65    1.97
  -5   2   9   66.87    2.44
   4  -2  -9   37.84    1.53
  -4  -2   9   35.10    1.17
  -4  -2   9   36.67    1.18
   4   2  -9   35.82    1.35
  -4   2   9   34.80    1.59
  -3  -2   9   62.09    1.69
  -3  -2   9   66.81    1.72
   3  -2  -9   63.67    2.11
   3   2  -9   64.24    1.78
  -3   2   9   66.75    2.28
  -2  -2   9   21.54    0.80
   2  -2  -9   22.73    1.13
  -2  -2   9   22.51    0.82
  -2   2   9   22.90    1.18
  -1  -2   9  120.02    2.89
   1  -2  -9  126.30    3.39
  -1  -2   9  125.21    2.92
  -1   2   9  124.17    3.42
   0  -2   9   32.66    1.15
   0  -2   9   31.43    1.13
   0  -2  -9   35.88    1.49
   0   2   9   31.51    1.16
   0   2  -9   34.17    1.47
   0   2   9   34.06    1.45
   0   2  -9   33.09    1.20
   1  -2   9  127.78    3.14
  -1  -2  -9  123.08    3.47
   1  -2   9  119.89    3.11
  -1   2  -9  122.83    3.39
   1   2   9  129.57    3.45
  -1   2  -9  126.48    3.22
   1   2   9  124.76    2.85
  -2  -2  -9   -0.07    0.28
   2  -2   9    0.37    0.21
   2   2   9    0.67    0.30
  -2   2  -9    0.39    0.25
  -2   2  -9    0.04    0.17
  -2   2  -9    0.42    0.24
   3  -2   9   33.60    1.40
  -3  -2  -9   29.64    1.50
  -3   2  -9   30.49    1.06
  -3   2  -9   32.47    1.38
   3   2   9   31.98    1.47
  -3   2  -9   31.12    1.31
  -3   2  -9   34.27    1.45
  -4  -2  -9    2.61    0.53
   4  -2   9    2.98    0.49
  -4  -2  -9    2.86    0.58
   4   2   9    2.61    0.15
  -4   2  -9    2.60    0.47
  -4   2  -9    2.42    0.39
  -4   2  -9    2.38    0.39
   4   2   9    2.49    0.47
   5  -2   9   24.83    1.37
  -5  -2  -9   23.94    1.44
  -5  -2  -9   23.78    1.44
  -5   2  -9   25.04    1.41
  -5   2  -9   26.71    1.09
   5   2   9   24.20    1.33
  -6  -2  -9    3.27    0.62
  -6  -2  -9    3.03    0.65
   6  -2   9    3.18    0.59
  -6   2  -9    3.01    0.53
   6   2   9    4.57    0.69
  -6   2  -9    2.76    0.57
  -7  -2  -9    0.07    0.34
  -7  -2  -9    0.97    0.43
   7  -2   9    1.15    0.46
  -7   2  -9    0.64    0.37
   7   2   9    0.70    0.34
   8  -2   9   -0.22    0.31
  -8  -2  -9    0.31    0.42
  -8  -2  -9    0.21    0.41
  -8   2  -9    0.22    0.34
   8   2   9    0.59    0.34
  -8  -3   9    1.77    0.39
  -8   3   9    2.03    0.60
  -7  -3   9   15.36    0.88
  -7   3   9   18.24    1.33
   6  -3  -9    3.61    0.59
  -6  -3   9    4.20    0.45
  -6   3   9    3.53    0.68
   5  -3  -9    1.10    0.37
  -5  -3   9    1.08    0.21
  -5   3   9    0.85    0.37
  -4  -3   9   22.36    0.72
   4  -3  -9   22.82    1.25
  -4   3   9   20.70    1.29
  -3  -3   9   21.71    0.64
  -3  -3   9   21.44    0.64
   3  -3  -9   22.33    1.24
  -3   3   9   23.98    1.31
   3   3  -9   21.32    0.72
  -2  -3   9   82.93    1.89
   2  -3  -9   83.83    2.72
  -2  -3   9   82.16    1.87
  -2   3   9   80.87    2.67
  -1  -3   9   51.97    1.43
  -1  -3   9   55.26    1.45
   1  -3  -9   57.42    2.11
  -1   3   9   56.10    2.07
   1   3  -9   55.51    2.21
   1   3  -9   55.88    2.14
   1   3  -9   56.19    1.53
   0  -3   9   15.42    0.70
   0  -3  -9   17.40    1.11
   0  -3   9   15.33    0.70
   0   3  -9   16.92    1.10
   0   3  -9   16.48    0.75
   0   3  -9   16.35    1.07
   0   3   9   14.08    0.94
  -1  -3  -9    5.75    0.72
   1  -3   9    4.65    0.50
   1  -3   9    4.58    0.48
  -1   3  -9    5.62    0.70
   1   3   9    4.76    0.63
  -1   3  -9    4.88    0.52
  -1   3  -9    4.49    0.63
   1   3   9    4.30    0.33
  -2  -3  -9   79.08    2.72
   2  -3   9   83.38    2.37
  -2   3  -9   84.00    2.67
  -2   3  -9   76.71    2.37
   2   3   9   79.28    2.59
  -2   3  -9   78.46    2.59
   3  -3   9    8.97    0.72
  -3  -3  -9    9.50    1.00
  -3   3  -9    9.16    0.89
  -3   3  -9    9.60    0.78
   3   3   9    9.04    0.80
  -3   3  -9    8.26    0.73
   4  -3   9   26.25    1.32
  -4  -3  -9   22.93    1.43
  -4  -3  -9   21.74    1.37
   4   3   9   25.37    1.33
  -4   3  -9   25.55    1.25
   4   3   9   23.48    0.80
  -4   3  -9   24.29    1.32
   5  -3   9   14.08    1.04
  -5  -3  -9   12.93    1.13
  -5  -3  -9   16.78    1.22
  -5   3  -9   14.56    1.08
   5   3   9   13.65    1.00
  -5   3  -9   14.55    0.91
  -6  -3  -9   20.49    1.41
  -6  -3  -9   25.37    1.59
   6  -3   9   23.17    1.41
  -6   3  -9   22.00    1.45
   6   3   9   19.49    1.25
  -7  -3  -9    2.46    0.66
  -7  -3  -9    1.54    0.53
   7  -3   9    3.08    0.64
  -7   3  -9    2.51    0.64
   7   3   9    2.86    0.57
   7  -4  -9   50.03    2.26
  -7  -4   9   51.11    1.67
  -7   4   9   50.82    2.39
  -6  -4   9    2.79    0.35
   6  -4  -9    1.75    0.50
  -6   4   9    2.14    0.55
  -5  -4   9  130.75    2.89
   5  -4  -9  138.55    4.07
  -5   4   9  129.76    4.08
   4  -4  -9   12.93    1.05
  -4   4   9   12.61    1.02
   3  -4  -9   81.27    2.85
  -3   4   9   82.97    2.84
   2  -4  -9    6.53    0.80
  -2  -4   9    7.28    0.23
  -2  -4   9    6.80    0.22
   2   4  -9    6.31    0.88
  -2   4   9    5.72    0.73
   2   4  -9    6.37    0.85
   2   4  -9    6.86    0.25
   1  -4  -9   32.70    1.68
  -1  -4   9   31.79    1.09
  -1  -4   9   33.18    0.95
   1   4  -9   33.82    1.74
   1   4  -9   32.64    0.98
  -1   4   9   31.56    1.55
   1   4  -9   33.67    1.70
   0  -4   9   29.78    1.04
   0  -4  -9   33.74    1.67
   0   4  -9   34.79    1.70
   0   4  -9   31.70    1.11
   0   4  -9   34.68    1.69
   0   4   9   30.20    1.50
  -1  -4  -9    1.42    0.48
   1  -4   9    2.28    0.35
  -1   4  -9    1.91    0.33
  -1   4  -9    1.47    0.46
   1   4   9    2.18    0.47
  -1   4  -9    3.02    0.58
  -2  -4  -9    0.67    0.31
   2  -4   9    0.65    0.25
  -2   4  -9    0.39    0.21
  -2   4  -9    0.17    0.25
   2   4   9    0.40    0.28
  -2   4  -9    0.21    0.30
   3  -4   9    0.99    0.33
  -3  -4  -9    1.93    0.52
  -3   4  -9    1.87    0.48
   3   4   9    1.60    0.42
   3   4   9    1.54    0.33
  -3   4  -9    3.27    0.51
  -3   4  -9    1.55    0.45
  -4  -4  -9    0.39    0.36
  -4  -4  -9    0.79    0.41
   4  -4   9    0.42    0.32
  -4   4  -9    0.57    0.29
  -4   4  -9    0.32    0.25
   4   4   9    0.14    0.27
  -5  -4  -9   59.17    2.46
   5  -4   9   54.80    2.24
  -5  -4  -9   55.36    2.49
   5   4   9   57.44    2.18
  -5   4  -9   56.81    2.30
   6  -4   9    0.10    0.32
  -6  -4  -9    0.03    0.41
  -6  -4  -9    0.33    0.42
  -6   4  -9    0.45    0.38
  -7  -4  -9   33.75    1.94
  -7  -4  -9   36.69    2.11
   7  -4   9   36.08    1.96
  -7   4  -9   39.65    2.08
   6  -5  -9    4.34    0.79
  -6   5   9    4.21    0.76
   5  -5  -9    0.11    0.34
  -5   5   9    0.58    0.33
   4  -5  -9    5.50    0.85
  -4   5   9    5.42    0.80
   3  -5  -9    7.08    0.94
   3   5  -9    7.41    1.04
  -3   5   9    7.15    0.90
   2  -5  -9   59.39    2.47
  -2   5   9   59.03    2.32
   2   5  -9   58.53    2.59
   2   5  -9   58.29    2.51
   1  -5  -9   17.68    1.31
  -1  -5   9   17.15    0.65
   1   5  -9   19.54    1.33
  -1   5   9   16.60    1.14
   1   5  -9   17.55    0.61
   1   5  -9   16.29    1.26
   0  -5  -9   69.54    2.74
   0  -5   9   66.13    1.87
   0   5  -9   70.66    2.79
   0   5  -9   69.30    2.73
   0   5   9   68.93    2.47
   0   5  -9   71.36    1.92
  -1  -5  -9   -0.28    0.30
   1  -5   9    0.12    0.18
  -1   5  -9    0.25    0.30
   1   5   9   -0.03    0.20
  -1   5  -9   -0.02    0.14
  -1   5  -9    0.10    0.32
  -2  -5  -9  105.97    3.63
   2  -5   9  110.12    3.05
  -2   5  -9  108.87    3.07
  -2   5  -9  106.48    3.60
  -2   5  -9  108.74    3.65
   3  -5   9    2.82    0.50
  -3  -5  -9    2.03    0.60
   3   5   9    2.75    0.49
  -3   5  -9    1.96    0.57
   3   5   9    2.13    0.47
  -3   5  -9    2.37    0.48
  -3   5  -9    3.83    0.70
   4  -5   9    7.87    0.89
  -4  -5  -9    8.12    1.06
  -4  -5  -9    9.26    1.04
  -4   5  -9    8.36    1.00
  -4   5  -9    9.63    0.86
  -5  -5  -9    1.00    0.55
  -5  -5  -9    1.21    0.46
   5  -5   9    1.15    0.44
  -5   5  -9    1.26    0.41
  -5   5  -9    1.70    0.47
   4  -6  -9    3.20    0.70
  -4   6   9    3.44    0.70
   3  -6  -9   16.34    1.37
  -3   6   9   15.93    1.24
   3   6  -9   16.57    1.40
   3   6  -9   13.94    1.47
   2  -6  -9    3.19    0.71
  -2   6   9    3.01    0.60
   2   6  -9    2.21    0.62
   2   6  -9    2.60    0.66
  -1  -6   9    8.16    0.49
   1  -6  -9    6.67    0.97
   1   6  -9    7.94    1.09
   1   6  -9    7.08    1.01
  -1   6   9    8.59    0.94
   0  -6  -9    0.07    0.36
   0  -6   9    0.12    0.15
   0   6  -9    0.24    0.31
   0   6  -9    0.19    0.25
   0   6  -9   -0.05    0.14
   0   6   9   -0.06    0.25
  -1  -6  -9   19.04    1.46
   1  -6   9   19.34    0.99
  -1   6  -9   16.34    0.91
   1   6   9   16.10    1.24
  -1   6  -9   18.67    1.45
  -1   6  -9   16.56    1.36
   2  -6   9   13.44    0.93
  -2  -6  -9   15.27    1.34
  -2   6  -9   13.46    0.92
  -2   6  -9   14.58    1.44
   2   6   9   12.33    1.02
  -2   6  -9   14.06    1.27
  -3  -6  -9   14.94    1.35
   3  -6   9   13.79    1.04
  -3   6  -9   16.81    1.37
  -3   6  -9   15.61    1.08
   3   6   9   16.62    1.09
  -3   6  -9   17.45    1.42
   4  -6   9    8.50    0.95
  -4  -6  -9    7.62    1.10
  -4   6  -9    8.82    0.99
  -4   6  -9   10.15    1.22
  -8   0  10    0.28    0.30
  -7   0  10   -0.12    0.19
  -6   0  10   14.54    0.99
  -5   0  10   -0.06    0.22
  -4   0  10  122.80    3.36
  -3   0  10   -0.11    0.17
   2   0 -10  292.57    5.79
  -2   0  10  298.20    6.65
   2   0 -10  294.02    5.79
  -1   0  10    0.11    0.18
   1   0 -10    0.20    0.12
   0   0  10   63.82    2.04
   0   0 -10   62.35    1.76
  -1   0 -10    0.21    0.15
   1   0  10   -0.06    0.18
  -2   0 -10   11.07    0.75
   2   0  10   11.76    0.81
  -3   0 -10   -0.07    0.20
   3   0  10   -0.13    0.19
  -3   0 -10    0.05    0.21
  -4   0 -10    0.40    0.31
   4   0  10    0.19    0.26
  -4   0 -10    0.81    0.20
  -4   0 -10    0.42    0.27
   5   0  10    0.03    0.22
  -5   0 -10    0.11    0.24
  -5   0 -10    0.06    0.29
   6   0  10   10.19    1.06
  -6   0 -10    9.79    1.02
  -6   0 -10    9.07    1.02
  -7   0 -10    0.19    0.30
   7   0  10   -0.33    0.26
  -7   0 -10   -0.09    0.30
  -8   0 -10   20.43    1.47
  -8   0 -10   21.64    1.57
   8   0  10   18.34    1.39
  -8  -1  10    1.84    0.49
  -8   1  10    1.19    0.46
  -7  -1  10   44.37    1.81
  -7   1  10   44.25    1.99
  -6  -1  10    6.27    0.71
  -6   1  10    8.60    0.94
  -5  -1  10   17.21    0.95
  -5   1  10   18.93    1.16
   4  -1 -10    0.30    0.17
  -4  -1  10    0.31    0.20
  -4  -1  10    0.62    0.24
  -4   1  10    0.62    0.29
   3  -1 -10   31.03    1.17
  -3  -1  10   30.09    1.21
  -3  -1  10   33.45    1.27
  -3   1  10   35.80    1.50
  -2  -1  10   38.27    1.41
  -2  -1  10   43.52    1.46
   2  -1 -10   40.06    1.41
  -2   1  10   43.79    1.65
  -1  -1  10   19.00    0.90
  -1  -1  10   16.24    0.84
   1  -1 -10   18.28    0.93
  -1   1  10   18.02    1.00
   0  -1 -10   31.25    1.31
   0  -1  10   33.90    1.29
   0   1  10   33.60    1.43
  -1  -1 -10  109.41    3.05
   1  -1  10  110.26    2.97
   1   1  10  109.11    3.12
  -1   1 -10  108.62    2.38
  -1   1 -10  106.97    3.00
  -1   1 -10  110.78    2.41
   2  -1  10   39.17    1.54
  -2  -1 -10   36.98    1.57
  -2   1 -10   38.33    1.60
  -2   1 -10   39.07    1.47
  -2   1 -10   38.55    1.27
   2   1  10   40.48    1.65
   3  -1  10   27.17    1.31
  -3  -1 -10   27.44    1.44
  -3  -1 -10   23.70    1.30
   3   1  10   27.52    1.37
  -3   1 -10   26.28    1.13
   3   1  10   25.33    0.96
  -3   1 -10   26.07    1.14
  -3   1 -10   27.37    1.36
  -4  -1 -10    7.20    0.86
   4  -1  10    6.79    0.77
  -4  -1 -10    7.13    0.84
  -4   1 -10    6.49    0.77
   4   1  10    6.72    0.77
  -4   1 -10    6.28    0.53
  -4   1 -10    5.61    0.64
  -5  -1 -10   62.10    2.49
   5  -1  10   64.06    2.37
  -5  -1 -10   60.08    2.39
   5   1  10   64.42    2.38
  -5   1 -10   66.31    2.28
  -5   1 -10   59.49    2.40
  -5   1 -10   60.32    1.95
  -6  -1 -10   12.46    1.11
   6  -1  10   13.75    1.11
  -6  -1 -10   12.86    1.12
  -6   1 -10   15.53    1.10
   6   1  10   14.27    1.11
  -6   1 -10   14.46    1.16
  -7  -1 -10    7.97    1.03
   7  -1  10    7.54    0.97
  -7  -1 -10    8.99    1.12
  -7   1 -10    5.97    0.88
  -7   1 -10    7.02    0.91
   7   1  10    6.50    0.90
  -8  -1 -10    3.32    0.73
  -8  -1 -10    3.39    0.75
   8  -1  10    3.24    0.70
   8   1  10    4.65    0.80
  -8   1 -10    3.94    0.72
  -8   1 -10    2.63    0.69
  -8  -2  10    5.90    0.74
  -8   2  10    6.70    0.96
  -7  -2  10    8.24    0.71
  -7   2  10   10.18    1.10
  -6  -2  10   32.56    1.34
  -6   2  10   37.41    1.80
  -5  -2  10    0.49    0.22
   5  -2 -10    0.73    0.28
  -5   2  10    0.78    0.37
   4  -2 -10   29.99    1.33
  -4  -2  10   29.74    1.12
  -4   2  10   30.62    1.51
  -3  -2  10   29.52    1.07
   3  -2 -10   27.93    1.29
  -3  -2  10   30.65    1.09
  -3   2  10   30.33    1.47
   2  -2 -10   67.53    2.22
  -2  -2  10   71.13    1.89
  -2  -2  10   65.03    1.85
  -2   2  10   68.28    2.35
  -1  -2  10   24.72    0.97
   1  -2 -10   22.55    1.18
  -1  -2  10   20.89    0.90
  -1   2  10   22.43    1.21
   0  -2  10   85.00    2.37
   0  -2 -10   89.86    2.74
   0  -2  10   88.64    2.39
   0   2 -10   92.87    2.80
   0   2 -10   86.08    2.43
   0   2  10   84.96    2.71
  -1  -2 -10   14.69    1.01
   1  -2  10   14.47    0.84
  -1   2 -10   14.77    0.86
   1   2  10   15.26    0.66
   1   2  10   17.52    1.07
  -1   2 -10   14.84    0.95
  -2  -2 -10  111.76    3.31
   2  -2  10  108.56    3.02
  -2   2 -10  110.11    3.15
  -2   2 -10  108.81    3.10
   2   2  10  108.88    3.24
  -3  -2 -10    2.06    0.49
   3  -2  10    1.70    0.39
  -3   2 -10    2.15    0.42
   3   2  10    1.87    0.43
  -3   2 -10    1.78    0.41
  -4  -2 -10   44.88    2.03
   4  -2  10   45.40    1.85
  -4  -2 -10   46.20    2.02
  -4   2 -10   43.88    1.89
   4   2  10   45.89    1.93
  -4   2 -10   44.92    1.75
  -5  -2 -10   16.33    1.24
   5  -2  10   17.37    1.17
  -5  -2 -10   18.45    1.30
   5   2  10   15.77    1.13
  -5   2 -10   17.51    1.04
  -5   2 -10   16.55    1.19
  -6  -2 -10   17.33    1.31
   6  -2  10   20.16    1.33
  -6  -2 -10   15.13    1.24
   6   2  10   19.37    1.27
  -6   2 -10   17.18    1.27
  -7  -2 -10    5.04    0.85
   7  -2  10    6.58    0.89
  -7  -2 -10    6.89    1.00
  -7   2 -10    7.23    1.01
   7   2  10    7.03    0.92
  -7  -3  10   32.80    1.36
  -7   3  10   35.50    1.92
   6  -3 -10    0.20    0.26
  -6  -3  10    0.28    0.18
  -6   3  10    0.83    0.38
  -5  -3  10   38.30    1.24
   5  -3 -10   36.33    1.67
  -5   3  10   34.89    1.76
  -4  -3  10    0.05    0.11
   4  -3 -10    0.08    0.22
  -4   3  10   -0.01    0.23
  -3  -3  10   84.88    2.05
   3  -3 -10   85.02    2.78
  -3   3  10   83.80    2.86
   2  -3 -10   44.39    1.86
  -2  -3  10   46.02    1.29
  -2  -3  10   44.02    1.36
  -2   3  10   46.32    1.93
  -1  -3  10   14.16    0.66
   1  -3 -10   16.57    1.10
  -1  -3  10   15.43    0.69
   1   3 -10   15.71    1.10
  -1   3  10   13.53    1.01
   1   3 -10   14.84    0.71
   0  -3 -10   15.31    1.06
   0  -3  10   11.02    0.71
   0  -3  10   13.51    0.69
   0   3  10   14.44    1.01
   0   3 -10   12.90    0.72
   0   3 -10   13.70    1.01
   1  -3  10   16.12    0.85
  -1  -3 -10   16.13    1.12
  -1   3 -10   14.53    1.05
  -1   3 -10   14.13    0.81
  -1   3 -10   16.23    1.09
   1   3  10   14.50    1.01
  -2  -3 -10   44.65    1.95
   2  -3  10   41.13    1.57
  -2   3 -10   42.38    1.81
  -2   3 -10   42.82    1.81
  -2   3 -10   40.87    1.60
   2   3  10   43.88    1.84
  -3  -3 -10    2.22    0.53
   3  -3  10    2.29    0.44
   3   3  10    3.12    0.58
  -3   3 -10    2.64    0.48
  -3   3 -10    1.44    0.39
  -3   3 -10    2.18    0.47
  -4  -3 -10    1.57    0.53
   4  -3  10    1.49    0.41
  -4  -3 -10    0.55    0.36
  -4   3 -10    1.24    0.41
  -4   3 -10    1.75    0.38
  -4   3 -10    0.77    0.34
   4   3  10    1.20    0.40
  -5  -3 -10   12.90    1.11
  -5  -3 -10    9.95    1.13
   5  -3  10   13.08    1.03
   5   3  10   10.06    1.02
  -5   3 -10   10.76    0.96
  -5   3 -10   10.09    0.77
   6  -3  10    2.03    0.54
  -6  -3 -10    2.83    0.61
  -6  -3 -10    3.45    0.74
   6   3  10    3.27    0.61
  -6   3 -10    3.47    0.69
  -7  -3 -10    2.00    0.63
  -7  -3 -10    1.11    0.56
   7  -3  10    2.11    0.60
  -7   3 -10    1.87    0.60
   7   3  10    1.71    0.50
  -7  -4  10    0.03    0.19
  -7   4  10   -0.21    0.29
   6  -4 -10   36.00    1.84
  -6  -4  10   37.18    1.35
  -6   4  10   38.25    2.01
   5  -4 -10   -0.13    0.28
  -5  -4  10    0.61    0.17
  -5   4  10   -0.12    0.26
   4  -4 -10    3.43    0.63
  -4  -4  10    2.98    0.22
  -4   4  10    4.08    0.71
   3  -4 -10    0.51    0.35
  -3  -4  10    0.05    0.07
  -3   4  10    0.23    0.27
   2  -4 -10   15.07    1.16
  -2  -4  10   13.31    0.52
  -2   4  10   13.83    1.07
   2   4 -10   14.29    1.17
   2   4 -10   13.73    0.48
  -1  -4  10    2.41    0.29
   1  -4 -10    1.58    0.50
   1   4 -10    1.77    0.25
  -1   4  10    2.58    0.54
   1   4 -10    2.47    0.56
   1   4 -10    2.02    0.55
   0  -4  10   42.38    1.37
   0  -4 -10   44.12    2.00
   0   4 -10   43.58    1.40
   0   4  10   42.89    1.87
   0   4 -10   42.07    1.96
   0   4 -10   40.91    1.98
  -1  -4 -10    0.29    0.36
   1  -4  10    0.53    0.21
  -1   4 -10    0.55    0.21
  -1   4 -10    1.21    0.42
   1   4  10    0.64    0.33
  -1   4 -10    0.64    0.34
   2  -4  10   83.85    2.50
  -2  -4 -10   81.72    3.00
  -2   4 -10   83.97    2.54
  -2   4 -10   81.50    2.90
  -2   4 -10   83.22    2.91
   2   4  10   80.54    2.76
   3  -4  10    0.32    0.24
  -3  -4 -10    0.57    0.41
  -3   4 -10    0.31    0.28
   3   4  10    0.59    0.31
  -3   4 -10    0.22    0.24
  -3   4 -10    0.71    0.36
   4  -4  10  103.43    3.20
  -4  -4 -10  106.78    3.63
  -4  -4 -10  100.72    3.49
  -4   4 -10  100.22    3.21
  -4   4 -10   96.35    3.32
   4   4  10   98.89    3.21
  -4   4 -10   97.82    3.20
  -5  -4 -10    2.59    0.63
   5  -4  10    2.01    0.51
  -5  -4 -10    3.22    0.74
   5   4  10    1.81    0.47
  -5   4 -10    1.34    0.43
  -5   4 -10    2.03    0.51
  -6  -4 -10   27.54    1.80
  -6  -4 -10   26.78    1.70
   6  -4  10   26.60    1.61
  -6   4 -10   24.10    1.56
   5  -5 -10   38.08    2.02
  -5   5  10   40.04    2.06
   4  -5 -10    3.32    0.68
  -4   5  10    3.89    0.71
   3  -5 -10   61.24    2.57
  -3   5  10   59.43    2.46
   2  -5 -10    4.23    0.78
   2   5 -10    4.27    0.76
  -2   5  10    4.31    0.69
   2   5 -10    4.31    0.78
   1  -5 -10   29.99    1.74
  -1  -5  10   29.51    1.00
   1   5 -10   31.03    0.92
  -1   5  10   31.83    1.65
   1   5 -10   32.61    1.88
   1   5 -10   30.98    1.78
   0  -5  10   -0.04    0.13
   0  -5 -10    0.38    0.41
   0   5  10    0.23    0.27
   0   5 -10   -0.28    0.28
   0   5 -10   -0.04    0.13
   0   5 -10    0.07    0.27
   1  -5  10   36.88    1.41
  -1  -5 -10   39.16    2.00
  -1   5 -10   37.81    1.95
  -1   5 -10   37.74    1.98
  -1   5 -10   35.00    1.39
   1   5  10   36.03    1.76
  -2  -5 -10    0.67    0.42
   2  -5  10    0.80    0.29
  -2   5 -10    1.19    0.33
   2   5  10    0.58    0.32
  -2   5 -10    2.11    0.57
  -2   5 -10    0.38    0.30
  -3  -5 -10    1.89    0.60
   3  -5  10    2.57    0.49
  -3   5 -10    2.03    0.55
  -3   5 -10    2.83    0.64
   3   5  10    2.80    0.57
   3   5  10    2.52    0.46
  -3   5 -10    2.74    0.51
   4  -5  10    0.58    0.35
  -4  -5 -10   -0.09    0.36
  -4  -5 -10   -0.39    0.25
  -4   5 -10   -0.21    0.27
  -4   5 -10    0.08    0.27
  -4   5 -10   -0.20    0.27
  -5  -5 -10    4.36    0.87
   5  -5  10    4.66    0.77
  -5  -5 -10    5.75    0.90
  -5   5 -10    4.91    0.82
  -5   5 -10    4.80    0.79
   3  -6 -10    2.18    0.64
   3   6 -10    2.50    0.68
  -3   6  10    1.48    0.47
   2  -6 -10   21.32    1.58
   2   6 -10   23.87    1.69
   2   6 -10   20.82    1.65
  -2   6  10   22.69    1.45
   1  -6 -10    3.99    0.85
   1   6 -10    4.60    0.85
  -1   6  10    4.77    0.75
   1   6 -10    4.81    0.87
   0  -6 -10   14.37    1.30
   0  -6  10   12.89    0.76
   0   6  10   11.92    1.05
   0   6 -10   13.38    1.42
   0   6 -10   12.24    1.38
   1  -6  10    4.76    0.59
  -1  -6 -10    5.11    0.91
  -1   6 -10    3.77    0.80
  -1   6 -10    5.45    0.92
  -1   6 -10    4.06    0.50
  -2  -6 -10   14.02    1.46
   2  -6  10   13.99    0.96
  -2   6 -10   15.26    1.51
  -2   6 -10   14.11    0.95
  -2   6 -10   12.04    1.35
  -3   6 -10    6.98    1.04
  -3   6 -10    4.98    0.88
  -8   0  11    0.11    0.27
  -7   0  11   86.56    2.94
  -6   0  11   -0.16    0.22
  -5   0  11   35.39    1.58
  -4   0  11    0.13    0.26
  -3   0  11   24.82    1.23
  -2   0  11    0.06    0.17
  -1   0  11    0.26    0.22
   1   0 -11    0.02    0.06
   0   0 -11   -0.06    0.11
   0   0  11    0.31    0.23
   1   0  11   -0.11    0.18
  -1   0 -11    0.11    0.17
  -2   0 -11    0.00    0.15
   2   0  11   -0.01    0.21
  -3   0 -11   20.99    1.27
  -3   0 -11   21.51    1.14
   3   0  11   21.61    1.23
  -4   0 -11   -0.24    0.19
   4   0  11   -0.23    0.20
  -4   0 -11    0.21    0.24
  -5   0 -11   72.54    2.58
   5   0  11   72.88    2.67
  -5   0 -11   72.29    2.76
  -6   0 -11    0.25    0.33
   6   0  11    0.22    0.30
  -6   0 -11    0.17    0.27
  -7   0 -11   66.72    2.85
   7   0  11   63.61    2.67
  -7   0 -11   69.05    2.76
  -8  -1  11   -0.12    0.27
  -8   1  11    0.09    0.27
  -7  -1  11    0.07    0.18
  -7   1  11    0.30    0.30
  -6  -1  11   28.26    1.37
  -6   1  11   29.14    1.58
  -5  -1  11    1.21    0.34
  -5   1  11    1.90    0.47
  -4  -1  11   80.90    2.40
  -4   1  11   74.39    2.58
  -3  -1  11   21.64    1.05
   3  -1 -11   21.46    0.92
  -3   1  11   23.26    1.25
   2  -1 -11  121.93    3.05
  -2  -1  11  117.60    3.15
  -2   1  11  119.89    3.43
  -1  -1  11    9.45    0.69
   1  -1 -11    9.55    0.66
  -1   1  11   11.36    0.84
   0  -1 -11  146.67    3.83
   0  -1  11  157.99    3.89
   0   1  11  150.90    4.06
  -1  -1 -11    3.59    0.52
   1  -1  11    3.35    0.49
   1   1  11    3.41    0.55
  -2  -1 -11   44.03    1.75
   2  -1  11   41.74    1.68
  -2   1 -11   42.98    1.77
  -2   1 -11   42.48    1.60
  -2   1 -11   42.84    1.47
   2   1  11   42.81    1.80
  -3  -1 -11    1.43    0.41
  -3  -1 -11    1.99    0.49
   3  -1  11    1.50    0.40
  -3   1 -11    1.22    0.39
  -3   1 -11    1.40    0.33
  -3   1 -11    1.15    0.29
   3   1  11    0.57    0.34
  -4  -1 -11   30.94    1.58
   4  -1  11   33.23    1.61
  -4  -1 -11   31.98    1.69
  -4   1 -11   35.46    1.70
  -4   1 -11   32.13    1.33
   4   1  11   31.99    1.61
   5  -1  11    2.19    0.53
  -5  -1 -11    3.59    0.69
  -5  -1 -11    2.60    0.57
   5   1  11    3.89    0.67
  -5   1 -11    3.75    0.49
  -5   1 -11    3.64    0.58
  -5   1 -11    4.62    0.74
   6  -1  11    0.28    0.33
  -6  -1 -11    0.18    0.28
  -6  -1 -11    0.31    0.33
   6   1  11    0.13    0.30
  -6   1 -11   -0.12    0.27
  -7  -1 -11    2.67    0.60
  -7  -1 -11    2.95    0.70
   7  -1  11    2.58    0.64
   7   1  11    2.69    0.62
  -7   1 -11    2.13    0.59
  -7  -2  11   27.47    1.34
  -7   2  11   29.50    1.71
  -6  -2  11    6.38    0.67
  -6   2  11    6.72    0.90
  -5  -2  11   10.88    0.72
  -5   2  11   11.87    1.01
   4  -2 -11    1.59    0.35
  -4  -2  11    1.39    0.30
  -4   2  11    1.05    0.39
  -3  -2  11   25.23    1.04
   3  -2 -11   23.67    1.18
  -3   2  11   26.37    1.41
   2  -2 -11    7.01    0.72
  -2  -2  11    7.62    0.56
  -2   2  11    9.70    0.83
   1  -2 -11    7.90    0.72
  -1  -2  11    9.93    0.64
  -1   2  11    8.71    0.91
   0  -2  11   16.75    0.89
   0  -2 -11   15.69    1.04
   0   2 -11   15.31    0.88
   0   2  11   17.02    1.10
   1  -2  11   56.05    1.87
  -1  -2 -11   54.61    2.08
   1   2  11   55.18    2.11
  -1   2 -11   53.32    1.89
  -1   2 -11   52.94    2.02
  -2  -2 -11    0.47    0.34
   2  -2  11    0.16    0.24
   2   2  11    0.34    0.29
  -2   2 -11    0.17    0.27
  -2   2 -11    0.65    0.27
  -3  -2 -11   42.31    1.93
   3  -2  11   44.30    1.82
   3   2  11   47.60    1.97
  -3   2 -11   48.07    1.92
  -3   2 -11   45.12    1.79
   4  -2  11    4.12    0.63
  -4  -2 -11    3.27    0.65
  -4  -2 -11    3.47    0.68
   4   2  11    3.25    0.60
  -4   2 -11    3.66    0.53
  -4   2 -11    3.55    0.62
   5  -2  11   23.15    1.40
  -5  -2 -11   21.47    1.47
  -5  -2 -11   23.04    1.48
  -5   2 -11   22.26    1.41
   5   2  11   20.13    1.33
  -5   2 -11   23.56    1.24
  -6  -2 -11   -0.18    0.33
   6  -2  11   -0.03    0.25
  -6  -2 -11   -0.13    0.31
  -6   2 -11    0.07    0.28
  -6   2 -11   -0.31    0.23
   6   2  11    0.03    0.26
  -7  -2 -11   22.95    1.62
   7  -2  11   20.59    1.47
  -7  -2 -11   21.85    1.58
   7   2  11   20.22    1.41
  -7   2 -11   21.75    1.55
  -7  -3  11    1.32    0.34
  -7   3  11    1.38    0.52
  -6  -3  11   32.89    1.30
  -6   3  11   36.11    1.89
  -5  -3  11   11.42    0.67
   5  -3 -11   14.26    1.04
  -5   3  11   13.30    1.12
   4  -3 -11   23.43    1.32
  -4  -3  11   25.21    0.96
  -4   3  11   24.84    1.48
   3  -3 -11   12.47    0.96
  -3  -3  11   12.58    0.63
  -3   3  11   12.89    1.05
   2  -3 -11   28.52    1.49
  -2  -3  11   31.70    1.10
  -2   3  11   32.05    1.61
   1  -3 -11    0.27    0.31
  -1  -3  11    0.65    0.21
   1   3 -11    0.67    0.21
  -1   3  11    0.58    0.33
   0  -3  11   43.92    1.50
   0  -3 -11   43.66    1.91
   0   3 -11   44.28    1.93
   0   3 -11   43.66    1.53
   0   3  11   42.96    1.89
   1  -3  11    9.63    0.70
  -1  -3 -11    9.40    0.96
  -1   3 -11    8.53    0.69
  -1   3 -11    8.19    0.90
   1   3  11   10.35    0.90
   2  -3  11    7.59    0.68
  -2  -3 -11    8.32    0.96
   2   3  11    8.46    0.92
  -2   3 -11    7.09    0.75
  -2   3 -11    8.06    0.89
  -3  -3 -11    1.37    0.45
   3  -3  11    1.29    0.38
  -3   3 -11    1.40    0.41
  -3   3 -11    1.85    0.44
   3   3  11    1.13    0.40
  -3   3 -11    0.92    0.31
   4  -3  11   32.85    1.60
  -4  -3 -11   29.07    1.71
  -4  -3 -11   32.16    1.79
  -4   3 -11   31.92    1.51
  -4   3 -11   30.89    1.58
   4   3  11   27.07    1.54
  -4   3 -11   31.81    1.61
  -5  -3 -11   -0.17    0.33
   5  -3  11   -0.07    0.25
  -5  -3 -11    0.43    0.33
   5   3  11   -0.15    0.23
  -5   3 -11    0.11    0.25
  -5   3 -11   -0.11    0.22
  -6  -3 -11    7.71    1.06
   6  -3  11    7.53    0.99
  -6  -3 -11    8.63    1.15
  -6   3 -11    7.98    1.01
  -6   3 -11    7.38    0.88
   6   3  11   10.03    1.08
  -6   4  11    0.48    0.36
   5  -4 -11    2.71    0.59
  -5   4  11    4.47    0.77
  -4  -4  11    1.08    0.21
   4  -4 -11    1.38    0.47
  -4   4  11    0.48    0.36
   3  -4 -11   74.27    2.79
  -3  -4  11   78.95    1.90
  -3   4  11   77.15    2.88
  -2  -4  11    0.74    0.19
   2  -4 -11    0.84    0.39
  -2   4  11    0.02    0.25
   2   4 -11    0.61    0.14
  -1  -4  11   96.57    2.45
   1  -4 -11   98.97    3.30
  -1   4  11   95.02    3.20
   1   4 -11   95.36    2.41
   1   4 -11   95.72    3.35
   0  -4 -11    6.00    0.86
   0  -4  11    6.66    0.53
   0   4 -11    5.20    0.79
   0   4  11    6.44    0.86
   0   4 -11    6.96    0.94
   0   4 -11    6.80    0.52
   1  -4  11  104.96    2.85
  -1  -4 -11  102.28    3.47
  -1   4 -11   99.37    2.83
  -1   4 -11  101.65    3.43
  -1   4 -11  100.45    3.44
   1   4  11  104.28    3.32
   2  -4  11    2.89    0.49
  -2  -4 -11    2.82    0.67
  -2   4 -11    2.86    0.48
  -2   4 -11    2.60    0.59
  -2   4 -11    1.95    0.55
   2   4  11    3.64    0.65
   3  -4  11   14.91    1.04
  -3  -4 -11   14.03    1.22
  -3   4 -11   14.40    1.11
   3   4  11   17.08    1.17
  -3   4 -11   14.31    1.02
  -3   4 -11   14.64    1.17
  -4  -4 -11    4.21    0.82
   4  -4  11    4.72    0.71
  -4  -4 -11    3.07    0.69
  -4   4 -11    3.61    0.63
  -4   4 -11    5.07    0.79
   4   4  11    5.69    0.82
  -4   4 -11    3.26    0.60
  -5  -4 -11    1.15    0.48
  -5  -4 -11    0.94    0.52
   5  -4  11    2.02    0.54
  -5   4 -11    1.04    0.47
  -5   4 -11    1.37    0.44
   5   4  11    1.50    0.46
   4  -5 -11   18.65    1.40
  -4   5  11   17.50    1.36
   3  -5 -11    6.64    0.95
  -3   5  11    7.16    0.98
   2  -5 -11   -0.36    0.28
   2   5 -11   -0.18    0.31
  -2   5  11    0.23    0.24
   1  -5 -11    0.26    0.37
  -1  -5  11    0.33    0.15
   1   5 -11   -0.04    0.32
  -1   5  11    0.09    0.31
   1   5 -11   -0.22    0.32
   0  -5 -11    4.69    0.82
   0  -5  11    6.03    0.51
   0   5 -11    5.23    0.45
   0   5 -11    4.30    0.79
   0   5  11    5.02    0.75
   0   5 -11    5.11    0.86
   1  -5  11   13.27    0.82
  -1  -5 -11   12.59    1.32
  -1   5 -11   12.36    1.28
   1   5  11   11.80    1.03
  -1   5 -11   13.95    1.41
  -1   5 -11   14.53    0.84
  -2  -5 -11   13.47    1.37
   2  -5  11   13.13    0.94
  -2   5 -11   11.80    1.24
   2   5  11   12.52    1.06
  -2   5 -11   13.67    0.92
  -2   5 -11   11.71    1.24
   3  -5  11    4.11    0.64
  -3  -5 -11    4.02    0.84
  -3   5 -11    3.70    0.60
   3   5  11    3.78    0.65
  -3   5 -11    2.22    0.61
  -3   5 -11    4.39    0.81
   4  -5  11   27.82    1.57
  -4  -5 -11   29.19    1.80
  -4  -5 -11   27.00    1.81
  -4   5 -11   26.39    1.50
  -4   5 -11   26.84    1.75
  -4   5 -11   22.85    1.53
   1  -6 -11   27.76    1.83
  -1   6  11   31.31    1.74
   1   6 -11   30.64    1.97
   1   6 -11   30.40    1.96
   0  -6 -11    5.24    0.92
   0  -6  11    5.37    0.58
   0   6  11    5.09    0.80
   0   6 -11    5.80    1.01
   0   6 -11    3.96    0.83
  -1  -6 -11   29.18    1.88
  -1   6 -11   26.02    1.82
  -1   6 -11   30.05    1.92
  -7   0  12    0.19    0.27
  -6   0  12    0.20    0.25
  -5   0  12    0.01    0.28
  -4   0  12   22.57    1.23
  -3   0  12    0.24    0.22
  -2   0  12   32.19    1.46
  -1   0  12   -0.05    0.20
   0   0  12  231.83    5.67
   1   0  12   -0.04    0.20
  -1   0 -12    0.06    0.16
  -2   0 -12  102.80    3.29
   2   0  12  105.59    3.23
  -2   0 -12  105.29    2.91
  -3   0 -12    0.02    0.26
  -3   0 -12    0.07    0.19
   3   0  12   -0.17    0.18
  -4   0 -12   51.47    2.22
  -4   0 -12   49.44    1.96
   4   0  12   47.13    2.08
  -5   0 -12    0.16    0.27
   5   0  12   -0.05    0.29
  -5   0 -12    0.04    0.31
   6   0  12    6.31    0.91
  -6   0 -12    8.76    1.11
  -7  -1  12   40.84    1.80
  -7   1  12   40.06    1.99
  -6  -1  12    3.27    0.55
  -6   1  12    4.02    0.72
  -5  -1  12   44.62    1.76
  -5   1  12   44.11    1.96
  -4  -1  12    7.26    0.64
  -4   1  12    6.86    0.84
  -3  -1  12   38.93    1.54
  -3   1  12   36.96    1.69
  -2  -1  12    0.97    0.30
  -2   1  12    0.45    0.29
   1  -1 -12   12.49    0.75
  -1  -1  12   13.54    0.87
  -1   1  12   12.67    0.96
   0  -1  12    4.38    0.58
   0  -1 -12    4.40    0.54
   0   1  12    3.52    0.58
   1  -1  12    4.04    0.59
  -1  -1 -12    3.78    0.54
   1   1  12    3.25    0.57
  -2  -1 -12    4.56    0.64
   2  -1  12    4.07    0.60
   2   1  12    4.71    0.69
  -2   1 -12    3.73    0.59
  -3  -1 -12   14.10    1.01
  -3  -1 -12   14.19    1.13
   3  -1  12   15.28    1.05
  -3   1 -12   13.58    1.03
  -3   1 -12   15.05    0.90
   3   1  12   13.88    1.07
   4  -1  12   15.47    1.13
  -4  -1 -12   13.86    1.06
  -4  -1 -12   13.29    1.13
  -4   1 -12   12.97    0.82
  -4   1 -12   13.97    1.09
   4   1  12   14.82    1.14
  -5  -1 -12    8.17    0.96
  -5  -1 -12    8.71    1.03
   5  -1  12    9.62    1.03
  -5   1 -12    8.46    1.03
   5   1  12    6.91    0.90
  -6  -1 -12    4.33    0.77
   6  -1  12    3.06    0.66
  -6  -1 -12    3.58    0.70
   6   1  12    3.17    0.66
  -6   1 -12    2.97    0.68
  -7  -2  12    3.94    0.59
  -7   2  12    4.68    0.80
  -6  -2  12    7.87    0.69
  -6   2  12    8.44    1.01
  -5  -2  12    5.47    0.61
  -5   2  12    4.61    0.75
  -4  -2  12   41.89    1.55
  -4   2  12   42.76    1.96
  -3  -2  12   18.96    0.96
  -3   2  12   18.89    1.24
  -2  -2  12   11.82    0.75
   2  -2 -12   11.28    0.84
  -2   2  12   10.59    0.94
   1  -2 -12    0.00    0.20
  -1  -2  12   -0.02    0.18
  -1   2  12    0.30    0.29
   0  -2  12   47.31    1.70
   0  -2 -12   42.44    1.80
   0   2 -12   44.24    1.69
   0   2  12   48.51    2.01
  -1  -2 -12    4.46    0.65
   1  -2  12    3.98    0.57
  -1   2 -12    3.53    0.53
   1   2  12    3.81    0.64
  -1   2 -12    3.61    0.60
   2  -2  12   27.45    1.35
  -2  -2 -12   26.84    1.45
  -2   2 -12   27.10    1.38
   2   2  12   26.54    1.49
  -2   2 -12   26.45    1.38
   3  -2  12   13.73    1.00
  -3  -2 -12   12.96    1.05
   3   2  12   13.37    1.06
  -3   2 -12   10.58    0.86
  -3   2 -12   13.39    1.01
  -4  -2 -12   34.98    1.82
  -4  -2 -12   34.60    1.90
   4  -2  12   38.12    1.78
   4   2  12   37.01    1.84
  -4   2 -12   35.21    1.80
  -4   2 -12   36.41    1.61
  -5  -2 -12    0.80    0.42
   5  -2  12    1.20    0.45
  -5  -2 -12    2.04    0.58
  -5   2 -12    0.88    0.41
   5   2  12    1.66    0.49
  -5   2 -12    1.20    0.38
  -6  -2 -12    8.16    1.07
  -6  -2 -12    6.47    0.98
   6  -2  12    7.87    0.99
   6   2  12    8.04    1.01
  -6   2 -12    6.52    0.93
  -6  -3  12    9.98    0.72
  -6   3  12   10.09    1.18
  -5  -3  12   13.30    0.77
  -5   3  12   12.54    1.14
   4  -3 -12    1.06    0.45
  -4  -3  12    1.40    0.29
  -4   3  12    0.97    0.41
  -3  -3  12   47.62    1.54
   3  -3 -12   48.67    1.98
  -3   3  12   45.40    2.09
   2  -3 -12    1.21    0.41
  -2  -3  12    1.22    0.27
   2   3 -12    1.32    0.26
  -2   3  12    1.06    0.40
   1  -3 -12   86.16    2.92
  -1  -3  12   90.48    2.47
   1   3 -12   86.88    2.44
  -1   3  12   87.12    3.03
   0  -3 -12   13.61    1.07
   0  -3  12   13.39    0.82
   0   3  12   14.47    1.10
   0   3 -12   12.68    0.80
   0   3 -12   11.34    1.13
  -1  -3 -12   61.31    2.43
   1  -3  12   61.13    2.06
  -1   3 -12   60.10    2.09
  -1   3 -12   60.39    2.39
   1   3  12   64.24    2.47
  -2  -3 -12    3.66    0.69
   2  -3  12    4.10    0.60
  -2   3 -12    3.32    0.64
   2   3  12    4.01    0.69
  -2   3 -12    2.43    0.50
   3  -3  12   34.43    1.61
  -3  -3 -12   27.98    1.67
   3   3  12   31.30    1.67
  -3   3 -12   31.04    1.55
  -3   3 -12   31.43    1.62
  -4  -3 -12    9.27    1.11
  -4  -3 -12   10.09    1.12
   4  -3  12    9.03    0.99
   4   3  12    9.08    1.05
  -4   3 -12   10.17    1.03
  -4   3 -12   10.72    0.93
   5  -3  12   14.84    1.18
  -5  -3 -12   11.88    1.31
  -5  -3 -12   14.39    1.26
  -5   3 -12   15.24    1.19
  -5   3 -12   13.58    1.08
   5   3  12   14.21    1.21
  -5   4  12    0.31    0.36
  -4   4  12   58.37    2.53
  -3  -4  12    5.94    0.44
   3  -4 -12    7.47    0.91
  -3   4  12    7.38    0.97
  -2  -4  12   21.04    0.89
   2  -4 -12   20.77    1.38
   2   4 -12   21.38    0.79
  -2   4  12   19.08    1.35
  -1  -4  12    7.86    0.56
   1  -4 -12    6.60    0.87
   1   4 -12    7.74    0.53
  -1   4  12    6.61    0.91
   1   4 -12    7.43    0.99
   0  -4 -12    1.35    0.51
   0  -4  12    2.56    0.41
   0   4  12    1.79    0.53
   0   4 -12    1.52    0.50
   0   4 -12    2.14    0.36
   1  -4  12    6.56    0.67
  -1  -4 -12    6.68    0.93
   1   4  12    5.51    0.78
  -1   4 -12    5.97    0.66
  -1   4 -12    5.39    0.84
  -2  -4 -12    3.16    0.67
   2  -4  12    3.90    0.58
  -2   4 -12    2.68    0.49
  -2   4 -12    2.00    0.57
  -2   4 -12    2.30    0.59
   2   4  12    4.24    0.69
   3  -4  12    0.13    0.21
  -3  -4 -12    0.01    0.33
   3   4  12   -0.31    0.23
  -3   4 -12   -0.20    0.25
  -3   4 -12    0.15    0.23
  -3   4 -12   -0.25    0.25
   4  -4  12    2.63    0.57
  -4  -4 -12    2.89    0.68
  -4  -4 -12    3.88    0.79
   4   4  12    3.26    0.64
  -4   4 -12    3.64    0.67
  -4   4 -12    3.35    0.64
  -4   4 -12    3.24    0.67
   3  -5 -12   18.55    1.43
  -3   5  12   19.00    1.41
   2  -5 -12    1.86    0.56
  -2   5  12    2.86    0.65
  -1  -5  12   37.26    1.32
   1  -5 -12   36.23    1.99
   1   5 -12   38.67    2.12
  -1   5  12   38.14    1.99
   0  -5  12    6.18    0.63
   0  -5 -12    7.72    1.06
   0   5 -12    7.24    0.56
   0   5 -12    7.26    1.07
   0   5  12    7.15    0.94
   0   5 -12    8.31    1.09
  -1  -5 -12   59.55    2.70
   1  -5  12   60.86    2.08
   1   5  12   61.86    2.54
  -1   5 -12   61.29    2.04
  -1   5 -12   63.03    2.75
  -1   5 -12   61.54    2.74
   2  -5  12    1.86    0.42
  -2  -5 -12    1.38    0.58
  -2   5 -12    1.44    0.39
  -2   5 -12    1.27    0.50
   2   5  12    1.74    0.50
  -2   5 -12    1.55    0.52
  -7   0  13    6.90    0.89
  -6   0  13    0.10    0.24
  -5   0  13   56.80    2.23
  -4   0  13    0.01    0.21
  -3   0  13  102.82    3.17
  -2   0  13    0.33    0.24
  -1   0  13  111.76    3.36
   0   0  13   -0.09    0.20
   1   0  13   15.05    1.06
  -2   0 -13   -0.23    0.21
   2   0  13   -0.04    0.19
   3   0  13   -0.06    0.22
  -3   0 -13   -0.16    0.25
   4   0  13   -0.20    0.25
  -4   0 -13   -0.02    0.27
   5   0  13    4.10    0.76
  -5   0 -13    6.54    0.95
  -6   0 -13   -0.17    0.32
   6   0  13    0.56    0.39
  -6  -1  13    5.59    0.74
  -6   1  13    5.33    0.82
  -5  -1  13   13.39    0.96
  -5   1  13   14.09    1.10
  -4  -1  13    4.46    0.63
  -4   1  13    4.00    0.67
  -3  -1  13    8.63    0.73
  -3   1  13    7.23    0.86
  -2  -1  13   19.31    1.11
  -2   1  13   17.18    1.17
  -1  -1  13   14.77    1.00
  -1   1  13   17.05    1.14
   0  -1  13   36.48    1.61
   0   1  13   35.69    1.71
  -1  -1 -13   15.46    0.95
   1  -1  13   14.23    1.01
  -1   1 -13   16.01    1.08
   1   1  13   13.01    1.04
  -2  -1 -13   59.47    2.17
   2  -1  13   59.03    2.27
  -2   1 -13   60.07    2.34
   2   1  13   64.17    2.44
  -3  -1 -13   11.85    1.20
  -3  -1 -13   10.24    0.89
   3  -1  13   11.23    0.96
   3   1  13   10.31    1.08
  -3   1 -13   10.68    1.08
   4  -1  13   48.45    2.13
  -4  -1 -13   43.67    2.18
  -4  -1 -13   47.99    2.06
   4   1  13   45.53    2.12
  -4   1 -13   46.69    2.15
   5  -1  13    2.33    0.56
  -5  -1 -13    0.99    0.44
  -5  -1 -13    1.28    0.43
  -5   1 -13    0.60    0.41
   5   1  13    1.07    0.45
  -6  -1 -13   21.40    1.48
   6  -1  13   18.46    1.42
  -6  -1 -13   17.17    1.44
   6   1  13   19.36    1.44
  -6  -2  13   12.09    0.90
  -6   2  13   12.26    1.28
  -5  -2  13   29.18    1.36
  -5   2  13   29.68    1.70
  -4  -2  13   13.36    0.88
  -4   2  13   15.51    1.19
  -3  -2  13   18.26    1.00
  -3   2  13   17.89    1.25
  -2  -2  13    5.89    0.64
  -2   2  13    4.43    0.71
  -1  -2  13   24.05    1.18
   1  -2 -13   23.08    1.22
  -1   2  13   21.75    1.36
   0  -2 -13    6.45    0.75
   0  -2  13    6.15    0.69
   0   2 -13    5.49    0.65
   0   2  13    6.27    0.84
   1  -2  13    3.16    0.56
  -1  -2 -13    2.96    0.56
   1   2  13    3.94    0.68
  -1   2 -13    2.92    0.53
  -2  -2 -13    4.55    0.69
   2  -2  13    4.85    0.68
   2   2  13    5.08    0.77
  -2   2 -13    4.36    0.65
  -2   2 -13    4.49    0.65
   3  -2  13   24.69    1.42
  -3  -2 -13   25.53    1.51
  -3   2 -13   28.42    1.45
   3   2  13   26.61    1.56
  -3   2 -13   28.76    1.54
   4  -2  13    0.05    0.26
  -4  -2 -13    0.50    0.35
  -4  -2 -13    0.00    0.32
   4   2  13    0.08    0.30
  -4   2 -13    0.06    0.20
  -4   2 -13    0.17    0.27
  -5  -2 -13    2.68    0.65
   5  -2  13    4.23    0.75
  -5  -2 -13    3.68    0.74
   5   2  13    2.92    0.66
  -5   2 -13    4.63    0.81
  -5  -3  13    3.90    0.51
  -5   3  13    2.28    0.61
  -4  -3  13   63.20    1.99
  -4   3  13   63.03    2.64
  -3  -3  13    0.15    0.18
  -3   3  13   -0.02    0.30
  -2  -3  13   34.63    1.35
   2  -3 -13   34.84    1.67
   2   3 -13   32.58    1.29
  -2   3  13   34.63    1.83
  -1  -3  13   18.24    0.98
   1  -3 -13   19.25    1.25
  -1   3  13   17.27    1.28
   1   3 -13   18.82    0.98
   0  -3  13   48.70    1.77
   0  -3 -13   48.89    2.09
   0   3 -13   45.19    1.73
   0   3  13   47.86    2.17
   1  -3  13    6.37    0.73
  -1  -3 -13    4.61    0.73
   1   3  13    5.97    0.87
  -1   3 -13    4.76    0.63
  -1   3 -13    5.13    0.79
   2  -3  13   26.87    1.39
  -2  -3 -13   28.44    1.63
   2   3  13   26.78    1.58
  -2   3 -13   26.22    1.52
  -2   3 -13   26.95    1.41
  -3  -3 -13   14.51    1.20
   3  -3  13   14.11    1.06
   3   3  13   12.44    1.12
  -3   3 -13   15.18    1.13
  -3   3 -13   13.16    1.08
  -4  -3 -13    4.03    0.77
  -4  -3 -13    5.37    0.88
   4  -3  13    5.49    0.79
  -4   3 -13    5.34    0.75
   4   3  13    7.60    1.01
  -4   3 -13    6.30    0.86
  -4   4  13    2.04    0.55
  -3  -4  13    0.11    0.16
   3  -4 -13   -0.18    0.26
  -3   4  13    0.80    0.42
   2  -4 -13   -0.26    0.27
  -2  -4  13   -0.04    0.18
  -2   4  13   -0.15    0.23
   1  -4 -13   13.73    1.16
  -1  -4  13   14.74    0.83
   1   4 -13   13.44    0.75
  -1   4  13   14.22    1.19
   0  -4 -13    0.29    0.39
   0  -4  13    1.58    0.36
   0   4  13    1.24    0.46
   0   4 -13    0.99    0.48
   0   4 -13    1.70    0.37
  -1  -4 -13    7.97    1.04
   1  -4  13    8.30    0.74
  -1   4 -13    9.11    1.10
   1   4  13    7.65    0.98
  -1   4 -13    8.27    0.72
  -2  -4 -13    1.78    0.59
   2  -4  13    1.95    0.46
   2   4  13    1.84    0.52
  -2   4 -13    1.80    0.45
  -2   4 -13    1.29    0.50
  -3  -4 -13   52.58    2.46
   3  -4  13   48.42    2.07
  -3   4 -13   49.66    2.31
   3   4  13   49.42    2.27
  -3   4 -13   49.99    2.12
  -1  -5  13    0.64    0.23
   1  -5 -13    1.58    0.58
   1   5 -13    0.01    0.38
  -1   5  13    0.97    0.47
   0  -5  13   13.41    0.86
   0  -5 -13   13.74    1.41
   0   5  13   13.56    1.19
   0   5 -13   11.95    1.32
  -6   0  14   35.18    1.79
  -5   0  14   -0.34    0.19
  -4   0  14   69.37    2.57
  -3   0  14    0.02    0.21
  -2   0  14   21.49    1.28
  -1   0  14    0.13    0.20
   0   0  14    2.16    0.51
   1   0  14    0.00    0.24
   2   0  14   25.23    1.46
  -2   0 -14   23.40    1.48
  -3   0 -14   -0.41    0.17
   3   0  14   -0.26    0.23
   4   0  14    9.18    1.09
  -4   0 -14    7.34    0.98
  -5   0 -14   -0.21    0.28
   5   0  14    0.11    0.33
  -6  -1  14    1.98    0.49
  -6   1  14    2.38    0.61
  -5  -1  14   14.96    1.05
  -5   1  14   15.55    1.22
  -4  -1  14    1.47    0.40
  -4   1  14    1.05    0.42
  -3  -1  14    7.32    0.80
  -3   1  14    7.56    0.93
  -2  -1  14    0.03    0.24
  -2   1  14   -0.17    0.23
  -1  -1  14   56.88    2.20
  -1   1  14   67.46    2.51
   0  -1  14    0.22    0.26
   0   1  14    0.69    0.35
   1  -1  14   17.00    1.15
   1   1  14   14.97    1.18
  -1   1 -14   16.07    1.14
   2  -1  14    8.42    0.93
   2   1  14    7.90    0.94
  -2   1 -14    7.30    0.89
  -3  -1 -14   15.31    1.28
   3  -1  14   15.70    1.18
  -3   1 -14   14.07    1.15
   3   1  14   16.88    1.28
  -4  -1 -14    7.13    1.00
   4  -1  14   10.28    1.10
  -4   1 -14    7.95    0.99
   4   1  14    9.26    1.09
  -5  -1 -14   10.89    1.30
   5  -1  14    9.18    1.07
   5   1  14    9.93    1.14
  -5   1 -14    9.69    1.15
  -5  -2  14   11.79    0.89
  -5   2  14   10.50    1.19
  -4  -2  14   30.41    1.43
  -4   2  14   32.27    1.79
  -3  -2  14    0.70    0.30
  -3   2  14    0.22    0.30
  -2  -2  14   32.24    1.46
  -2   2  14   32.21    1.75
  -1  -2  14    1.05    0.37
  -1   2  14    2.38    0.56
   0  -2  14   15.20    1.04
   0   2  14   15.20    1.21
   0   2 -14   16.23    1.06
   1  -2  14   27.28    1.43
   1   2  14   29.19    1.67
  -1   2 -14   25.92    1.43
  -2  -2 -14   22.32    1.38
   2  -2  14   22.93    1.37
  -2   2 -14   20.67    1.30
   2   2  14   24.28    1.52
   3  -2  14   14.12    1.17
  -3  -2 -14   16.96    1.22
  -3  -2 -14   15.38    1.31
  -3   2 -14   13.16    1.03
   3   2  14   15.43    1.24
  -3   2 -14   12.92    1.09
  -4  -2 -14    9.47    1.09
   4  -2  14   10.79    1.17
  -4  -2 -14    8.69    1.12
  -4   2 -14    8.68    1.05
   4   2  14    9.49    1.11
  -4  -3  14   14.63    0.90
  -4   3  14   16.04    1.31
  -3  -3  14    5.31    0.62
  -3   3  14    5.74    0.88
  -2  -3  14    7.20    0.66
  -2   3  14    5.88    0.88
   2   3 -14    7.77    0.63
  -1  -3  14    8.83    0.74
  -1   3  14    7.51    0.99
   1   3 -14    8.72    0.71
   0  -3  14    2.21    0.43
   0  -3 -14    3.65    0.66
   0   3  14    2.67    0.64
   0   3 -14    2.66    0.48
  -1  -3 -14   18.17    1.29
   1  -3  14   17.71    1.14
  -1   3 -14   18.76    1.15
   1   3  14   17.59    1.32
   2  -3  14   18.32    1.20
  -2  -3 -14   22.46    1.46
  -2   3 -14   17.46    1.18
  -2   3 -14   21.84    1.42
   2   3  14   19.57    1.41
   3  -3  14   19.41    1.29
  -3  -3 -14   18.01    1.37
  -3   3 -14   19.09    1.32
   3   3  14   16.22    1.32
  -3   3 -14   19.22    1.29
  -2  -4  14   61.93    1.99
  -2   4  14   58.93    2.63
   1  -4 -14   -0.11    0.38
  -1  -4  14    0.04    0.19
   1   4 -14    0.02    0.19
  -1   4  14    0.72    0.39
   0  -4  14   60.67    2.15
   0  -4 -14   61.17    2.61
   0   4 -14   62.55    2.10
   0   4  14   64.24    2.72
  -1  -4 -14   17.73    1.41
   1  -4  14   16.24    1.05
  -1   4 -14   15.09    1.02
   1   4  14   14.50    1.25
  -1   4 -14   15.57    1.29
  -4   0  15   -0.09    0.23
  -3   0  15    3.43    0.63
  -2   0  15    0.04    0.32
  -1   0  15   17.34    1.22
   0   0  15    0.08    0.26
   1   0  15  116.35    3.74
  -2   0 -15    0.27    0.32
   2   0  15   -0.04    0.25
   3   0  15   71.46    2.83
  -3   0 -15   70.29    2.90
  -4  -1  15   33.24    1.65
  -4   1  15   32.10    1.78
  -3  -1  15    7.25    0.87
  -3   1  15    7.18    0.96
  -2  -1  15   31.73    1.58
  -2   1  15   28.35    1.65
  -1  -1  15    7.64    0.88
  -1   1  15    6.16    0.88
   0  -1  15    1.63    0.47
   0   1  15    1.31    0.44
   1  -1  15    0.45    0.33
  -1   1 -15    0.89    0.39
   1   1  15    1.21    0.44
   2  -1  15    0.73    0.40
   2   1  15    0.97    0.45
  -2   1 -15    1.64    0.47
  -3  -1 -15    4.99    0.89
   3  -1  15    5.24    0.81
   3   1  15    4.11    0.76
  -3   1 -15    5.13    0.84
  -4  -2  15    6.24    0.78
  -4   2  15    5.59    0.88
  -3  -2  15   16.38    1.06
  -3   2  15   16.26    1.28
  -2  -2  15   12.46    0.94
  -2   2  15   13.98    1.21
  -1  -2  15   19.22    1.18
  -1   2  15   18.32    1.36
   1   2 -15   18.51    1.16
   0  -2  15    1.42    0.42
   0   2 -15    1.48    0.42
   0   2  15    2.00    0.56
   1  -2  15   29.98    1.59
   1   2  15   31.52    1.80
  -1   2 -15   32.49    1.65
   2  -2  15    0.00    0.30
   2   2  15   -0.14    0.32
  -2   2 -15    0.05    0.31
   3  -2  15   14.54    1.19
  -3  -2 -15   15.66    1.39
   3   2  15   16.48    1.34
  -3   2 -15   15.30    1.24
  -2  -3  15   27.87    1.35
  -2   3  15   25.98    1.69
   2   3 -15   28.99    1.31
  -1  -3  15    0.26    0.22
  -1   3  15    0.36    0.35
   1   3 -15    0.05    0.22
   0  -3  15    7.44    0.83
   0   3  15    8.54    1.10
   0   3 -15    7.88    0.83
   1  -3  15    1.88    0.46
   1   3  15    1.61    0.53
  -1   3 -15    2.44    0.55
  -3   0  16   -0.05    0.26
  -2   0  16   60.42    2.49
  -1   0  16   -0.04    0.24
   0   0  16   16.83    1.28
   1   0  16    0.20    0.36
  -2   0 -16    1.93    0.61
   2   0  16    1.53    0.51
  -2  -1  16    0.39    0.32
  -2   1  16    0.45    0.36
  -1  -1  16   12.27    1.05
  -1   1  16   14.09    1.21
   0  -1  16    3.10    0.64
   0   1  16    2.07    0.61
   1  -1  16   37.00    1.93
  -1   1 -16   35.65    1.89
   1   1  16   37.22    2.00
   0   0   0    0.00    0.00
;
_shelx_hkl_checksum              85779
loop_
_space_group_symop_operation_xyz
'x, y, z'
'-x+1/2, y+1/2, -z+1/2'
'-x, -y, -z'
'x-1/2, -y-1/2, z-1/2'
loop_
_atom_site_label
_atom_site_type_symbol
_atom_site_fract_x
_atom_site_fract_y
_atom_site_fract_z
_atom_site_U_iso_or_equiv
_atom_site_adp_type
_atom_site_occupancy
_atom_site_site_symmetry_order
_atom_site_calc_flag
_atom_site_refinement_flags_posn
_atom_site_refinement_flags_adp
_atom_site_refinement_flags_occupancy
Ag1 Ag 1.000000 0.000000 0.000000 0.02210(8) Uani 1 2 d S . P
P1 P 1.07017(5) 0.61257(7) 0.32471(3) 0.01152(11) Uani 1 1 d . . .
O1 O 1.22545(16) 0.49082(18) 0.32964(11) 0.0148(3) Uani 1 1 d . . .
O2 O 1.09427(16) 0.8590(2) 0.31623(10) 0.0160(3) Uani 1 1 d D . .
H2 H 1.149(3) 0.895(4) 0.2739(17) 0.019 Uiso 1 1 d D U .
O3 O 0.96190(16) 0.5786(2) 0.41580(10) 0.0186(3) Uani 1 1 d . . .
H3O H 1.000000 0.500000 0.500000 0.028 Uiso 1 2 d S U P
N1 N 0.91016(18) 0.2809(2) 0.06845(12) 0.0151(3) Uani 1 1 d . . .
C1 C 0.9902(2) 0.3511(3) 0.15674(14) 0.0136(3) Uani 1 1 d . . .
H1 H 1.076375 0.267214 0.186091 0.016 Uiso 1 1 calc R U .
C2 C 0.9535(2) 0.5385(3) 0.20674(14) 0.0117(3) Uani 1 1 d . . .
C3 C 0.8255(2) 0.6599(3) 0.16335(14) 0.0152(3) Uani 1 1 d . . .
H3 H 0.797168 0.790726 0.194888 0.018 Uiso 1 1 calc R U .
C4 C 0.7404(2) 0.5869(3) 0.07370(15) 0.0181(4) Uani 1 1 d . . .
H4 H 0.651649 0.665423 0.043877 0.022 Uiso 1 1 calc R U .
C5 C 0.7868(2) 0.3975(3) 0.02820(14) 0.0167(4) Uani 1 1 d . . .
H5 H 0.729011 0.348834 -0.033669 0.020 Uiso 1 1 calc R U .
loop_
_atom_site_aniso_label
_atom_site_aniso_U_11
_atom_site_aniso_U_22
_atom_site_aniso_U_33
_atom_site_aniso_U_23
_atom_site_aniso_U_13
_atom_site_aniso_U_12
Ag1 0.02920(14) 0.01493(12) 0.02254(13) -0.00802(7) 0.00486(9) -0.00030(8)
P1 0.0131(2) 0.0122(2) 0.0093(2) -0.00059(16) 0.00170(16) -0.00016(16)
O1 0.0145(6) 0.0166(7) 0.0132(6) -0.0011(4) -0.0010(5) 0.0019(5)
O2 0.0200(7) 0.0129(6) 0.0156(7) -0.0014(5) 0.0048(5) -0.0023(5)
O3 0.0182(6) 0.0253(7) 0.0128(6) 0.0029(5) 0.0054(5) 0.0008(6)
N1 0.0163(7) 0.0145(7) 0.0145(7) -0.0040(6) 0.0017(6) -0.0014(6)
C1 0.0121(8) 0.0138(8) 0.0150(8) -0.0003(6) -0.0003(6) 0.0006(6)
C2 0.0122(8) 0.0132(8) 0.0101(8) 0.0008(6) 0.0032(6) -0.0018(6)
C3 0.0167(9) 0.0139(8) 0.0153(9) 0.0005(7) 0.0039(7) 0.0022(7)
C4 0.0175(9) 0.0185(9) 0.0179(9) 0.0034(7) -0.0013(7) 0.0026(7)
C5 0.0162(8) 0.0191(9) 0.0147(9) 0.0008(7) -0.0012(7) -0.0033(7)
loop_
_atom_type_symbol
_atom_type_description
_atom_type_scat_dispersion_real
_atom_type_scat_dispersion_imag
_atom_type_scat_source
C C 0.0033 0.0016 'International Tables Vol C Tables 4.2.6.8 and 6.1.1.4'
H H 0.0000 0.0000 'International Tables Vol C Tables 4.2.6.8 and 6.1.1.4'
N N 0.0061 0.0033 'International Tables Vol C Tables 4.2.6.8 and 6.1.1.4'
O O 0.0106 0.0060 'International Tables Vol C Tables 4.2.6.8 and 6.1.1.4'
P P 0.1023 0.0942 'International Tables Vol C Tables 4.2.6.8 and 6.1.1.4'
Ag Ag -0.8971 1.1015 'International Tables Vol C Tables 4.2.6.8 and 6.1.1.4'
loop_
_geom_angle_atom_site_label_1
_geom_angle_atom_site_label_2
_geom_angle_atom_site_label_3
_geom_angle
_geom_angle_site_symmetry_3
N1 Ag1 N1 180.0 3_755
O1 P1 O3 116.09(8) .
O1 P1 O2 113.27(7) .
O3 P1 O2 105.95(8) .
O1 P1 C2 109.10(8) .
O3 P1 C2 106.42(8) .
O2 P1 C2 105.27(8) .
P1 O2 H2 115.4(19) .
P1 O3 H3O 127.00 .
C5 N1 C1 118.19(16) .
C5 N1 Ag1 125.31(12) .
C1 N1 Ag1 116.41(12) .
N1 C1 C2 123.44(16) .
N1 C1 H1 118.3 .
C2 C1 H1 118.3 .
C1 C2 C3 117.81(16) .
C1 C2 P1 118.72(13) .
C3 C2 P1 123.46(14) .
C4 C3 C2 119.16(17) .
C4 C3 H3 120.4 .
C2 C3 H3 120.4 .
C3 C4 C5 119.06(16) .
C3 C4 H4 120.5 .
C5 C4 H4 120.5 .
N1 C5 C4 122.32(16) .
N1 C5 H5 118.8 .
C4 C5 H5 118.8 .
loop_
_geom_bond_atom_site_label_1
_geom_bond_atom_site_label_2
_geom_bond_distance
_geom_bond_site_symmetry_2
Ag1 N1 2.1219(15) .
Ag1 N1 2.1219(15) 3_755
P1 O1 1.4993(13) .
P1 O3 1.5181(14) .
P1 O2 1.5670(14) .
P1 C2 1.8032(18) .
O2 H2 0.760(19) .
O3 H3O 1.2100 .
N1 C5 1.341(2) .
N1 C1 1.348(2) .
C1 C2 1.381(2) .
C1 H1 0.9500 .
C2 C3 1.399(2) .
C3 C4 1.387(2) .
C3 H3 0.9500 .
C4 C5 1.387(3) .
C4 H4 0.9500 .
C5 H5 0.9500 .
loop_
_geom_hbond_atom_site_label_D
_geom_hbond_atom_site_label_H
_geom_hbond_atom_site_label_A
_geom_hbond_distance_DH
_geom_hbond_distance_HA
_geom_hbond_distance_DA
_geom_hbond_angle_DHA
_geom_hbond_site_symmetry_A
_geom_hbond_publ_flag
O2 H2 O1 0.760(19) 1.82(2) 2.5807(19) 177(3) 2_755 yes
C1 H1 O1 0.95 2.41 3.272(2) 150.7 2_745 yes
loop_
_geom_torsion_atom_site_label_1
_geom_torsion_atom_site_label_2
_geom_torsion_atom_site_label_3
_geom_torsion_atom_site_label_4
_geom_torsion
C5 N1 C1 C2 -1.2(3)
Ag1 N1 C1 C2 175.61(14)
N1 C1 C2 C3 0.5(3)
N1 C1 C2 P1 179.74(14)
O1 P1 C2 C1 18.76(17)
O3 P1 C2 C1 -107.20(15)
O2 P1 C2 C1 140.63(15)
O1 P1 C2 C3 -162.07(15)
O3 P1 C2 C3 71.97(17)
O2 P1 C2 C3 -40.21(17)
C1 C2 C3 C4 0.7(3)
P1 C2 C3 C4 -178.43(14)
C2 C3 C4 C5 -1.3(3)
C1 N1 C5 C4 0.5(3)
Ag1 N1 C5 C4 -175.95(14)
C3 C4 C5 N1 0.7(3)
