#------------------------------------------------------------------------------
#$Date: 2019-07-10 06:30:08 +0300 (Wed, 10 Jul 2019) $
#$Revision: 216916 $
#$URL: file:///home/coder/svn-repositories/cod/cif/7/23/30/7233042.cif $
#------------------------------------------------------------------------------
#
# This file is available in the Crystallography Open Database (COD),
# http://www.crystallography.net/
#
# All data on this site have been placed in the public domain by the
# contributors.
#
data_7233042
loop_
_publ_author_name
'Schlachter, Adrien Camille'
'Bonnot, Antoine'
'Fortin, Daniel'
'Karsenti, Paul-Ludovic'
'Knorr, Michael'
'Harvey, Pierre D.'
_publ_section_title
;
 Unusual Triplet-Triplet Annihilation in a 3D Copper Chloride Coordination
 Polymer
;
_journal_name_full               'Physical Chemistry Chemical Physics'
_journal_paper_doi               10.1039/C9CP02891A
_journal_year                    2019
_chemical_formula_moiety         'C4 H9 Cl Cu S'
_chemical_formula_sum            'C4 H9 Cl Cu S'
_chemical_formula_weight         188.16
_space_group_IT_number           14
_space_group_name_Hall           '-P 2yn'
_space_group_name_H-M_alt        'P 1 21/n 1'
_symmetry_cell_setting           monoclinic
_symmetry_Int_Tables_number      14
_symmetry_space_group_name_Hall  '-P 2yn'
_symmetry_space_group_name_H-M   'P 1 21/n 1'
_atom_sites_solution_hydrogens   geom
_audit_conform_dict_location     ftp://ftp.iucr.org/pub/cif_core.dic
_audit_conform_dict_name         cif_core.dic
_audit_conform_dict_version      2.4.3
_audit_creation_date             2018-10-30T15:07:55-00:00
_audit_creation_method           'WinGX routine CIF_UPDATE'
_audit_update_record
;
2019-05-21 deposited with the CCDC.    2019-07-09 downloaded from the CCDC.
;
_cell_angle_alpha                90
_cell_angle_beta                 109.053(3)
_cell_angle_gamma                90
_cell_formula_units_Z            4
_cell_length_a                   8.9363(13)
_cell_length_b                   6.7653(10)
_cell_length_c                   10.9019(16)
_cell_measurement_reflns_used    9112
_cell_measurement_temperature    118(2)
_cell_measurement_theta_max      26.4
_cell_measurement_theta_min      2.57
_cell_measurement_wavelength     0.71073
_cell_volume                     622.99(16)
_computing_cell_refinement       'SAINT V8.34A integration software'
_computing_data_collection       'Bruker APEX2 software'
_computing_data_reduction        'SORTAV (Blessing, 1995)'
_computing_molecular_graphics    'Ortep for Windows (Farrugia, 2012)'
_computing_publication_material  'WinGX publication routines (Farrugia, 2012)'
_computing_structure_refinement  'SHELXL-2016/6 (Sheldrick, 2016)'
_diffrn_ambient_temperature      118(2)
_diffrn_detector                 'APEX-II CCD'
_diffrn_measured_fraction_theta_full 0.997
_diffrn_measured_fraction_theta_max 0.998
_diffrn_measurement_device       '\k-geometry diffractometer'
_diffrn_measurement_device_type  'Bruker APEX-II'
_diffrn_measurement_method       '\f or \w oscillation scans'
_diffrn_orient_matrix_UB_11      0.008671
_diffrn_orient_matrix_UB_12      -0.147156
_diffrn_orient_matrix_UB_13      -0.003945
_diffrn_orient_matrix_UB_21      0.070371
_diffrn_orient_matrix_UB_22      0.014562
_diffrn_orient_matrix_UB_23      -0.054453
_diffrn_orient_matrix_UB_31      0.09486
_diffrn_orient_matrix_UB_32      0.002648
_diffrn_orient_matrix_UB_33      0.080247
_diffrn_radiation_monochromator  graphite
_diffrn_radiation_probe          x-ray
_diffrn_radiation_type           MoK\a
_diffrn_radiation_wavelength     0.71073
_diffrn_reflns_av_unetI/netI     0.0427
_diffrn_reflns_Laue_measured_fraction_full 0.997
_diffrn_reflns_Laue_measured_fraction_max 0.998
_diffrn_reflns_limit_h_max       11
_diffrn_reflns_limit_h_min       -11
_diffrn_reflns_limit_k_max       8
_diffrn_reflns_limit_k_min       -8
_diffrn_reflns_limit_l_max       13
_diffrn_reflns_limit_l_min       -13
_diffrn_reflns_number            10274
_diffrn_reflns_point_group_measured_fraction_full 0.997
_diffrn_reflns_point_group_measured_fraction_max 0.998
_diffrn_reflns_theta_full        25
_diffrn_reflns_theta_max         26.398
_diffrn_reflns_theta_min         2.571
_diffrn_source                   'sealed x-ray tube'
_diffrn_standards_number         0
_exptl_absorpt_coefficient_mu    4.136
_exptl_absorpt_correction_T_max  0.745
_exptl_absorpt_correction_T_min  0.599
_exptl_absorpt_correction_type   multi-scan
_exptl_absorpt_process_details
;
SADABS-2014/5 - Bruker AXS area detector scaling and absorption correction
;
_exptl_crystal_density_diffrn    2.006
_exptl_crystal_density_method    'not measured'
_exptl_crystal_description       Needle
_exptl_crystal_F_000             380
_exptl_crystal_size_max          0.33
_exptl_crystal_size_mid          0.1
_exptl_crystal_size_min          0.04
_refine_diff_density_max         0.794
_refine_diff_density_min         -1.281
_refine_diff_density_rms         0.135
_refine_ls_extinction_method     none
_refine_ls_goodness_of_fit_ref   1.064
_refine_ls_hydrogen_treatment    constr
_refine_ls_matrix_type           full
_refine_ls_number_constraints    0
_refine_ls_number_parameters     66
_refine_ls_number_reflns         10274
_refine_ls_number_restraints     0
_refine_ls_restrained_S_all      1.064
_refine_ls_R_factor_all          0.0388
_refine_ls_R_factor_gt           0.0326
_refine_ls_shift/su_max          0.001
_refine_ls_shift/su_mean         0
_refine_ls_structure_factor_coef Fsqd
_refine_ls_weighting_details
'w=1/[\s^2^(Fo^2^)+3.5317P] where P=(Fo^2^+2Fc^2^)/3'
_refine_ls_weighting_scheme      calc
_refine_ls_wR_factor_gt          0.0798
_refine_ls_wR_factor_ref         0.0822
_reflns_Friedel_coverage         0
_reflns_number_gt                9173
_reflns_number_total             10274
_reflns_threshold_expression     'I > 2\s(I)'
_iucr_refine_instructions_details
;
TITL mo_Harvey_AS_CP2_118K_0m in P2(1)/n
    shelx.res
    created by SHELXL-2016/6 at 15:05:14 on 30-Oct-2018
CELL  0.71073   8.9363   6.7653  10.9019   90.000  109.053   90.000
ZERR     4.00   0.0013   0.0010   0.0016    0.000    0.003    0.000
LATT   1
SYMM  1/2 - X, 1/2 + Y, 1/2 - Z
SFAC  C    H    S    CL   CU
UNIT  16 36 4 4 4
MERG   0
EQIV $2 -x+3/2, y+1/2, -z+1/2
HTAB C1 Cl1_$2
EQIV $5 -x+2, -y+1, -z+1
HTAB C4 Cl1_$5
HTAB C1 Cl1_$2
HTAB C4 Cl1_$5
FMAP   2
PLAN    2
SIZE     0.040   0.100   0.330
ACTA    50.00
BOND
CONF
L.S.  20
TEMP  -155.17
WGHT    0.000000    3.531700
BASF   0.13541
FVAR       0.69947
MOLE    1
C1    1    0.845154    0.859456    0.055218    11.00000    0.00981    0.00711 =
         0.00808    0.00350    0.00188    0.00127
AFIX  23
H1A   2    0.827899    0.745838   -0.005045    11.00000   -1.20000
H1B   2    0.759668    0.956339    0.016699    11.00000   -1.20000
AFIX   0
C2    1    1.003873    0.955605    0.065364    11.00000    0.00950    0.01018 =
         0.01068   -0.00135    0.00316   -0.00183
AFIX  23
H2A   2    1.028610    1.060578    0.132280    11.00000   -1.20000
H2B   2    1.089120    0.855342    0.091740    11.00000   -1.20000
AFIX   0
C3    1    1.010579    0.633191    0.278190    11.00000    0.00694    0.00876 =
         0.00803    0.00341   -0.00170    0.00198
AFIX  23
H3A   2    1.101193    0.725866    0.299288    11.00000   -1.20000
H3B   2    1.009370    0.572384    0.360460    11.00000   -1.20000
AFIX   0
C4    1    1.036457    0.471929    0.190587    11.00000    0.01294    0.00990 =
         0.01510    0.00163    0.00463    0.00304
AFIX 137
H4A   2    0.943567    0.385221    0.163333    11.00000   -1.50000
H4B   2    1.130202    0.394449    0.237882    11.00000   -1.50000
H4C   2    1.052322    0.531910    0.113937    11.00000   -1.50000
AFIX   0
S1    3    0.828195    0.773001    0.208513    11.00000    0.00676    0.00707 =
         0.00645    0.00023    0.00217   -0.00007
CL1   4    0.868453    0.865368    0.552128    11.00000    0.00935    0.01421 =
         0.01041    0.00338    0.00252   -0.00288
CU1   5    0.867041    1.035288    0.356140    11.00000    0.00831    0.01142 =
         0.00857   -0.00016    0.00262    0.00223
HKLF    5
 
 
 
 
REM  mo_Harvey_AS_CP2_118K_0m in P2(1)/n
REM R1 =  0.0326 for    9173 Fo > 4sig(Fo)  and  0.0388 for all   10274 data
REM     66 parameters refined using      0 restraints
 
END
 
WGHT      0.0000      3.5349
 
REM Highest difference peak  0.794,  deepest hole -1.281,  1-sigma level  0.135
Q1    1   0.9503  0.5208  0.4346  11.00000  0.05    0.79
Q2    1   0.8268  1.1248  0.1347  11.00000  0.05    0.72
;
_cod_data_source_file            c9cp02891a2.cif
_cod_data_source_block           shelx_CCDC1
_cod_original_sg_symbol_H-M      'P 21/n'
_cod_database_code               7233042
_shelx_estimated_absorpt_t_min   0.342
_shelx_estimated_absorpt_t_max   0.852
_iucr_refine_reflections_details
;
   1   0   0 0.82550 1.73308   2
   1   0   0 0.69986 1.53394   4
   1   0   0 0.11184 0.96175   6
   1   0   0 0.07021 0.85667   7
   1   0   0 0.10620 0.78304   7
  -1   0   0 1.47089 0.94646   7
  -1   0   0 2.68287 0.95888   7
  -1   0   0 1.64738 0.94832   6
   2   0   0 48.2165 4.46559   2
  -2   0   0 46.7041 3.79887   7
   2   0   0 44.3294 3.83959   6
   2   0   0 55.3603 6.01722   4
  -2   0   0 51.3464 3.97488   7
  -2   0   0 46.3153 3.46323   6
   3   0   0 -9.2452 3.96474   2
  -3   0   0 -1.4861 2.72649   7
   3   0   0 8.15265 6.07732   4
   3   0   0 -2.4916 2.61085   6
  -3   0   0 0.26151 2.88860   7
   4   0   0 5787.99 172.045   6
  -4   0   0 6043.92 172.088   7
   4   0   0 5830.72 174.209   4
   4   0   0 6160.29 173.080   2
  -4   0   0 5941.23 172.017   7
   5   0   0 5.51170 7.57607   4
   5   0   0 -1.7142 5.27203   2
   5   0   0 -1.3992 3.67280   3
  -5   0   0 -5.4902 3.60380   7
   5   0   0 -4.4896 3.38748   6
   6   0   0 2661.83 82.4458   2
   6   0   0 2706.75 84.6282   4
   6   0   0 2753.12 81.3617   3
  -6   0   0 2727.34 81.4105   7
   7   0   0 6.78416 4.92186   3
   7   0   0 -8.8370 9.09887   4
  -7   0   0 -7.2179 5.08683   7
   7   0   0 -3.8136 6.84539   2
   8   0   0 1642.88 52.4339   3
  -8   0   0 1647.16 53.0542   7
   8   0   0 1577.57 53.8829   2
   8   0   0 1692.46 58.1743   4
   9   0   0 0.84120 7.46765   4
   9   0   0 -0.9677 6.48522   6
  -9   0   0 -5.9689 8.65069   1
  -9   0   0 -1.2454 6.83706   7
   9   0   0 5.87315 8.32110   2
  10   0   0 384.180 26.6505   4
 -10   0   0 392.750 23.5627   1
 -10   0   0 337.063 20.2505   7
  10   0   0 396.620 20.5434   6
   0  -1   0 -0.6968 1.68911   7
   0  -1   0 -1.1020 1.62278   4
   0  -1   0 0.07913 2.09276   3
   0  -1   0 -4.1135 2.07629   6
   0   1   0 0.22361 1.66400   6
   0   1   0 -1.4093 2.26914   5
   0   1   0 0.72350 2.26677   7
   1  -1   0 3720.00 106.126   6
  -1  -1   0 3756.91 105.595   3
   1  -1   0 3642.00 106.788   4
   1  -1   0 3631.82 106.422   3
  -1  -1   0 3686.83 105.982   6
  -1  -1   0 3678.02 105.979   7
   1   1   0 3706.73 105.945   7
  -1   1   0 3548.91 105.711   5
   1   1   0 3737.34 106.470   5
   1   1   0 3674.70 106.045   6
  -1   1   0 3612.55 106.010   7
  -1   1   0 3698.45 106.073   6
  -2  -1   0 2272.63 66.4346   7
   2  -1   0 2261.04 66.5156   3
  -2  -1   0 2255.57 65.6530   6
   2  -1   0 2215.23 65.9408   6
   2  -1   0 2199.91 67.4503   4
  -2  -1   0 2228.22 65.7504   7
  -2   1   0 2203.13 65.5894   1
  -2   1   0 2280.62 65.6116   6
  -2   1   0 2226.49 65.2589   5
   2   1   0 2299.06 65.6047   7
   2   1   0 2286.43 65.8493   6
  -2   1   0 2231.27 65.8725   7
   2   1   0 2293.48 65.5065   4
   3  -1   0 6219.25 187.588   3
   3  -1   0 6205.61 189.066   4
   3  -1   0 6626.22 187.188   6
  -3  -1   0 6223.93 187.253   6
  -3  -1   0 6322.97 186.785   7
   3   1   0 6728.08 186.371   7
  -3   1   0 6819.30 186.418   5
  -3   1   0 6383.85 186.403   6
  -3   1   0 6544.13 187.029   1
   3   1   0 6502.40 187.265   4
   3   1   0 6598.91 187.970   6
   3   1   0 6753.05 187.517   2
   3   1   0 6233.75 186.849   6
  -3   1   0 6639.65 187.059   7
   4  -1   0 1032.26 33.0021   6
   4  -1   0 1038.36 31.2866   7
   4  -1   0 1025.61 35.8107   4
   4  -1   0 1029.21 33.4255   3
  -4  -1   0 1028.24 32.6082   7
  -4   1   0 1091.12 32.0365   5
  -4   1   0 1050.77 32.9486   7
   4   1   0 1028.93 33.8044   4
   4   1   0 1095.88 31.3478   7
  -4   1   0 1047.26 33.2254   1
   4   1   0 1052.72 33.6962   2
   4   1   0 1017.08 32.4829   6
   5  -1   0 926.100 30.2775   3
   5  -1   0 903.515 29.8790   6
   5  -1   0 923.058 34.6757   4
  -5  -1   0 882.876 29.4078   7
   5   1   0 938.165 30.9156   4
  -5   1   0 880.125 29.7618   7
   5   1   0 915.671 30.8727   2
   5   1   0 911.195 29.5181   6
  -5   1   0 898.397 30.3883   1
  -5   1   0 912.702 28.5969   5
   6  -1   0 23.4084 4.94854   3
   6  -1   0 18.7434 7.79566   4
  -6  -1   0 24.5274 5.62730   7
   6  -1   0 19.2094 5.45602   6
   6   1   0 25.7114 6.79522   2
  -6   1   0 19.8995 5.61497   7
  -6   1   0 22.3709 4.04072   5
  -6   1   0 22.8572 6.18191   1
   6   1   0 36.5242 7.99165   4
   7  -1   0 2390.52 74.7463   6
   7  -1   0 2443.57 80.4814   4
   7  -1   0 2555.32 75.8342   3
  -7  -1   0 2424.20 74.6107   7
  -7   1   0 2427.79 74.9187   7
  -7   1   0 2429.18 75.6535   1
   7   1   0 2402.42 75.6125   2
  -7   1   0 2455.47 73.0543   5
   7   1   0 2384.29 76.7235   4
   7   1   0 2462.65 73.2885   3
  -8  -1   0 227.960 14.4831   7
   8  -1   0 216.351 19.6450   4
   8  -1   0 254.945 14.6947   6
   8  -1   0 231.943 14.6847   3
  -8   1   0 218.923 15.3229   1
  -8   1   0 234.280 14.8219   7
   8   1   0 257.172 18.1150   4
   8   1   0 204.620 13.7133   2
   9  -1   0 141.508 17.8214   4
   9  -1   0 172.635 13.8515   6
  -9  -1   0 156.849 12.6330   7
   9  -1   0 149.512 13.1557   3
   9   1   0 149.101 14.9384   4
  -9   1   0 144.573 12.3363   7
   9   1   0 159.929 13.9248   2
  -9   1   0 159.058 14.4799   1
 -10  -1   0 105.664 12.0332   7
  10  -1   0 117.086 18.1069   4
  10  -1   0 118.794 12.1473   6
 -10   1   0 120.845 12.7737   7
  10   1   0 121.610 13.6609   2
  10   1   0 140.794 14.1704   4
   0  -2   0 2089.86 63.2319   3
   0  -2   0 2234.99 63.5064   6
   0  -2   0 2107.21 63.3790   7
   0  -2   0 2151.23 62.9566   4
   0   2   0 2072.98 63.4127   5
   0   2   0 2157.43 63.6980   6
   0   2   0 2163.18 63.4723   7
   1  -2   0 453.518 17.8045   4
  -1  -2   0 457.587 13.9432   4
   1  -2   0 474.028 16.5274   6
   1  -2   0 478.424 17.0536   3
   1  -2   0 457.590 16.0243   7
  -1  -2   0 462.739 15.5424   3
  -1  -2   0 450.846 16.7807   7
  -1  -2   0 465.752 16.3390   6
   1   2   0 467.851 15.7426   7
  -1   2   0 463.538 15.9588   7
  -1   2   0 495.581 16.8076   6
  -1   2   0 456.399 15.9697   5
   1   2   0 459.979 16.7513   6
   1   2   0 460.667 16.3971   5
   2  -2   0 844.405 27.6371   3
   2  -2   0 832.828 26.5634   7
  -2  -2   0 847.206 26.4454   6
   2  -2   0 828.784 26.8567   6
   2  -2   0 814.377 28.2390   4
  -2  -2   0 846.261 25.5086   3
  -2  -2   0 839.287 26.9097   7
  -2   2   0 837.775 26.6919   6
  -2   2   0 800.875 25.6609   5
  -2   2   0 807.833 26.7278   7
   2   2   0 831.955 26.3241   7
   2   2   0 845.770 26.9040   6
  -3  -2   0 17.1281 4.67081   7
   3  -2   0 4.49936 3.61463   7
  -3   2   0 12.1401 2.82878   5
   3   2   0 11.4046 2.20699   4
   3   2   0 12.8076 4.28034   6
  -3   2   0 9.63254 3.67425   6
   4  -2   0 438.634 15.4081   7
   4  -2   0 397.990 17.1677   3
  -4  -2   0 436.647 16.8876   7
   4  -2   0 425.737 19.9734   4
  -4   2   0 427.814 15.5544   6
   4   2   0 483.209 16.7409   2
   4   2   0 426.338 15.6170   4
   4   2   0 486.661 17.0931   6
   4   2   0 509.627 15.7846   7
  -4   2   0 415.036 14.9043   5
   5  -2   0 123.004 12.0062   4
  -5  -2   0 106.711 9.37645   7
   5  -2   0 100.390 5.94105   7
   5  -2   0 101.441 8.45668   3
   5  -2   0 100.826 8.18239   6
   5   2   0 95.8465 5.99829   7
   5   2   0 109.399 8.87561   6
   5   2   0 115.681 8.12579   4
   5   2   0 110.509 8.34630   2
  -5   2   0 111.668 9.25786   7
  -5   2   0 109.035 6.68915   5
  -6  -2   0 14.4557 6.24309   7
   6  -2   0 17.6485 5.91194   6
   6  -2   0 21.7917 8.85521   4
   6  -2   0 11.8060 7.03938   3
   6   2   0 18.2130 5.65152   4
  -6   2   0 17.9468 5.98899   7
   6   2   0 19.9993 5.89346   6
   6   2   0 20.3169 6.99701   2
  -6   2   0 22.2554 3.42532   5
   7  -2   0 68.3121 9.23460   3
   7  -2   0 69.8147 14.6201   4
   7  -2   0 63.7646 8.35024   6
  -7  -2   0 73.7336 7.68761   7
  -7   2   0 72.9249 6.52672   5
   7   2   0 54.8096 7.37980   2
  -7   2   0 78.6005 7.55270   1
  -7   2   0 66.0946 8.58115   7
   7   2   0 70.4846 8.59424   4
   8  -2   0 1314.83 45.8306   3
  -8  -2   0 1333.74 45.0953   7
   8  -2   0 1367.29 52.7936   4
   8  -2   0 1343.19 45.5730   6
  -8   2   0 1331.17 45.3536   7
   8   2   0 1305.45 45.9005   2
   8   2   0 1339.47 45.6797   4
   9  -2   0 20.1595 7.91441   6
   9  -2   0 15.5297 8.14129   3
  -9  -2   0 13.2587 7.85656   7
   9  -2   0 15.5989 10.1312   4
   9   2   0 21.3720 8.61675   2
  -9   2   0 17.8023 8.37335   7
 -10  -2   0 60.8191 10.5739   7
  10  -2   0 90.8505 11.7863   3
 -10   2   0 63.1875 10.8445   7
  10   2   0 64.7340 9.14015   2
   0  -3   0 5.63832 3.49126   4
   0  -3   0 2.83427 3.12163   3
   0  -3   0 1.55770 4.47056   6
   0  -3   0 -5.0321 5.30103   7
   0   3   0 -2.3258 4.72250   5
   0   3   0 -2.7128 4.90807   6
   0   3   0 -4.6397 3.16916   7
   1  -3   0 95.0031 8.45201   6
  -1  -3   0 101.394 8.14743   6
  -1  -3   0 90.6580 7.11838   3
   1  -3   0 93.6315 7.65186   4
   1  -3   0 94.6691 7.32641   3
  -1  -3   0 99.3105 7.97752   7
   1  -3   0 88.9576 7.61801   7
  -1  -3   0 95.6905 4.96193   4
   1   3   0 86.9389 7.42149   5
  -1   3   0 95.4388 7.05014   7
   1   3   0 93.2683 6.79350   7
  -1   3   0 85.5454 7.67101   5
  -1   3   0 101.809 7.38847   6
   1   3   0 90.0736 7.63432   6
   2  -3   0 1131.49 36.1002   6
   2  -3   0 1094.99 37.0202   4
   2  -3   0 1119.39 36.3124   3
  -2  -3   0 1110.07 35.5962   7
  -2  -3   0 1129.72 34.5063   3
  -2  -3   0 1136.59 35.5294   6
   2  -3   0 1106.79 35.7035   7
  -2   3   0 1111.19 35.4991   6
  -2   3   0 1084.76 35.8475   7
   2   3   0 1110.55 35.7541   6
  -2   3   0 1113.79 35.0738   5
   2   3   0 1082.23 35.3360   7
   3  -3   0 25.1096 4.23790   7
   3  -3   0 27.2469 4.45642   6
   3  -3   0 31.5278 7.03663   4
  -3  -3   0 19.0832 4.74811   7
  -3  -3   0 28.8178 3.67291   3
  -3   3   0 21.7205 4.15856   6
   3   3   0 20.5850 4.58731   6
  -3   3   0 24.8536 4.19008   5
  -4  -3   0 402.087 15.5266   6
   4  -3   0 403.600 15.7685   7
   4  -3   0 391.419 17.4748   3
   4  -3   0 395.144 16.3703   6
   4  -3   0 386.580 22.4555   4
  -4  -3   0 422.723 17.5367   7
  -4   3   0 401.418 14.7739   5
  -4   3   0 397.858 15.8717   6
  -4   3   0 403.422 16.2761   7
   4   3   0 385.860 17.1467   6
   4   3   0 411.141 15.5846   7
   5  -3   0 50.4527 9.93221   4
   5  -3   0 46.0204 7.35367   3
  -5  -3   0 63.1471 8.25138   7
   5  -3   0 67.2079 6.02746   7
   5  -3   0 67.8449 7.95519   6
   5   3   0 54.2281 7.77919   6
  -5   3   0 69.0638 5.82731   5
  -5   3   0 47.8930 5.57222   6
   5   3   0 67.1167 7.90804   2
  -5   3   0 64.0903 7.85861   7
   5   3   0 59.3144 4.94265   4
   5   3   0 69.7784 6.57836   7
   6  -3   0 63.8440 10.0249   3
   6  -3   0 68.8456 12.0517   4
   6  -3   0 67.1809 8.56390   6
  -6  -3   0 74.7235 7.54885   7
   6   3   0 60.1798 8.53351   2
  -6   3   0 75.3668 5.88201   5
   6   3   0 69.0869 8.41025   6
  -6   3   0 67.6011 8.66949   7
   6   3   0 66.9461 6.46144   4
   7  -3   0 333.070 22.5343   4
   7  -3   0 340.348 17.9476   6
  -7  -3   0 311.569 17.7219   7
   7  -3   0 365.130 18.3068   3
   7   3   0 329.509 18.0866   2
  -7   3   0 371.763 18.2159   7
   7   3   0 345.429 17.8299   6
  -8  -3   0 127.891 12.2263   7
   8  -3   0 128.874 11.8854   6
   8  -3   0 133.689 16.1421   4
   8  -3   0 130.057 13.6695   3
  -8   3   0 134.520 11.2120   7
   8   3   0 136.888 12.2306   2
   9  -3   0 232.380 16.1980   3
   9  -3   0 225.543 16.7726   6
  -9  -3   0 211.729 14.6084   7
   9  -3   0 255.223 24.8708   4
  -9   3   0 212.330 14.7677   7
   9   3   0 211.240 16.0748   2
   0  -4   0 606.196 21.6883   4
   0  -4   0 639.364 23.9784   7
   0  -4   0 647.822 23.5736   6
   0  -4   0 617.633 23.0871   3
   0   4   0 629.033 23.6432   5
   0   4   0 603.432 22.5101   7
   0   4   0 603.243 22.8896   6
  -1  -4   0 1976.76 60.7950   3
   1  -4   0 1998.14 61.6126   6
   1  -4   0 1977.66 61.8995   3
   1  -4   0 1979.71 61.6486   7
  -1  -4   0 2003.61 61.5401   6
  -1  -4   0 1970.84 61.8334   7
  -1  -4   0 1960.95 58.7007   4
   1  -4   0 2007.11 61.6727   4
  -1   4   0 1979.31 61.1844   5
   1   4   0 1920.90 61.1409   7
  -1   4   0 1999.19 61.5430   6
   1   4   0 1988.03 62.0514   6
   1   4   0 1935.96 61.8362   5
  -1   4   0 2009.57 61.6785   7
  -2  -4   0 89.2078 7.85061   3
  -2  -4   0 96.9438 9.61850   7
  -2  -4   0 106.952 8.66169   6
   2  -4   0 94.0126 9.55086   3
   2  -4   0 92.5698 7.79282   7
   2  -4   0 101.968 10.5512   4
   2  -4   0 96.4421 8.95150   6
   2   4   0 93.5100 9.46874   6
  -2   4   0 105.011 9.21201   6
  -2   4   0 102.091 9.23416   7
   2   4   0 88.7488 7.37953   7
  -2   4   0 105.325 7.65391   5
   3  -4   0 657.792 26.8491   3
   3  -4   0 703.163 26.0065   6
  -3  -4   0 685.449 23.1647   3
   3  -4   0 678.108 27.3996   4
   3  -4   0 635.686 24.9208   7
  -3  -4   0 700.346 25.3071   7
  -3  -4   0 659.182 23.9362   6
   3   4   0 696.679 26.1930   6
  -3   4   0 671.063 25.7029   7
  -3   4   0 693.601 25.3204   6
   3   4   0 666.993 24.4983   7
  -3   4   0 685.979 24.1709   5
   4  -4   0 87.2122 11.1061   4
   4  -4   0 149.778 11.9771   6
  -4  -4   0 118.727 10.5782   7
   4  -4   0 125.048 11.8644   3
   4  -4   0 76.4127 7.27705   7
   4   4   0 96.7030 9.93814   6
  -4   4   0 98.7675 9.49500   7
   4   4   0 123.638 9.76870   7
  -4   4   0 83.2330 7.44830   6
  -4   4   0 82.7413 7.29447   5
   5  -4   0 1239.28 42.6792   6
  -5  -4   0 1298.97 42.7335   7
   5  -4   0 1178.85 47.4379   4
   5  -4   0 1225.19 46.8526   7
   5  -4   0 1245.64 44.4896   3
  -5   4   0 1246.55 42.5533   7
  -5   4   0 1228.11 39.5306   5
   5   4   0 1273.35 42.7126   6
   6  -4   0 193.180 16.4783   3
  -6  -4   0 169.284 14.3691   7
   6  -4   0 152.740 17.7002   4
   6  -4   0 120.423 10.6593   6
   6   4   0 161.035 13.6800   6
  -6   4   0 126.151 9.76224   5
  -6   4   0 132.979 12.1334   7
   6   4   0 143.521 10.7293   2
  -7  -4   0 61.2459 10.1476   7
   7  -4   0 71.8205 13.1214   4
   7  -4   0 53.8292 9.59350   6
   7  -4   0 49.7815 9.24811   3
  -7   4   0 80.1281 10.4989   7
   7   4   0 57.2328 7.59171   2
   7   4   0 90.4321 10.4462   6
  -8  -4   0 67.9487 11.3629   7
   8  -4   0 107.138 14.0595   3
   8  -4   0 94.7355 14.8458   4
   8  -4   0 83.3654 9.93161   6
  -8   4   0 93.9132 11.7943   7
   8   4   0 92.7959 11.5842   6
   8   4   0 88.8923 11.1149   2
   9  -4   0 447.724 25.9950   3
  -9  -4   0 435.001 24.0404   7
   9  -4   0 413.398 29.3688   4
   9  -4   0 435.516 23.5721   6
   9   4   0 384.674 20.5501   2
  -9   4   0 449.530 23.9067   7
   0  -5   0 -4.2176 4.44651   4
   0  -5   0 -4.1637 5.45429   7
   0  -5   0 1.91521 6.46109   3
   0  -5   0 -0.1248 4.56428   6
   0   5   0 5.17438 7.68110   6
   0   5   0 -0.7174 5.08037   5
   0   5   0 -2.5615 6.79618   7
   1  -5   0 124.325 11.6590   7
   1  -5   0 133.437 12.3038   4
  -1  -5   0 142.192 7.60728   4
  -1  -5   0 125.367 10.6827   7
  -1  -5   0 133.186 10.2912   6
   1  -5   0 132.515 10.6918   3
   1  -5   0 162.791 11.3087   6
  -1  -5   0 137.825 11.2218   3
   1   5   0 152.302 11.9063   5
  -1   5   0 142.829 11.3005   6
   1   5   0 134.887 11.5950   6
  -1   5   0 149.798 12.7737   5
   1   5   0 138.874 12.3655   7
  -1   5   0 158.539 11.2296   7
   2  -5   0 1709.11 56.0407   4
   2  -5   0 1675.46 55.8301   3
   2  -5   0 1661.61 54.8345   7
  -2  -5   0 1725.83 56.3728   7
  -2  -5   0 1739.44 54.1469   3
  -2  -5   0 1707.03 54.8883   6
   2  -5   0 1706.29 55.6404   6
  -2   5   0 1700.26 55.7703   6
   2   5   0 1747.89 55.2183   7
  -2   5   0 1637.61 55.6279   7
  -2   5   0 1767.30 54.9419   5
   2   5   0 1761.27 56.5669   6
   3  -5   0 251.222 17.7145   3
   3  -5   0 273.793 16.2715   7
  -3  -5   0 281.844 13.3568   3
  -3  -5   0 257.900 15.0139   6
  -3  -5   0 280.260 17.9927   7
   3  -5   0 266.376 19.7489   4
   3  -5   0 263.972 16.7924   6
  -3   5   0 248.398 14.7167   7
  -3   5   0 267.021 16.1840   6
   3   5   0 313.320 17.8578   6
  -3   5   0 291.852 15.2496   5
   3   5   0 265.076 13.8115   7
  -5  -5   0 29.8863 7.41437   7
   5  -5   0 32.7241 13.0353   4
   5  -5   0 30.7173 8.80315   6
   5  -5   0 38.4679 10.6975   3
  -5   5   0 42.3041 6.60751   5
   5   5   0 28.9101 7.37673   6
  -5   5   0 50.3201 9.41854   7
   6  -5   0 2018.16 72.7836   4
  -6  -5   0 2101.39 66.9823   7
   6  -5   0 2009.78 66.4946   6
   6  -5   0 2037.11 68.9899   3
   6   5   0 1987.09 66.7014   6
  -6   5   0 2004.76 66.0245   7
   6   5   0 2048.18 65.7399   2
   7  -5   0 101.430 12.5072   6
   7  -5   0 114.584 18.6851   4
   7  -5   0 97.5915 12.1543   3
  -7  -5   0 105.551 12.9777   7
  -7   5   0 101.080 12.6405   7
   7   5   0 108.052 12.0638   2
   7   5   0 112.397 12.5386   6
   8  -5   0 -0.3285 11.3492   4
   8  -5   0 20.9676 9.98109   6
   8  -5   0 24.8060 11.5273   3
  -8  -5   0 11.2464 7.70405   7
  -8   5   0 16.5623 10.0074   7
   8   5   0 13.7382 7.22313   6
   8   5   0 16.0850 6.92464   2
   0  -6   0 36.5933 7.03411   6
   0  -6   0 47.1193 6.74321   4
   0  -6   0 56.2862 10.6740   7
   0  -6   0 56.8888 7.87190   3
   0   6   0 44.0118 10.1237   5
   0   6   0 32.4023 10.0495   6
   0   6   0 64.8558 9.75358   7
   1  -6   0 712.155 28.0347   4
  -1  -6   0 735.985 30.4672   7
   1  -6   0 711.302 29.6460   6
   1  -6   0 725.349 29.9837   7
  -1  -6   0 705.064 27.9879   6
  -1  -6   0 735.942 27.3537   3
   1  -6   0 685.589 28.1041   3
   1   6   0 730.290 30.4974   6
  -1   6   0 700.842 29.9116   6
  -1   6   0 742.669 29.7304   5
  -1   6   0 720.694 29.6917   7
   1   6   0 688.191 28.7560   7
  -2  -6   0 42.4962 7.77276   3
   2  -6   0 41.8250 9.68932   4
   2  -6   0 38.7442 7.86015   3
  -2  -6   0 39.5244 8.66770   6
   2  -6   0 24.5050 7.05715   6
  -2  -6   0 32.6006 8.12376   7
   2  -6   0 33.8916 7.61469   7
  -2   6   0 30.4889 8.39054   5
   2   6   0 42.2556 9.17278   7
   2   6   0 35.3151 10.3497   6
  -2   6   0 42.1706 9.69828   7
  -2   6   0 37.2815 9.60092   6
   3  -6   0 986.671 36.4197   7
  -3  -6   0 990.872 37.9490   7
  -3  -6   0 905.772 38.5696   6
   3  -6   0 979.797 38.9425   4
  -3  -6   0 1017.94 34.3263   3
   3  -6   0 962.046 36.9276   3
   3  -6   0 938.547 37.2834   6
   3   6   0 965.462 37.7583   6
  -3   6   0 958.079 36.5604   6
  -3   6   0 984.258 37.2307   7
   3   6   0 954.534 35.6302   7
  -3   6   0 1028.52 35.9827   5
   4  -6   0 53.7316 11.7430   3
  -4  -6   0 62.8951 7.42007   3
  -4  -6   0 63.2810 11.7469   7
   4  -6   0 75.1914 11.4815   6
   4  -6   0 62.9802 13.1895   4
  -4   6   0 67.6772 9.53811   7
  -4   6   0 66.0853 9.15252   5
   4   6   0 57.3159 9.13286   6
  -5  -6   0 559.867 27.2629   7
   5  -6   0 575.272 32.0033   4
   5  -6   0 586.084 26.8916   3
   5  -6   0 585.697 27.2826   6
   5   6   0 521.745 25.1399   6
  -5   6   0 542.805 23.1706   5
  -5   6   0 549.227 25.0896   7
  -6  -6   0 21.1755 10.7299   7
   6  -6   0 19.3088 13.9038   4
   6  -6   0 19.5997 11.8131   3
   6  -6   0 20.8905 9.77008   6
   6   6   0 27.7906 10.7533   6
  -6   6   0 35.0707 10.7646   7
   7  -6   0 393.109 23.0469   3
   7  -6   0 322.798 20.3482   6
  -7  -6   0 344.882 20.5487   7
   7  -6   0 360.585 26.8091   4
   7   6   0 369.962 21.4446   2
  -7   6   0 377.156 20.9909   7
   7   6   0 346.555 20.6367   6
   0  -7   0 -5.5975 5.47256   3
   0  -7   0 -8.3746 9.89472   7
   0  -7   0 2.83047 8.66074   6
   0   7   0 0.09284 7.02601   6
   0   7   0 -1.4462 6.20366   7
  -1  -7   0 6.82135 6.19693   6
   1  -7   0 -6.0928 6.54689   4
  -1  -7   0 10.1169 8.14333   3
   1  -7   0 -1.4372 6.39170   3
  -1  -7   0 -16.723 10.0029   7
   1  -7   0 2.24402 9.05057   6
   1  -7   0 8.76316 7.46032   7
   1   7   0 -8.3817 6.52136   6
   1   7   0 42.1602 10.5208   7
  -1   7   0 9.42833 9.76519   6
  -1   7   0 -6.5234 6.31969   7
  -1   7   0 3.07938 9.25525   5
   2  -7   0 1405.28 49.2232   4
   2  -7   0 1315.72 49.9966   3
  -2  -7   0 1368.11 52.2557   6
  -2  -7   0 1368.56 46.8818   3
  -2  -7   0 1419.19 50.5564   7
   2  -7   0 1374.13 50.3052   6
   2  -7   0 1342.77 48.3099   7
  -2   7   0 1362.81 48.7479   7
  -2   7   0 1290.11 49.4489   6
   2   7   0 1374.54 49.3719   6
   2   7   0 1447.15 49.1788   7
  -2   7   0 1409.77 49.4086   5
   3  -7   0 103.770 12.0985   3
  -3  -7   0 140.945 15.4679   7
   3  -7   0 103.525 13.5571   6
   3  -7   0 128.762 13.6899   7
   3   7   0 116.170 14.2931   6
  -3   7   0 114.102 13.7302   7
  -3   7   0 108.980 12.6171   5
   4  -7   0 251.386 17.7207   6
  -4  -7   0 278.258 21.5730   7
   4  -7   0 261.154 21.4285   3
   4  -7   0 277.693 23.0686   4
   4   7   0 244.148 17.8431   6
  -4   7   0 259.751 20.6839   7
  -4   7   0 230.064 15.1529   5
  -5  -7   0 243.161 18.5174   7
   5  -7   0 283.566 25.1175   4
   5  -7   0 275.533 19.5254   3
   5  -7   0 284.373 21.2806   6
  -5   7   0 289.761 21.5753   7
   5   7   0 255.526 18.6493   6
   0  -8   0 258.401 20.6794   6
   0  -8   0 245.105 16.6806   3
   0  -8   0 220.806 19.2263   7
   0   8   0 224.417 17.4736   7
   0   8   0 227.440 18.0808   6
  -1  -8   0 466.335 25.6499   7
   1  -8   0 498.084 27.8223   6
   1  -8   0 497.464 25.0918   3
   1  -8   0 498.440 25.4898   7
  -1  -8   0 480.364 25.2043   3
  -1   8   0 558.777 28.8841   6
  -1   8   0 482.575 25.1385   7
   1   8   0 454.078 24.3983   7
   1   8   0 654.998 30.6378   6
   2  -8   0 18.8609 8.46556   7
   2  -8   0 26.4077 11.2364   6
   2  -8   0 8.93553 11.1153   3
  -2  -8   0 7.38572 8.74334   7
  -2  -8   0 4.06164 8.53542   3
   2   8   0 19.7322 12.2958   6
  -2   8   0 -1.8550 10.8818   7
  -3  -8   0 89.7081 10.1362   3
   3  -8   0 106.130 15.5066   3
   3  -8   0 69.4449 10.9622   4
   3  -8   0 94.7268 12.4998   6
  -3  -8   0 95.2102 13.1547   7
   3   8   0 126.944 16.3531   6
  -3   8   0 117.577 15.3444   7
 -10   0   1 -15.316 9.11423   1
  10   0  -1 -9.8670 8.68078   2
 -10   0   1 -0.9265 8.15016   7
  10   0  -1 12.6538 12.3678   4
  10   0  -1 6.01035 8.10639   6
   9   0  -1 594.797 28.2373   2
  -9   0   1 618.670 26.6182   7
   9   0  -1 647.021 25.4417   3
   9   0  -1 619.281 32.2432   4
   9   0  -1 615.298 26.3658   6
  -9   0   1 631.067 29.3873   1
   8   0  -1 0.31307 5.44958   2
   8   0  -1 3.77977 10.6504   4
  -8   0   1 -0.6518 6.08339   1
  -8   0   1 -6.2055 6.35558   7
   8   0  -1 -3.8840 5.69820   3
  -7   0   1 1019.73 35.7077   7
   7   0  -1 991.455 37.1548   2
  -7   0   1 1059.00 38.5783   1
   7   0  -1 1110.60 40.9319   4
   7   0  -1 1037.57 35.5345   3
   6   0  -1 5.09583 6.96900   4
  -6   0   1 -4.0085 5.22851   7
   6   0  -1 4.70925 4.71569   2
   5   0  -1 9108.48 276.231   2
   5   0  -1 9999.99 278.467   4
  -5   0   1 9528.61 275.718   7
  -4   0   1 1.32163 3.11573   6
  -4   0   1 -6.4690 3.78641   7
   4   0  -1 4.04381 3.42244   7
   4   0  -1 -7.4378 4.61595   2
   4   0  -1 -3.0348 5.25196   4
  -3   0   1 1620.35 49.4084   7
   3   0  -1 1655.62 51.1565   4
   3   0  -1 1674.06 49.2309   7
   3   0  -1 1625.22 49.8538   2
  -3   0   1 1647.72 49.2527   6
   2   0  -1 4.23356 2.53042   7
  -2   0   1 8.68837 3.28159   6
   2   0  -1 -0.8032 3.62342   2
  -2   0   1 0.82661 3.13552   7
  -1   0   1 8120.31 237.731   1
  -1   0   1 8329.59 234.841   6
  -1   0   1 8214.63 237.139   7
   1   0  -1 8302.31 236.883   2
   1   0  -1 8022.38 237.113   7
   0   0  -1 1.23633 0.69721   7
   0   0   1 -0.6531 0.67256   6
   0   0   1 -0.9309 0.52406   7
   0   0   1 0.13192 0.69395   6
   0   0   1 0.28547 0.52827   7
   0   0  -1 0.40094 0.73830   7
   0   0   1 -0.5664 1.81656   4
   0   0   1 -0.2799 1.34775   5
   0   0  -1 -0.2421 0.49986   6
   1   0   1 1318.41 39.6171   4
   1   0   1 1317.87 38.5250   5
   1   0   1 1333.16 38.6838   3
   1   0   1 1353.12 38.6313   2
   2   0   1 -3.9794 2.61300   2
   2   0   1 -0.9285 1.99459   3
   2   0   1 -5.1197 3.15711   4
   3   0   1 3020.32 86.8425   6
   3   0   1 3014.02 89.6698   4
   3   0   1 3072.78 88.1628   2
   3   0   1 3026.11 87.5634   3
   3   0   1 2959.94 86.7977   6
  -3   0  -1 2983.93 86.7086   7
  -3   0  -1 2999.58 86.6970   7
   4   0   1 3.98037 4.36564   4
  -4   0  -1 -1.6537 2.14121   7
   4   0   1 2.52328 2.70232   3
  -4   0  -1 -0.7928 2.16261   7
   4   0   1 -1.9468 2.05508   6
   4   0   1 5.05768 2.99055   2
  -5   0  -1 196.619 9.01416   7
   5   0   1 198.424 14.3629   4
   5   0   1 201.263 8.96198   6
  -5   0  -1 203.288 9.70465   7
   5   0   1 200.710 10.3268   2
   5   0   1 221.364 9.58601   3
   6   0   1 5.52464 3.73396   6
   6   0   1 -4.2523 5.59420   2
  -6   0  -1 1.45536 3.84527   7
  -6   0  -1 3.13053 5.13035   7
   6   0   1 -0.5549 3.60202   3
   6   0   1 -2.3491 5.58946   4
   7   0   1 622.267 25.7372   2
   7   0   1 665.673 23.5244   3
   7   0   1 659.734 27.8251   4
  -7   0  -1 696.919 24.0718   7
  -8   0  -1 -0.9323 5.40400   7
   8   0   1 -2.5453 4.96985   2
   8   0   1 -2.4069 4.15769   3
   8   0   1 9.34482 7.22281   4
  -9   0  -1 65.1981 9.80235   7
   9   0   1 71.4340 8.85057   6
   9   0   1 53.4644 12.5824   4
  -9   0  -1 63.8035 11.0041   1
 -10   0  -1 0.20413 7.41147   7
  10   0   1 -0.7966 7.21377   6
  10   0   1 12.0134 11.7236   4
  10  -1  -1 14.6268 10.3915   4
  10  -1  -1 3.28891 8.18463   6
  10  -1  -1 -5.1796 7.20922   3
 -10  -1   1 2.80816 7.91954   1
 -10  -1   1 10.7511 8.90969   7
  10   1  -1 -1.0548 8.99294   2
 -10   1   1 -3.2248 8.50787   7
  10   1  -1 6.84038 10.4677   4
   9  -1  -1 458.783 20.6319   3
   9  -1  -1 423.916 25.6883   4
   9  -1  -1 457.976 22.0407   6
  -9  -1   1 432.604 21.9332   7
  -9   1   1 424.061 21.9782   7
   9   1  -1 442.519 23.6411   2
  -9   1   1 423.385 22.1093   1
   9   1  -1 502.824 25.6523   4
   8  -1  -1 1835.89 58.4072   6
  -8  -1   1 1787.15 58.4186   7
   8  -1  -1 1809.04 60.0037   2
   8  -1  -1 1766.98 58.8529   3
   8  -1  -1 1849.91 64.9924   4
   8   1  -1 1826.04 59.6934   2
  -8   1   1 1821.47 59.3572   1
  -8   1   1 1804.71 58.6162   7
   8   1  -1 1776.02 61.0091   4
  -8   1   1 1802.46 56.5718   5
   7  -1  -1 122.870 16.0167   4
   7  -1  -1 105.032 9.50264   2
   7  -1  -1 107.001 9.80634   6
  -7  -1   1 96.7892 9.43078   7
   7  -1  -1 98.3643 9.00261   3
   7   1  -1 102.396 12.0818   4
  -7   1   1 93.0204 9.40571   7
  -7   1   1 87.8440 9.85359   1
  -7   1   1 100.644 8.98592   5
   7   1  -1 97.5425 9.22692   2
  -6  -1   1 389.099 17.0471   7
   6  -1  -1 401.620 17.2160   6
   6  -1  -1 414.438 16.9957   3
   6  -1  -1 364.458 23.7646   4
   6  -1  -1 396.565 17.2382   2
   6   1  -1 370.443 18.1547   2
   6   1  -1 423.549 20.0726   4
  -6   1   1 376.914 17.2202   7
   6   1  -1 387.610 14.1648   7
  -6   1   1 376.403 15.5324   5
  -6   1   1 383.786 18.0911   1
  -5  -1   1 640.639 23.0317   6
   5  -1  -1 670.584 24.1312   6
  -5  -1   1 747.890 24.5438   7
   5  -1  -1 733.406 25.5156   3
   5  -1  -1 730.331 25.8012   2
   5  -1  -1 777.902 30.2669   4
  -5   1   1 706.816 23.7114   5
   5   1  -1 690.547 25.3988   2
  -5   1   1 763.441 25.6238   1
  -5   1   1 593.791 22.7402   6
  -5   1   1 690.110 24.6782   7
   5   1  -1 723.719 23.4662   7
   5   1  -1 701.344 26.2652   4
  -4  -1   1 3986.78 113.112   6
  -4  -1   1 3580.01 113.031   7
   4  -1  -1 3976.55 114.090   2
   4  -1  -1 3902.71 113.616   6
   4  -1  -1 4056.10 116.789   4
   4   1  -1 4067.92 112.903   7
  -4   1   1 3837.32 113.520   7
  -4   1   1 3632.15 112.759   6
  -4   1   1 3846.81 113.736   1
   4   1  -1 3596.84 113.525   2
   4   1  -1 3994.76 114.393   4
  -4   1   1 3927.75 113.007   5
  -3  -1   1 372.820 14.0080   7
   3  -1  -1 370.842 19.0172   4
   3  -1  -1 367.363 14.5902   2
   3  -1  -1 364.215 13.9835   6
  -3  -1   1 367.003 13.0543   6
  -3   1   1 341.859 13.1341   5
  -3   1   1 353.840 13.5177   6
   3   1  -1 365.257 15.3273   4
   3   1  -1 364.782 13.7587   6
   3   1  -1 382.261 14.3911   2
   3   1  -1 368.474 13.6761   7
  -3   1   1 335.431 14.1531   1
  -3   1   1 346.584 13.9106   7
   2  -1  -1 2193.61 63.2737   6
  -2  -1   1 2125.67 63.0396   6
   2  -1  -1 2108.84 64.7069   4
  -2  -1   1 2147.50 63.0808   7
  -2   1   1 2111.85 62.9966   7
  -2   1   1 2136.58 62.8432   5
  -2   1   1 2135.39 63.1446   6
   2   1  -1 2131.61 62.9923   7
   2   1  -1 2155.83 63.1551   6
  -1  -1   1 411.189 13.4646   3
  -1  -1   1 392.784 13.3351   7
  -1  -1   1 397.352 13.3356   6
   1  -1  -1 406.688 13.3974   6
  -1   1   1 403.172 13.7973   6
  -1   1   1 392.641 13.2957   5
   1   1  -1 389.512 13.6038   7
  -1   1   1 399.867 13.3139   7
   1   1  -1 396.235 13.6729   6
   0  -1  -1 2345.28 67.3975   6
   0  -1   1 2381.99 67.5156   6
   0  -1   1 2254.96 67.3413   7
   0  -1   1 2304.68 67.8050   4
   0  -1   1 2299.51 67.6615   3
   0   1   1 2329.72 67.7943   5
   0   1   1 2314.12 67.5091   6
   0   1   1 2376.70 67.3654   7
   0   1  -1 2335.47 67.4275   7
   0   1  -1 2278.37 67.4398   6
   1  -1   1 66.2350 5.94092   3
  -1  -1  -1 67.1913 3.99362   6
   1  -1   1 69.4736 3.93005   7
   1  -1   1 69.9825 4.33327   6
   1  -1   1 65.3821 6.07711   4
  -1  -1  -1 75.8090 2.95507   3
  -1  -1  -1 75.8069 4.14100   7
   1  -1   1 72.3050 4.51967   6
   1   1   1 74.3584 4.40167   6
  -1   1  -1 74.1724 4.38763   7
   1   1   1 68.7456 3.59003   7
   1   1   1 70.3420 4.21834   6
   1   1   1 64.4820 3.94340   4
  -1   1  -1 75.0412 4.25506   7
   1   1   1 67.0338 5.88976   5
  -1   1  -1 74.4085 3.92515   6
  -2  -1  -1 4107.50 116.116   7
   2  -1   1 4024.68 117.272   3
   2  -1   1 4094.73 116.251   6
   2  -1   1 3862.92 118.379   4
  -2  -1  -1 3957.63 116.076   7
   2  -1   1 4015.07 116.308   6
  -2   1  -1 4073.47 115.949   1
   2   1   1 4048.60 116.690   4
  -2   1  -1 3994.85 116.212   7
   2   1   1 4167.91 116.567   2
  -2   1  -1 4071.32 116.175   7
   2   1   1 3918.85 117.038   5
   2   1   1 4144.08 116.212   6
   2   1   1 3910.19 116.155   6
  -2   1  -1 4091.47 115.893   5
   3  -1   1 -4.6486 3.67305   3
   3  -1   1 -4.5457 4.26108   4
   3  -1   1 -1.1878 2.29029   6
   3  -1   1 -1.4902 2.21482   6
  -3  -1  -1 -4.3958 2.49257   7
  -3  -1  -1 -4.5662 2.18184   7
  -3   1  -1 -1.4730 2.83369   7
   3   1   1 -3.5156 2.12295   6
   3   1   1 -2.1837 1.29846   3
   3   1   1 -0.3868 3.42062   4
   3   1   1 -1.6575 2.10265   6
   3   1   1 -0.9078 3.36049   2
  -3   1  -1 0.85986 1.25850   5
  -3   1  -1 2.08677 2.36007   1
   4  -1   1 1918.22 57.6465   6
   4  -1   1 1979.73 61.2648   4
   4  -1   1 2001.90 57.5620   6
   4  -1   1 1978.42 58.8539   3
  -4  -1  -1 1864.26 57.2700   7
  -4  -1  -1 1930.78 57.3246   7
   4   1   1 1936.35 57.4937   6
  -4   1  -1 1858.49 57.7616   1
   4   1   1 1887.58 58.2764   2
  -4   1  -1 1889.04 57.5091   7
   4   1   1 1943.13 57.3790   6
  -4   1  -1 1977.27 56.3835   5
   4   1   1 1992.46 56.5085   3
   4   1   1 1919.13 59.1465   4
  -5  -1  -1 595.812 20.2403   7
   5  -1   1 626.963 20.7713   6
  -5  -1  -1 595.079 20.2133   7
   5  -1   1 599.686 20.5408   6
   5  -1   1 622.793 21.4349   3
   5  -1   1 585.567 26.2372   4
   5   1   1 604.369 20.4398   6
   5   1   1 592.066 21.8941   2
   5   1   1 623.664 19.2294   3
  -5   1  -1 590.980 20.2803   7
   5   1   1 600.479 20.3073   6
   5   1   1 574.983 22.8794   4
  -5   1  -1 591.947 18.9559   5
  -5   1  -1 622.467 21.0083   7
  -5   1  -1 570.479 21.6000   1
   6  -1   1 691.914 28.4809   4
  -6  -1  -1 704.583 23.6944   7
   6  -1   1 684.573 23.9798   6
   6  -1   1 687.077 24.9703   3
   6   1   1 687.625 25.9433   4
   6   1   1 692.116 22.2318   3
  -6   1  -1 695.663 23.9393   7
  -6   1  -1 687.343 21.7806   5
   6   1   1 643.902 24.4588   2
  -6   1  -1 685.764 25.3543   1
   7  -1   1 125.988 9.95030   6
   7  -1   1 103.491 9.24430   3
  -7  -1  -1 100.282 8.57419   7
   7  -1   1 132.713 13.1777   4
   7   1   1 112.337 6.62149   3
   7   1   1 117.684 10.1610   2
  -7   1  -1 118.554 10.1364   7
   7   1   1 110.265 11.6428   4
  -7   1  -1 117.688 9.71733   1
   8  -1   1 82.7584 12.0554   4
   8  -1   1 80.6495 7.72517   3
  -8  -1  -1 89.8276 8.73246   7
   8  -1   1 73.7120 8.42876   6
   8   1   1 70.7110 10.9439   4
  -8   1  -1 70.2420 8.59458   1
  -8   1  -1 85.6011 8.73957   7
   8   1   1 87.6874 10.0979   2
   9  -1   1 135.790 17.1380   4
   9  -1   1 113.946 11.5320   6
  -9  -1  -1 122.225 10.9007   7
  -9   1  -1 121.584 10.9612   7
   9   1   1 114.895 12.0699   2
   9   1   1 174.353 14.2146   4
  10  -1   1 685.609 28.4614   6
 -10  -1  -1 669.678 28.3444   7
  10  -1   1 739.896 37.7374   4
 -10   1  -1 708.763 28.7030   7
  10   1   1 611.162 29.5324   2
  10   1   1 718.001 33.3273   4
 -10  -2   1 56.0770 11.0823   7
  10  -2  -1 43.0390 10.3516   6
  10  -2  -1 49.0344 13.3132   4
  10  -2  -1 31.2484 10.2282   3
 -10   2   1 54.2591 9.23709   7
  10   2  -1 53.3569 9.04220   2
   9  -2  -1 324.307 23.9055   4
   9  -2  -1 317.639 18.0115   3
   9  -2  -1 329.634 19.1479   6
  -9  -2   1 295.940 16.8410   7
   9   2  -1 328.312 19.2115   4
   9   2  -1 300.949 19.5401   2
  -9   2   1 306.604 19.3573   7
   8  -2  -1 413.584 18.7703   6
   8  -2  -1 371.860 27.9360   4
  -8  -2   1 392.670 19.9855   7
   8  -2  -1 376.566 20.7744   3
   8   2  -1 412.743 20.0985   4
   8   2  -1 408.850 19.1557   2
  -8   2   1 365.647 19.6001   7
  -8   2   1 377.150 18.8374   1
   7  -2  -1 257.081 19.9911   4
   7  -2  -1 229.440 13.4245   6
  -7  -2   1 248.745 15.3298   7
   7  -2  -1 245.078 14.5456   3
  -7   2   1 249.230 12.0075   5
   7   2  -1 258.226 14.2437   2
   7   2  -1 261.590 15.0494   4
  -7   2   1 240.787 15.1421   7
   6  -2  -1 19.7307 7.65166   3
  -6  -2   1 15.4211 6.57498   7
   6  -2  -1 7.87702 6.06979   6
   6  -2  -1 -0.1385 12.2722   4
   6   2  -1 7.18445 5.94465   6
  -6   2   1 8.25633 4.20367   5
  -6   2   1 9.68562 6.28528   7
   6   2  -1 12.4356 5.09863   7
   6   2  -1 11.9106 6.12394   4
   6   2  -1 12.4835 5.09697   2
  -5  -2   1 964.437 32.1176   7
   5  -2  -1 935.376 32.3804   6
   5  -2  -1 924.481 37.6730   4
  -5  -2   1 914.613 30.8792   6
   5  -2  -1 1004.88 33.0737   3
   5   2  -1 995.840 30.9882   7
   5   2  -1 931.203 32.1223   6
   5   2  -1 979.628 32.8212   2
   5   2  -1 982.878 31.4872   4
  -5   2   1 927.793 30.8281   6
  -5   2   1 952.766 30.5939   5
  -5   2   1 906.823 32.1536   7
   4  -2  -1 90.5116 7.28104   6
   4  -2  -1 87.1607 9.82736   4
   4  -2  -1 100.536 8.14493   3
  -4  -2   1 98.5389 7.65122   6
  -4  -2   1 104.347 9.06039   7
  -4   2   1 97.9463 6.52724   6
   4   2  -1 99.5356 8.59230   6
  -4   2   1 106.456 7.00709   5
   4   2  -1 103.013 7.81009   2
  -4   2   1 89.7709 7.16667   7
   4   2  -1 89.2082 7.30480   4
   4   2  -1 92.7573 7.01708   7
   3  -2  -1 362.180 14.9708   3
   3  -2  -1 365.481 19.6028   4
  -3  -2   1 360.612 14.4520   6
  -3  -2   1 380.292 15.1836   7
   3  -2  -1 389.966 15.3084   6
   3   2  -1 378.387 15.0777   6
  -3   2   1 373.262 15.0863   7
  -3   2   1 364.464 13.9778   5
   3   2  -1 381.117 14.6800   7
  -3   2   1 376.666 14.1969   6
   2  -2  -1 171.823 10.2882   3
   2  -2  -1 171.363 9.55851   6
  -2  -2   1 193.129 10.2510   7
  -2  -2   1 172.947 8.36376   6
   2  -2  -1 187.215 14.3026   4
  -2  -2   1 168.691 7.60218   3
  -2   2   1 165.729 9.65835   7
  -2   2   1 166.579 8.76825   5
   2   2  -1 181.857 9.81840   6
  -2   2   1 162.064 8.56346   6
   2   2  -1 173.867 9.45275   7
   1  -2  -1 455.553 18.3050   4
  -1  -2   1 441.855 16.2583   6
   1  -2  -1 453.663 16.2539   6
  -1  -2   1 451.734 15.7971   3
  -1  -2   1 435.577 14.6038   4
  -1  -2   1 426.765 15.7344   7
   1  -2  -1 455.832 16.5225   3
  -1   2   1 449.809 15.8973   6
   1   2  -1 434.987 15.5636   7
  -1   2   1 447.657 16.2584   7
  -1   2   1 435.159 15.5686   5
   1   2  -1 429.503 16.3651   6
   0  -2   1 538.736 19.5639   3
   0  -2   1 551.264 19.3013   4
   0  -2  -1 601.635 19.4206   6
   0  -2  -1 575.132 18.9961   3
   0  -2   1 579.915 19.0971   6
   0  -2   1 573.225 19.0476   7
   0  -2  -1 581.456 19.3828   4
   0   2  -1 580.956 19.4940   7
   0   2   1 567.915 19.9162   5
   0   2   1 569.541 19.1879   6
   0   2  -1 577.714 19.6063   6
   0   2   1 573.758 19.2168   7
  -1  -2  -1 42.7277 4.30280   6
   1  -2   1 43.0728 3.92253   7
   1  -2   1 34.4608 3.76095   6
   1  -2   1 40.1512 5.53405   3
   1  -2   1 38.5055 5.08501   4
  -1  -2  -1 43.8897 3.49834   3
   1   2   1 40.1759 5.04886   6
  -1   2  -1 41.0927 4.01960   5
  -1   2  -1 41.1748 3.94257   6
  -1   2  -1 43.8642 4.07984   7
   1   2   1 41.0599 3.60221   7
   1   2   1 29.0053 5.47607   5
   2  -2   1 16.1937 5.09824   3
   2  -2   1 20.5774 5.08090   4
  -2  -2  -1 21.5851 4.36737   7
  -2  -2  -1 15.1866 3.00255   6
   2  -2   1 15.3484 3.78609   6
  -2  -2  -1 15.6060 1.88354   3
   2  -2   1 18.8028 3.46038   7
  -2   2  -1 9.05887 2.81129   7
   2   2   1 16.7684 3.05309   7
  -2   2  -1 19.3150 2.99697   5
   2   2   1 16.1889 3.13010   6
   2   2   1 15.8371 4.92007   5
  -2   2  -1 16.4384 3.39684   6
   3  -2   1 3641.35 108.155   7
  -3  -2  -1 3827.21 109.182   7
   3  -2   1 3591.47 112.006   4
   3  -2   1 3696.90 109.376   6
   3  -2   1 3720.07 110.646   3
   3   2   1 3762.58 109.260   6
  -3   2  -1 3725.28 109.302   7
   3   2   1 3881.36 108.123   7
  -3   2  -1 3822.95 107.819   5
   3   2   1 3683.46 108.106   4
   4  -2   1 387.444 18.5528   4
   4  -2   1 377.519 14.9088   6
   4  -2   1 405.484 15.9745   3
  -4  -2  -1 367.177 14.7119   7
  -4   2  -1 383.936 14.8296   7
   4   2   1 397.292 14.7520   6
  -4   2  -1 384.809 12.3660   5
   4   2   1 370.667 13.8823   4
   4   2   1 375.913 15.2113   2
   5  -2   1 27.0474 6.80591   3
   5  -2   1 20.6072 4.96255   6
   5  -2   1 10.4478 9.81065   4
  -5  -2  -1 22.1484 5.24591   7
   5   2   1 24.6845 4.82245   4
  -5   2  -1 20.9366 5.05267   7
   5   2   1 30.8435 4.86157   2
   5   2   1 25.5511 3.97776   6
  -5   2  -1 24.9260 2.30311   5
   5   2   1 23.5272 1.95335   3
   6  -2   1 88.0100 7.84695   6
   6  -2   1 88.4360 11.6678   4
   6  -2   1 100.129 8.62392   3
  -6  -2  -1 96.1517 8.02495   7
  -6   2  -1 100.355 6.55163   5
  -6   2  -1 93.6448 8.17225   7
   6   2   1 90.6094 8.19606   4
   6   2   1 82.5850 8.42341   2
   6   2   1 92.3905 7.90352   6
   7  -2   1 1932.43 66.8948   4
  -7  -2  -1 2001.71 61.0084   7
   7  -2   1 1961.17 61.4656   6
   7  -2   1 1957.78 62.4495   3
  -7   2  -1 1986.13 61.3526   7
   7   2   1 1912.37 61.8401   4
   7   2   1 1892.30 61.5017   2
   7   2   1 1937.75 60.9580   6
   8  -2   1 421.248 19.5627   3
   8  -2   1 435.825 19.6885   6
  -8  -2  -1 397.935 19.3077   7
   8  -2   1 430.040 24.8697   4
   8   2   1 426.145 20.4772   4
  -8   2  -1 423.305 19.6317   7
   8   2   1 425.014 20.5272   2
   9  -2   1 567.091 25.5195   3
   9  -2   1 556.889 24.4870   6
   9  -2   1 552.296 30.6965   4
  -9  -2  -1 599.851 24.7005   7
  -9   2  -1 587.551 24.9327   7
   9   2   1 504.483 24.9065   2
  10  -3  -1 192.920 16.5841   6
  10  -3  -1 239.166 26.1651   4
 -10  -3   1 215.442 18.9176   7
  10  -3  -1 224.295 18.4090   3
 -10   3   1 219.335 17.5356   7
  10   3  -1 178.226 15.0709   2
   9  -3  -1 200.891 20.1991   4
   9  -3  -1 182.797 16.5118   6
   9  -3  -1 167.778 15.0018   3
  -9  -3   1 208.646 17.2493   7
   9   3  -1 167.608 14.8850   2
  -9   3   1 203.496 16.8498   7
   8  -3  -1 55.8267 15.9925   4
   8  -3  -1 27.2164 8.65750   6
  -8  -3   1 49.7710 9.99058   7
   8  -3  -1 35.5553 10.3831   3
   8   3  -1 25.4982 8.92788   2
  -8   3   1 42.2068 9.44260   7
   7  -3  -1 535.811 22.7740   6
   7  -3  -1 550.078 25.6104   3
   7  -3  -1 519.007 28.0229   4
  -7  -3   1 557.215 23.7957   7
  -7   3   1 558.867 20.1421   5
  -7   3   1 512.073 23.7545   7
   7   3  -1 579.406 23.7249   6
   7   3  -1 527.953 22.5621   2
  -6  -3   1 425.484 19.4771   7
   6  -3  -1 397.193 26.9211   4
   6  -3  -1 400.240 18.1644   6
   6  -3  -1 399.207 19.4527   3
   6   3  -1 408.997 15.3117   4
   6   3  -1 437.199 19.9106   2
  -6   3   1 400.082 19.2533   7
   6   3  -1 422.107 19.4509   6
  -6   3   1 393.127 16.0917   5
  -5  -3   1 21.9088 5.48967   7
   5  -3  -1 20.7386 6.58730   6
   5  -3  -1 16.5344 8.06673   3
   5  -3  -1 27.4869 12.1274   4
  -5  -3   1 34.3581 5.56067   6
   5  -3  -1 27.5242 6.00802   7
   5   3  -1 29.5421 5.73338   7
   5   3  -1 16.9507 5.07621   6
  -5   3   1 24.2507 6.80958   7
  -5   3   1 31.0332 5.95552   6
   5   3  -1 19.0572 3.65754   4
   5   3  -1 19.4437 6.76721   2
  -5   3   1 19.8464 4.69321   5
  -4  -3   1 40.6374 5.94277   7
   4  -3  -1 80.5167 7.95769   6
   4   3  -1 42.8255 5.88511   6
   4   3  -1 46.2460 4.03673   4
   3  -3  -1 2634.46 83.2153   4
  -3  -3   1 2744.14 81.4066   7
  -3  -3   1 2686.53 80.9340   6
  -3  -3   1 2729.10 80.0733   3
   3  -3  -1 2710.64 82.2702   3
   3  -3  -1 2703.78 81.4456   6
  -3   3   1 2704.96 81.1192   6
  -3   3   1 2623.95 80.3924   5
   3   3  -1 2708.39 80.7699   7
  -3   3   1 2671.76 81.1749   7
   3   3  -1 2734.51 81.5568   6
   2  -3  -1 711.401 24.9930   3
   2  -3  -1 666.891 24.2844   6
  -2  -3   1 683.673 23.1485   3
  -2  -3   1 702.968 24.0556   6
  -2  -3   1 693.363 24.5962   7
   2  -3  -1 684.377 25.1702   4
  -2   3   1 681.882 23.2744   5
   2   3  -1 679.198 23.9014   6
  -2   3   1 692.653 23.7470   7
  -2   3   1 680.390 23.8538   6
   2   3  -1 673.120 23.3996   7
   1  -3  -1 990.768 32.0148   4
  -1  -3   1 978.623 31.4608   6
   1  -3  -1 960.570 31.5346   3
  -1  -3   1 970.972 31.7386   7
   1  -3  -1 938.085 31.3672   6
  -1  -3   1 952.327 29.5006   4
  -1  -3   1 935.969 30.6162   3
  -1   3   1 921.798 31.3138   5
   1   3  -1 946.852 31.1885   6
   1   3  -1 956.330 31.2777   7
  -1   3   1 953.324 31.3092   6
  -1   3   1 959.224 31.0114   7
   0  -3  -1 190.396 11.6022   7
   0  -3   1 195.719 10.0942   4
   0  -3   1 189.059 9.72925   6
   0  -3   1 198.170 9.89238   3
   0  -3  -1 211.086 9.78935   4
   0  -3  -1 204.590 9.68259   6
   0  -3   1 194.633 11.3113   7
   0  -3  -1 206.213 9.41466   3
   0   3   1 183.618 10.4611   7
   0   3   1 197.540 11.5269   6
   0   3  -1 194.514 11.0189   7
   0   3   1 217.200 10.3315   5
   0   3  -1 207.546 9.79014   5
   0   3  -1 228.689 11.4106   6
  -1  -3  -1 963.778 31.2965   6
  -1  -3  -1 984.816 31.8225   7
   1  -3   1 980.744 32.6756   3
  -1  -3  -1 1015.62 30.9019   3
   1  -3   1 944.934 31.3310   7
   1  -3   1 953.732 32.0512   6
  -1  -3  -1 1025.50 29.4465   4
   1  -3   1 965.825 32.9288   4
   1   3   1 974.646 31.4469   7
   1   3   1 1012.09 32.0020   6
   1   3   1 994.583 32.4366   5
  -1   3  -1 966.235 31.9041   6
  -1   3  -1 965.887 32.0070   7
  -1   3  -1 972.085 31.3315   5
   2  -3   1 1286.94 41.0202   3
  -2  -3  -1 1294.53 40.4778   7
  -2  -3  -1 1189.47 39.1883   6
  -2  -3  -1 1254.73 38.4357   3
   2  -3   1 1259.95 40.4168   6
   2   3   1 1243.38 40.0451   6
   2   3   1 1436.14 41.8506   5
   2   3   1 1247.14 39.4164   7
  -2   3  -1 1273.85 39.6699   6
  -2   3  -1 1265.61 39.1728   5
  -2   3  -1 1249.92 40.2599   7
   3  -3   1 1806.40 52.8296   6
   3  -3   1 1624.81 51.2574   7
  -3  -3  -1 1665.55 49.9990   3
  -3  -3  -1 1660.44 52.3649   7
   3  -3   1 1752.88 55.9268   4
  -3  -3  -1 1614.91 51.1699   6
   3  -3   1 1750.94 54.0799   3
   3   3   1 1665.90 51.0554   7
  -3   3  -1 1673.90 51.5503   6
  -3   3  -1 1797.88 52.6667   7
  -3   3  -1 1676.22 50.7278   5
   3   3   1 1629.67 52.3996   6
  -4  -3  -1 312.471 13.1372   7
   4  -3   1 278.370 13.7228   6
   4  -3   1 275.162 19.1624   4
   4  -3   1 279.324 14.1095   3
   4  -3   1 275.150 11.3654   7
   4   3   1 270.178 13.8619   6
   4   3   1 271.378 11.1535   7
  -4   3  -1 277.472 13.6447   7
  -4   3  -1 289.608 10.5162   5
  -5  -3  -1 52.3661 7.37756   7
   5  -3   1 64.0138 9.33029   3
   5  -3   1 59.0408 9.92356   4
   5  -3   1 46.1466 6.97375   6
   5   3   1 55.0546 7.24775   6
  -5   3  -1 42.1596 7.00901   7
   5   3   1 54.5632 6.11472   2
   5   3   1 48.4864 4.63479   4
  -5   3  -1 50.4893 3.88120   5
   6  -3   1 1112.30 38.6599   6
   6  -3   1 1154.42 41.1288   3
  -6  -3  -1 1157.51 38.9187   7
   6  -3   1 1204.57 46.1063   4
   6   3   1 1128.36 38.8366   6
  -6   3  -1 1166.50 39.1402   7
   6   3   1 1186.85 39.3173   2
   7  -3   1 155.156 10.9013   6
   7  -3   1 167.731 16.3681   4
   7  -3   1 137.274 12.8862   3
  -7  -3  -1 142.930 12.6462   7
  -7   3  -1 139.911 12.4936   7
   7   3   1 162.034 12.4237   6
   7   3   1 164.814 12.0931   2
  -8  -3  -1 15.5743 6.04873   7
   8  -3   1 23.2593 7.85227   6
   8  -3   1 32.2351 11.0228   4
   8  -3   1 20.0137 6.67415   3
  -8   3  -1 23.3728 7.69811   7
   8   3   1 31.5187 8.38469   2
   8   3   1 21.1481 7.48356   6
  -9  -3  -1 26.8362 9.16622   7
   9  -3   1 39.0620 9.84541   3
   9  -3   1 35.9856 12.5012   4
   9  -3   1 20.4893 8.37884   6
   9   3   1 43.9045 9.40981   2
  -9   3  -1 31.3730 9.04448   7
   9  -4  -1 84.5494 12.4451   6
   9  -4  -1 83.7477 11.9079   3
  -9  -4   1 78.0175 12.8735   7
   9  -4  -1 96.9449 20.3311   4
   9   4  -1 105.554 12.5961   2
  -9   4   1 85.7827 12.8837   7
   8  -4  -1 68.4216 17.2486   4
   8  -4  -1 46.3596 8.45495   6
  -8  -4   1 65.9752 9.35585   7
   8  -4  -1 62.0782 10.0323   3
   8   4  -1 62.0577 10.6133   6
  -8   4   1 66.1213 11.1635   7
   8   4  -1 59.4239 10.5175   2
   7  -4  -1 4.94944 7.71633   6
   7  -4  -1 -1.2986 6.66692   3
   7  -4  -1 13.6375 13.8715   4
  -7  -4   1 4.50566 8.40363   7
   7   4  -1 -0.6031 7.99867   6
  -7   4   1 -0.3123 8.24347   7
   7   4  -1 -9.6855 7.56465   2
  -6  -4   1 1147.25 40.1376   7
   6  -4  -1 1103.47 41.9004   3
   6  -4  -1 1058.87 43.9076   4
   6  -4  -1 1123.93 39.6662   6
  -6   4   1 1134.98 37.0811   5
   6   4  -1 1109.55 38.7533   2
   6   4  -1 1124.06 40.0984   6
  -6   4   1 1157.85 39.5471   7
   5  -4  -1 1396.03 45.6008   7
   5  -4  -1 1417.56 48.7320   3
   5  -4  -1 1398.03 50.6535   4
  -5  -4   1 1415.34 45.9503   6
   5  -4  -1 1365.24 47.1905   6
  -5  -4   1 1375.62 46.2988   7
   5   4  -1 1428.41 46.6446   6
  -5   4   1 1429.86 44.8691   5
  -5   4   1 1305.45 45.1621   6
   5   4  -1 1398.50 45.1460   7
  -5   4   1 1411.72 46.4770   7
  -4  -4   1 990.920 34.9733   7
   4  -4  -1 961.245 33.7192   7
   4  -4  -1 961.404 34.7185   6
   4  -4  -1 989.864 38.9512   4
   4  -4  -1 988.746 35.9949   3
  -4  -4   1 982.729 33.4471   6
  -4   4   1 948.506 34.4383   7
  -4   4   1 974.918 32.9781   5
   4   4  -1 978.264 33.2956   7
   4   4  -1 1007.40 35.0196   6
  -4   4   1 903.803 33.0724   6
  -3  -4   1 102.910 8.97421   6
  -3  -4   1 108.425 10.2567   7
   3  -4  -1 90.7236 9.25830   6
   3  -4  -1 98.3505 8.97000   3
  -3  -4   1 101.246 7.84865   3
   3  -4  -1 95.2820 10.3475   4
   3  -4  -1 92.9038 9.63806   7
   3   4  -1 82.6484 9.45427   6
   3   4  -1 104.125 9.00021   7
  -3   4   1 76.0524 9.00275   7
  -3   4   1 104.080 9.71866   6
  -3   4   1 96.5344 8.02560   5
   2  -4  -1 1431.98 46.5940   3
   2  -4  -1 1432.84 47.3448   4
  -2  -4   1 1433.40 44.9036   3
   2  -4  -1 1361.92 46.0860   6
   2  -4  -1 1455.76 46.1687   7
  -2  -4   1 1433.06 45.8000   6
  -2  -4   1 1394.69 46.1797   7
  -2   4   1 1432.22 46.2912   6
  -2   4   1 1421.72 45.2275   5
   2   4  -1 1400.27 45.1967   7
   2   4  -1 1398.64 46.3377   6
  -2   4   1 1365.17 45.9246   7
  -1  -4   1 1082.10 36.1163   6
   1  -4  -1 1120.56 36.7967   6
   1  -4  -1 1080.39 36.1743   3
   1  -4  -1 1103.65 36.0031   4
  -1  -4   1 1071.08 36.2708   7
  -1  -4   1 1087.58 36.0482   3
   1  -4  -1 1114.30 36.4581   7
  -1  -4   1 1064.48 34.0213   4
  -1   4   1 1108.44 37.1501   6
   1   4  -1 1074.09 36.9623   6
  -1   4   1 1068.62 36.4998   7
   1   4  -1 1084.97 36.4882   7
  -1   4   1 1116.33 36.8530   5
   0  -4  -1 1156.41 38.8090   7
   0  -4   1 1197.81 39.2477   6
   0  -4  -1 1170.39 38.5166   6
   0  -4  -1 1174.83 37.2532   4
   0  -4   1 1134.62 38.4631   7
   0  -4   1 1197.81 38.0541   4
   0  -4  -1 1162.10 38.3540   3
   0  -4   1 1215.81 38.8297   3
   0   4  -1 1178.83 39.0711   5
   0   4   1 1194.63 38.8157   7
   0   4  -1 1177.51 39.2835   6
   0   4   1 1187.94 39.5935   6
   0   4  -1 1189.86 39.0648   7
   0   4   1 1178.65 39.0992   5
  -1  -4  -1 1755.39 51.6436   4
  -1  -4  -1 1759.81 54.3068   6
   1  -4   1 1742.42 54.9845   4
   1  -4   1 1749.56 55.1706   3
   1  -4   1 1690.99 54.5908   7
   1  -4   1 1786.73 55.2867   6
  -1  -4  -1 1767.25 55.2786   7
  -1  -4  -1 1751.15 53.7009   3
   1   4   1 1745.62 54.3124   7
  -1   4  -1 1672.51 54.7659   7
   1   4   1 1704.86 55.7207   5
  -1   4  -1 1711.71 54.8286   6
  -1   4  -1 1750.57 54.4430   5
   1   4   1 1788.85 55.4631   6
  -2  -4  -1 83.8165 7.45391   6
   2  -4   1 75.7112 8.70142   4
   2  -4   1 78.0249 8.17802   6
   2  -4   1 73.9276 7.74767   3
   2  -4   1 74.3150 7.87875   7
  -2  -4  -1 81.2491 8.96259   7
  -2  -4  -1 70.8831 6.02552   3
   2   4   1 68.5071 9.20512   5
   2   4   1 82.4261 7.58611   7
  -2   4  -1 84.3710 7.22874   5
  -2   4  -1 69.9342 7.88782   6
  -2   4  -1 67.9208 8.15622   7
   2   4   1 82.1748 9.00095   6
   3  -4   1 214.332 14.8667   4
   3  -4   1 226.697 13.5540   6
  -3  -4  -1 203.840 9.57724   3
   3  -4   1 305.887 16.0249   3
  -3  -4  -1 199.441 10.4418   6
  -3  -4  -1 209.220 14.2251   7
   3  -4   1 206.556 12.3282   7
  -3   4  -1 223.519 11.2499   6
   3   4   1 282.167 12.3287   7
   3   4   1 209.413 14.0702   6
  -3   4  -1 232.506 13.7240   7
   4  -4   1 911.756 37.2342   4
   4  -4   1 902.960 33.5660   3
  -4  -4  -1 998.988 33.3433   7
   4  -4   1 913.667 30.7390   7
   4  -4   1 910.342 32.7791   6
   4   4   1 866.505 30.1306   7
   4   4   1 923.738 32.8987   6
  -4   4  -1 932.265 29.9471   5
  -4   4  -1 926.237 32.6788   7
  -5  -4  -1 796.846 29.1714   7
   5  -4   1 777.626 32.8511   4
   5  -4   1 742.334 28.0352   6
  -5   4  -1 734.182 24.8121   5
  -5   4  -1 749.166 27.9794   7
   5   4   1 790.800 29.0614   6
  -6  -4  -1 91.9567 10.2442   7
   6  -4   1 74.9620 14.6602   4
   6  -4   1 91.6513 11.9762   3
   6  -4   1 71.4941 9.37071   6
   6   4   1 82.8951 9.09418   2
  -6   4  -1 82.1214 8.54623   7
   6   4   1 80.8561 8.50402   6
   7  -4   1 31.2855 11.1225   4
  -7  -4  -1 32.9891 8.89463   7
   7  -4   1 31.7814 6.74946   6
   7  -4   1 25.5068 7.53212   3
   7   4   1 29.3486 8.03990   2
  -7   4  -1 20.8917 8.02160   7
   7   4   1 22.6992 7.93294   6
  -8  -4  -1 69.0050 10.8975   7
   8  -4   1 46.5639 11.4782   3
   8  -4   1 65.6083 10.3458   6
   8  -4   1 66.9955 17.5094   4
   8   4   1 54.2006 8.35680   6
  -8   4  -1 61.3626 8.88692   7
   8   4   1 61.9631 9.92727   2
   9  -4   1 221.749 25.4422   4
  -9  -4  -1 199.158 15.9384   7
   9  -4   1 194.113 17.5962   3
   9  -4   1 162.106 14.9627   6
   9   4   1 181.299 16.2818   6
  -9   4  -1 199.665 17.5248   7
   8  -5  -1 173.724 16.2372   6
  -8  -5   1 191.278 16.6648   7
   8  -5  -1 181.676 16.4097   3
   8  -5  -1 196.486 21.0992   4
   8   5  -1 172.870 14.0784   2
  -8   5   1 168.049 16.3611   7
   8   5  -1 211.710 18.2279   6
   7  -5  -1 567.606 31.2679   4
   7  -5  -1 558.957 26.7529   6
  -7  -5   1 542.677 24.8568   7
   7  -5  -1 563.836 29.2493   3
   7   5  -1 530.233 24.8194   6
   7   5  -1 551.936 25.8951   2
  -7   5   1 562.688 26.8952   7
   6  -5  -1 86.5821 9.97970   6
   6  -5  -1 94.0580 13.8200   4
  -6  -5   1 82.2095 11.7271   7
   6  -5  -1 105.482 11.9129   3
   6   5  -1 99.9680 11.9186   6
  -6   5   1 89.4131 8.83788   5
  -6   5   1 91.9756 10.0527   7
  -5  -5   1 129.631 13.0324   7
   5  -5  -1 133.508 11.6639   7
   5  -5  -1 129.048 12.1758   3
   5  -5  -1 137.619 12.5522   6
   5  -5  -1 125.392 16.1989   4
   5   5  -1 110.791 12.3751   6
  -5   5   1 134.850 11.5811   5
  -5   5   1 109.712 10.5384   7
  -4  -5   1 172.898 11.2084   3
   4  -5  -1 158.034 12.5303   6
   4  -5  -1 164.946 15.8759   4
  -4  -5   1 181.227 13.2858   6
   4  -5  -1 177.089 14.8231   3
   4  -5  -1 145.273 12.5233   7
  -4  -5   1 181.471 14.2134   7
  -4   5   1 177.177 11.1761   5
   4   5  -1 188.824 11.6492   7
  -4   5   1 174.435 13.8484   7
  -4   5   1 156.253 11.9535   6
   4   5  -1 168.897 13.1602   6
  -3  -5   1 487.280 23.2750   7
  -3  -5   1 481.747 19.2088   3
   3  -5  -1 483.596 21.4353   6
   3  -5  -1 488.900 22.5736   7
   3  -5  -1 506.180 25.3696   4
  -3  -5   1 514.454 20.7303   6
   3  -5  -1 509.064 22.1080   3
   3   5  -1 488.987 21.7015   7
   3   5  -1 493.986 23.1973   6
  -3   5   1 455.525 20.9145   7
  -3   5   1 488.312 22.6827   6
  -3   5   1 499.563 20.3268   5
   2  -5  -1 817.205 31.0832   7
  -2  -5   1 897.304 31.7937   7
  -2  -5   1 862.365 31.0222   6
   2  -5  -1 833.748 32.5306   3
  -2  -5   1 856.589 30.0804   3
   2  -5  -1 858.081 31.7932   4
   2  -5  -1 877.640 32.3824   6
  -2   5   1 862.538 32.5329   6
  -2   5   1 857.221 31.7055   5
  -2   5   1 888.238 32.2470   7
   2   5  -1 887.625 31.8793   7
   2   5  -1 834.242 32.6378   6
   1  -5  -1 224.114 16.6675   7
   1  -5  -1 238.782 12.9888   4
  -1  -5   1 254.797 16.6799   7
   1  -5  -1 273.887 13.9078   3
   1  -5  -1 256.446 13.7799   6
  -1  -5   1 225.445 12.6377   3
  -1  -5   1 254.185 15.3942   6
  -1  -5   1 245.398 11.2607   4
   1   5  -1 245.145 15.4301   7
  -1   5   1 254.284 16.5408   6
   1   5  -1 236.825 16.2243   6
  -1   5   1 222.266 15.3599   7
  -1   5   1 274.188 16.1991   5
   0  -5  -1 3.44202 6.25590   3
   0  -5  -1 5.83293 4.65431   4
   0  -5   1 0.84818 4.79046   6
   0  -5   1 0.19649 5.46885   7
   0  -5   1 -3.6435 4.60594   3
   0  -5  -1 5.41315 8.50864   7
   0  -5   1 7.56079 5.32115   4
   0  -5  -1 -0.3171 6.66920   6
   0   5  -1 -0.3003 6.73032   7
   0   5  -1 4.27582 7.54799   6
   0   5   1 0.33180 6.57776   7
   0   5   1 8.70226 5.76854   5
   0   5   1 -2.7911 5.46868   6
   1  -5   1 1890.30 60.3438   4
  -1  -5  -1 1873.50 59.8885   6
   1  -5   1 1939.53 60.9270   6
  -1  -5  -1 1870.13 56.1628   4
   1  -5   1 1826.00 60.0501   7
  -1  -5  -1 1849.11 60.6856   7
  -1  -5  -1 1906.09 59.0613   3
   1  -5   1 1882.11 60.9592   3
   1   5   1 1927.34 61.1666   6
   1   5   1 1872.79 59.6254   7
   1   5   1 1863.09 61.3401   5
  -1   5  -1 1867.49 59.9709   7
  -1   5  -1 1856.25 59.5749   5
  -1   5  -1 1909.84 60.5942   6
   2  -5   1 618.803 27.1502   4
   2  -5   1 632.051 25.1589   7
  -2  -5  -1 646.078 23.1146   3
  -2  -5  -1 586.180 23.3825   6
  -2  -5  -1 641.215 26.5146   7
   2  -5   1 616.706 24.7875   6
   2  -5   1 637.930 26.6701   3
  -2   5  -1 665.260 25.5488   6
  -2   5  -1 609.977 25.6180   7
  -2   5  -1 581.819 23.2143   5
   2   5   1 669.648 27.8007   5
   2   5   1 622.730 24.4555   7
   2   5   1 659.906 26.7163   6
   3  -5   1 544.559 23.8466   6
   3  -5   1 636.711 26.8953   3
   3  -5   1 660.385 28.8146   4
  -3  -5  -1 489.890 21.0589   3
   3  -5   1 564.358 23.8989   7
  -3  -5  -1 661.872 26.3965   7
   3   5   1 657.924 23.6719   7
   3   5   1 638.299 26.0562   6
  -3   5  -1 642.743 23.2877   5
  -4  -5  -1 105.448 9.98526   7
   4  -5   1 93.6229 14.3983   4
   4  -5   1 111.828 12.8309   3
  -4  -5  -1 109.978 7.99589   3
   4  -5   1 109.397 10.0489   6
  -4   5  -1 106.362 8.45579   5
  -4   5  -1 104.322 10.9642   7
   4   5   1 102.234 9.89975   6
  -5  -5  -1 1417.41 48.4734   7
   5  -5   1 1394.32 48.0029   6
   5  -5   1 1401.78 50.4565   3
   5  -5   1 1356.87 51.8185   4
   5   5   1 1472.34 48.8140   6
  -5   5  -1 1399.08 47.6682   7
   6  -5   1 166.113 14.5843   3
  -6  -5  -1 132.524 13.3802   7
   6  -5   1 182.471 20.4141   4
   6  -5   1 146.209 13.4530   6
   6   5   1 175.898 14.0178   2
  -6   5  -1 150.381 13.3770   7
   6   5   1 169.714 13.9576   6
  -7  -5  -1 4.81684 9.15514   7
   7  -5   1 -9.6999 9.74059   3
   7  -5   1 6.70828 6.01971   6
   7  -5   1 -9.7300 9.42870   4
   7   5   1 -7.5207 8.11925   6
   7   5   1 2.64625 5.21219   2
  -7   5  -1 3.74922 8.13125   7
   8  -5   1 63.4306 11.2839   3
  -8  -5  -1 104.717 13.1628   7
   8  -5   1 98.8569 19.8485   4
   8  -5   1 91.0271 12.4173   6
   8   5   1 97.3073 12.2709   6
  -8   5  -1 90.7259 10.8196   7
   8   5   1 57.7324 10.8304   2
  -7  -6   1 4.64626 10.7212   7
   7  -6  -1 13.7608 15.3208   4
   7  -6  -1 18.0086 12.1091   3
   7  -6  -1 6.90860 7.66828   6
   7   6  -1 23.2875 11.2109   6
   7   6  -1 29.7354 10.1319   2
  -7   6   1 23.0279 8.18271   7
  -6  -6   1 226.302 19.7989   7
   6  -6  -1 218.675 19.2184   6
   6  -6  -1 254.654 21.1453   3
   6  -6  -1 234.803 21.5742   4
   6   6  -1 225.840 19.3211   6
  -6   6   1 286.254 20.4228   7
  -5  -6   1 10.2650 10.3421   7
   5  -6  -1 8.51624 6.95111   6
   5  -6  -1 -0.1419 12.3625   4
   5  -6  -1 3.10893 10.0969   3
   5   6  -1 -5.6733 9.46958   6
  -5   6   1 9.63279 7.10964   5
  -5   6   1 3.96570 6.83890   7
   4  -6  -1 164.897 13.9830   6
   4  -6  -1 198.398 16.1005   7
   4  -6  -1 182.285 17.5336   4
  -4  -6   1 177.395 15.7099   7
   4  -6  -1 168.327 14.4509   3
  -4  -6   1 160.902 12.3656   3
   4   6  -1 179.685 15.2873   7
   4   6  -1 177.526 15.4266   6
  -4   6   1 166.710 14.5324   5
  -4   6   1 183.952 15.3968   7
   3  -6  -1 45.4519 8.49090   3
  -3  -6   1 57.5283 8.97821   7
   3  -6  -1 42.1488 10.1964   7
  -3  -6   1 50.0017 8.11976   3
   3  -6  -1 69.7963 10.9445   6
  -3  -6   1 41.5695 9.46251   6
   3  -6  -1 53.5716 11.3769   4
  -3   6   1 43.0117 10.1685   6
   3   6  -1 48.7987 10.7651   6
  -3   6   1 44.8841 9.37043   5
   3   6  -1 58.0267 9.82447   7
  -3   6   1 48.3313 10.2075   7
   2  -6  -1 1241.51 44.5769   3
   2  -6  -1 1284.41 45.6484   6
   2  -6  -1 1295.35 45.4873   7
   2  -6  -1 1263.12 45.0025   4
  -2  -6   1 1260.56 43.7253   3
  -2  -6   1 1212.59 45.5040   7
  -2  -6   1 1284.22 45.0934   6
  -2   6   1 1261.29 45.6046   6
   2   6  -1 1311.83 46.1247   6
  -2   6   1 1312.39 45.3577   5
  -2   6   1 1299.20 45.4334   7
   2   6  -1 1311.03 45.1211   7
  -1  -6   1 6.74831 4.02037   4
   1  -6  -1 1.30893 6.31834   4
  -1  -6   1 1.78888 4.86936   3
  -1  -6   1 3.18340 9.14117   7
   1  -6  -1 -3.5900 7.72633   3
   1  -6  -1 10.1804 6.88504   7
   1  -6  -1 -2.3647 7.55110   6
  -1  -6   1 4.42238 7.57261   6
  -1   6   1 -12.991 8.35454   6
  -1   6   1 -7.8053 7.94361   5
   1   6  -1 6.10642 8.22795   7
  -1   6   1 5.95316 8.21279   7
   1   6  -1 1.06164 8.80143   6
   0  -6   1 1.27956 7.96899   6
   0  -6   1 21.0739 8.35319   3
   0  -6   1 1.20716 5.43088   4
   0  -6  -1 2.65324 7.51464   6
   0  -6  -1 -2.7873 4.94921   3
   0  -6  -1 49.3743 10.6274   7
   0  -6   1 -0.3730 6.19682   7
   0  -6  -1 3.46406 5.74357   4
   0   6   1 0.76756 8.64768   5
   0   6   1 -2.3933 8.88162   6
   0   6  -1 -1.8779 5.55918   7
   0   6  -1 3.73609 8.39184   6
   0   6   1 -0.5663 5.52823   7
   1  -6   1 180.714 14.1958   7
   1  -6   1 163.477 12.9620   3
   1  -6   1 177.570 13.0512   6
   1  -6   1 154.910 11.7538   4
  -1  -6  -1 155.845 13.9372   6
  -1  -6  -1 158.513 12.8882   3
  -1  -6  -1 171.702 14.0249   7
   1   6   1 168.310 14.0389   7
  -1   6  -1 149.769 13.6675   7
   1   6   1 159.581 13.9456   5
   1   6   1 152.316 14.0690   6
  -1   6  -1 163.519 12.8630   6
   2  -6   1 894.862 34.5830   4
  -2  -6  -1 955.263 36.2068   7
  -2  -6  -1 930.501 32.6264   3
  -2  -6  -1 878.532 33.7387   6
   2  -6   1 922.711 34.6952   6
   2  -6   1 926.811 36.1803   3
   2  -6   1 930.357 34.7253   7
   2   6   1 942.594 34.9257   6
   2   6   1 904.380 33.0146   7
  -2   6  -1 920.228 33.8712   6
  -2   6  -1 900.828 34.1604   7
   3  -6   1 116.750 14.1661   4
   3  -6   1 116.906 11.3611   7
  -3  -6  -1 101.535 10.9387   7
  -3  -6  -1 120.108 9.21900   3
   3  -6   1 109.978 12.3942   6
   3  -6   1 84.5814 12.5627   3
  -3   6  -1 114.459 10.6083   5
   3   6   1 95.7649 10.6620   6
  -3   6  -1 136.051 12.8818   7
   4  -6   1 792.677 33.0475   3
   4  -6   1 712.221 29.6788   6
   4  -6   1 718.326 32.3623   4
  -4  -6  -1 749.883 30.0635   7
  -4   6  -1 745.619 29.7475   7
  -4   6  -1 706.419 27.7773   5
   4   6   1 732.583 29.8632   6
   5  -6   1 11.6784 7.83438   3
   5  -6   1 30.2918 7.73731   6
  -5  -6  -1 25.0089 10.5982   7
   5  -6   1 21.7404 9.77903   4
   5   6   1 23.7667 10.1340   6
  -5   6  -1 12.8635 7.05691   7
   6  -6   1 1124.15 47.7498   4
   6  -6   1 1116.13 44.4083   3
   6  -6   1 1190.69 44.1513   6
  -6  -6  -1 1194.80 44.0231   7
  -6   6  -1 1180.59 43.9127   7
   6   6   1 1100.36 43.4587   6
  -7  -6  -1 215.356 18.0458   7
   7  -6   1 215.345 18.3685   3
   7  -6   1 268.319 25.8177   4
   7  -6   1 221.452 19.2056   6
   7   6   1 212.734 15.1985   2
   7   6   1 236.692 19.9470   6
  -7   6  -1 241.054 19.5786   7
   6  -7  -1 38.9403 10.4822   3
  -6  -7   1 35.7405 13.1344   7
   6  -7  -1 64.5735 13.5572   4
   6  -7  -1 52.4634 10.4148   6
   6   7  -1 41.1917 13.0366   6
  -6   7   1 46.8489 13.0655   7
   5  -7  -1 125.005 15.1599   4
   5  -7  -1 121.481 15.0066   6
   5  -7  -1 122.153 13.8330   3
  -5  -7   1 128.516 13.5743   7
  -5   7   1 121.208 15.2501   7
  -5   7   1 110.165 12.4265   5
   5   7  -1 105.419 15.1021   6
  -4  -7   1 82.2249 9.55008   3
   4  -7  -1 57.3468 12.0247   6
  -4  -7   1 75.1434 13.5036   7
   4  -7  -1 52.5531 12.4772   3
  -4   7   1 21.0711 6.78793   5
   4   7  -1 30.9053 9.12216   6
  -4   7   1 43.2399 11.7719   7
   3  -7  -1 1088.89 41.8579   7
  -3  -7   1 1114.15 39.6944   3
   3  -7  -1 992.474 42.1227   3
   3  -7  -1 1077.74 42.6630   6
   3  -7  -1 1070.03 42.7102   4
  -3  -7   1 1102.66 41.4664   7
  -3   7   1 1062.48 40.8556   7
  -3   7   1 1078.93 41.1768   5
  -3   7   1 1243.27 48.7117   6
   3   7  -1 1087.66 41.0812   7
   3   7  -1 1082.11 42.9991   6
   2  -7  -1 173.125 14.3351   7
  -2  -7   1 198.474 15.7264   3
   2  -7  -1 167.797 16.1994   4
  -2  -7   1 191.428 16.7226   7
  -2  -7   1 181.901 14.4016   6
   2  -7  -1 205.486 16.8786   3
   2  -7  -1 236.495 18.4752   6
  -2   7   1 200.893 16.5666   7
  -2   7   1 178.034 14.6251   5
   2   7  -1 204.979 16.5341   7
  -2   7   1 164.287 16.1451   6
   2   7  -1 193.591 17.1207   6
   1  -7  -1 33.8521 7.78745   3
  -1  -7   1 20.0200 9.90957   6
  -1  -7   1 37.8042 8.88469   7
   1  -7  -1 25.6405 11.1010   7
   1  -7  -1 31.3979 8.11339   6
  -1  -7   1 34.0087 9.36394   3
   1  -7  -1 54.8848 8.70651   4
  -1   7   1 30.2288 8.51307   6
   1   7  -1 41.6107 11.6371   6
   1   7  -1 35.7822 8.43440   7
  -1   7   1 56.6355 10.9511   7
  -1   7   1 35.9972 8.60090   5
   0  -7   1 187.225 14.8528   6
   0  -7   1 179.306 15.2617   3
   0  -7  -1 184.998 16.0405   3
   0  -7   1 222.470 17.1808   7
   0  -7  -1 192.298 15.7492   7
   0  -7  -1 192.546 15.7161   6
   0   7   1 245.911 19.6149   6
   0   7   1 200.999 16.9634   5
   0   7  -1 188.280 15.4047   6
   0   7  -1 203.566 16.3934   7
   0   7   1 194.375 14.6827   7
   1  -7   1 1169.48 41.9264   4
  -1  -7  -1 1159.86 42.9587   7
   1  -7   1 1188.31 43.9884   3
  -1  -7  -1 1172.46 42.0993   6
   1  -7   1 1120.07 41.9404   7
   1  -7   1 1159.32 42.8352   6
  -1  -7  -1 1141.33 41.5687   3
   1   7   1 1134.15 44.4589   6
   1   7   1 1192.30 42.8865   7
  -1   7  -1 1145.51 43.7272   6
  -1   7  -1 1160.81 43.6565   7
   1   7   1 1166.80 45.2279   5
   2  -7   1 116.191 13.3786   7
   2  -7   1 129.527 13.7531   4
  -2  -7  -1 135.397 11.5616   3
  -2  -7  -1 141.288 13.3814   7
   2  -7   1 113.425 14.0166   6
   2  -7   1 135.184 14.6992   3
   2   7   1 124.605 12.6983   7
  -2   7  -1 128.336 14.2210   7
   2   7   1 128.493 12.6799   6
  -3  -7  -1 68.7052 13.0862   7
   3  -7   1 56.6153 9.72528   6
  -3  -7  -1 65.9596 8.65111   3
   3  -7   1 90.7254 11.4013   4
   3  -7   1 52.6657 9.96066   3
  -3   7  -1 60.0809 11.7316   7
   3   7   1 61.3617 13.0512   6
   4  -7   1 433.022 26.0220   3
   4  -7   1 419.165 24.1026   4
   4  -7   1 432.244 22.5606   6
  -4  -7  -1 385.264 25.0755   7
  -4   7  -1 420.798 24.4924   7
   4   7   1 401.314 22.4795   6
   5  -7   1 306.065 21.7677   6
  -5  -7  -1 332.079 23.1052   7
   5  -7   1 298.441 20.5244   3
   5  -7   1 265.974 25.4854   4
  -5   7  -1 308.737 22.1996   7
   5   7   1 283.735 19.4290   6
   3  -8  -1 32.5621 12.2325   6
   3  -8  -1 29.5493 12.3735   3
  -3  -8   1 46.1443 10.0532   3
   3  -8  -1 42.2498 11.4750   4
  -3  -8   1 23.5990 9.77264   7
  -3   8   1 27.9502 8.87407   5
  -3   8   1 45.3315 10.3211   7
   3   8  -1 26.4944 12.9584   6
   2  -8  -1 266.635 19.0904   3
  -2  -8   1 305.524 20.7021   7
   2  -8  -1 295.819 22.5866   6
  -2  -8   1 300.197 19.9777   3
  -2   8   1 421.659 24.6009   5
  -1  -8   1 38.9382 12.9145   7
  -1  -8   1 21.8356 8.28703   6
  -1  -8   1 19.3747 10.1393   3
   1  -8  -1 24.1116 11.1337   6
   1  -8  -1 18.5425 10.5863   3
   1  -8  -1 10.1133 12.2971   7
  -1   8   1 27.9096 8.92748   7
   1   8  -1 30.6533 9.35899   6
   1   8  -1 21.8008 11.4926   7
  -1   8   1 11.1146 12.0639   6
  -1   8   1 14.9775 11.8485   5
   0  -8   1 776.924 33.8432   7
   0  -8  -1 729.280 33.9439   7
   0  -8   1 790.424 34.2234   6
   0  -8   1 855.835 35.6568   3
   0  -8  -1 801.916 34.2669   3
   0   8   1 812.069 37.0804   6
   0   8  -1 807.983 35.9463   7
   0   8   1 868.950 35.6555   7
   0   8  -1 850.830 36.8197   6
   1  -8   1 21.5044 12.0055   7
  -1  -8  -1 35.9001 9.55916   3
  -1  -8  -1 20.9686 9.67260   7
   1  -8   1 28.3041 11.5571   6
   1  -8   1 36.0928 12.0269   3
  -1   8  -1 27.8781 11.9533   7
   1   8   1 22.5210 12.6640   6
  -2  -8  -1 5.43760 7.77735   3
   2  -8   1 12.8263 8.26816   3
   2  -8   1 19.0490 7.24103   4
   2  -8   1 10.9057 7.95839   6
  -2  -8  -1 8.30211 9.26262   7
  -2   8  -1 16.1927 11.3707   7
   2   8   1 23.2280 12.7379   6
   3  -8   1 41.1226 10.1623   3
   3  -8   1 25.0304 12.0256   6
   3  -8   1 48.0346 12.2725   4
  -3  -8  -1 41.0734 14.1048   7
   3   8   1 28.6234 10.1715   6
  -3   8  -1 43.1739 9.97624   7
 -10   0   2 492.529 28.1847   1
 -10   0   2 510.196 25.4135   7
  10   0  -2 502.932 23.5232   6
  10   0  -2 553.860 25.5508   2
  10   0  -2 529.939 28.5845   4
  10   0  -2 493.777 23.9225   3
   9   0  -2 3.73810 7.28428   6
  -9   0   2 -3.7477 6.58572   1
   9   0  -2 7.94378 9.27287   4
   9   0  -2 -10.386 6.04916   2
  -9   0   2 11.5168 8.21980   7
   9   0  -2 7.89691 7.20790   3
   8   0  -2 351.696 21.1369   2
   8   0  -2 441.663 26.0806   4
  -8   0   2 394.714 22.9032   1
   8   0  -2 345.855 19.0473   6
  -8   0   2 383.465 19.4587   7
   7   0  -2 -2.6346 5.16265   2
   7   0  -2 -0.4647 8.39688   4
  -7   0   2 -0.0485 8.31808   1
  -7   0   2 -4.8281 6.35909   7
   6   0  -2 1902.61 62.2283   4
   6   0  -2 1835.12 57.6068   7
   6   0  -2 1886.86 59.3990   2
  -6   0   2 2034.61 60.9713   1
  -6   0   2 1894.05 59.1569   7
  -6   0   2 1777.12 57.6600   6
  -5   0   2 5.60796 4.51244   6
   5   0  -2 2.78043 4.68644   7
  -5   0   2 -2.4195 5.15917   7
   5   0  -2 16.7986 6.24433   2
   5   0  -2 10.5022 7.40288   4
  -5   0   2 4.56013 6.82039   1
   4   0  -2 27.1969 10.5938   4
  -4   0   2 26.0802 5.51283   7
  -4   0   2 27.3577 5.31906   1
   4   0  -2 22.9054 5.69925   2
   4   0  -2 24.4591 5.26411   7
  -4   0   2 27.8084 5.17087   6
  -3   0   2 -0.2530 5.89858   1
   3   0  -2 -10.146 4.59165   2
  -3   0   2 3.70580 3.39585   6
  -3   0   2 0.93428 3.50676   7
   3   0  -2 -4.0257 4.95338   7
  -2   0   2 702.548 22.0928   6
   2   0  -2 667.995 22.5352   7
  -2   0   2 694.794 23.4867   1
  -2   0   2 669.338 21.8922   7
   2   0  -2 666.786 21.6276   2
   1   0  -2 6.56504 2.38106   7
   1   0  -2 1.27847 2.85443   6
  -1   0   2 -0.4029 3.64180   1
   1   0  -2 -2.5004 1.73614   2
  -1   0   2 -0.2060 2.15472   6
  -1   0   2 -3.6688 2.54356   5
  -1   0   2 4.08585 2.26871   7
   0   0   2 402.859 12.9694   5
   0   0   2 402.274 11.9511   7
   0   0  -2 403.339 12.2361   7
   0   0   2 400.325 12.3205   6
   0   0   2 401.399 12.3181   6
   0   0  -2 389.308 12.2244   7
   1   0   2 -4.0734 2.90500   4
   1   0   2 1.04340 1.93980   5
   1   0   2 1.94039 2.19294   3
   2   0   2 724.024 24.5476   4
   2   0   2 735.645 22.2660   5
   2   0   2 745.955 22.5599   3
   3   0   2 -3.6869 2.01577   3
   3   0   2 0.23758 3.73525   4
   3   0   2 -3.0835 2.67056   2
   4   0   2 307.442 9.95965   6
   4   0   2 290.554 12.2710   2
   4   0   2 294.351 15.5858   4
   4   0   2 305.493 11.2339   3
   4   0   2 304.015 9.91900   6
  -4   0  -2 306.191 9.88120   7
   5   0   2 2.72362 2.92649   3
   5   0   2 1.41617 2.71380   6
  -5   0  -2 -4.2319 2.73817   7
   5   0   2 -0.4428 4.99833   4
   5   0   2 0.11123 4.28235   2
  -5   0  -2 -1.3371 2.75114   7
  -6   0  -2 93.1334 6.76372   7
   6   0   2 92.0515 7.50927   3
   6   0   2 97.5231 6.53715   6
   6   0   2 88.4122 8.31413   2
   6   0   2 90.1271 11.2936   4
   7   0   2 -7.4390 8.53541   4
   7   0   2 -1.4041 3.41509   3
  -7   0  -2 -0.6310 4.01717   7
  -8   0  -2 250.962 14.6255   7
   8   0   2 287.786 20.9073   4
   9   0   2 -0.9562 6.81484   6
   9   0   2 12.6227 10.9567   4
  -9   0  -2 -5.9511 5.44394   7
  10  -1  -2 182.635 19.2587   4
  10  -1  -2 190.766 15.7553   6
 -10  -1   2 243.863 20.2576   1
  10  -1  -2 187.313 15.4892   3
 -10  -1   2 181.952 15.7626   7
  10   1  -2 163.385 16.6196   4
  10   1  -2 189.423 14.9921   2
 -10   1   2 170.328 15.2337   1
 -10   1   2 197.797 16.0001   7
   9  -1  -2 815.984 33.3292   3
   9  -1  -2 777.859 32.6655   6
   9  -1  -2 826.402 37.9219   4
  -9  -1   2 860.048 37.9634   1
   9  -1  -2 862.953 35.0064   2
  -9  -1   2 871.367 33.3897   7
   9   1  -2 810.985 32.7076   2
  -9   1   2 829.716 32.0704   7
  -9   1   2 849.268 30.9255   5
  -9   1   2 852.910 34.1996   1
   9   1  -2 900.290 37.1390   4
  -8  -1   2 30.0764 8.29206   7
   8  -1  -2 26.9603 8.07530   6
   8  -1  -2 25.5244 6.72774   3
   8  -1  -2 15.6856 14.1092   4
   8  -1  -2 34.0099 7.37730   2
   8   1  -2 34.2587 7.42111   2
  -8   1   2 23.8072 8.44027   1
  -8   1   2 16.9001 6.52960   5
   8   1  -2 12.3135 7.91243   4
  -8   1   2 25.9222 8.31835   7
   7  -1  -2 86.2004 10.3767   2
   7  -1  -2 105.560 16.4183   4
  -7  -1   2 74.7642 9.45926   7
   7  -1  -2 86.3496 9.44260   6
  -7   1   2 94.0926 8.64194   5
  -7   1   2 79.5726 9.46635   7
   7   1  -2 83.0241 10.3182   2
  -7   1   2 72.9141 9.76166   1
   7   1  -2 79.6291 10.6149   4
   6  -1  -2 -3.2746 5.72304   6
   6  -1  -2 7.34935 6.75881   2
  -6  -1   2 7.37009 4.74158   6
   6  -1  -2 4.29956 9.09578   4
  -6  -1   2 7.35643 6.03700   7
   6   1  -2 12.6961 5.20922   7
  -6   1   2 7.83856 4.70697   6
  -6   1   2 19.2947 5.49873   5
   6   1  -2 9.57636 5.27283   2
  -6   1   2 10.3584 6.25622   7
   6   1  -2 11.0890 9.97011   4
  -6   1   2 10.0285 6.56521   1
  -5  -1   2 541.156 19.9599   7
   4  -1  -2 386.391 16.2568   2
  -4  -1   2 384.721 14.7029   6
  -4  -1   2 379.756 15.7019   7
   4  -1  -2 381.062 22.3791   4
   4  -1  -2 393.930 14.8829   7
   4  -1  -2 368.484 15.7465   6
  -4   1   2 390.324 15.4940   6
  -4   1   2 379.314 15.5735   1
  -4   1   2 359.941 15.6421   7
   4   1  -2 389.639 15.5910   7
   4   1  -2 368.230 15.0876   2
  -4   1   2 370.340 14.5513   5
   3  -1  -2 1517.84 45.5778   6
  -3  -1   2 1533.26 45.6418   6
  -3  -1   2 1490.75 45.3234   7
   3  -1  -2 1454.28 45.2643   2
   3  -1  -2 1464.53 45.7014   7
  -3   1   2 1491.59 45.5204   5
  -3   1   2 1433.50 45.2956   7
  -3   1   2 1428.09 46.0679   1
   3   1  -2 1485.22 45.5233   7
  -3   1   2 1508.37 45.4873   6
   3   1  -2 1498.75 45.5974   2
  -2  -1   2 79.9678 6.00870   6
   2  -1  -2 76.9798 5.78077   2
   2  -1  -2 73.6648 7.00377   7
  -2  -1   2 79.2634 6.49676   7
   2  -1  -2 71.6190 5.89016   6
   2   1  -2 73.9885 6.27165   7
  -2   1   2 85.2717 7.58724   5
  -2   1   2 73.5973 6.01197   7
  -2   1   2 80.1084 6.61914   6
  -1  -1   2 3643.81 104.308   6
  -1  -1   2 3552.19 104.503   3
   1  -1  -2 3742.22 104.280   6
  -1  -1   2 3511.14 104.234   7
   1  -1  -2 3464.26 104.244   7
  -1   1   2 3598.33 104.404   6
  -1   1   2 3584.67 104.586   5
  -1   1   2 3664.58 104.203   7
   1   1  -2 3538.34 104.129   7
   0  -1  -2 2642.39 74.8335   6
   0  -1   2 2509.94 75.0760   1
   0  -1   2 2640.27 75.0813   6
   0  -1   2 2590.51 75.6355   3
   0  -1  -2 2542.33 75.0909   7
   0  -1   2 2552.04 74.8736   7
   0  -1  -2 2719.04 75.0518   7
   0  -1   2 2570.20 76.1081   4
   0   1   2 2604.00 75.1744   6
   0   1  -2 2579.13 74.9666   7
   0   1   2 2670.95 74.7813   7
   0   1   2 2607.08 75.7499   5
   0   1  -2 2250.34 75.3416   7
   1  -1   2 3.96636 2.24385   6
  -1  -1  -2 6.66287 2.17902   7
   1  -1   2 3.49723 2.79658   3
  -1  -1  -2 5.82489 2.06230   7
   1  -1   2 4.66856 2.45008   6
   1  -1   2 -1.4183 5.24760   4
   1   1   2 3.12894 1.72608   6
  -1   1  -2 4.77352 2.26245   7
   1   1   2 7.19629 2.05879   6
  -1   1  -2 8.55012 2.12046   7
   1   1   2 3.39177 2.79562   5
   2  -1   2 554.784 16.6916   6
   2  -1   2 551.260 20.9329   4
  -2  -1  -2 535.971 16.3120   7
   2  -1   2 552.169 18.2476   3
   2  -1   2 539.818 16.6400   6
   2   1   2 538.297 18.3195   5
   2   1   2 553.935 16.4931   6
   2   1   2 546.654 16.4675   6
   2   1   2 535.616 17.0406   2
  -2   1  -2 537.385 16.5653   7
   2   1   2 539.887 18.4966   4
  -2   1  -2 537.211 16.5407   7
   3  -1   2 101.074 6.25405   3
   3  -1   2 97.1425 9.53544   4
   3  -1   2 99.8453 4.94219   6
   3  -1   2 111.022 4.98379   6
  -3  -1  -2 103.048 4.58343   7
   3   1   2 95.6603 6.90884   5
  -3   1  -2 108.447 4.86162   7
   3   1   2 102.773 4.74430   6
  -3   1  -2 100.323 4.88817   7
   3   1   2 102.732 6.22467   2
   3   1   2 107.967 7.85483   4
   3   1   2 103.477 4.70387   6
  -4  -1  -2 1717.74 52.1365   7
   4  -1   2 1831.47 52.4068   6
   4  -1   2 1725.13 56.8776   4
   4  -1   2 1846.93 54.3019   3
  -4  -1  -2 1774.86 52.0911   7
   4  -1   2 1749.83 52.5323   6
   4   1   2 1781.83 52.2358   6
  -4   1  -2 1748.47 52.4181   7
   4   1   2 1778.34 55.1770   4
   4   1   2 1809.76 51.3447   3
   4   1   2 1744.88 53.5090   2
   4   1   2 1752.50 52.3417   6
  -5  -1  -2 1407.13 43.1378   7
  -5  -1  -2 1463.29 43.2759   7
   5  -1   2 1453.07 43.7162   6
   5  -1   2 1452.59 43.4287   6
   5  -1   2 1444.24 49.5386   4
   5  -1   2 1413.44 44.8218   3
   5   1   2 1392.38 46.1768   4
  -5   1  -2 1445.05 43.5946   7
   5   1   2 1417.80 43.3379   6
   5   1   2 1451.80 42.1280   3
   5   1   2 1402.70 44.7492   2
   5   1   2 1416.37 43.3019   6
   6  -1   2 941.460 36.2641   4
  -6  -1  -2 968.733 30.7399   7
   6  -1   2 969.989 32.2914   3
   6  -1   2 949.968 30.9413   6
   6   1   2 958.343 28.9718   3
  -6   1  -2 958.593 30.8695   7
  -6   1  -2 923.969 31.9739   1
   6   1   2 959.087 34.6510   4
   6   1   2 945.948 30.5443   6
   6   1   2 950.137 32.4755   2
   7  -1   2 377.282 24.3047   4
  -7  -1  -2 431.103 17.3016   7
   7  -1   2 424.923 17.8110   3
   7  -1   2 426.015 17.5284   6
  -7   1  -2 395.997 18.6577   1
   7   1   2 436.253 19.9370   4
  -7   1  -2 407.418 17.6273   7
   7   1   2 407.059 17.6347   2
  -8  -1  -2 115.488 10.1684   7
   8  -1   2 113.243 15.2804   4
   8  -1   2 123.714 10.2343   6
   8  -1   2 115.151 9.61833   3
  -8   1  -2 115.149 9.30840   7
   8   1   2 110.089 9.70435   2
   8   1   2 125.054 13.0457   4
  -9  -1  -2 201.900 13.5026   7
   9  -1   2 229.947 22.6386   4
   9  -1   2 158.993 12.7610   6
  -9   1  -2 191.569 13.4618   7
   9   1   2 220.277 18.6269   4
   9   1   2 177.557 13.0414   2
  10  -2  -2 395.292 22.4791   6
  10  -2  -2 368.016 22.8073   3
 -10  -2   2 395.249 22.7706   7
  10  -2  -2 337.111 26.9437   4
 -10   2   2 356.908 22.4786   7
  10   2  -2 368.756 23.1479   2
   9  -2  -2 463.378 24.4805   3
  -9  -2   2 488.440 23.8927   7
   9  -2  -2 446.987 23.1708   6
   9  -2  -2 452.867 33.1080   4
   9   2  -2 480.677 24.2871   2
   9   2  -2 486.189 24.2811   4
  -9   2   2 439.596 21.6363   7
  -8  -2   2 43.3988 9.32491   7
   8  -2  -2 37.2898 9.03106   6
   8  -2  -2 42.4958 15.6529   4
   8  -2  -2 37.0230 7.89737   3
   8   2  -2 31.0458 9.59994   4
  -8   2   2 51.2089 7.28188   5
  -8   2   2 42.6797 9.21587   7
   8   2  -2 40.5673 9.68149   2
  -7  -2   2 269.378 16.5738   7
   7  -2  -2 289.439 17.9970   3
   7  -2  -2 262.799 25.7173   4
   7  -2  -2 271.982 14.8834   6
  -7   2   2 275.956 14.1981   5
   7   2  -2 315.938 17.6800   4
   7   2  -2 257.292 15.3356   2
  -7   2   2 297.581 16.8036   7
   6  -2  -2 294.970 16.0779   6
  -6  -2   2 308.175 16.1828   7
   6  -2  -2 309.610 15.6989   3
  -6  -2   2 287.653 14.0972   6
   6  -2  -2 286.165 24.7318   4
   6   2  -2 308.786 15.1767   2
   6   2  -2 316.624 17.0542   4
  -6   2   2 282.572 14.2013   6
  -6   2   2 290.313 16.0593   7
   6   2  -2 298.543 14.2641   7
  -6   2   2 303.939 14.2128   5
   5  -2  -2 1074.51 40.7819   4
   5  -2  -2 989.022 34.4678   3
   5  -2  -2 1026.39 34.4594   6
  -5  -2   2 892.832 33.0602   7
  -5  -2   2 1002.28 33.3161   6
   5   2  -2 1023.69 34.6781   4
  -5   2   2 1002.51 33.4945   6
   5   2  -2 1045.21 33.3880   7
  -5   2   2 1062.41 33.2207   5
   5   2  -2 957.316 33.5527   2
  -5   2   2 955.143 34.0429   7
   4  -2  -2 44.7041 9.29099   4
  -4  -2   2 37.8031 5.16711   7
   4  -2  -2 32.5448 5.05873   6
  -4  -2   2 34.6629 5.76399   6
  -4   2   2 30.8431 4.89979   7
   4   2  -2 36.6644 5.41121   2
   4   2  -2 43.2642 6.34643   6
  -4   2   2 24.0396 5.25202   5
  -4   2   2 36.1401 6.03063   6
   4   2  -2 51.5264 5.30959   7
   3  -2  -2 262.200 12.6389   6
   3  -2  -2 240.402 18.4710   4
  -3  -2   2 261.681 11.4837   7
  -3  -2   2 232.820 11.7660   6
   3   2  -2 253.862 12.2495   7
  -3   2   2 255.901 11.4196   6
  -3   2   2 242.790 11.6874   5
   3   2  -2 262.047 12.4694   6
  -3   2   2 239.677 12.3762   7
  -2  -2   2 4285.73 128.242   7
   2  -2  -2 4419.92 128.472   6
  -2  -2   2 4446.07 128.186   3
  -2  -2   2 4555.44 128.560   6
  -2   2   2 4382.06 128.623   6
   2   2  -2 4381.52 128.432   6
   2   2  -2 4382.61 128.292   7
  -2   2   2 4324.05 128.346   7
  -2   2   2 4356.28 128.329   5
  -1  -2   2 5410.10 156.300   6
  -1  -2   2 5357.31 156.410   3
  -1  -2   2 5264.14 156.107   7
   1  -2  -2 5539.19 156.346   6
  -1  -2   2 5471.63 156.090   4
   1   2  -2 5351.80 156.317   6
  -1   2   2 5478.27 156.123   7
  -1   2   2 5314.56 156.476   5
   1   2  -2 5322.60 156.139   7
  -1   2   2 5329.98 156.379   6
   0  -2   2 47.9118 5.92550   4
   0  -2   2 52.4296 5.02615   3
   0  -2   2 54.2868 5.23580   6
   0  -2  -2 53.6436 4.23655   6
   0  -2   2 59.2608 5.43775   7
   0  -2  -2 59.2613 4.78559   3
   0   2  -2 58.5239 5.47184   7
   0   2   2 60.3919 4.72586   7
   0   2   2 60.3486 5.71834   6
   0   2   2 54.7450 5.26318   5
   0   2  -2 53.3729 5.15898   6
  -1  -2  -2 547.554 18.2183   6
   1  -2   2 555.962 21.3899   4
   1  -2   2 565.139 18.6997   6
   1  -2   2 539.936 19.5960   3
   1  -2   2 607.862 18.6111   7
  -1  -2  -2 576.303 17.9030   3
  -1   2  -2 578.029 19.0429   7
   1   2   2 567.564 18.1315   7
   1   2   2 551.819 19.6392   5
   1   2   2 566.488 18.7510   6
  -1   2  -2 568.157 18.5540   6
   2  -2   2 5775.48 171.299   3
   2  -2   2 5667.34 169.009   7
  -2  -2  -2 5898.51 169.007   3
   2  -2   2 5888.71 170.107   6
   2  -2   2 6430.26 173.285   4
   2   2   2 5912.75 170.104   6
   2   2   2 5956.44 170.047   6
  -2   2  -2 5901.22 169.985   7
   2   2   2 5584.31 168.712   7
   2   2   2 5801.00 171.232   5
  -3  -2  -2 2138.30 63.9506   7
  -3  -2  -2 2201.13 64.1083   7
   3  -2   2 2130.66 64.3338   6
   3  -2   2 2220.61 64.3219   6
   3  -2   2 2148.99 67.8464   4
   3  -2   2 2177.98 65.8528   3
   3   2   2 2188.64 64.2168   6
  -3   2  -2 2142.43 64.1932   7
   3   2   2 2152.32 64.1310   4
   3   2   2 2162.67 65.7382   5
   3   2   2 2082.04 64.0840   2
   3   2   2 2183.26 64.1139   6
   4  -2   2 468.290 16.4903   6
   4  -2   2 467.361 16.6353   6
   4  -2   2 467.772 21.0831   4
  -4  -2  -2 460.292 16.4142   7
  -4  -2  -2 443.715 16.0264   7
   4  -2   2 457.810 17.9929   3
   4   2   2 450.938 16.3657   6
   4   2   2 475.582 16.4647   6
  -4   2  -2 453.068 16.8137   7
   4   2   2 447.192 16.4406   2
   4   2   2 458.561 16.7858   4
   5  -2   2 66.7281 6.05418   6
  -5  -2  -2 71.0835 5.95043   7
  -5  -2  -2 86.4859 7.49120   7
   5  -2   2 69.8283 8.01053   3
   5  -2   2 73.5019 10.2096   4
   5  -2   2 77.1225 6.18911   6
   5   2   2 65.8689 5.96859   6
   5   2   2 73.4299 6.93959   4
   5   2   2 69.5556 6.12800   6
   5   2   2 69.6281 6.98604   2
  -5   2  -2 67.6172 5.97233   7
   6  -2   2 1625.90 50.8654   6
   6  -2   2 1624.70 52.6321   3
   6  -2   2 1669.88 57.8738   4
  -6  -2  -2 1650.66 50.3949   7
   6   2   2 1588.55 50.3366   6
   6   2   2 1617.57 51.9207   4
   6   2   2 1588.86 51.3978   2
  -6   2  -2 1609.96 50.6362   7
  -7  -2  -2 1422.98 45.1340   7
   7  -2   2 1350.07 51.5694   4
   7  -2   2 1408.13 47.1914   3
   7  -2   2 1436.31 45.7593   6
   7   2   2 1417.98 46.3922   2
   7   2   2 1397.82 45.2230   6
  -7   2  -2 1394.88 45.4512   7
   7   2   2 1422.66 47.1781   4
   8  -2   2 1140.21 38.8393   6
   8  -2   2 1158.23 39.7152   3
  -8  -2  -2 1165.01 38.5632   7
   8  -2   2 1152.27 45.7459   4
   8   2   2 1072.13 39.4096   2
  -8   2  -2 1114.76 38.6008   7
   8   2   2 1104.37 40.6260   4
   9   2   2 67.5531 9.96092   2
  10  -3  -2 63.1317 19.9421   4
 -10  -3   2 80.4891 13.1253   7
  10  -3  -2 85.9671 14.1260   3
  10  -3  -2 82.9814 11.1565   6
 -10   3   2 82.7510 11.1380   7
  10   3  -2 85.5139 13.2818   2
   9  -3  -2 246.416 23.4905   4
   9  -3  -2 236.793 17.3525   3
  -9  -3   2 216.132 18.6411   7
   9  -3  -2 260.448 18.7750   6
   9   3  -2 244.381 16.4598   2
  -9   3   2 246.860 18.9878   7
   8  -3  -2 1772.46 59.1557   6
   8  -3  -2 1754.82 61.0069   3
   8  -3  -2 1729.99 67.5080   4
  -8  -3   2 1792.40 59.2143   7
  -8   3   2 1775.21 59.4109   7
  -8   3   2 1775.80 56.2325   5
   8   3  -2 1776.62 58.6884   2
   7  -3  -2 891.287 34.7102   3
   7  -3  -2 844.738 33.0500   6
  -7  -3   2 861.259 32.9356   7
   7  -3  -2 841.682 37.8427   4
   7   3  -2 869.246 29.9830   4
  -7   3   2 834.855 32.8295   7
  -7   3   2 862.899 30.2015   5
   7   3  -2 853.887 31.9527   2
   6  -3  -2 151.994 13.5114   6
   6  -3  -2 128.550 15.3268   4
   6  -3  -2 195.159 16.0380   3
  -6  -3   2 197.651 14.4842   7
  -6  -3   2 156.423 10.0754   6
   6   3  -2 173.976 13.9130   6
  -6   3   2 164.010 14.0491   7
  -6   3   2 184.865 11.4715   5
  -6   3   2 148.420 11.5481   6
  -5  -3   2 1126.20 37.2524   7
  -5  -3   2 1079.85 35.9968   6
   5  -3  -2 1094.37 43.3368   4
   5  -3  -2 1062.98 37.5681   3
   5  -3  -2 1055.95 37.2343   6
  -5   3   2 1074.37 35.6128   5
  -5   3   2 1060.82 36.3047   6
  -5   3   2 1064.26 37.0665   7
   5   3  -2 1118.24 37.1633   2
   5   3  -2 1117.92 34.9022   4
   5   3  -2 918.915 35.8474   6
   5   3  -2 1078.07 35.9736   7
  -4  -3   2 2982.19 90.1020   6
   4  -3  -2 3083.01 94.0051   4
  -4  -3   2 2979.35 90.3896   7
   4  -3  -2 2967.92 91.6375   3
   4  -3  -2 2985.89 91.0238   6
  -4   3   2 2986.80 90.5069   7
   4   3  -2 3007.37 90.6378   6
   4   3  -2 2986.18 90.0183   7
  -4   3   2 3001.17 90.5883   6
  -4   3   2 2968.16 89.7946   5
  -3  -3   2 1884.24 59.3604   7
   3  -3  -2 1892.99 60.3251   3
   3  -3  -2 1966.35 60.0371   6
  -3  -3   2 1941.84 58.8341   3
   3  -3  -2 1970.95 62.1775   4
  -3  -3   2 1969.01 59.6091   6
   3   3  -2 1918.68 59.5479   6
  -3   3   2 1896.52 59.1940   5
  -3   3   2 1886.44 59.4744   6
   3   3  -2 1913.42 59.0606   7
  -3   3   2 1914.55 59.7334   7
   2  -3  -2 1451.65 46.9013   4
  -2  -3   2 1449.69 45.1862   6
  -2  -3   2 1461.29 45.6563   7
   2  -3  -2 1408.60 45.1841   6
  -2  -3   2 1427.03 44.7310   3
   2  -3  -2 1436.43 45.7550   3
   2   3  -2 1429.32 45.3149   6
  -2   3   2 1434.41 45.4007   6
  -2   3   2 1405.56 45.3106   5
  -2   3   2 1416.87 45.3325   7
   2   3  -2 1468.37 45.4606   7
   1  -3  -2 908.913 30.3922   6
  -1  -3   2 909.898 30.4596   7
  -1  -3   2 956.532 31.0925   6
   1  -3  -2 910.268 30.3354   3
  -1  -3   2 955.951 30.9687   3
   1  -3  -2 925.218 31.3233   4
  -1  -3   2 912.402 29.8958   4
  -1   3   2 939.978 30.7664   7
  -1   3   2 917.767 30.7408   6
   1   3  -2 953.587 31.1274   6
  -1   3   2 921.141 30.8371   5
   1   3  -2 959.066 31.0273   7
   0  -3  -2 1037.03 33.1688   6
   0  -3   2 1013.11 33.2381   7
   0  -3   2 1015.01 33.5539   6
   0  -3  -2 1043.87 32.5303   3
   0  -3   2 1041.39 33.6230   3
   0  -3   2 1036.99 33.3965   4
   0   3   2 1022.07 32.6961   7
   0   3  -2 1007.74 33.3278   6
   0   3   2 1030.53 34.2833   5
   0   3   2 1037.13 33.8124   6
   0   3  -2 1034.67 33.1240   7
  -1  -3  -2 3766.94 111.314   3
   1  -3   2 4310.16 114.583   4
   1  -3   2 3754.70 112.662   6
   1  -3   2 3552.83 113.089   3
  -1  -3  -2 4140.06 112.229   6
   1  -3   2 3538.25 111.864   7
   1   3   2 3833.13 113.572   5
  -1   3  -2 3639.20 112.368   7
  -1   3  -2 3683.45 112.151   6
   1   3   2 3669.09 112.504   6
   1   3   2 4116.10 112.011   7
  -2  -3  -2 1098.74 34.1368   7
  -2  -3  -2 1056.75 33.0925   6
   2  -3   2 1042.03 33.2998   7
  -2  -3  -2 1086.03 32.1304   3
   2  -3   2 1053.34 37.1776   4
   2  -3   2 1088.56 35.8561   3
   2  -3   2 1082.39 34.4528   6
   2   3   2 1017.23 33.9719   6
   2   3   2 1050.19 32.9156   7
   2   3   2 1063.39 35.8061   5
  -2   3  -2 1001.06 33.2974   6
  -2   3  -2 1093.61 34.3986   7
   3  -3   2 86.1993 9.00300   3
  -3  -3  -2 93.9781 3.94116   3
   3  -3   2 86.0767 9.46973   4
   3  -3   2 80.2687 7.08631   6
   3  -3   2 91.2843 6.70110   7
  -3  -3  -2 75.2507 7.53690   7
   3   3   2 81.2757 8.86360   5
   3   3   2 90.4221 5.61336   7
  -3   3  -2 83.6017 7.18093   7
   3   3   2 88.4551 7.03903   6
   4  -3   2 135.498 10.1689   3
   4  -3   2 125.995 13.5553   4
  -4  -3  -2 134.788 10.3073   7
   4  -3   2 124.075 9.25190   6
   4   3   2 126.878 9.77679   6
   4   3   2 125.989 7.96153   2
  -4   3  -2 117.346 9.63602   7
   5  -3   2 3262.80 103.722   4
   5  -3   2 3268.71 100.136   3
   5  -3   2 3288.37 98.2084   6
  -5  -3  -2 3430.00 97.9592   7
  -5   3  -2 3233.64 97.9071   7
   5   3   2 3269.10 96.0836   4
   5   3   2 3160.75 97.6573   2
   5   3   2 3219.53 97.7854   6
   6  -3   2 165.563 13.9395   3
   6  -3   2 125.797 10.7000   6
  -6  -3  -2 127.228 9.87176   7
  -6   3  -2 125.482 10.8139   7
   6   3   2 126.504 10.6726   6
   6   3   2 117.989 9.22823   2
   7  -3   2 27.8050 10.4810   4
   7  -3   2 10.7723 6.05031   6
  -7  -3  -2 18.9821 6.84791   7
   7  -3   2 13.0242 8.20512   3
   7   3   2 8.41539 6.28200   2
   7   3   2 18.3456 6.54685   6
  -7   3  -2 21.6101 6.62654   7
   8  -3   2 175.787 18.1967   4
   8  -3   2 172.471 13.3531   6
  -8  -3  -2 174.939 13.8216   7
   8  -3   2 186.339 14.8773   3
  -8   3  -2 142.151 12.0559   7
   8   3   2 175.951 13.2296   6
   8   3   2 165.133 11.6120   2
   9  -3   2 956.723 46.9108   4
  -9  -3  -2 937.817 35.9187   7
   9  -3   2 973.849 38.1793   3
   9  -3   2 999.784 36.4663   6
  -9   3  -2 932.385 35.8910   7
  -9  -4   2 162.966 15.9842   7
   9  -4  -2 177.202 24.1465   4
   9  -4  -2 141.377 16.5239   3
   9  -4  -2 154.060 14.0609   6
  -9   4   2 176.453 16.0689   7
   9   4  -2 176.172 15.5878   2
   8  -4  -2 62.3640 11.3780   6
   8  -4  -2 40.5998 11.6039   3
   8  -4  -2 53.3845 14.1135   4
  -8  -4   2 58.9165 11.8179   7
   8   4  -2 73.0159 9.49521   2
  -8   4   2 54.9220 11.3312   7
   7  -4  -2 736.027 32.9488   3
  -7  -4   2 772.195 31.0338   7
   7  -4  -2 721.761 29.9553   6
   7  -4  -2 790.861 39.8478   4
  -7   4   2 759.191 27.7542   5
   7   4  -2 741.655 29.4606   2
  -7   4   2 727.322 29.7167   7
   7   4  -2 750.319 30.9528   6
  -6  -4   2 1964.60 65.3292   7
   6  -4  -2 2049.76 64.1251   7
   6  -4  -2 2015.40 66.0017   6
   6  -4  -2 1996.74 69.9456   4
   6  -4  -2 1985.88 66.5692   3
  -6   4   2 2018.17 65.6707   7
   6   4  -2 2038.26 65.3314   2
  -6   4   2 1999.95 63.2949   5
   6   4  -2 2161.61 64.5788   7
   6   4  -2 1948.32 65.0551   6
  -5  -4   2 438.394 19.9881   7
   5  -4  -2 459.845 23.1328   3
  -5  -4   2 447.441 19.7173   6
   5  -4  -2 502.913 22.0145   6
   5  -4  -2 436.886 24.6602   4
  -5   4   2 437.533 21.2268   7
   5   4  -2 418.369 18.5929   7
  -5   4   2 456.096 20.9704   6
  -5   4   2 482.003 19.5904   5
   5   4  -2 438.444 19.9886   6
   4  -4  -2 1142.24 41.2366   3
  -4  -4   2 1188.88 39.0504   6
   4  -4  -2 1235.98 44.9209   4
   4  -4  -2 1160.10 40.4089   6
  -4  -4   2 1153.77 39.5679   7
  -4   4   2 1129.83 40.0137   6
   4   4  -2 1165.16 39.3778   7
  -4   4   2 1110.12 39.2956   7
   4   4  -2 1164.70 39.6747   6
  -4   4   2 1183.52 38.5870   5
  -3  -4   2 141.614 11.5911   6
  -3  -4   2 116.500 10.8301   7
   3  -4  -2 108.877 9.53256   6
  -3  -4   2 97.2204 8.04899   3
   3  -4  -2 119.670 10.3859   3
   3  -4  -2 129.090 13.9625   4
  -3   4   2 108.771 10.6888   6
  -3   4   2 126.086 11.1464   5
  -3   4   2 106.540 8.87939   7
   3   4  -2 113.033 10.0871   6
   3   4  -2 106.625 9.50251   7
  -2  -4   2 3422.18 102.346   6
  -2  -4   2 3343.84 102.287   7
   2  -4  -2 3463.40 102.612   6
   2  -4  -2 3526.31 103.942   4
   2  -4  -2 3318.53 102.459   3
  -2  -4   2 3392.51 101.993   3
  -2   4   2 3377.03 102.900   6
   2   4  -2 3387.98 102.341   7
  -2   4   2 3401.71 102.484   7
   2   4  -2 3390.10 102.804   6
  -2   4   2 3406.28 102.624   5
   1  -4  -2 1312.48 42.6026   4
  -1  -4   2 1326.87 43.1826   7
  -1  -4   2 1358.99 43.0528   3
  -1  -4   2 1317.24 41.4826   4
   1  -4  -2 1267.34 42.2723   3
  -1  -4   2 1349.87 42.8895   6
   1  -4  -2 1293.79 42.5116   6
   1   4  -2 1312.80 42.8062   6
   1   4  -2 1273.20 42.4340   7
  -1   4   2 1339.85 43.7286   6
  -1   4   2 1312.82 43.5849   5
  -1   4   2 1306.62 42.7472   7
   0  -4  -2 1526.87 47.4320   3
   0  -4  -2 1517.20 47.9335   6
   0  -4   2 1491.69 47.5648   7
   0  -4   2 1494.80 48.1823   3
   0  -4  -2 1539.68 46.8238   4
   0  -4   2 1471.33 47.5534   4
   0  -4   2 1587.81 48.6380   6
   0   4   2 1506.10 47.6688   7
   0   4   2 1420.75 48.2949   5
   0   4  -2 1472.40 48.0794   6
   0   4   2 1472.41 48.6923   6
   0   4  -2 1509.49 47.7888   7
  -1  -4  -2 118.561 7.85943   6
  -1  -4  -2 117.359 10.1324   7
   1  -4   2 104.648 9.28468   3
  -1  -4  -2 106.296 8.03504   3
   1  -4   2 110.509 9.32081   6
   1  -4   2 115.366 10.2461   7
  -1  -4  -2 122.611 7.40784   4
   1  -4   2 111.142 10.1607   4
   1   4   2 116.666 10.0024   6
  -1   4  -2 123.120 9.04307   7
   1   4   2 115.395 10.0515   5
  -1   4  -2 105.138 8.25826   6
   1   4   2 102.126 9.02362   7
  -2  -4  -2 448.790 16.4230   3
   2  -4   2 423.060 20.0163   4
   2  -4   2 473.742 18.0341   7
   2  -4   2 418.730 18.9817   3
  -2  -4  -2 407.908 17.1226   6
   2  -4   2 476.257 19.3528   6
  -2  -4  -2 433.141 18.3342   7
   2   4   2 435.431 19.3654   5
   2   4   2 457.992 17.3919   7
  -2   4  -2 512.848 19.5077   7
   2   4   2 400.562 18.0932   6
  -2   4  -2 482.221 18.2554   6
   3  -4   2 178.778 17.1007   4
  -3  -4  -2 209.706 13.7975   7
   3  -4   2 176.053 12.3215   6
  -3  -4  -2 184.696 7.79547   3
   3  -4   2 184.330 12.5696   3
  -3  -4  -2 174.807 9.59321   6
   3  -4   2 175.474 10.3166   7
   3   4   2 166.491 11.1083   6
  -3   4  -2 188.077 10.3515   6
   3   4   2 186.444 12.8123   5
  -3   4  -2 168.358 12.4381   7
   3   4   2 179.384 9.56316   7
   4  -4   2 847.236 34.1423   4
   4  -4   2 832.118 30.4871   6
   4  -4   2 847.629 31.6606   3
  -4  -4  -2 810.124 29.6538   7
  -4   4  -2 865.157 30.4915   7
   4   4   2 869.702 30.8360   6
   5  -4   2 19.0236 8.83517   3
  -5  -4  -2 48.4797 8.43684   7
   5  -4   2 45.6238 7.59191   6
   5  -4   2 33.5067 9.57444   4
   5   4   2 43.6503 6.38884   6
  -5   4  -2 35.3475 7.51932   7
   5   4   2 38.4423 6.86099   2
   6  -4   2 144.812 15.5739   4
  -6  -4  -2 141.703 11.7500   7
   6  -4   2 169.915 14.5378   3
   6  -4   2 153.729 11.0246   6
   6   4   2 143.693 11.7345   6
  -6   4  -2 151.438 13.0111   7
   6   4   2 151.039 11.3207   2
   7  -4   2 113.267 11.2927   6
   7  -4   2 98.2212 11.1698   3
  -7  -4  -2 121.923 11.5324   7
   7  -4   2 113.194 17.3559   4
   7   4   2 106.442 10.3133   2
   7   4   2 79.5731 10.1981   6
  -7   4  -2 124.403 11.4630   7
   8  -4   2 134.393 14.6244   3
  -8  -4  -2 132.736 12.6407   7
   8  -4   2 148.155 20.6101   4
   8  -4   2 109.996 11.8743   6
   8   4   2 123.096 11.7600   2
   8   4   2 136.467 12.2766   6
  -8   4  -2 137.507 12.7763   7
   8  -5  -2 -7.9486 6.60669   6
   8  -5  -2 9.14992 11.4924   3
   8  -5  -2 24.8336 16.8405   4
  -8  -5   2 12.1734 10.4743   7
   8   5  -2 11.1601 7.32802   2
  -8   5   2 -2.8864 7.11340   7
   8   5  -2 15.7818 9.68421   6
   7  -5  -2 548.568 25.7393   6
  -7  -5   2 578.089 25.9036   7
   7  -5  -2 616.908 36.6098   4
   7  -5  -2 575.670 27.4600   3
  -7   5   2 535.146 23.4955   5
   7   5  -2 587.372 27.3393   2
   7   5  -2 578.120 25.8535   6
  -7   5   2 556.310 25.7916   7
   6  -5  -2 154.539 14.4269   6
   6  -5  -2 148.100 13.7700   3
   6  -5  -2 174.733 17.4711   4
  -6  -5   2 182.102 13.9947   7
  -6   5   2 152.188 14.1539   7
  -6   5   2 162.115 13.1599   5
   6   5  -2 154.670 14.3914   6
   5  -5  -2 371.385 21.5688   3
   5  -5  -2 352.010 18.2278   6
   5  -5  -2 337.372 19.0773   7
   5  -5  -2 325.451 25.7902   4
  -5  -5   2 307.027 17.8624   7
   5   5  -2 352.741 18.6176   7
   5   5  -2 351.538 20.2442   6
  -5   5   2 339.768 17.4259   6
  -5   5   2 353.303 20.0294   7
  -5   5   2 322.508 16.1951   5
  -4  -5   2 90.1978 8.89705   3
   4  -5  -2 91.8535 10.3923   3
  -4  -5   2 105.262 11.9791   7
   4  -5  -2 92.0788 9.68806   7
   4  -5  -2 90.8462 11.1271   6
  -4  -5   2 99.9548 9.30588   6
   4  -5  -2 88.5980 14.4971   4
   4   5  -2 83.7792 9.60330   6
  -4   5   2 77.6308 10.7488   6
  -4   5   2 88.9822 10.1339   5
  -4   5   2 76.3221 10.8123   7
   4   5  -2 91.1286 10.4088   7
   3  -5  -2 985.052 36.3131   7
   3  -5  -2 999.110 36.4134   6
   3  -5  -2 980.675 37.0073   4
  -3  -5   2 961.940 36.5732   7
  -3  -5   2 968.958 34.5487   3
   3  -5  -2 969.401 36.7813   3
  -3  -5   2 1026.27 35.2234   6
  -3   5   2 990.749 35.5956   6
   3   5  -2 1002.57 36.8233   6
  -3   5   2 974.784 34.7984   5
   3   5  -2 983.862 35.6565   7
  -3   5   2 978.081 36.1114   7
  -2  -5   2 625.800 23.4445   3
   2  -5  -2 623.475 26.4882   4
  -2  -5   2 648.532 25.4527   6
  -2  -5   2 596.108 25.9278   7
   2  -5  -2 596.578 26.2278   7
   2  -5  -2 584.724 25.3503   3
   2  -5  -2 603.039 25.1965   6
   2   5  -2 596.656 24.5109   6
  -2   5   2 588.233 25.3250   5
  -2   5   2 581.871 23.8577   7
   2   5  -2 571.991 23.7107   7
  -2   5   2 615.506 26.1986   6
  -1  -5   2 -2.6990 7.48498   7
  -1  -5   2 -5.7492 6.48228   3
   1  -5  -2 12.4142 7.11778   3
   1  -5  -2 5.11288 4.73554   6
   1  -5  -2 4.92479 8.82331   7
   1  -5  -2 -3.8844 6.66301   4
  -1  -5   2 8.81576 5.20967   6
  -1  -5   2 -0.3170 4.52756   4
  -1   5   2 2.32277 7.56812   5
   1   5  -2 8.31312 7.44472   7
  -1   5   2 -2.7477 6.74945   7
   1   5  -2 6.23409 5.49972   6
  -1   5   2 5.73818 6.02190   6
   0  -5  -2 955.559 34.9378   7
   0  -5  -2 930.427 31.1621   4
   0  -5  -2 954.545 33.5326   6
   0  -5   2 894.924 32.7128   7
   0  -5   2 943.839 34.2160   3
   0  -5  -2 954.738 32.8650   3
   0  -5   2 956.913 33.4370   6
   0  -5   2 939.751 32.9767   4
   0   5  -2 966.291 34.1459   6
   0   5   2 925.185 33.7683   6
   0   5   2 910.908 34.8866   5
   0   5  -2 916.345 32.9600   7
   0   5   2 907.053 32.3570   7
  -1  -5  -2 568.385 21.4931   3
  -1  -5  -2 585.756 23.1784   6
   1  -5   2 583.488 24.0389   3
   1  -5   2 601.613 25.0623   4
   1  -5   2 648.288 24.2702   7
  -1  -5  -2 546.460 19.3604   4
   1  -5   2 555.869 23.3174   6
  -1  -5  -2 631.560 25.7879   7
   1   5   2 633.833 23.3642   7
  -1   5  -2 563.837 22.7643   6
   1   5   2 627.826 25.7249   6
   1   5   2 546.467 24.1310   5
  -1   5  -2 553.326 23.0989   7
   2  -5   2 387.967 20.1068   3
  -2  -5  -2 371.508 16.7822   6
   2  -5   2 367.310 20.7932   4
  -2  -5  -2 360.135 19.6557   7
   2  -5   2 416.367 19.3664   6
   2   5   2 386.680 20.9648   5
  -2   5  -2 331.199 17.2353   6
  -2   5  -2 369.763 18.8772   7
   2   5   2 332.497 16.6362   7
   2   5   2 368.253 19.6859   6
  -3  -5  -2 79.3547 6.09188   3
  -3  -5  -2 88.0561 10.8517   7
   3  -5   2 84.9812 7.72461   7
   3  -5   2 76.8594 9.36798   3
   3  -5   2 74.0780 10.2596   4
   3  -5   2 61.3777 9.28199   6
   3   5   2 56.4535 8.88607   5
   3   5   2 72.0097 10.2951   6
  -3   5  -2 73.1422 9.58895   7
  -4  -5  -2 718.196 29.0379   7
   4  -5   2 691.222 30.5411   3
   4  -5   2 684.930 33.2012   4
   4  -5   2 734.809 28.7830   6
   4   5   2 697.190 28.7767   6
  -4   5  -2 753.427 28.8132   7
   5  -5   2 229.403 16.0676   6
   5  -5   2 226.761 16.0381   3
  -5  -5  -2 228.708 16.9868   7
   5  -5   2 217.017 18.5600   4
   5   5   2 230.642 16.2704   6
  -5   5  -2 230.164 16.1279   7
   6  -5   2 127.848 12.8091   3
  -6  -5  -2 109.828 12.4105   7
   6  -5   2 126.832 12.4214   6
   6  -5   2 130.363 15.2544   4
   6   5   2 108.663 12.0086   6
  -6   5  -2 126.825 12.3224   7
   6   5   2 110.314 10.7339   2
  -7  -5  -2 20.2139 9.56208   7
   7  -5   2 11.5655 14.1946   4
   7  -5   2 -4.2637 6.75608   3
   7  -5   2 1.50688 7.94126   6
  -7   5  -2 -9.7486 7.95740   7
   7   5   2 -0.5812 5.97359   6
   7   5   2 -1.3568 6.82458   2
  -7  -6   2 96.4604 14.3600   7
   7  -6  -2 85.2592 15.4738   3
   7  -6  -2 90.1221 13.9493   6
   7  -6  -2 96.7317 19.2523   4
   7   6  -2 95.7665 14.1689   6
  -7   6   2 89.8637 13.9607   7
   7   6  -2 98.0224 11.2771   2
   6  -6  -2 51.6594 13.2969   3
  -6  -6   2 71.0689 12.9875   7
   6  -6  -2 53.1546 11.9633   6
   6  -6  -2 77.5475 16.1773   4
  -6   6   2 65.3703 12.4642   7
   6   6  -2 71.5274 12.6976   6
  -6   6   2 69.6607 8.71067   5
   5  -6  -2 181.837 15.6945   6
   5  -6  -2 168.896 16.7236   3
   5  -6  -2 178.369 15.1749   7
   5  -6  -2 190.249 18.3191   4
  -5  -6   2 171.929 16.0540   7
  -5   6   2 172.297 15.5512   7
  -5   6   2 181.431 15.2477   5
   5   6  -2 181.615 16.0382   6
  -4  -6   2 197.293 13.8548   6
  -4  -6   2 214.637 12.6492   3
   4  -6  -2 203.198 17.5593   6
   4  -6  -2 200.323 15.5529   3
  -4  -6   2 221.813 15.8400   7
   4  -6  -2 216.401 21.1215   4
   4  -6  -2 207.413 14.7306   7
  -4   6   2 216.728 18.0417   7
   4   6  -2 190.728 16.6040   7
   4   6  -2 206.092 15.4503   6
  -4   6   2 188.399 13.7326   5
  -4   6   2 200.775 16.0646   6
   3  -6  -2 357.922 22.1361   4
  -3  -6   2 344.489 18.4654   3
   3  -6  -2 331.483 21.4080   7
  -3  -6   2 388.352 20.5055   6
   3  -6  -2 333.821 20.9401   3
   3  -6  -2 338.335 18.5918   6
  -3  -6   2 446.787 22.8494   7
  -3   6   2 414.119 21.5798   7
  -3   6   2 336.471 20.0758   5
  -3   6   2 343.807 19.0647   6
   3   6  -2 344.057 21.2837   6
   3   6  -2 333.495 20.1153   7
  -2  -6   2 0.09333 9.19337   7
   2  -6  -2 -6.6921 7.73918   4
  -2  -6   2 2.28687 5.17537   3
   2  -6  -2 20.6114 9.94104   7
   2  -6  -2 16.1477 6.36277   6
   2  -6  -2 -3.0781 5.91295   3
  -2  -6   2 -2.8494 7.73946   6
   2   6  -2 -11.942 8.55586   6
  -2   6   2 3.96427 9.03950   6
  -2   6   2 -11.762 7.77377   7
  -2   6   2 2.92613 5.87491   5
   2   6  -2 -2.9623 5.69701   7
   1  -6  -2 35.7740 7.80762   4
  -1  -6   2 27.7655 7.17751   6
  -1  -6   2 33.0899 7.01585   3
   1  -6  -2 44.1613 10.6957   7
  -1  -6   2 26.8477 5.94613   4
   1  -6  -2 56.6382 9.52722   6
  -1  -6   2 37.8667 7.78457   7
   1  -6  -2 42.1693 9.07752   3
  -1   6   2 44.3989 10.4151   5
  -1   6   2 15.2229 6.37345   7
  -1   6   2 28.5400 7.64738   6
   0  -6  -2 145.929 12.3307   7
   0  -6   2 137.837 13.0768   7
   0  -6   2 142.174 13.2198   6
   0  -6  -2 140.498 12.2189   6
   0  -6   2 141.913 12.9212   3
   0  -6   2 143.877 12.2950   4
   0  -6  -2 135.335 10.6826   3
   0  -6  -2 132.765 9.62959   4
   0   6   2 138.438 11.3178   7
   0   6   2 134.785 11.8137   6
   0   6   2 144.686 12.4671   5
   0   6  -2 134.957 13.0191   6
   0   6  -2 139.807 13.0030   7
  -1  -6  -2 1370.65 43.1874   3
   1  -6   2 1171.68 44.0006   6
   1  -6   2 1136.45 43.3638   4
   1  -6   2 1314.67 44.3789   7
  -1  -6  -2 1307.22 45.7599   7
  -1  -6  -2 1267.34 43.2445   6
   1  -6   2 1330.91 45.9494   3
  -1   6  -2 1323.25 44.7619   6
   1   6   2 1142.44 43.9847   6
   1   6   2 1279.14 45.3610   5
  -1   6  -2 1282.66 45.0024   7
   1   6   2 1315.17 43.7289   7
   2  -6   2 231.886 15.9649   4
   2  -6   2 212.388 15.0222   6
  -2  -6  -2 250.818 13.6560   3
   2  -6   2 264.151 18.6012   3
   2  -6   2 256.535 16.3393   7
  -2  -6  -2 248.858 18.9790   7
  -2   6  -2 264.046 17.9723   7
   2   6   2 248.859 15.5912   7
   2   6   2 251.327 16.8484   5
   2   6   2 246.578 18.5378   6
   3  -6   2 274.319 19.6673   3
   3  -6   2 301.985 21.5525   4
  -3  -6  -2 275.755 13.2148   3
  -3  -6  -2 271.657 19.4374   7
   3  -6   2 248.370 18.3255   6
  -3   6  -2 304.602 18.9851   7
   3   6   2 252.274 19.2385   6
   4  -6   2 14.7876 11.7924   4
  -4  -6  -2 6.40916 7.22644   7
   4  -6   2 14.9079 7.89992   3
   4  -6   2 22.2522 7.48595   6
  -4   6  -2 22.7702 9.16941   7
   4   6   2 35.8374 8.09664   6
   5  -6   2 387.515 27.4040   4
   5  -6   2 326.444 22.9831   3
  -5  -6  -2 348.507 21.8233   7
   5  -6   2 374.131 21.2360   6
  -5   6  -2 373.563 21.4468   7
   5   6   2 337.925 21.2067   6
   6  -6   2 87.8066 17.2307   4
  -6  -6  -2 69.3337 10.0710   7
   6  -6   2 72.1079 13.5683   3
   6  -6   2 44.3164 11.0299   6
   6   6   2 56.2295 9.60346   2
  -6   6  -2 53.6572 11.5427   7
   6   6   2 42.8003 9.11043   6
   6  -7  -2 7.90424 10.5485   4
  -6  -7   2 16.3215 12.1647   7
   6  -7  -2 15.6046 9.04858   3
   6  -7  -2 -3.0834 10.9684   6
   6   7  -2 13.1029 11.4541   6
  -6   7   2 4.31006 6.14851   5
  -6   7   2 1.79326 11.2489   7
  -5  -7   2 18.0697 8.97981   7
   5  -7  -2 37.2808 13.9349   4
   5  -7  -2 19.6569 12.1964   3
   5  -7  -2 44.2635 10.0275   6
  -5   7   2 20.3517 7.31340   5
   5   7  -2 19.3850 11.8049   6
  -5   7   2 47.9444 12.3851   7
   4  -7  -2 684.271 29.9986   6
   4  -7  -2 664.208 33.1964   4
  -4  -7   2 670.713 28.4147   3
   4  -7  -2 620.512 31.5193   3
   4  -7  -2 669.050 31.4717   7
  -4  -7   2 691.201 32.2892   7
  -4   7   2 681.968 31.7148   7
   4   7  -2 672.351 32.0530   6
   4   7  -2 686.111 30.1978   7
  -4   7   2 661.665 30.1244   5
   3  -7  -2 628.172 28.7864   6
   3  -7  -2 686.327 30.9605   7
  -3  -7   2 656.643 31.2501   7
   3  -7  -2 615.538 30.1465   3
  -3  -7   2 643.967 28.1316   3
   3  -7  -2 665.881 30.7885   4
  -3  -7   2 657.129 28.2581   6
  -3   7   2 673.314 30.5952   7
  -3   7   2 648.835 28.8897   6
   3   7  -2 671.151 30.1202   7
  -3   7   2 655.714 28.3795   5
   3   7  -2 630.835 29.1256   6
  -2  -7   2 110.069 13.1415   6
   2  -7  -2 84.3169 11.2282   4
   2  -7  -2 82.7562 13.3912   7
   2  -7  -2 83.9697 10.6167   6
  -2  -7   2 86.6304 11.6071   3
   2  -7  -2 90.1044 12.4814   3
  -2  -7   2 86.5661 13.2227   7
  -2   7   2 91.4093 12.6904   7
  -2   7   2 87.1066 11.5411   6
   2   7  -2 86.1563 11.0934   6
  -2   7   2 79.2129 10.6878   5
   2   7  -2 76.4415 12.4336   7
  -1  -7   2 195.421 17.0543   7
   1  -7  -2 233.000 15.6922   6
   1  -7  -2 248.994 17.7460   3
  -1  -7   2 215.114 17.3626   3
   1  -7  -2 233.534 17.0760   7
  -1  -7   2 199.192 15.5715   6
  -1   7   2 223.838 18.1662   7
   1   7  -2 252.623 19.6512   7
  -1   7   2 219.178 16.6111   5
  -1   7   2 236.945 20.0113   6
   1   7  -2 217.475 16.2309   6
   0  -7  -2 377.927 21.7094   6
   0  -7   2 372.316 22.3342   3
   0  -7   2 367.829 19.2985   4
   0  -7  -2 410.581 24.3020   7
   0  -7  -2 389.060 20.6636   3
   0  -7   2 356.459 22.6522   7
   0  -7   2 367.437 20.5139   6
   0   7   2 396.089 24.3383   5
   0   7   2 419.116 24.2946   6
   0   7  -2 406.070 21.0289   7
   0   7  -2 420.537 23.4068   6
   0   7   2 388.460 19.8175   7
  -1  -7  -2 349.025 18.7532   3
  -1  -7  -2 364.009 23.4404   7
   1  -7   2 343.789 21.5007   7
   1  -7   2 311.123 19.2150   6
   1  -7   2 371.552 22.3630   3
   1  -7   2 324.527 19.8632   4
   1   7   2 362.027 21.2872   5
   1   7   2 380.868 20.4704   7
  -1   7  -2 353.536 22.1184   7
   1   7   2 379.763 23.2257   6
   2  -7   2 58.8608 11.5364   4
   2  -7   2 39.6059 9.21487   3
   2  -7   2 82.2931 12.2918   6
  -2  -7  -2 33.4899 9.20742   7
  -2  -7  -2 76.3771 8.77679   3
  -2   7  -2 61.6402 11.8258   7
   2   7   2 69.3495 12.8622   6
   2   7   2 59.1634 13.2814   5
   3  -7   2 124.501 12.7692   6
   3  -7   2 148.580 16.1894   4
   3  -7   2 139.171 14.2184   3
  -3  -7  -2 128.607 15.4308   7
   3   7   2 124.742 15.1747   6
  -3   7  -2 159.981 15.3939   7
  -4  -7  -2 182.683 16.8509   7
   4  -7   2 76.6604 11.1421   6
  -4   7  -2 105.065 13.9504   7
  -5  -7  -2 39.5238 12.3610   7
   5  -7   2 33.0890 11.1036   4
   5  -7   2 11.4425 10.6301   6
   5  -7   2 44.5114 10.6871   3
  -5   7  -2 36.6862 11.3702   7
   5   7   2 49.5127 12.7487   6
   3  -8  -2 40.1256 11.3119   4
  -3  -8   2 6.97084 9.44140   3
  -3  -8   2 37.4594 13.0234   7
   3  -8  -2 21.7260 11.7750   3
   3  -8  -2 24.3376 9.08142   6
   3  -8  -2 19.0647 9.27843   7
   3   8  -2 8.89033 9.04839   6
  -3   8   2 32.3308 9.13257   5
   3   8  -2 27.3973 8.84301   7
  -3   8   2 34.6257 12.5572   7
   2  -8  -2 342.161 23.0518   3
   2  -8  -2 306.220 21.2679   7
  -2  -8   2 366.921 25.0657   7
  -2  -8   2 329.379 23.3132   6
   2  -8  -2 336.974 23.4608   6
  -2  -8   2 360.449 22.0250   3
  -2   8   2 357.342 25.1047   6
  -2   8   2 342.917 24.0409   5
   2   8  -2 351.118 21.8712   6
  -2   8   2 336.110 20.7366   7
   2   8  -2 355.651 24.4300   7
   1  -8  -2 1406.30 51.3336   7
   1  -8  -2 1279.56 47.8075   3
  -1  -8   2 1392.34 51.0041   6
  -1  -8   2 1311.02 48.9389   7
  -1  -8   2 1326.46 48.4825   3
   1   8  -2 1268.33 50.0626   7
  -1   8   2 1275.18 50.7809   5
  -1   8   2 1276.08 49.3708   6
  -1   8   2 1376.44 49.9310   7
   1   8  -2 1317.46 50.6654   6
   0  -8   2 -2.1724 10.4434   6
   0  -8   2 0.04344 11.1539   7
   0  -8   2 5.29874 7.49362   3
   0  -8  -2 9.43237 8.95919   7
   0  -8  -2 6.90998 8.85659   3
   0   8  -2 -1.4117 11.0407   7
   0   8   2 -2.7625 11.2068   5
   0   8   2 -9.5327 11.7485   6
   0   8   2 8.48292 7.08464   7
  -1  -8  -2 2.88635 8.76905   7
   1  -8   2 6.63157 7.73936   6
  -1  -8  -2 -3.5723 5.33797   3
   1  -8   2 7.28654 7.85321   3
  -1   8  -2 7.94293 10.9668   7
   1   8   2 -12.170 11.4469   6
  -2  -8  -2 140.605 15.2127   7
   2  -8   2 192.712 18.4085   4
   2  -8   2 168.777 16.1361   3
   2  -8   2 194.687 17.9013   6
   2   8   2 144.920 14.9250   6
  -2   8  -2 173.710 15.7750   7
  11   0  -3 433.271 31.4902   4
  11   0  -3 398.619 26.5766   2
 -11   0   3 382.822 24.7928   7
 -11   0   3 428.598 24.4445   1
  11   0  -3 433.412 22.6856   6
 -10   0   3 4.70281 10.4068   1
  10   0  -3 8.14450 10.4709   4
  10   0  -3 7.47587 8.36033   3
  10   0  -3 2.99571 10.5878   2
 -10   0   3 -6.3253 9.31587   7
  10   0  -3 13.6723 9.09428   6
 -10   0   3 0.16198 7.99718   5
   9   0  -3 169.972 13.8269   2
  -9   0   3 155.974 13.2871   5
   9   0  -3 144.335 12.5800   6
  -9   0   3 150.568 13.1393   7
   9   0  -3 175.543 19.9750   4
  -9   0   3 160.392 15.9113   1
  -8   0   3 2.18867 7.67734   7
   8   0  -3 10.7166 8.81409   2
   8   0  -3 -6.4130 4.89919   6
   8   0  -3 35.5007 14.6649   4
  -8   0   3 16.4235 9.68597   1
  -7   0   3 1241.67 41.9854   1
   7   0  -3 1188.84 38.8195   7
   7   0  -3 1116.40 39.5393   6
  -7   0   3 1145.62 40.2576   7
   7   0  -3 1148.00 41.0212   2
  -7   0   3 1171.51 38.8469   6
   7   0  -3 1104.94 46.1455   4
   6   0  -3 6.62925 6.30761   7
  -6   0   3 4.92598 8.23191   1
   6   0  -3 -7.1510 4.79423   2
   6   0  -3 2.88370 13.4612   4
  -6   0   3 -4.8095 5.46883   6
  -6   0   3 -2.2601 4.48875   7
  -5   0   3 910.176 31.2758   7
   5   0  -3 933.516 31.3614   2
  -5   0   3 924.314 31.0887   6
   5   0  -3 968.631 31.7434   7
  -5   0   3 891.780 32.7812   1
   4   0  -3 -3.3134 3.75751   7
  -4   0   3 5.92583 6.39495   1
   4   0  -3 0.84479 5.26274   2
  -4   0   3 -5.2431 5.05223   7
  -4   0   3 -0.9038 5.05573   6
   3   0  -3 484.355 18.4738   7
  -3   0   3 485.435 19.0046   7
   3   0  -3 522.019 19.1514   6
  -3   0   3 511.775 20.8384   1
   3   0  -3 525.600 18.7969   2
  -3   0   3 533.618 19.3904   6
  -2   0   3 4.17575 5.34976   1
  -2   0   3 1.13690 4.60155   7
   2   0  -3 -2.3079 4.03667   2
   2   0  -3 5.32551 3.61363   7
   2   0  -3 -4.4701 2.98362   6
  -2   0   3 3.87787 4.77054   6
   1   0  -3 917.202 28.3412   6
   1   0  -3 897.164 28.5659   7
  -1   0   3 875.140 28.8433   5
  -1   0   3 931.630 28.3105   7
   1   0  -3 894.341 27.6224   2
  -1   0   3 917.199 28.6908   6
   0   0  -3 -1.2610 2.03078   7
   0   0   3 0.46847 2.08093   6
   0   0  -3 0.24502 1.92099   7
   0   0   3 -0.5977 1.11550   7
   0   0   3 -0.8846 1.91151   6
   0   0   3 -4.3307 3.38056   5
   1   0   3 44.9378 4.17318   3
   1   0   3 45.9937 3.97062   5
   1   0   3 32.2791 6.25390   4
   2   0   3 -1.3172 2.37007   5
   2   0   3 1.05288 5.04017   4
   2   0   3 -2.6083 2.33513   3
   3   0   3 85.9646 7.96899   4
   3   0   3 80.5603 4.75864   5
   3   0   3 74.5781 5.00588   3
   4   0   3 -0.3422 2.43674   3
   4   0   3 7.49028 6.90081   4
  -5   0  -3 131.373 5.71978   7
   5   0   3 127.554 5.74546   6
  -5   0  -3 113.833 5.66456   7
   5   0   3 129.048 12.2132   4
   5   0   3 125.092 6.95232   3
   6   0   3 1.65589 8.30529   4
   6   0   3 2.34293 3.10745   3
  -6   0  -3 -0.1946 3.60739   7
   7   0   3 361.982 22.0700   4
  -8   0  -3 5.37404 4.41592   7
   8   0   3 12.9037 7.38264   4
   9   0   3 462.485 27.8538   4
   9   0   3 470.299 20.2863   6
  -9   0  -3 455.584 20.3901   7
  11  -1  -3 0.29479 9.86513   6
  11  -1  -3 7.07996 15.9701   4
 -11  -1   3 3.08793 10.5223   7
  11  -1  -3 8.03254 9.93136   3
 -11  -1   3 12.4419 13.3297   1
  11   1  -3 -5.5515 9.99424   6
 -11   1   3 -1.9620 10.3709   7
  11   1  -3 12.0672 9.33691   4
  11   1  -3 -1.6517 7.53669   2
 -11   1   3 3.09636 9.50633   1
  10  -1  -3 198.541 20.2009   4
  10  -1  -3 189.221 16.2839   3
  10  -1  -3 184.387 15.8367   6
 -10  -1   3 165.712 15.5728   7
  10  -1  -3 209.353 18.0759   2
 -10  -1   3 188.300 19.1325   1
 -10   1   3 219.509 17.2529   5
 -10   1   3 197.887 16.8193   1
  10   1  -3 192.951 15.7497   2
  10   1  -3 230.376 20.9225   4
 -10   1   3 198.817 16.6622   7
   9  -1  -3 37.1883 8.83727   2
   9  -1  -3 55.3255 16.4471   4
  -9  -1   3 55.9846 8.53551   7
   9  -1  -3 34.9031 9.56279   6
   9  -1  -3 32.3538 9.91052   3
  -9  -1   3 32.9890 12.8571   1
   9   1  -3 52.7699 9.11524   2
  -9   1   3 43.8321 10.2493   7
  -9   1   3 53.2612 10.8050   1
  -9   1   3 51.6508 8.89125   5
   9   1  -3 40.6433 13.5665   4
   8  -1  -3 483.294 32.5770   4
  -8  -1   3 552.566 24.6905   7
   8  -1  -3 578.001 24.2375   2
  -8  -1   3 552.151 26.3814   1
   8  -1  -3 547.326 23.2011   6
   8   1  -3 567.820 23.8896   2
   8   1  -3 489.865 28.5598   4
  -8   1   3 546.238 24.6115   7
  -8   1   3 545.483 22.1028   5
  -8   1   3 524.021 24.1134   1
   7  -1  -3 385.075 29.9035   4
  -7  -1   3 450.831 21.0433   7
  -7  -1   3 403.382 20.2927   6
   7  -1  -3 495.113 21.1804   6
   7  -1  -3 404.976 19.7646   2
   7   1  -3 400.870 26.1215   4
   7   1  -3 449.513 21.6493   2
  -7   1   3 467.051 20.0465   5
  -7   1   3 440.007 20.4819   1
  -7   1   3 439.352 18.9044   6
   7   1  -3 449.147 19.1752   7
  -7   1   3 442.044 20.7919   7
   6  -1  -3 486.036 20.0721   2
   6  -1  -3 495.047 20.3171   7
   6  -1  -3 471.197 25.6677   4
  -6  -1   3 487.122 19.6865   6
  -6  -1   3 478.276 20.7062   7
   6  -1  -3 423.254 20.2681   6
  -6   1   3 482.330 20.2419   5
   6   1  -3 434.252 26.1012   4
  -6   1   3 505.949 22.5646   1
  -6   1   3 472.550 20.7969   7
   6   1  -3 466.477 19.6991   2
   6   1  -3 464.868 19.7956   7
  -6   1   3 478.872 19.7976   6
  -5  -1   3 558.098 21.6202   7
   5  -1  -3 552.969 21.8517   2
  -5  -1   3 541.662 21.2006   6
   5  -1  -3 565.288 21.7865   6
   5  -1  -3 503.735 29.5277   4
   5  -1  -3 531.024 21.5102   7
  -5   1   3 554.536 22.9794   1
   5   1  -3 543.585 20.2713   7
  -5   1   3 540.044 21.2470   5
  -5   1   3 517.472 21.5317   7
  -5   1   3 527.084 20.3457   6
   5   1  -3 558.864 21.9859   2
  -4  -1   3 777.460 27.1890   7
  -4  -1   3 767.840 27.0967   6
   4  -1  -3 755.134 26.5970   7
   4  -1  -3 802.909 27.4577   6
   4  -1  -3 786.297 26.5264   2
   4   1  -3 767.488 26.4175   7
  -4   1   3 771.474 28.2419   1
   4   1  -3 800.292 26.6373   2
  -4   1   3 782.481 27.2439   5
  -4   1   3 822.693 26.8766   7
  -4   1   3 773.689 27.2347   6
  -3  -1   3 256.731 11.5117   6
   3  -1  -3 255.463 13.5498   7
   3  -1  -3 278.664 12.7339   6
   3  -1  -3 252.866 12.2876   2
  -3  -1   3 268.823 11.7067   7
   3   1  -3 268.898 12.8426   7
  -3   1   3 249.526 11.6363   5
  -3   1   3 268.699 11.6336   7
   3   1  -3 246.418 11.1645   2
  -3   1   3 266.496 13.0122   6
  -2  -1   3 16.3136 4.87046   6
  -2  -1   3 9.11044 4.76372   1
   2  -1  -3 10.4023 3.04012   2
   2  -1  -3 8.46418 5.86861   7
   2  -1  -3 9.51466 4.56291   6
  -2  -1   3 9.91688 5.01287   7
  -2   1   3 7.86268 3.38165   7
  -2   1   3 7.24968 3.96767   6
  -2   1   3 17.0011 5.44759   5
   2   1  -3 19.7654 5.22271   7
  -1  -1   3 3954.44 115.348   7
   1  -1  -3 3917.04 115.665   7
  -1  -1   3 4051.00 115.566   6
  -1  -1   3 3815.88 115.966   1
  -1  -1   3 3955.66 116.014   3
   1  -1  -3 4172.03 115.400   6
   1   1  -3 3904.54 115.364   7
  -1   1   3 3945.33 115.740   6
  -1   1   3 3904.69 116.067   5
  -1   1   3 4066.38 115.226   7
   0  -1   3 3381.18 90.4185   7
   0  -1   3 3534.10 91.1960   1
   0  -1  -3 3014.59 90.4628   7
   0  -1   3 2968.96 91.6003   3
   0  -1   3 2968.77 92.3769   4
   0  -1  -3 2998.45 90.1102   6
   0  -1   3 2953.82 90.5949   6
   0  -1  -3 3166.07 90.7964   7
   0   1   3 2980.29 91.4831   5
   0   1   3 2970.15 90.0241   7
   0   1  -3 3031.37 90.5565   7
   0   1   3 3090.04 90.5947   6
   0   1   3 3203.45 90.9102   6
   0   1  -3 3400.54 91.6479   7
  -1  -1  -3 67.6070 3.75356   7
   1  -1   3 71.4512 5.38157   3
   1  -1   3 71.3929 7.47428   4
   1  -1   3 72.7979 4.27305   6
  -1   1  -3 68.1923 3.78776   7
   1   1   3 79.7749 4.52128   6
   1   1   3 70.3369 2.67272   2
   1   1   3 61.4241 3.88320   6
   1   1   3 73.6111 5.67267   5
   2  -1   3 38.9193 2.71618   6
  -2  -1  -3 36.0658 2.56978   7
   2  -1   3 40.3514 2.64599   6
   2  -1   3 37.5677 7.20446   4
   2  -1   3 37.1495 2.07300   5
  -2  -1  -3 38.2040 2.14033   7
   2  -1   3 44.3980 4.88727   3
   2   1   3 37.6134 2.50029   6
  -2   1  -3 41.7479 2.64555   7
   2   1   3 40.7005 3.89230   5
   2   1   3 35.4033 2.72992   6
   2   1   3 38.7605 5.56015   4
   2   1   3 37.2777 3.09250   2
  -2   1  -3 37.1375 2.60103   7
   3  -1   3 1495.83 44.8371   3
  -3  -1  -3 1372.32 41.7245   7
   3  -1   3 1448.21 42.3019   6
   3  -1   3 1489.71 48.0345   4
   3  -1   3 1465.91 42.2470   6
  -3  -1  -3 1426.50 41.7365   7
  -3   1  -3 1424.46 42.1275   7
   3   1   3 1464.38 43.0896   2
   3   1   3 1447.59 42.0032   6
   3   1   3 1395.50 45.3587   4
   3   1   3 1483.26 44.3285   5
  -3   1  -3 1475.73 42.0930   7
   3   1   3 1439.02 41.9652   6
  -4  -1  -3 1627.65 48.9566   7
   4  -1   3 1707.19 51.7977   3
   4  -1   3 1679.83 49.2810   6
   4  -1   3 1633.50 54.8808   4
  -4   1  -3 1720.36 49.3438   7
   4   1   3 1713.54 50.5753   2
   4   1   3 1713.00 49.1185   6
   4   1   3 1614.24 53.1232   4
   4   1   3 1690.55 49.1770   6
  -4   1  -3 1678.33 49.1151   7
  -5  -1  -3 519.913 16.7866   7
  -5  -1  -3 503.650 16.8765   7
   5  -1   3 509.944 16.9914   6
   5  -1   3 514.029 17.2352   6
   5  -1   3 520.352 18.8646   3
   5  -1   3 481.901 24.7746   4
   5   1   3 517.572 21.8691   4
   5   1   3 531.708 16.8728   6
   5   1   3 499.812 18.5824   2
   5   1   3 503.623 16.9119   6
   5   1   3 518.290 15.6542   3
  -5   1  -3 512.872 17.3148   7
   6  -1   3 4.69019 3.83315   6
  -6  -1  -3 4.15465 3.12315   7
   6  -1   3 9.18154 9.79209   4
   6  -1   3 1.28104 4.48950   3
   6   1   3 5.49873 3.58513   6
   6   1   3 8.39816 5.28283   4
  -6   1  -3 1.46294 3.15473   7
   6   1   3 5.75352 4.74557   2
   7  -1   3 87.5378 11.6476   4
   7  -1   3 92.9634 8.10356   3
   7  -1   3 85.3871 7.57986   6
  -7  -1  -3 89.9604 7.22585   7
  -7   1  -3 78.0294 7.27662   7
   7   1   3 73.3227 9.26663   4
   7   1   3 87.6902 8.36420   2
   8  -1   3 437.362 26.1905   4
   8  -1   3 307.641 16.0499   6
  -8  -1  -3 351.172 15.4793   7
  -8   1  -3 348.684 16.4334   7
   8   1   3 371.840 21.5630   4
  -9  -1  -3 104.531 9.34717   7
   9  -1   3 111.631 16.6906   4
   9  -1   3 100.991 10.0574   6
   9   1   3 133.188 14.7454   4
  -9   1  -3 96.3090 9.93602   7
 -10  -2   3 82.9128 12.8963   7
  10  -2  -3 83.0359 13.2316   3
  10  -2  -3 77.5698 19.8889   4
 -10  -2   3 83.6283 16.7869   1
  10  -2  -3 61.1762 11.6534   6
 -10   2   3 85.9027 12.7036   7
  10   2  -3 48.8381 12.2849   2
  -9  -2   3 76.4590 11.6568   7
   9  -2  -3 52.1682 8.90430   6
   9  -2  -3 92.7266 19.1636   4
   9  -2  -3 53.6930 11.6267   3
   9   2  -3 76.1856 12.7563   4
  -9   2   3 31.9569 8.21998   7
   9   2  -3 52.9541 11.1170   2
  -9   2   3 48.0439 8.56385   5
   8  -2  -3 306.273 17.9443   3
  -8  -2   3 328.616 19.1179   7
   8  -2  -3 299.020 16.9575   6
   8  -2  -3 298.345 27.8335   4
  -8   2   3 329.618 17.2962   7
   8   2  -3 327.495 20.2461   2
   8   2  -3 279.513 20.4498   4
  -8   2   3 305.656 16.6087   5
  -7  -2   3 872.655 32.2989   7
   7  -2  -3 792.489 37.1898   4
   7  -2  -3 842.053 31.4007   6
  -7   2   3 881.195 30.7189   5
   7   2  -3 869.992 30.1795   7
   7   2  -3 777.472 33.7709   4
  -7   2   3 841.575 31.1144   7
   7   2  -3 821.347 31.2235   2
   6  -2  -3 657.088 31.2447   4
  -6  -2   3 645.401 24.6918   6
  -6  -2   3 605.623 24.3261   7
   6  -2  -3 643.457 24.8884   6
  -6   2   3 659.364 24.6249   5
   6   2  -3 632.777 24.7946   2
   6   2  -3 683.287 23.9622   7
   6   2  -3 597.858 28.6207   4
  -6   2   3 649.639 24.8165   7
  -6   2   3 651.034 24.9634   6
  -5  -2   3 221.904 13.8491   7
   5  -2  -3 199.722 13.5495   6
  -5  -2   3 230.949 13.1009   6
   5  -2  -3 225.127 18.9307   4
  -5   2   3 179.192 12.3301   5
   5   2  -3 212.687 11.6349   7
   5   2  -3 224.187 14.1630   2
  -5   2   3 220.970 13.4811   6
  -5   2   3 199.880 13.6102   7
   4  -2  -3 1936.82 59.8316   6
  -4  -2   3 1915.57 59.0470   6
   4  -2  -3 1853.87 64.3743   4
  -4  -2   3 1960.94 59.1811   7
  -4   2   3 1888.29 59.4607   7
  -4   2   3 1908.95 59.2578   5
  -4   2   3 1915.46 59.3430   6
   4   2  -3 1861.91 59.1608   2
   4   2  -3 1955.91 59.2235   7
   3  -2  -3 5596.73 163.124   7
  -3  -2   3 5500.18 162.748   7
  -3  -2   3 5634.11 162.924   6
   3  -2  -3 5643.59 163.053   6
  -3   2   3 5594.70 163.132   6
   3   2  -3 5515.33 162.712   7
  -3   2   3 5530.48 162.925   5
  -3   2   3 5568.93 162.891   7
  -2  -2   3 637.134 22.3259   3
  -2  -2   3 625.336 21.7327   7
  -2  -2   3 611.189 21.7017   6
   2  -2  -3 655.985 22.3625   7
   2  -2  -3 639.943 21.7209   6
   2   2  -3 624.035 22.1877   6
  -2   2   3 629.665 22.0058   7
  -2   2   3 633.969 22.0988   5
  -2   2   3 626.438 22.6749   6
   2   2  -3 635.116 21.7230   7
   1  -2  -3 5.06203 3.77423   6
  -1  -2   3 1.20131 3.11482   7
  -1  -2   3 -4.6863 3.17836   3
  -1  -2   3 -4.2859 4.15263   6
  -1  -2   3 5.85159 4.89223   4
   1  -2  -3 13.2549 5.70764   7
  -1   2   3 3.23734 4.66245   6
   1   2  -3 2.89271 4.04528   6
  -1   2   3 1.17897 4.89195   5
   1   2  -3 -0.0334 4.55467   7
  -1   2   3 0.08283 3.81995   7
   0  -2  -3 529.525 17.7485   6
   0  -2   3 536.175 19.5897   4
   0  -2   3 534.977 18.4682   6
   0  -2   3 509.215 18.8067   3
   0  -2   3 524.291 18.1260   7
   0   2   3 525.921 18.2320   6
   0   2   3 529.419 19.6645   5
   0   2   3 545.002 17.7055   7
   0   2  -3 544.916 18.4781   7
   1  -2   3 4377.57 133.252   4
   1  -2   3 4480.59 131.079   6
   1  -2   3 4981.60 129.980   1
   1  -2   3 4414.25 132.217   3
   1   2   3 4462.66 132.341   5
   1   2   3 4464.13 131.070   6
   1   2   3 4404.24 129.867   7
  -1   2  -3 4472.05 130.921   7
   2  -2   3 2139.43 64.3314   6
  -2  -2  -3 2149.44 63.9951   7
   2  -2   3 2089.50 65.8593   3
  -2  -2  -3 2229.81 62.5076   3
   2  -2   3 2141.68 67.7127   4
   2  -2   3 2188.13 64.3681   6
   2   2   3 2188.66 64.1426   6
  -2   2  -3 2159.42 64.2188   7
  -2   2  -3 2259.64 65.4519   7
   2   2   3 2146.44 65.7361   5
   2   2   3 2152.76 64.2750   6
   3  -2   3 1449.32 46.9932   3
   3  -2   3 1533.59 45.3389   6
  -3  -2  -3 1480.63 44.8088   7
   3  -2   3 1537.87 45.1953   6
   3  -2   3 1436.78 49.3314   4
   3   2   3 1529.66 47.1504   5
   3   2   3 1480.35 44.9928   6
  -3   2  -3 1496.16 45.0053   7
   3   2   3 1520.72 44.9283   6
   3   2   3 1431.62 44.7777   2
   3   2   3 1503.36 46.2051   4
  -3   2  -3 1493.52 45.0263   7
   4  -2   3 641.457 21.6308   6
   4  -2   3 662.479 24.2860   3
  -4  -2  -3 672.941 21.4617   7
  -4  -2  -3 638.425 21.1350   7
   4  -2   3 627.771 26.7030   4
   4  -2   3 652.259 21.8540   6
   4   2   3 661.014 21.4629   6
   4   2   3 665.294 21.5017   6
   4   2   3 631.228 21.8340   2
   4   2   3 652.433 23.2518   4
  -4   2  -3 639.909 21.4689   7
  -5  -2  -3 969.617 30.6780   7
   5  -2   3 952.071 36.9505   4
   5  -2   3 984.018 31.1556   6
   5  -2   3 972.702 33.1405   3
  -5   2  -3 973.973 30.9997   7
   5   2   3 943.855 31.4947   2
   5   2   3 957.904 30.7422   6
   5   2   3 954.942 32.9674   4
   6  -2   3 531.008 21.5553   3
  -6  -2  -3 563.322 19.7109   7
   6  -2   3 558.135 20.0473   6
   6  -2   3 505.668 25.9690   4
   6   2   3 533.695 22.2632   4
   6   2   3 548.149 19.6647   6
  -6   2  -3 548.904 20.2484   7
   6   2   3 546.020 20.7277   2
   7  -2   3 1240.90 47.0908   4
  -7  -2  -3 1253.19 39.3732   7
   7  -2   3 1216.50 39.8013   6
  -7   2  -3 1217.01 39.5769   7
   7   2   3 1221.86 42.3785   4
   7   2   3 1121.36 40.1274   2
   7   2   3 1231.94 39.6661   6
   8  -2   3 42.0820 13.8440   4
   8  -2   3 10.4787 5.56438   6
   8  -2   3 36.6840 7.63495   3
  -8  -2  -3 23.8518 7.03171   7
  -8   2  -3 16.2290 5.73934   7
  -9  -2  -3 70.8450 9.97419   7
   9  -2   3 75.6739 17.2838   4
   9  -2   3 37.8518 8.40312   6
  -9   2  -3 43.2059 7.68253   7
  10  -3  -3 519.539 39.0430   4
  10  -3  -3 557.467 27.7179   3
 -10  -3   3 566.477 28.3989   7
  10  -3  -3 551.448 28.3133   6
  10   3  -3 522.817 28.7961   2
 -10   3   3 516.337 28.0839   7
  -9  -3   3 1295.62 47.5965   7
   9  -3  -3 1294.27 56.8843   4
   9  -3  -3 1335.64 48.3216   6
   9  -3  -3 1285.04 49.4740   3
  -9   3   3 1300.36 47.8107   7
   9   3  -3 1297.39 46.7160   2
  -8  -3   3 329.735 19.9348   7
   8  -3  -3 257.173 19.0618   6
   8  -3  -3 283.226 18.4844   3
   8  -3  -3 312.766 27.1735   4
   8   3  -3 303.427 17.6797   2
  -8   3   3 302.915 16.4991   5
  -8   3   3 306.452 19.5447   7
  -7  -3   3 146.623 12.4613   7
   6  -3  -3 1728.12 55.9750   3
   6  -3  -3 1710.00 54.8060   6
  -6  -3   3 1645.96 52.9254   6
   6  -3  -3 1669.49 59.3686   4
  -6  -3   3 1629.02 53.9629   7
   6   3  -3 1617.39 52.2401   7
   6   3  -3 1539.05 52.9274   4
  -6   3   3 1569.26 53.9536   7
  -6   3   3 1679.51 52.9356   5
  -6   3   3 1598.45 53.3832   6
   6   3  -3 1607.41 53.2179   2
   5  -3  -3 1066.32 38.1314   3
  -5  -3   3 1057.77 36.4464   6
   5  -3  -3 1076.68 42.3947   4
   5  -3  -3 1037.01 37.2539   6
  -5  -3   3 1088.82 37.9455   7
   5   3  -3 1093.89 37.1050   7
   5   3  -3 1120.14 38.1243   6
  -5   3   3 1117.27 37.8825   6
  -5   3   3 1094.73 37.9650   7
  -5   3   3 1081.28 36.9646   5
  -4  -3   3 833.824 28.6447   6
   4  -3  -3 793.282 30.5707   3
   4  -3  -3 791.213 29.7903   6
  -4  -3   3 782.051 29.6874   7
   4  -3  -3 828.355 36.3423   4
  -4   3   3 790.415 28.8162   7
   4   3  -3 830.484 29.4127   7
  -4   3   3 842.030 30.0742   6
  -4   3   3 836.750 29.3010   5
   4   3  -3 836.928 29.9052   6
   3  -3  -3 548.747 26.3506   4
  -3  -3   3 486.605 20.1610   7
   3  -3  -3 476.046 18.9344   6
   3  -3  -3 456.668 20.3064   3
  -3  -3   3 494.554 19.7644   6
  -3  -3   3 480.929 19.0538   3
  -3   3   3 473.801 19.6756   7
   3   3  -3 474.221 18.9730   6
  -3   3   3 477.060 19.7264   5
   3   3  -3 455.869 18.5863   7
  -3   3   3 471.562 19.1195   6
  -2  -3   3 1223.18 38.9857   3
   2  -3  -3 1186.02 38.8260   6
  -2  -3   3 1239.08 39.4280   7
  -2  -3   3 1216.13 39.0440   6
   2  -3  -3 1156.25 39.3589   3
  -2   3   3 1241.89 39.3700   5
  -2   3   3 1195.53 39.2066   6
   2   3  -3 1199.35 39.0173   6
  -2   3   3 1191.01 38.9841   7
   2   3  -3 1212.97 38.9019   7
   1  -3  -3 250.605 11.7141   3
   1  -3  -3 277.840 11.8991   6
  -1  -3   3 271.862 13.1826   4
  -1  -3   3 268.013 13.3370   7
  -1  -3   3 285.377 13.6112   3
  -1  -3   3 272.813 12.3192   6
  -1   3   3 275.480 14.1971   5
  -1   3   3 282.136 12.6904   7
  -1   3   3 265.495 13.9703   6
   1   3  -3 263.087 12.0662   6
   1   3  -3 276.770 12.3509   7
   0  -3   3 3902.96 120.624   4
   0  -3  -3 4144.70 119.256   3
   0  -3   3 4127.40 119.661   7
   0  -3  -3 4143.32 119.553   6
   0  -3   3 4104.57 120.817   3
   0  -3   3 4197.07 120.201   6
   0   3   3 3974.55 120.053   6
   0   3   3 4081.69 119.331   7
   0   3   3 3965.36 120.781   5
   0   3  -3 3978.55 119.610   6
   0   3  -3 4156.34 119.975   7
   1  -3   3 78.3960 7.73181   4
  -1  -3  -3 68.7892 5.05907   6
  -1  -3  -3 74.7497 5.52076   3
   1  -3   3 69.3002 6.56912   6
   1  -3   3 71.7386 6.03026   7
   1   3   3 65.3252 5.76676   7
  -1   3  -3 88.2038 6.83886   6
   1   3   3 76.2592 7.14045   5
  -1   3  -3 75.4791 6.88352   7
   1   3   3 69.9672 7.04618   6
   2  -3   3 1063.17 38.1689   4
   2  -3   3 1062.05 30.9089   1
   2  -3   3 1049.15 34.4217   6
   2  -3   3 1081.47 35.8550   3
  -2  -3  -3 1066.82 31.9756   3
   2  -3   3 1051.75 33.0829   7
   2   3   3 1052.38 32.3372   7
  -2   3  -3 1083.54 34.4641   7
   2   3   3 1057.39 34.5736   6
   2   3   3 1071.32 35.7220   5
   3  -3   3 526.460 23.9892   4
   3  -3   3 560.073 20.5980   6
   3  -3   3 570.698 22.9674   3
  -3   3  -3 590.576 20.6855   7
   3   3   3 563.781 20.7446   6
   3   3   3 568.291 21.8853   5
   4  -3   3 1620.46 55.6143   4
  -4  -3  -3 1680.58 50.7282   7
   4  -3   3 1624.60 50.7440   6
   4  -3   3 1640.54 53.2242   3
   4   3   3 1618.04 50.6102   6
  -4   3  -3 1644.94 50.6828   7
   4   3   3 1596.51 49.9504   2
   4   3   3 1570.53 52.2578   5
   5  -3   3 36.5663 5.89817   6
  -5  -3  -3 47.1134 6.67236   7
   5  -3   3 46.3662 12.2943   4
   5  -3   3 38.9544 6.86562   3
   5   3   3 31.5571 7.06804   6
   5   3   3 46.2166 6.37572   2
  -5   3  -3 50.0469 6.56081   7
  -6  -3  -3 16.2873 5.98052   7
   6  -3   3 15.4408 11.6946   4
   6  -3   3 17.9368 5.64534   6
   6  -3   3 23.4404 6.08810   3
   6   3   3 13.1085 5.47198   6
   6   3   3 12.4575 5.50140   2
  -6   3  -3 19.1774 5.79542   7
   7  -3   3 612.034 24.1065   6
   7  -3   3 622.562 30.9837   4
   7  -3   3 589.727 26.5660   3
  -7  -3  -3 594.020 24.6841   7
   7   3   3 599.970 23.9412   2
   7   3   3 642.954 23.9399   6
  -7   3  -3 633.562 24.1720   7
  -8  -3  -3 712.612 28.3568   7
   8  -3   3 743.119 29.3080   3
   8  -3   3 692.514 38.3998   4
   8  -3   3 705.283 27.6533   6
   8   3   3 703.751 27.2638   6
  -8   3  -3 692.390 27.4369   7
  -9  -4   3 -16.262 9.59085   7
   9  -4  -3 -3.0244 7.85028   3
   9  -4  -3 -2.0424 12.2467   4
   9  -4  -3 -1.2982 9.52856   6
  -9   4   3 -11.962 9.56147   7
   9   4  -3 -3.3041 9.79154   2
   8  -4  -3 91.3897 19.4800   4
  -8  -4   3 116.637 13.6384   7
   8  -4  -3 76.3689 10.8300   6
   8  -4  -3 89.5401 12.0941   3
  -8   4   3 85.6138 10.8332   7
  -8   4   3 85.9743 9.61874   5
   8   4  -3 115.338 13.4476   2
   7  -4  -3 1724.64 66.7642   4
   7  -4  -3 1723.53 60.3302   3
  -7  -4   3 1808.04 59.7292   7
   7  -4  -3 1757.71 60.0892   6
   7   4  -3 1708.91 58.9844   2
  -7   4   3 1819.64 57.2919   5
  -7   4   3 1747.85 59.5814   7
  -6  -4   3 811.745 32.5743   6
   6  -4  -3 922.994 38.5452   4
  -6  -4   3 932.948 34.5199   7
   6  -4  -3 874.685 33.3314   6
   6  -4  -3 897.774 35.8034   3
   6   4  -3 884.678 34.1450   6
   6   4  -3 876.755 32.6928   2
  -6   4   3 853.467 32.0205   5
  -6   4   3 871.275 33.2440   6
  -6   4   3 886.673 33.0388   7
   6   4  -3 839.123 31.3212   7
  -5  -4   3 273.376 15.5734   7
   5  -4  -3 328.300 26.4596   4
   5  -4  -3 272.357 16.5033   3
  -5  -4   3 276.091 16.0254   6
   5  -4  -3 281.164 15.5612   6
  -5   4   3 260.214 17.1214   6
   5   4  -3 279.269 16.8886   7
  -5   4   3 250.433 14.1102   5
  -5   4   3 293.779 15.6215   7
   5   4  -3 294.059 18.0334   6
   4  -4  -3 111.086 13.3806   4
  -4  -4   3 100.927 11.1892   7
  -4  -4   3 100.472 10.3413   6
   4  -4  -3 96.1119 10.4148   6
   4  -4  -3 92.7992 9.74521   3
  -4   4   3 98.0726 10.6433   7
  -4   4   3 106.704 9.53363   6
   4   4  -3 106.174 9.55029   6
   4   4  -3 87.0486 9.98372   7
  -4   4   3 110.054 10.1641   5
  -3  -4   3 1553.84 49.6382   3
   3  -4  -3 1618.36 54.6757   4
  -3  -4   3 1596.00 50.2885   6
   3  -4  -3 1548.54 50.6077   3
  -3  -4   3 1492.47 50.0298   7
   3  -4  -3 1540.38 50.6789   6
  -3   4   3 1513.62 50.4766   5
   3   4  -3 1535.31 50.3989   7
  -3   4   3 1515.27 50.4269   6
   3   4  -3 1584.53 51.0381   6
  -3   4   3 1516.30 49.9380   7
  -2  -4   3 528.109 21.8601   3
  -2  -4   3 550.063 21.5346   7
  -2  -4   3 534.042 21.4582   6
   2  -4  -3 591.812 26.3605   4
   2  -4  -3 537.331 22.1842   6
   2  -4  -3 528.846 21.3825   3
  -2   4   3 533.710 21.8128   6
  -2   4   3 562.526 21.3308   7
   2   4  -3 562.772 21.5778   7
   2   4  -3 565.654 22.6234   6
  -2   4   3 531.906 22.9458   5
   1  -4  -3 67.8736 10.1739   4
  -1  -4   3 40.7146 7.60849   7
   1  -4  -3 37.8942 6.58513   6
  -1  -4   3 39.8562 6.45135   4
  -1  -4   3 33.4370 5.89441   3
   1  -4  -3 41.8614 7.10592   3
  -1  -4   3 37.5346 5.91125   6
   1   4  -3 42.7695 6.14988   7
  -1   4   3 23.1545 6.29719   7
  -1   4   3 39.6665 6.45954   5
  -1   4   3 27.7727 6.08954   6
   1   4  -3 25.5899 6.84819   6
   0  -4  -3 7.76344 5.01638   3
   0  -4   3 15.2162 5.09821   3
   0  -4  -3 15.6985 7.29127   4
   0  -4   3 3.63780 4.38845   7
   0  -4   3 4.01806 4.33983   6
   0  -4  -3 22.5335 5.68223   6
   0  -4   3 14.3209 6.36438   4
   0   4   3 14.4752 7.29148   5
   0   4  -3 9.97404 6.36018   7
   0   4   3 17.3610 7.26758   6
   0   4   3 28.1662 5.66489   7
   0   4  -3 29.5197 6.24122   6
   1  -4   3 368.290 18.0263   4
   1  -4   3 357.030 17.5026   6
  -1  -4  -3 422.910 16.2938   6
   1  -4   3 427.795 17.0501   7
  -1  -4  -3 385.745 15.3388   3
   1  -4   3 414.984 19.0645   3
  -1   4  -3 359.589 17.5293   7
  -1   4  -3 428.499 16.9011   6
   1   4   3 376.661 18.3763   6
   1   4   3 385.686 15.8245   7
   1   4   3 438.132 19.9974   5
  -2  -4  -3 371.587 17.6180   7
   2  -4   3 327.755 19.9728   4
   2  -4   3 339.306 14.7358   7
   2  -4   3 327.583 18.2927   3
  -2  -4  -3 362.112 13.4237   3
   2  -4   3 351.492 16.5623   6
  -2  -4  -3 351.540 14.1181   6
   2   4   3 356.092 17.1957   5
   2   4   3 342.721 14.5045   7
  -2   4  -3 363.719 16.7676   7
   2   4   3 353.120 17.2531   6
  -2   4  -3 356.340 14.8361   6
  -3  -4  -3 5.03476 2.11197   3
   3  -4   3 -0.0564 5.76412   6
  -3  -4  -3 -2.6880 6.77365   7
   3  -4   3 1.20073 6.89675   4
   3  -4   3 4.20501 5.45975   3
   3   4   3 -0.0024 4.66412   6
  -3   4  -3 0.22997 5.86735   7
   3   4   3 2.26889 5.43235   5
  -4  -4  -3 86.5339 9.27264   7
   4  -4   3 112.426 14.2356   4
   4  -4   3 77.4538 8.66852   6
   4  -4   3 75.8714 9.25421   3
  -4   4  -3 94.2272 8.95076   7
   4   4   3 82.0764 10.9061   5
   4   4   3 92.1156 9.21788   6
   5  -4   3 929.900 34.8974   3
   5  -4   3 900.261 37.2591   4
  -5  -4  -3 883.752 31.8385   7
   5  -4   3 846.994 31.1630   6
  -5   4  -3 894.246 31.8407   7
   5   4   3 862.311 30.5304   2
   5   4   3 889.659 31.9719   6
  -6  -4  -3 246.148 15.5120   7
   6  -4   3 265.704 20.4639   4
   6  -4   3 217.856 17.5668   3
   6  -4   3 226.822 14.4217   6
   6   4   3 237.499 14.7943   6
   6   4   3 250.911 12.7584   2
  -6   4  -3 223.693 14.6845   7
   7  -4   3 17.7306 7.07857   3
   7  -4   3 19.1065 14.4627   4
   7  -4   3 26.3071 7.41219   6
  -7  -4  -3 19.4744 7.93471   7
  -7   4  -3 13.0053 7.14029   7
   7   4   3 19.9879 7.43131   6
   8  -4   3 14.0548 9.51046   3
   8  -4   3 31.0976 8.17325   6
  -8  -4  -3 34.4046 8.85458   7
   8  -4   3 23.7021 11.7998   4
   8   4   3 19.8319 7.93962   6
  -8   4  -3 36.6543 8.75621   7
  -9  -5   3 -7.9164 8.07782   7
   9  -5  -3 18.4186 9.27645   6
  -9   5   3 5.41982 8.23001   7
   8  -5  -3 311.955 23.7490   3
   8  -5  -3 274.691 21.9139   6
   8  -5  -3 302.320 26.4268   4
  -8  -5   3 288.958 19.2158   7
  -8   5   3 335.930 22.6535   7
   8   5  -3 269.636 22.0403   2
   7  -5  -3 25.1001 10.7356   6
   7  -5  -3 12.6332 8.23587   3
   7  -5  -3 29.7255 16.5743   4
  -7  -5   3 18.1089 7.75136   7
   7   5  -3 25.8354 7.93566   2
   7   5  -3 22.2921 7.69637   6
  -7   5   3 13.3642 7.53880   5
  -7   5   3 12.5530 10.3592   7
  -6  -5   3 233.016 18.6997   7
   6  -5  -3 169.121 20.4270   4
   6  -5  -3 269.570 20.0088   3
   6  -5  -3 209.591 15.3307   6
  -6   5   3 211.981 15.4827   7
   6   5  -3 201.552 15.7839   7
  -6   5   3 210.971 15.5943   5
   5  -5  -3 511.931 26.7022   3
   5  -5  -3 585.469 31.7203   4
  -5  -5   3 563.862 26.0655   7
  -5  -5   3 551.086 24.1762   6
   5  -5  -3 550.447 25.7960   6
  -5   5   3 502.452 25.1358   6
  -5   5   3 546.565 24.2770   5
   5   5  -3 553.367 23.0616   7
   5   5  -3 534.311 25.9176   6
  -5   5   3 522.845 23.7456   7
  -4  -5   3 263.676 15.9240   7
  -4  -5   3 247.123 16.6317   6
   4  -5  -3 248.397 18.3387   3
  -4  -5   3 280.512 15.6109   3
   4  -5  -3 240.391 22.6873   4
   4  -5  -3 243.592 15.1303   6
  -4   5   3 252.342 17.0314   5
   4   5  -3 262.409 17.3580   7
   4   5  -3 237.198 15.3240   6
  -4   5   3 290.408 18.1282   7
  -4   5   3 232.184 15.5754   6
   3  -5  -3 65.7335 8.83581   3
   3  -5  -3 77.2352 8.68746   6
  -3  -5   3 84.2068 9.64167   3
  -3  -5   3 70.1605 8.84737   7
   3  -5  -3 80.4694 13.2243   4
  -3  -5   3 73.1320 10.0016   6
   3   5  -3 64.3438 8.28677   7
  -3   5   3 71.6721 8.60363   5
   3   5  -3 89.6930 10.9016   6
  -3   5   3 53.4534 8.79815   6
  -3   5   3 72.5281 10.2624   7
  -2  -5   3 -5.2976 6.77170   3
   2  -5  -3 0.43162 9.39386   4
  -2  -5   3 -1.4053 5.58959   7
   2  -5  -3 -1.2256 6.87773   6
   2  -5  -3 -1.9810 7.36066   3
  -2  -5   3 -0.3108 5.06832   6
  -2   5   3 -0.2387 5.16256   7
   2   5  -3 9.46402 8.15343   7
  -2   5   3 -2.3091 8.48085   6
   2   5  -3 2.87625 7.57441   6
  -2   5   3 3.28150 7.93139   5
  -1  -5   3 702.750 27.8040   3
  -1  -5   3 687.346 26.8580   6
   1  -5  -3 703.418 26.1135   3
  -1  -5   3 695.768 27.7464   7
  -1  -5   3 677.432 26.0454   4
   1  -5  -3 700.522 27.5803   4
   1  -5  -3 702.977 27.2150   6
  -1   5   3 718.408 29.0010   5
  -1   5   3 739.910 27.8241   6
   1   5  -3 673.584 27.8126   7
  -1   5   3 688.787 26.8733   7
   1   5  -3 682.416 27.7373   6
   0  -5  -3 276.218 14.7067   3
   0  -5  -3 310.161 15.5044   6
   0  -5   3 323.849 16.6610   4
   0  -5  -3 241.403 13.9645   4
   0  -5   3 222.385 13.8159   7
   0  -5  -3 308.472 18.4832   7
   0  -5   3 220.921 14.1943   6
   0   5   3 300.093 15.2127   7
   0   5   3 288.879 18.1022   6
   0   5   3 285.994 18.1739   5
   0   5  -3 277.948 16.6799   7
   0   5  -3 308.376 16.3275   6
  -1  -5  -3 752.768 25.0862   4
  -1  -5  -3 726.404 27.3397   6
  -1  -5  -3 728.523 26.5390   3
   1  -5   3 775.907 30.2664   3
   1  -5   3 781.157 29.5233   6
   1  -5   3 750.510 30.3664   4
  -1  -5  -3 784.585 28.8272   7
   1  -5   3 753.022 28.1044   7
  -1   5  -3 753.723 28.2538   6
   1   5   3 740.509 26.6457   7
  -1   5  -3 811.043 29.5826   7
   1   5   3 716.893 29.3981   5
   1   5   3 749.274 28.6400   6
  -2  -5  -3 125.645 10.6764   7
   2  -5   3 123.821 11.1382   3
   2  -5   3 139.098 11.2638   7
  -2  -5  -3 122.695 8.41794   3
   2  -5   3 135.557 13.7638   4
   2  -5   3 134.334 10.9228   6
   2   5   3 127.148 12.9362   5
   2   5   3 147.615 10.3780   7
   2   5   3 119.916 10.5064   6
  -2   5  -3 124.824 10.2634   7
  -3  -5  -3 1090.21 38.6595   7
   3  -5   3 1068.53 40.8285   4
   3  -5   3 1068.25 37.7168   6
   3  -5   3 1016.72 39.0102   3
  -3   5  -3 1074.33 37.4197   7
   3   5   3 1132.46 40.7518   5
   3   5   3 1063.23 38.4593   6
   4  -5   3 91.7536 12.5793   4
   4  -5   3 84.5002 10.2619   6
  -4  -5  -3 79.1889 8.92686   7
   4  -5   3 78.8501 10.0758   3
   4   5   3 88.1546 10.7141   6
  -4   5  -3 89.6944 10.2077   7
   5  -5   3 386.593 19.7933   6
  -5  -5  -3 368.622 20.3706   7
   5  -5   3 390.453 22.4568   3
   5  -5   3 358.958 26.5760   4
   5   5   3 355.985 17.2851   2
  -5   5  -3 372.940 19.8252   7
   5   5   3 374.676 19.7720   6
   6  -5   3 128.832 12.3866   6
  -6  -5  -3 138.171 13.1625   7
   6  -5   3 147.284 19.1728   4
   6  -5   3 156.950 15.5507   3
   6   5   3 140.736 11.2418   2
   6   5   3 138.516 12.6706   6
  -6   5  -3 136.676 12.8563   7
   7  -5   3 49.5909 9.59151   6
  -7  -5  -3 58.1278 10.7719   7
   7  -5   3 60.6327 13.5895   4
   7  -5   3 40.3892 11.6509   3
   7   5   3 69.5089 10.6993   6
  -7   5  -3 40.4793 9.55372   7
   7  -6  -3 29.2604 11.9918   6
   7  -6  -3 19.1904 11.9860   4
  -7  -6   3 19.9090 11.9485   7
   7  -6  -3 22.1222 9.99185   3
  -7   6   3 30.6745 9.21054   5
   7   6  -3 10.8237 8.18925   6
   7   6  -3 35.3869 11.5198   2
  -7   6   3 3.11499 7.80913   7
   6  -6  -3 25.6501 12.5075   3
   6  -6  -3 69.6993 13.3030   4
   6  -6  -3 47.4699 9.50355   6
  -6  -6   3 41.8302 12.1986   7
   6   6  -3 39.9298 12.0348   6
  -6   6   3 61.3196 12.4180   7
  -6   6   3 44.3235 9.75039   5
   5  -6  -3 92.4642 13.7071   4
   5  -6  -3 98.9461 13.1318   7
  -5  -6   3 94.8386 11.6089   7
   5  -6  -3 77.7158 13.5332   3
   5  -6  -3 101.269 11.5374   6
  -5   6   3 109.200 13.7194   7
  -5   6   3 86.1308 11.5116   5
   5   6  -3 109.703 12.3467   7
  -5   6   3 112.807 14.2402   6
   5   6  -3 86.1448 13.1401   6
   4  -6  -3 407.288 20.8092   6
   4  -6  -3 386.267 25.7144   4
  -4  -6   3 415.806 20.5244   3
   4  -6  -3 369.090 20.4698   7
   4  -6  -3 362.078 20.6546   3
  -4  -6   3 392.731 20.0327   6
   4   6  -3 380.292 22.9106   6
   4   6  -3 366.139 21.8540   7
  -4   6   3 529.832 24.7981   6
  -3  -6   3 130.351 11.5974   3
   3  -6  -3 130.443 13.9406   3
   3  -6  -3 148.454 12.8155   7
   3  -6  -3 153.394 13.9335   6
   3  -6  -3 141.969 13.2971   4
  -3  -6   3 173.202 15.2892   7
  -3  -6   3 155.354 12.7689   6
   3   6  -3 167.490 14.7532   6
  -3   6   3 129.572 13.5570   5
   3   6  -3 140.184 13.4752   7
  -3   6   3 145.524 12.4494   7
  -3   6   3 146.779 14.6849   6
   2  -6  -3 533.689 23.6110   6
  -2  -6   3 602.765 26.0786   6
   2  -6  -3 534.403 23.6805   3
   2  -6  -3 536.408 25.3248   4
  -2  -6   3 555.945 24.7149   3
  -2  -6   3 524.375 25.7402   7
   2  -6  -3 512.508 24.3223   7
  -2   6   3 572.026 26.9200   6
  -2   6   3 530.978 24.2814   5
   2   6  -3 554.654 25.9707   7
   2   6  -3 548.038 25.8631   6
  -2   6   3 543.106 25.1493   7
   1  -6  -3 8.35075 6.97557   4
  -1  -6   3 -0.0925 8.22016   7
   1  -6  -3 -4.4479 7.17162   3
  -1  -6   3 11.4933 5.99165   4
   1  -6  -3 10.6927 10.0988   7
  -1  -6   3 1.14308 8.14213   3
   1  -6  -3 15.7511 7.86498   6
  -1  -6   3 8.21865 8.21494   6
  -1   6   3 -0.8608 9.27530   6
  -1   6   3 12.3205 5.79533   7
   1   6  -3 5.05740 8.21356   6
  -1   6   3 18.5893 9.49875   5
   1   6  -3 0.03214 5.95741   7
   0  -6  -3 334.546 17.2164   3
   0  -6   3 375.838 20.2951   6
   0  -6  -3 344.781 18.2622   6
   0  -6  -3 331.970 21.3900   7
   0  -6   3 245.837 16.2165   7
   0  -6   3 330.852 19.7305   3
   0   6   3 327.586 17.8163   7
   0   6  -3 367.010 19.5196   6
   0   6   3 345.314 21.2363   6
   0   6  -3 360.460 20.0501   7
   0   6   3 333.321 21.3870   5
   1  -6   3 184.563 16.2039   4
   1  -6   3 180.741 14.4591   7
   1  -6   3 197.173 15.9354   6
  -1  -6  -3 155.620 13.2367   7
  -1  -6  -3 175.662 12.2444   3
   1  -6   3 185.946 16.2884   3
   1   6   3 135.376 14.0702   6
   1   6   3 178.046 15.6009   5
  -1   6  -3 176.628 14.1344   7
   1   6   3 147.506 11.0306   7
   2  -6   3 971.374 38.8941   4
   2  -6   3 1006.02 37.4845   6
  -2  -6  -3 987.766 33.1920   3
   2  -6   3 937.659 37.0490   3
  -2  -6  -3 1011.79 37.9823   7
  -2   6  -3 978.249 37.1275   7
   2   6   3 903.580 38.5182   5
   2   6   3 968.711 37.6246   6
   3  -6   3 137.684 13.3160   3
   3  -6   3 175.132 16.9035   4
  -3  -6  -3 138.336 13.9864   7
   3  -6   3 159.337 13.7508   6
   3   6   3 134.137 14.0896   6
   3   6   3 112.700 14.8056   5
  -3   6  -3 161.851 13.0272   7
   4  -6   3 77.7779 11.4897   6
  -4  -6  -3 96.0296 10.7583   7
   4  -6   3 91.4448 15.4041   4
   4  -6   3 71.7906 11.0154   3
   4   6   3 77.8505 9.92630   6
  -4   6  -3 109.927 12.1496   7
   5  -6   3 -0.3787 5.84816   6
   5  -6   3 8.02708 10.5973   3
  -5  -6  -3 14.6146 10.1533   7
   5  -6   3 5.12295 9.02307   4
  -5   6  -3 -3.7665 8.53116   7
   5   6   3 -8.5365 8.79918   6
   6  -6   3 470.508 33.7665   4
   6  -6   3 506.129 25.3515   6
  -6  -6  -3 490.325 26.1791   7
   6  -6   3 512.991 28.6048   3
   6   6   3 472.594 25.5716   6
  -6   6  -3 475.046 25.2189   7
   6  -7  -3 18.3451 9.13922   6
   6  -7  -3 13.4915 14.8379   4
  -6  -7   3 38.2196 13.1952   7
   6  -7  -3 21.9306 13.5406   3
  -6   7   3 7.15253 11.5173   7
   6   7  -3 10.7312 8.78500   6
  -6   7   3 6.45701 9.08995   5
   5  -7  -3 429.957 27.1706   3
  -5  -7   3 453.166 24.6140   7
   5  -7  -3 425.364 26.3173   6
   5  -7  -3 443.265 26.3030   4
  -5   7   3 446.198 24.8758   5
  -5   7   3 460.794 24.1760   7
   5   7  -3 456.612 26.9860   6
   4  -7  -3 98.2308 14.4949   7
  -4  -7   3 113.480 12.7127   7
  -4  -7   3 125.790 12.8129   3
   4  -7  -3 87.4675 12.0086   3
   4  -7  -3 140.476 15.1247   6
   4  -7  -3 117.380 13.6085   4
  -4   7   3 125.188 15.1648   6
  -4   7   3 103.740 13.5765   5
  -4   7   3 107.138 12.6115   7
   4   7  -3 108.672 13.7624   7
   4   7  -3 116.332 15.0245   6
   3  -7  -3 131.685 13.4202   3
   3  -7  -3 134.051 13.0887   4
  -3  -7   3 128.310 11.8965   3
   3  -7  -3 134.988 13.5972   7
  -3  -7   3 123.735 12.8511   6
  -3  -7   3 134.965 13.4602   7
   3  -7  -3 140.907 13.3827   6
   3   7  -3 109.851 14.5220   6
   3   7  -3 141.341 14.6459   7
  -3   7   3 129.032 15.1716   6
  -3   7   3 122.468 14.2367   7
  -3   7   3 119.465 12.7347   5
   2  -7  -3 29.2292 11.6906   7
   2  -7  -3 33.2453 8.17793   3
   2  -7  -3 41.0067 9.73522   4
  -2  -7   3 30.2255 8.75043   7
  -2  -7   3 31.6953 10.7629   6
  -2  -7   3 29.3338 7.62058   3
  -2   7   3 34.2819 9.14829   6
  -2   7   3 36.6951 8.99547   5
   2   7  -3 36.1217 11.0762   6
   2   7  -3 38.1678 8.94212   7
  -2   7   3 34.3756 10.9897   7
  -1  -7   3 88.0332 12.5035   3
   1  -7  -3 71.2178 11.0158   3
   1  -7  -3 66.1546 13.5610   7
  -1  -7   3 83.7669 12.7418   6
  -1  -7   3 79.7879 12.7435   7
   1  -7  -3 97.8573 10.6507   6
  -1   7   3 82.6379 13.6128   5
   1   7  -3 71.8485 10.2422   6
   1   7  -3 89.0432 11.0023   7
  -1   7   3 87.6358 13.8380   6
  -1   7   3 86.3482 12.0745   7
   0  -7   3 19.6278 7.98073   4
   0  -7  -3 12.1910 7.94288   3
   0  -7   3 19.8167 10.4468   6
   0  -7   3 8.26850 7.31591   3
   0  -7   3 29.4746 10.1158   7
   0  -7  -3 9.92625 10.9505   7
   0   7   3 33.2801 9.15923   7
   0   7  -3 14.6979 7.72942   7
   0   7   3 10.4023 11.1783   6
   0   7   3 30.4770 11.7233   5
   1  -7   3 214.852 16.1913   6
  -1  -7  -3 219.302 17.8920   7
   1  -7   3 220.821 18.1117   3
   1  -7   3 252.612 18.1773   4
  -1  -7  -3 222.599 15.0376   3
   1   7   3 231.742 18.3608   6
   1   7   3 198.862 18.1436   5
  -1   7  -3 237.291 19.3003   7
   2  -7   3 56.1883 11.5820   6
   2  -7   3 45.9053 9.69214   3
   2  -7   3 27.1291 10.8914   4
  -2  -7  -3 50.4784 10.2264   7
  -2   7  -3 43.1623 11.3720   7
   2   7   3 44.3522 9.97783   5
   2   7   3 35.0079 9.35319   6
   3  -7   3 368.577 23.2622   6
   3  -7   3 347.968 21.6178   3
   3  -7   3 464.170 27.1511   4
  -3  -7  -3 311.259 23.2782   7
  -3   7  -3 453.042 24.1773   7
   3   7   3 332.470 23.3628   6
   4  -7   3 55.3457 12.1058   6
  -4  -7  -3 59.1393 13.2438   7
   4  -7   3 68.5210 12.7297   4
   4  -7   3 55.7336 13.9512   3
  -4   7  -3 71.1452 13.0867   7
   4   7   3 65.0341 13.0162   6
   3  -8  -3 273.713 20.3010   7
  -3  -8   3 245.360 20.0686   3
  -3  -8   3 284.853 24.0143   7
   3  -8  -3 284.799 22.2731   3
   3  -8  -3 289.473 19.5214   6
  -3   8   3 269.252 23.6114   6
  -3   8   3 248.232 22.1776   7
  -3   8   3 274.296 19.6109   5
   3   8  -3 262.319 19.0543   7
   3   8  -3 278.639 19.9496   6
  -2  -8   3 253.369 21.8004   6
   2  -8  -3 197.438 16.6253   3
  -2  -8   3 238.986 18.7071   7
   2  -8  -3 232.101 19.1299   7
  -2  -8   3 253.636 20.0208   3
   2   8  -3 227.953 18.4146   7
  -2   8   3 215.268 18.3271   5
   2   8  -3 258.265 21.6574   6
  -2   8   3 223.467 17.4524   7
  -2   8   3 272.046 23.0569   6
  -1  -8   3 8.74031 7.92738   6
  -1  -8   3 8.13295 11.3498   7
   1  -8  -3 -1.7887 11.9550   7
   1  -8  -3 5.35794 9.52868   3
  -1  -8   3 5.25547 10.4289   3
  -1   8   3 -13.843 7.88561   5
  -1   8   3 16.5462 8.98251   6
   1   8  -3 1.73527 8.52387   7
  -1   8   3 1.42303 7.49580   7
   0  -8  -3 3.18278 5.93129   3
   0  -8  -3 20.4120 12.8646   7
   0  -8   3 -1.8656 10.6002   3
   0  -8   3 -11.987 10.2991   6
   0   8   3 8.54516 8.43339   6
   0   8  -3 10.7296 11.5075   7
   0   8   3 10.4608 8.89532   5
   1  -8   3 335.345 20.4545   6
  -1  -8  -3 252.371 16.2708   3
   1  -8   3 269.169 22.1599   3
  -1  -8  -3 271.316 20.1228   7
  -1   8  -3 315.104 20.0983   7
   1   8   3 289.236 24.8229   5
   1   8   3 246.486 19.6414   6
  11   0  -4 -3.5011 9.87074   6
  11   0  -4 -16.293 10.8908   2
 -11   0   4 20.5190 9.81597   5
 -11   0   4 -0.7481 10.6393   7
  11   0  -4 -2.8771 9.05861   3
  11   0  -4 3.69402 15.4762   4
 -11   0   4 5.61190 8.29502   1
 -10   0   4 686.307 28.6795   7
  10   0  -4 511.215 31.7875   4
 -10   0   4 626.538 32.7918   1
 -10   0   4 671.177 29.2978   5
  10   0  -4 700.214 28.8137   6
  10   0  -4 638.738 31.4922   2
  -9   0   4 4.85362 6.55404   7
   9   0  -4 4.84836 7.17929   2
  -9   0   4 18.4123 7.99327   1
  -9   0   4 3.81741 8.35080   5
   9   0  -4 14.1465 6.53872   6
   9   0  -4 -5.6531 10.6452   4
   8   0  -4 1142.64 40.1586   6
   8   0  -4 1022.26 44.4993   4
   8   0  -4 1198.18 41.7143   2
  -8   0   4 1099.01 43.5185   1
  -8   0   4 1128.93 39.9103   7
   7   0  -4 -2.3287 11.0757   4
  -7   0   4 0.99559 6.66862   6
  -7   0   4 6.48857 7.71490   7
   7   0  -4 -3.9726 7.22144   6
   7   0  -4 -5.0241 6.94284   7
  -7   0   4 -2.2576 6.56220   1
   7   0  -4 1.69676 5.52628   2
   6   0  -4 2103.79 65.8812   2
  -6   0   4 2124.81 66.1614   6
  -6   0   4 2032.09 67.6773   1
  -6   0   4 2050.19 65.9023   7
   6   0  -4 2140.05 66.0763   7
   6   0  -4 2163.96 66.4085   6
  -5   0   4 -0.9449 4.35910   7
   5   0  -4 0.57998 4.08715   6
   5   0  -4 -4.5199 4.60495   7
  -5   0   4 5.22549 7.87727   1
  -5   0   4 -2.9704 5.90778   6
   5   0  -4 10.4706 6.32154   2
   4   0  -4 1046.41 35.0879   7
  -4   0   4 1049.21 34.5998   6
  -4   0   4 1047.13 34.4469   7
   4   0  -4 1046.94 34.9763   6
   4   0  -4 1053.57 34.4692   2
  -4   0   4 1016.25 35.7872   1
  -3   0   4 -8.6593 5.52951   5
  -3   0   4 -3.6151 3.56860   7
   3   0  -4 0.04108 4.43293   2
   3   0  -4 -3.6248 5.58990   7
  -3   0   4 3.61834 5.52543   6
  -3   0   4 -1.7383 6.06942   1
   3   0  -4 1.95704 4.75186   6
   2   0  -4 2464.35 72.6725   7
   2   0  -4 2404.99 71.9331   2
  -2   0   4 2474.69 72.6158   7
  -2   0   4 2437.58 73.4769   5
  -2   0   4 2436.00 72.8043   6
  -2   0   4 2359.98 73.9172   1
   2   0  -4 2476.49 72.5695   6
  -1   0   4 2.62009 4.67251   5
   1   0  -4 -3.4707 2.59185   2
   1   0  -4 -4.0611 3.88739   7
  -1   0   4 2.43872 2.76487   6
   1   0  -4 -1.7796 2.90572   6
  -1   0   4 -3.3462 2.98584   7
   0   0   4 542.122 17.3645   6
   0   0  -4 550.305 17.2180   7
   0   0  -4 549.668 16.4409   2
   0   0   4 523.951 17.2522   6
   0   0  -4 529.420 17.2479   7
  -1   0  -4 1.19262 1.10787   7
   1   0   4 0.29781 1.29483   6
   1   0   4 0.83954 3.08746   5
   1   0   4 1.54924 1.41092   6
  -1   0  -4 -1.6371 1.14329   7
   1   0   4 2.49860 5.76370   4
   2   0   4 1280.07 39.6106   3
   2   0   4 1272.34 42.2066   4
   2   0   4 1343.20 39.1863   5
   3   0   4 1.04198 3.25189   3
   3   0   4 0.42806 4.44869   4
   3   0   4 -1.0532 2.53448   5
   4   0   4 1379.76 42.4005   3
   4   0   4 1400.80 47.2430   4
   5   0   4 -0.4897 1.57700   6
   5   0   4 0.73962 2.77401   3
   5   0   4 5.55212 8.11710   4
  -5   0  -4 -0.1633 1.26937   7
   5   0   4 -0.8355 1.56981   6
   6   0   4 1011.69 38.6542   4
  -6   0  -4 972.385 30.1588   7
  -7   0  -4 0.10543 3.41732   7
   7   0   4 9.73373 9.77669   4
   8   0   4 266.328 18.8229   4
  -8   0  -4 267.656 13.0209   7
   9   0   4 -1.8726 5.49090   6
  -9   0  -4 0.39589 5.87413   7
   9   0   4 1.69034 11.3217   4
 -11  -1   4 227.568 22.0443   1
 -11  -1   4 233.084 19.0879   7
  11  -1  -4 232.682 20.4003   3
  11  -1  -4 190.895 25.2794   4
  11  -1  -4 221.302 17.0668   6
  11  -1  -4 210.926 20.0103   2
 -11   1   4 212.187 18.7366   1
  11   1  -4 214.983 18.5081   6
  11   1  -4 203.269 19.7885   4
  11   1  -4 237.363 19.1311   2
 -11   1   4 227.325 18.9755   7
  10  -1  -4 9.92801 7.07865   6
 -10  -1   4 1.81301 9.96815   7
  10  -1  -4 20.6042 17.1643   4
  10  -1  -4 16.3431 11.6414   2
 -10  -1   4 8.05862 9.54388   1
  10   1  -4 13.2955 8.15841   2
  10   1  -4 13.3627 10.3040   4
 -10   1   4 4.74604 8.21326   5
 -10   1   4 5.11752 9.77038   7
 -10   1   4 11.2050 10.1458   1
  10   1  -4 -0.4306 9.56646   6
   9  -1  -4 844.752 45.5034   4
  -9  -1   4 1024.09 40.3402   1
   9  -1  -4 987.843 36.9311   6
   9  -1  -4 987.641 37.2637   2
  -9  -1   4 968.390 37.7867   7
  -9   1   4 984.449 36.7504   7
  -9   1   4 969.257 39.4781   1
  -9   1   4 1041.62 36.8994   5
   9   1  -4 836.148 39.3911   4
   9   1  -4 997.283 37.1341   2
  -8  -1   4 984.460 37.9121   1
  -8  -1   4 931.574 34.4291   7
   8  -1  -4 936.167 34.8943   2
   8  -1  -4 964.681 35.7348   6
   8  -1  -4 829.164 40.0115   4
  -8   1   4 963.440 34.8411   5
  -8   1   4 930.929 35.5343   7
   8   1  -4 785.426 40.0370   4
   8   1  -4 975.762 34.9436   2
  -8   1   4 905.875 37.0842   1
   7  -1  -4 260.299 16.6325   7
  -6  -1   4 414.074 20.8354   1
   6  -1  -4 350.646 24.6819   4
   6  -1  -4 365.387 17.5943   2
   6  -1  -4 393.806 19.4196   7
   6  -1  -4 379.293 19.0668   6
  -6  -1   4 384.073 18.5824   6
  -6  -1   4 398.032 19.4099   7
  -6   1   4 376.511 20.7797   1
   6   1  -4 382.278 17.1703   7
  -6   1   4 368.443 17.3340   5
   6   1  -4 419.402 19.6448   2
  -6   1   4 407.769 17.5471   6
  -6   1   4 380.346 17.7647   7
   5  -1  -4 2945.00 87.9508   7
   5  -1  -4 2918.18 88.0174   2
  -5  -1   4 2889.99 88.1985   6
   5  -1  -4 2961.83 88.6295   6
  -5  -1   4 2877.26 87.9757   7
  -5  -1   4 2910.07 90.0345   1
  -5   1   4 2832.46 88.2275   7
  -5   1   4 2894.24 88.4212   5
   5   1  -4 2937.24 87.8395   2
  -5   1   4 2856.09 89.4878   1
  -5   1   4 2921.20 88.4067   6
   5   1  -4 2853.53 87.9360   7
   4  -1  -4 485.751 19.0894   6
   4  -1  -4 435.136 19.7203   7
  -4  -1   4 477.208 18.2464   7
  -4  -1   4 476.468 18.2181   6
  -4  -1   4 444.636 21.8801   1
   4  -1  -4 462.723 18.6116   2
  -4   1   4 452.417 18.2727   6
  -4   1   4 457.412 19.1130   7
  -4   1   4 461.820 19.3528   5
   4   1  -4 488.229 19.5717   7
   4   1  -4 449.088 17.7528   2
  -4   1   4 433.139 20.5971   1
   3  -1  -4 38.9045 7.31755   7
  -3  -1   4 41.6162 6.46994   1
   3  -1  -4 40.5196 5.53101   2
   3  -1  -4 47.0587 6.27092   6
  -3  -1   4 47.1670 5.50085   6
  -3  -1   4 46.1168 6.84187   7
   3   1  -4 33.9317 6.53119   7
  -3   1   4 48.2726 5.80783   6
  -3   1   4 47.7187 6.51101   7
  -3   1   4 51.2676 6.95157   5
   3   1  -4 43.4684 4.91936   2
   2  -1  -4 2759.03 80.9876   6
  -2  -1   4 2730.54 81.0468   7
   2  -1  -4 2715.29 80.1089   2
  -2  -1   4 2735.74 81.2980   6
   2  -1  -4 2698.86 81.2931   7
  -2  -1   4 2672.80 82.4856   1
  -2   1   4 2763.55 80.9537   7
   2   1  -4 2750.40 81.0415   7
  -2   1   4 2718.61 81.4231   6
  -2   1   4 2731.35 81.8770   5
  -1  -1   4 5673.52 153.728   7
   1  -1  -4 5463.57 154.016   7
  -1  -1   4 5210.80 154.557   1
  -1  -1   4 4965.81 153.656   6
   1  -1  -4 5454.58 152.604   2
   1  -1  -4 5578.68 153.496   6
   1   1  -4 4978.28 153.506   7
  -1   1   4 5205.54 153.206   7
  -1   1   4 4877.34 154.334   5
  -1   1   4 5595.18 154.246   6
   0  -1   4 109.091 8.16411   3
   0  -1  -4 96.7307 7.01633   7
   0  -1   4 99.2901 6.11651   6
   0  -1  -4 119.291 5.96340   7
   0  -1   4 109.672 4.91428   7
   0  -1   4 99.3259 8.54887   4
   0   1   4 99.4358 5.84761   6
   0   1   4 116.133 5.97568   6
   0   1   4 110.714 4.66390   7
   0   1   4 107.792 8.47185   5
   0   1  -4 105.622 6.29120   7
   1  -1   4 -0.6904 1.79009   6
   1  -1   4 4.80434 2.48338   5
   1  -1   4 2.35451 4.32086   4
  -1  -1  -4 0.22182 1.99378   7
  -1  -1  -4 -0.5317 2.50613   7
   1  -1   4 -0.0026 4.03907   3
   1   1   4 2.26944 2.01559   6
   1   1   4 3.73778 4.03147   5
  -1   1  -4 1.41463 1.84638   7
   1   1   4 0.58960 2.17648   6
  -1   1  -4 1.58678 1.95984   7
   2  -1   4 123.463 5.03920   6
  -2  -1  -4 125.306 4.65532   7
   2  -1   4 128.958 5.41299   5
   2  -1   4 130.688 7.40925   3
  -2  -1  -4 122.650 4.79716   7
   2  -1   4 148.940 12.4149   4
  -2   1  -4 131.466 5.03177   7
   2   1   4 127.286 4.79209   6
   2   1   4 140.551 10.3026   4
  -2   1  -4 127.239 5.10942   7
   2   1   4 120.918 8.12702   5
   2   1   4 125.815 5.16156   6
   3  -1   4 2715.53 79.1463   3
   3  -1   4 2644.87 82.4798   4
   3  -1   4 2719.39 76.2048   6
   3  -1   4 2609.49 76.1520   6
   3   1   4 2651.12 80.7925   4
  -3   1  -4 2660.85 75.9781   7
  -3   1  -4 2521.11 75.9088   7
   3   1   4 2645.58 75.7676   6
   3   1   4 2590.99 78.5055   5
   4  -1   4 94.3587 10.0449   4
   4  -1   4 95.3355 4.53198   6
   4  -1   4 93.0140 4.62487   6
   4  -1   4 95.3790 7.51830   3
  -4  -1  -4 100.043 3.82776   7
   4   1   4 97.8248 8.99827   4
  -4   1  -4 87.5324 4.28200   7
   4   1   4 95.0218 7.28856   5
  -4   1  -4 95.2768 4.48281   7
   4   1   4 90.3554 4.04870   6
   4   1   4 92.5106 4.03772   6
  -5  -1  -4 207.040 8.19431   7
  -5  -1  -4 219.305 8.10144   7
   5  -1   4 222.442 8.71688   6
   5  -1   4 224.279 11.5354   3
   5  -1   4 202.517 15.4315   4
   5  -1   4 214.972 8.56733   6
   5   1   4 218.311 15.0010   4
   5   1   4 200.266 8.19282   6
  -5   1  -4 215.878 8.55745   7
   5   1   4 212.959 8.16199   6
  -7  -1  -4 1327.82 43.2292   7
   7  -1   4 1413.96 43.8743   6
   7  -1   4 1433.82 52.0350   4
  -7   1  -4 1367.10 43.6830   7
   7   1   4 1502.35 50.4297   4
  -8  -1  -4 132.747 10.0751   7
   8  -1   4 129.788 16.8720   4
   8  -1   4 111.237 9.66302   6
   8   1   4 136.423 14.5951   4
  -8   1  -4 116.515 9.87124   7
  10  -2  -4 169.403 16.1493   6
  10  -2  -4 165.897 20.7954   4
 -10  -2   4 174.701 18.0871   1
  10  -2  -4 178.012 15.9667   3
 -10  -2   4 185.689 15.7533   7
 -10   2   4 183.353 17.0396   7
  10   2  -4 166.155 14.9192   2
  10   2  -4 159.093 16.1334   4
 -10   2   4 200.584 15.1887   5
  -9  -2   4 347.910 29.0547   1
   9  -2  -4 405.730 22.7652   6
   9  -2  -4 394.833 21.2169   3
   9  -2  -4 340.919 33.0355   4
  -9  -2   4 383.809 22.7771   7
  -9   2   4 422.484 22.9688   7
   9   2  -4 353.671 23.0268   2
   9   2  -4 332.047 24.5068   4
  -9   2   4 361.302 19.8764   5
   8  -2  -4 1209.41 53.4873   4
   8  -2  -4 1308.00 45.3045   6
  -8  -2   4 1240.95 44.8161   7
  -8   2   4 1264.99 44.8166   7
   8   2  -4 1115.83 46.7956   4
   8   2  -4 1275.74 44.0860   2
  -8   2   4 1267.28 42.6884   5
  -7  -2   4 28.9393 7.84039   6
   7  -2  -4 39.5564 9.17552   6
   7  -2  -4 53.4444 13.8338   4
  -7  -2   4 28.7129 7.05461   7
  -7   2   4 26.9723 6.32427   6
  -7   2   4 20.8211 8.62974   7
  -7   2   4 35.5888 6.54121   5
   7   2  -4 36.2619 13.8141   4
   7   2  -4 55.2970 10.0743   2
   7   2  -4 33.9473 8.16829   7
  -6  -2   4 180.071 13.7909   6
   6  -2  -4 202.658 14.8645   6
  -6  -2   4 189.073 15.2928   7
   6  -2  -4 183.646 21.7362   4
   6   2  -4 203.079 15.1045   2
  -6   2   4 187.483 15.0388   7
  -6   2   4 188.829 12.3381   6
   6   2  -4 218.937 14.8178   7
  -6   2   4 176.132 13.5831   5
   5  -2  -4 1060.37 35.8032   6
   5  -2  -4 1009.22 36.4718   7
  -5  -2   4 1010.10 35.0654   6
   5  -2  -4 995.052 44.4034   4
  -5  -2   4 1059.91 36.2604   7
  -5   2   4 1000.83 35.2967   7
   5   2  -4 1048.24 36.0062   2
   5   2  -4 1054.47 35.9785   7
  -5   2   4 1022.64 35.1748   5
  -5   2   4 1061.04 35.6692   6
   4  -2  -4 4173.05 124.934   7
   4  -2  -4 4193.96 125.185   6
  -4  -2   4 4158.05 124.922   7
  -4  -2   4 4282.79 125.077   6
  -4   2   4 4238.34 125.018   7
  -4   2   4 4214.62 125.345   6
   4   2  -4 4115.00 124.465   7
  -4   2   4 4180.65 125.113   5
   4   2  -4 4243.35 124.631   2
   3  -2  -4 -1.9297 5.04622   6
   3  -2  -4 -2.4710 4.75614   7
  -3  -2   4 -3.3087 5.16568   6
  -3  -2   4 4.32698 5.77083   7
   3   2  -4 -0.6971 5.83594   7
  -3   2   4 4.41417 3.84682   7
  -3   2   4 -11.551 5.87225   6
  -3   2   4 -0.2916 3.96638   5
  -2  -2   4 1012.03 33.4742   6
   2  -2  -4 1007.07 33.3022   7
  -2  -2   4 992.408 33.1835   7
   2  -2  -4 996.542 32.9555   6
  -2  -2   4 1003.38 33.2854   3
  -2   2   4 1016.87 33.5681   5
  -2   2   4 999.094 33.2831   6
   2   2  -4 1033.15 32.9413   7
  -2   2   4 1022.08 32.8781   7
   1  -2  -4 1117.94 34.6471   6
  -1  -2   4 1107.63 35.5078   6
  -1  -2   4 1112.13 36.3098   3
  -1  -2   4 1077.48 35.0864   7
   1  -2  -4 1134.98 35.9791   7
  -1  -2   4 1087.41 35.7038   1
  -1   2   4 1107.81 34.4861   7
   1   2  -4 1106.04 35.4118   7
  -1   2   4 1144.57 35.9448   6
  -1   2   4 1078.26 36.0113   5
   0  -2   4 3732.17 114.320   4
   0  -2   4 3978.62 111.809   7
   0  -2  -4 3636.65 111.325   6
   0  -2   4 3688.14 112.234   6
   0  -2   4 4004.79 113.706   3
   0  -2   4 3906.21 112.255   1
   0  -2  -4 3915.63 112.498   7
   0   2  -4 3757.10 112.137   7
   0   2   4 4007.44 112.676   6
   0   2   4 3787.24 113.542   5
   0   2   4 3744.34 111.245   7
   1  -2   4 290.361 11.5527   6
   1  -2   4 264.696 15.6749   4
   1  -2   4 282.812 12.6956   3
  -1  -2  -4 290.153 12.1434   7
   1   2   4 291.979 11.2120   6
   1   2   4 287.581 11.8058   6
   1   2   4 274.099 13.7301   5
  -1   2  -4 298.856 11.6153   7
   2  -2   4 1886.64 58.1175   3
  -2  -2  -4 1891.31 55.4848   7
   2  -2   4 1870.53 55.8795   6
   2  -2   4 1830.24 60.3756   4
   2  -2   4 1847.93 55.9050   6
  -2   2  -4 1882.31 55.7410   7
   2   2   4 1832.94 54.5745   2
   2   2   4 1877.29 55.8256   6
   2   2   4 1870.07 55.5950   6
   2   2   4 1900.97 57.9282   5
  -2   2  -4 1850.68 55.7308   7
   3  -2   4 640.695 23.5853   3
   3  -2   4 634.521 20.7251   6
   3  -2   4 608.729 20.5795   6
  -3  -2  -4 622.627 20.1569   7
   3  -2   4 626.842 25.8737   4
   3   2   4 635.999 20.6123   6
   3   2   4 604.966 19.9827   2
  -3   2  -4 629.362 20.8716   7
   3   2   4 624.063 20.2589   6
   3   2   4 628.216 22.5907   5
  -3   2  -4 654.685 20.5940   7
  -4  -2  -4 483.210 16.2465   7
   4  -2   4 470.793 16.9170   6
   4  -2   4 513.617 19.3286   3
   4  -2   4 460.703 24.7191   4
   4  -2   4 499.731 17.1760   6
   4   2   4 494.842 19.8048   4
   4   2   4 472.482 19.3008   5
  -4   2  -4 473.064 16.6253   7
   4   2   4 500.591 16.4150   6
   4   2   4 481.095 16.5768   6
  -4   2  -4 454.488 16.7982   7
   4   2   4 470.631 16.4498   2
   5  -2   4 78.4263 11.1021   4
   5  -2   4 76.8042 8.59497   3
   5  -2   4 60.9143 5.28876   6
  -5  -2  -4 73.5125 5.93918   7
   5   2   4 70.3773 5.84033   2
  -5   2  -4 69.3294 5.95831   7
   5   2   4 75.0720 5.92739   6
   5   2   4 73.5465 8.64333   4
   6  -2   4 544.515 18.9261   6
  -6  -2  -4 458.989 18.1505   7
   6  -2   4 580.114 26.9791   4
   6  -2   4 558.578 22.1308   3
   6   2   4 432.484 17.9632   6
  -6   2  -4 517.812 18.9849   7
   6   2   4 549.624 19.5559   2
   6   2   4 528.126 22.6898   4
   7  -2   4 160.927 9.67787   6
  -7  -2  -4 159.225 10.7961   7
   7  -2   4 142.894 12.4703   3
   7  -2   4 157.426 16.1179   4
  -7   2  -4 142.739 9.58791   7
   7   2   4 146.081 14.0238   4
   7   2   4 162.879 10.2881   6
   8  -2   4 5.39133 4.73510   6
  -8  -2  -4 2.73582 5.98201   7
   8  -2   4 -13.202 12.2966   4
  -8   2  -4 -3.0068 4.41820   7
   8   2   4 1.49324 5.51867   6
 -10  -3   4 261.448 22.0911   7
  10  -3  -4 283.078 27.5557   4
  10  -3  -4 293.375 21.8932   6
  10  -3  -4 285.072 23.3850   3
  10   3  -4 286.129 19.8679   2
 -10   3   4 271.000 21.8541   7
  -9  -3   4 36.7056 8.94286   7
   9  -3  -4 32.0962 10.8713   6
   9  -3  -4 44.1876 10.1895   3
   9  -3  -4 38.8649 14.3968   4
  -9   3   4 37.2459 10.9991   7
  -9   3   4 43.0300 7.39424   5
   9   3  -4 23.9339 11.2358   2
   8  -3  -4 19.8284 9.64045   6
   8  -3  -4 5.40932 12.0570   4
   8  -3  -4 36.2470 11.4950   3
  -8   3   4 41.7250 10.4346   7
   8   3  -4 25.1669 10.3874   4
   7  -3  -4 775.217 37.6323   4
   7  -3  -4 811.904 33.7008   3
   7  -3  -4 802.591 32.5358   6
  -7  -3   4 804.693 32.2675   7
   7   3  -4 842.631 30.7645   7
   7   3  -4 709.420 32.5372   4
  -7   3   4 831.873 30.7522   5
  -7   3   4 785.238 32.1219   7
   7   3  -4 859.537 32.7318   2
  -7   3   4 713.665 31.3493   6
  -6  -3   4 12.3618 6.35959   7
   6  -3  -4 -0.3998 17.3028   4
   6  -3  -4 18.9934 8.44573   6
  -6  -3   4 24.6152 5.99323   6
   6   3  -4 18.5502 8.65548   2
  -6   3   4 10.2581 8.60892   7
  -6   3   4 7.99911 6.12023   6
  -6   3   4 8.33616 6.95891   5
   6   3  -4 9.51692 7.69522   7
   5  -3  -4 450.171 31.7898   4
  -5  -3   4 490.035 22.4476   7
  -5  -3   4 481.192 21.6829   6
   5  -3  -4 509.036 22.6092   6
  -5   3   4 488.175 21.1347   6
  -5   3   4 502.228 22.4903   7
   5   3  -4 521.762 20.7492   7
  -5   3   4 482.257 21.7219   5
  -4  -3   4 38.1554 8.07417   7
  -4  -3   4 34.7467 5.98458   6
   4  -3  -4 31.1779 11.5487   4
   4  -3  -4 32.8227 6.05455   6
  -4   3   4 36.1800 6.78579   6
   4   3  -4 40.3987 8.10087   7
  -4   3   4 39.3669 7.81509   7
  -4   3   4 35.5143 6.30900   5
  -3  -3   4 2190.80 66.6403   3
  -3  -3   4 2138.84 66.4096   6
  -3  -3   4 2153.57 66.6513   7
   3  -3  -4 2107.90 66.5275   6
  -3   3   4 2116.90 66.0403   7
  -3   3   4 2117.24 67.0815   6
   3   3  -4 2187.06 66.6245   7
  -3   3   4 2104.49 66.5674   5
  -2  -3   4 466.978 18.4517   6
   2  -3  -4 465.125 17.9888   6
  -2  -3   4 467.345 18.6228   3
  -2  -3   4 455.734 19.2612   7
  -2   3   4 477.928 18.6424   7
   2   3  -4 454.790 18.3173   7
  -2   3   4 478.858 20.1412   6
   2   3  -4 459.733 18.9028   6
  -2   3   4 439.028 19.8260   5
  -1  -3   4 685.289 24.8403   7
  -1  -3   4 722.509 25.3592   3
  -1  -3   4 704.826 25.2633   6
  -1  -3   4 680.239 25.2225   4
   1  -3  -4 685.268 24.3178   6
   1   3  -4 716.639 25.2631   7
  -1   3   4 723.370 25.1151   6
   1   3  -4 682.367 24.6265   6
  -1   3   4 691.105 23.8161   7
  -1   3   4 721.441 26.3858   5
   0  -3   4 1196.06 33.4673   7
   0  -3   4 993.773 34.6297   3
   0  -3  -4 987.494 32.2638   3
   0  -3   4 978.922 34.8068   4
   0  -3   4 962.226 33.1182   6
   0  -3  -4 991.977 32.4429   6
   0   3  -4 959.194 32.9518   7
   0   3   4 973.636 32.2348   7
   0   3   4 1172.42 34.5208   6
   0   3   4 972.360 34.3109   5
  -1  -3  -4 595.876 19.8789   6
   1  -3   4 527.078 18.8507   7
   1  -3   4 554.399 21.2461   3
   1  -3   4 519.575 18.5550   1
  -1  -3  -4 568.068 18.8112   3
   1  -3   4 552.564 20.3325   6
   1  -3   4 549.937 23.8227   4
   1   3   4 563.346 20.7555   6
  -1   3  -4 551.772 20.3269   7
   1   3   4 545.609 18.3710   7
   1   3   4 529.854 21.3610   5
   2  -3   4 454.855 20.8324   4
   2  -3   4 463.663 18.9486   3
  -2  -3  -4 448.736 14.7103   3
   2  -3   4 463.518 17.6172   6
  -2   3  -4 446.520 17.5088   7
   2   3   4 438.775 18.7882   5
   2   3   4 462.416 17.8550   6
   3  -3   4 847.738 33.4429   4
   3  -3   4 896.826 31.7171   3
   3  -3   4 852.867 28.8838   6
  -3   3  -4 864.808 28.5195   7
   3   3   4 862.899 30.7102   5
   3   3   4 844.445 28.8746   6
  -4  -3  -4 10.8901 5.24047   7
   4  -3   4 4.58243 7.33385   4
   4  -3   4 3.52640 6.93201   3
   4  -3   4 5.46480 4.44250   6
  -4   3  -4 9.17858 4.69540   7
   4   3   4 16.1775 7.24083   5
   4   3   4 15.8223 4.11118   2
   4   3   4 3.07601 4.77901   6
  -5  -3  -4 69.8163 7.11981   7
   5  -3   4 75.3223 13.6109   4
   5  -3   4 70.2240 6.96754   6
   5  -3   4 73.5375 9.76902   3
  -5   3  -4 79.8556 7.21558   7
   5   3   4 65.4412 7.57147   6
   5   3   4 77.6309 6.62168   2
   6  -3   4 1484.88 50.7756   3
  -6  -3  -4 1482.63 47.6752   7
   6  -3   4 1490.38 47.7722   6
   6  -3   4 1451.77 56.3998   4
   6   3   4 1521.80 47.7797   6
  -6   3  -4 1486.82 47.6411   7
   7  -3   4 316.165 17.3753   3
   7  -3   4 344.601 16.8791   6
   7  -3   4 302.226 27.0899   4
  -7  -3  -4 341.768 17.2186   7
  -7   3  -4 344.227 16.1354   7
   7   3   4 335.384 15.8840   6
  -8  -3  -4 15.8314 6.70304   7
   8  -3   4 21.1991 8.56482   3
   8  -3   4 16.8506 11.0672   4
   8  -3   4 27.7122 6.71440   6
  -8   3  -4 14.6930 6.50976   7
   8   3   4 17.6814 6.51471   6
   9  -4  -4 83.2758 13.7475   6
   9  -4  -4 107.399 22.5331   4
   9  -4  -4 48.7125 11.3671   3
  -9  -4   4 80.4609 13.3821   7
   9   4  -4 71.6210 13.3068   2
  -9   4   4 74.7815 13.6143   7
  -9   4   4 67.4556 12.3624   5
   8  -4  -4 271.751 20.6084   6
   8  -4  -4 291.964 22.5380   3
   8  -4  -4 236.289 26.3408   4
  -8  -4   4 284.887 21.1433   7
  -8   4   4 269.497 17.6332   5
   8   4  -4 260.946 17.7539   2
  -8   4   4 290.079 18.2354   7
   7  -4  -4 480.107 24.5221   3
   7  -4  -4 487.589 25.1390   6
   7  -4  -4 447.834 29.7823   4
  -7  -4   4 491.539 23.1321   7
  -7   4   4 482.873 22.8627   5
   7   4  -4 507.805 23.6525   7
   7   4  -4 489.683 22.8948   2
  -7   4   4 512.253 25.2442   7
   6  -4  -4 156.724 13.0494   6
   6  -4  -4 165.917 17.9075   4
  -6  -4   4 143.714 12.6704   6
   6  -4  -4 167.654 14.2379   3
  -6  -4   4 133.466 13.6439   7
  -6   4   4 146.634 12.7129   5
  -6   4   4 141.267 12.2540   7
   6   4  -4 154.243 12.8191   7
  -6   4   4 139.068 13.3429   6
   6   4  -4 146.569 13.5030   2
   5  -4  -4 4.25657 15.8168   4
  -5  -4   4 7.56251 6.59202   7
  -5  -4   4 6.60428 7.47788   6
   5  -4  -4 -1.2779 9.30013   3
   5  -4  -4 8.97627 5.98785   6
   5   4  -4 -6.3969 7.84737   6
   5   4  -4 24.1403 8.45220   7
  -5   4   4 5.92982 7.48255   5
  -5   4   4 7.18406 8.54950   6
  -5   4   4 15.0455 6.21185   7
   4  -4  -4 5.93961 7.24868   6
  -4  -4   4 10.3646 8.44937   7
   4  -4  -4 2.92901 8.64940   3
  -4  -4   4 4.29587 5.36518   6
   4  -4  -4 -8.5533 14.4527   4
  -4   4   4 8.44313 6.20120   6
   4   4  -4 -4.0329 7.54749   7
   4   4  -4 6.31366 7.59916   6
  -4   4   4 3.13929 7.30922   5
  -4   4   4 1.01695 5.33011   7
  -3  -4   4 688.352 25.9774   3
  -3  -4   4 614.064 26.2495   7
   3  -4  -4 690.673 32.9111   4
  -3  -4   4 674.890 26.5214   6
   3  -4  -4 613.651 26.4568   3
   3  -4  -4 668.121 26.0790   6
   3   4  -4 669.358 26.4407   7
   3   4  -4 657.514 26.2904   6
  -3   4   4 653.276 26.5412   5
  -3   4   4 657.680 25.8533   6
  -3   4   4 608.539 24.5958   7
  -2  -4   4 270.228 13.9743   6
   2  -4  -4 268.418 13.4929   6
   2  -4  -4 282.825 15.5317   3
  -2  -4   4 250.325 13.8011   7
  -2  -4   4 259.991 15.3524   3
   2  -4  -4 260.336 21.9617   4
  -2   4   4 278.875 15.0478   6
  -2   4   4 240.850 16.1710   5
   2   4  -4 256.645 14.1079   7
   2   4  -4 267.680 15.4092   6
  -2   4   4 265.953 14.9376   7
  -1  -4   4 147.621 12.3272   6
  -1  -4   4 132.386 10.5371   3
   1   4  -4 169.827 12.8580   7
  -1   4   4 138.631 11.1768   6
  -1   4   4 166.308 11.0242   7
   1   4  -4 152.887 11.7564   6
   0  -4   4 605.875 22.3934   7
   0  -4  -4 599.552 21.5384   3
   0  -4   4 586.786 24.0593   3
   0  -4   4 541.325 21.9625   6
   0  -4  -4 570.627 21.4737   6
   0  -4   4 600.701 24.5907   4
   0   4  -4 559.980 21.9476   7
   0   4   4 556.900 20.6802   7
   0   4   4 537.798 23.1501   5
   0   4  -4 600.804 22.2451   6
   0   4   4 596.915 23.8982   6
  -1  -4  -4 489.952 18.2012   6
   1  -4   4 505.711 21.8357   4
  -1  -4  -4 498.988 17.9732   3
   1  -4   4 500.022 19.0455   7
   1  -4   4 492.971 20.4571   6
   1  -4   4 477.194 20.6942   3
   1   4   4 497.157 21.0581   6
   1   4   4 473.896 17.8918   7
  -1   4  -4 475.332 18.7968   6
   1   4   4 486.946 21.1288   5
  -1   4  -4 492.845 20.5055   7
   2  -4   4 593.214 25.6699   3
  -2  -4  -4 615.603 20.1180   3
   2  -4   4 607.516 27.9956   4
   2  -4   4 623.027 23.8883   6
   2   4   4 622.405 24.2648   6
  -2   4  -4 608.859 23.6941   7
   2   4   4 614.008 24.8796   5
   3  -4   4 79.1472 8.77753   3
   3  -4   4 87.8062 11.1121   4
  -3  -4  -4 76.1120 9.06531   7
   3  -4   4 76.2052 8.29594   6
   3   4   4 79.3050 10.6786   5
  -3   4  -4 68.7418 8.29063   7
   3   4   4 72.5916 8.65727   6
   4  -4   4 1210.63 40.4668   6
  -4  -4  -4 1224.99 40.5353   7
   4  -4   4 1248.97 43.2793   3
   4  -4   4 1188.66 46.6978   4
   4   4   4 1169.79 42.0161   5
  -4   4  -4 1176.86 40.2101   7
   4   4   4 1175.23 40.2506   6
   4   4   4 1199.74 38.4667   2
  -5  -4  -4 813.204 29.6385   7
   5  -4   4 797.346 29.4145   6
   5  -4   4 812.614 31.5875   3
   5  -4   4 798.851 35.3143   4
   5   4   4 799.379 29.4158   6
  -5   4  -4 792.605 29.3392   7
   5   4   4 774.564 27.9391   2
   6  -4   4 38.9472 7.49026   6
   6  -4   4 54.8343 14.7002   4
  -6  -4  -4 66.2080 8.83963   7
   6  -4   4 37.6638 10.1559   3
   6   4   4 48.0138 7.89128   6
  -6   4  -4 45.7830 7.91629   7
   7  -4   4 40.2465 12.0935   4
  -7  -4  -4 27.1493 7.94186   7
   7  -4   4 35.5559 8.08022   3
   7  -4   4 31.1020 7.26098   6
  -7   4  -4 22.5733 7.24893   7
   7   4   4 18.9960 7.44886   6
  -9  -5   4 8.75568 12.1730   7
   9  -5  -4 40.6316 20.5756   4
   9  -5  -4 -1.1809 11.7967   6
   9  -5  -4 8.50652 13.3109   3
  -9   5   4 27.2715 12.6420   7
   8  -5  -4 5.43638 12.1984   3
   8  -5  -4 15.2372 17.6333   4
  -8  -5   4 4.73855 8.10499   7
   8  -5  -4 18.8324 11.4698   6
   8   5  -4 8.73986 7.79701   2
  -8   5   4 -8.5632 10.0519   7
  -8   5   4 -8.5788 7.58422   5
  -7  -5   4 92.2057 13.0204   7
  -7   5   4 13.5362 10.3925   7
   7   5  -4 50.9443 9.03884   2
  -7   5   4 19.1688 8.34208   5
   6  -5  -4 1113.16 43.1064   6
  -6  -5   4 1149.28 43.2365   7
   6  -5  -4 1148.72 46.9481   4
   6  -5  -4 1130.47 44.2261   3
   6   5  -4 1162.39 41.7086   7
   6   5  -4 1123.38 42.8691   6
  -6   5   4 1140.21 42.6324   6
  -6   5   4 1109.88 41.6073   7
  -6   5   4 1110.34 41.3090   5
  -5  -5   4 25.0381 10.1639   7
   5  -5  -4 24.4246 9.29905   6
   5  -5  -4 17.1907 10.4077   3
  -5  -5   4 21.0132 6.70847   6
   5  -5  -4 29.2661 15.3537   4
   5   5  -4 33.8337 9.60796   7
  -5   5   4 19.1090 7.20383   7
  -5   5   4 27.5646 8.93802   5
  -5   5   4 9.71446 9.58598   6
   5   5  -4 27.9760 7.50302   6
  -4  -5   4 1001.20 36.4406   6
   4  -5  -4 997.408 38.4018   3
   4  -5  -4 980.777 36.5399   6
  -4  -5   4 980.749 36.6047   7
   4  -5  -4 1046.59 40.6121   4
  -4  -5   4 1000.11 36.4002   3
  -4   5   4 978.189 37.4131   5
   4   5  -4 1007.44 37.9349   6
   4   5  -4 983.913 37.2330   7
  -4   5   4 975.184 37.3289   7
  -4   5   4 997.141 38.2671   6
   3  -5  -4 108.510 15.6673   4
  -3  -5   4 101.027 11.7028   7
   3  -5  -4 83.9042 9.04313   6
  -3  -5   4 102.217 10.2251   6
  -3  -5   4 82.1713 10.6155   3
   3  -5  -4 87.0693 9.78156   3
  -3   5   4 105.907 11.2536   7
   3   5  -4 105.673 11.7721   7
  -3   5   4 84.9280 9.79765   5
  -3   5   4 94.1983 11.7461   6
   3   5  -4 109.363 11.7824   6
   2  -5  -4 2053.17 66.5007   6
   2  -5  -4 2038.19 66.1916   3
  -2  -5   4 2045.40 66.7475   7
  -2  -5   4 2074.05 66.6739   6
  -2  -5   4 2052.33 66.9740   3
   2  -5  -4 2153.18 68.9090   4
  -2   5   4 2103.73 67.3869   5
   2   5  -4 2123.18 67.2467   7
   2   5  -4 2076.81 66.5576   6
  -2   5   4 1990.33 66.0175   7
  -2   5   4 2158.95 67.9698   6
  -1  -5   4 74.6515 9.14345   4
   1  -5  -4 37.6281 6.08848   6
   1  -5  -4 49.5119 8.09881   3
  -1  -5   4 59.1369 9.61547   3
  -1  -5   4 84.7816 9.86167   7
  -1  -5   4 62.5338 9.59216   6
   1  -5  -4 27.5098 10.2318   4
  -1   5   4 38.2030 10.0886   6
   1   5  -4 75.4822 10.2699   7
   1   5  -4 64.3876 9.21301   6
  -1   5   4 49.7915 8.08677   5
  -1   5   4 55.0044 8.25710   7
   0  -5   4 1688.19 55.2021   6
   0  -5   4 1760.12 55.9519   4
   0  -5  -4 1697.55 53.7257   4
   0  -5  -4 1661.31 53.2081   3
   0  -5   4 1637.94 55.2087   3
   0  -5  -4 1579.56 53.2958   6
   0  -5   4 1670.09 54.0336   7
   0   5  -4 1676.87 54.8421   7
   0   5  -4 1656.56 54.1800   6
   0   5   4 1640.03 55.5981   5
   0   5   4 1585.84 52.6618   7
   0   5   4 1748.18 55.8816   6
   1  -5   4 310.103 16.7405   3
   1  -5   4 299.784 15.6136   7
  -1  -5  -4 301.624 14.3810   4
   1  -5   4 288.411 18.9218   4
  -1  -5  -4 300.000 13.8890   3
   1  -5   4 290.321 15.4913   6
   1   5   4 289.387 18.1760   6
  -1   5  -4 289.171 15.2805   7
   1   5   4 274.985 18.9896   5
   1   5   4 288.873 14.1442   7
   2  -5   4 224.025 16.8180   3
  -2  -5  -4 186.888 9.75549   3
   2  -5   4 203.761 12.7171   6
   2  -5   4 198.699 15.2385   4
  -2  -5  -4 195.985 16.0710   7
   2   5   4 194.426 14.6986   5
  -2   5  -4 196.254 14.6738   7
   2   5   4 201.750 15.5830   6
  -3  -5  -4 58.7857 8.31926   7
   3  -5   4 71.8416 8.29919   6
   3  -5   4 88.8229 11.8527   3
   3  -5   4 84.5527 13.7687   4
   3   5   4 51.3437 9.48765   6
  -3   5  -4 64.5968 7.96668   7
   3   5   4 76.6451 9.87978   5
   4  -5   4 1765.66 63.2540   4
  -4  -5  -4 1763.92 57.9103   7
   4  -5   4 1823.10 58.9047   6
   4  -5   4 1742.24 61.0233   3
  -4   5  -4 1823.64 58.5787   7
   4   5   4 1792.15 61.4456   5
   4   5   4 1765.55 58.6410   6
   5  -5   4 253.859 25.1327   4
  -5  -5  -4 263.842 17.7152   7
   5  -5   4 208.875 18.8830   3
   5  -5   4 256.812 16.4338   6
  -5   5  -4 260.944 16.6058   7
   5   5   4 253.241 16.8681   6
   6  -5   4 27.1750 10.7403   3
   6  -5   4 12.2435 10.4073   4
  -6  -5  -4 6.74355 6.32199   7
   6  -5   4 8.06748 5.49879   6
   6   5   4 20.1410 8.47471   6
  -6   5  -4 18.6167 8.22102   7
   7  -6  -4 525.548 37.1507   4
   7  -6  -4 551.207 28.5682   3
   7  -6  -4 568.065 29.5821   6
  -7  -6   4 568.346 29.9309   7
  -7   6   4 559.499 29.5912   7
  -7   6   4 511.515 24.7700   5
   7   6  -4 516.599 29.0519   2
   6  -6  -4 4.61948 7.34010   6
   6  -6  -4 -4.5790 14.6803   4
   6  -6  -4 1.86261 10.5030   7
  -6  -6   4 2.49621 10.9416   7
   6  -6  -4 11.6448 11.5409   3
  -6   6   4 -3.0305 8.60572   5
   6   6  -4 -4.8536 10.1586   6
  -6   6   4 9.91834 10.7925   7
   5  -6  -4 156.203 19.1539   4
   5  -6  -4 127.924 15.6315   3
  -5  -6   4 183.053 16.5813   7
  -5   6   4 178.344 16.3355   6
  -5   6   4 158.802 14.0993   5
   5   6  -4 154.797 14.2378   6
  -5   6   4 144.235 13.4822   7
   5   6  -4 146.210 14.6891   7
  -4  -6   4 308.940 21.4665   7
   4  -6  -4 267.852 24.2415   4
  -4  -6   4 294.668 17.6005   6
   4  -6  -4 267.316 17.5406   6
   4  -6  -4 268.725 18.0441   3
  -4  -6   4 330.995 18.9002   3
  -4   6   4 280.070 20.0998   5
   4   6  -4 304.843 20.6562   7
   4   6  -4 283.434 18.1015   6
  -4   6   4 267.621 20.2823   7
  -4   6   4 286.431 18.5153   6
  -3  -6   4 2597.76 83.0036   6
  -3  -6   4 2623.96 82.8620   7
   3  -6  -4 2543.20 83.0650   4
  -3  -6   4 2594.59 81.9429   3
   3  -6  -4 2594.14 82.7181   6
   3  -6  -4 2454.54 81.9401   3
   3   6  -4 2609.56 81.9931   7
   3   6  -4 2597.27 82.5755   6
  -3   6   4 2508.87 81.5326   7
  -3   6   4 2551.70 82.5049   5
  -3   6   4 2562.68 82.7696   6
   2  -6  -4 194.402 17.3283   4
  -2  -6   4 176.607 14.0664   7
  -2  -6   4 180.197 14.1144   6
  -2  -6   4 175.778 13.4872   3
   2  -6  -4 177.013 13.0896   6
   2  -6  -4 182.984 13.4419   3
  -2   6   4 200.684 16.4786   6
  -2   6   4 179.086 15.7003   7
   2   6  -4 177.185 14.7525   6
   2   6  -4 204.577 17.6579   7
  -2   6   4 181.203 15.6996   5
   1  -6  -4 188.505 14.7014   6
  -1  -6   4 189.989 16.5511   6
   1   6  -4 143.561 12.5582   6
  -1   6   4 167.798 14.4307   7
   0  -6   4 83.1895 11.4528   6
   0  -6   4 80.8124 11.1685   4
   0  -6   4 94.6826 10.8963   7
   0  -6  -4 80.4054 9.37298   3
   0  -6  -4 80.6937 12.8073   7
   0  -6   4 100.141 12.5054   3
   0   6   4 107.316 12.7507   6
   0   6  -4 80.4544 11.4687   7
   0   6   4 85.0597 9.62772   7
   0   6   4 77.3188 10.5756   5
   1  -6   4 1875.33 62.0687   6
   1  -6   4 1872.88 62.9133   4
  -1  -6  -4 1890.78 62.3455   7
   1  -6   4 1831.58 62.8803   3
  -1  -6  -4 1758.83 58.0887   3
   1   6   4 1831.05 62.7139   5
  -1   6  -4 1861.68 61.6001   7
   1   6   4 1867.26 62.4316   6
   2  -6   4 459.215 22.0878   6
  -2  -6  -4 480.602 24.8200   7
   2  -6   4 480.397 24.4711   4
   2  -6   4 496.342 23.7571   3
   2   6   4 485.925 24.1318   5
  -2   6  -4 452.173 21.7839   7
   2   6   4 494.754 24.6512   6
   3  -6   4 661.353 28.3148   6
   3  -6   4 637.250 32.2687   4
  -3  -6  -4 605.951 28.5081   7
   3  -6   4 620.846 28.3250   3
   3   6   4 610.678 30.5072   5
  -3   6  -4 628.807 27.7619   7
   3   6   4 622.873 28.2555   6
   4  -6   4 14.9918 8.85964   6
   4  -6   4 -1.8636 10.4325   3
  -4  -6  -4 17.1655 9.92753   7
   4  -6   4 4.56708 12.2532   4
   4   6   4 15.9292 9.32788   6
  -4   6  -4 10.5266 8.72229   7
  -5  -6  -4 778.121 31.9091   7
   5  -6   4 793.268 33.0486   6
   5  -6   4 773.177 34.0757   3
   5  -6   4 805.360 40.7051   4
  -5   6  -4 786.247 32.7651   7
   5   6   4 799.551 33.2578   6
  -6  -7   4 231.470 20.4123   7
   6  -7  -4 221.481 20.8954   3
   6  -7  -4 233.051 20.2605   6
   6  -7  -4 251.259 24.2213   4
  -6   7   4 231.558 18.8214   7
  -6   7   4 221.807 20.1046   5
   6   7  -4 211.297 18.3905   6
   5  -7  -4 162.466 19.2594   4
   5  -7  -4 147.482 16.2618   6
  -5  -7   4 149.330 17.1683   7
   5  -7  -4 133.008 14.5452   3
   5  -7  -4 139.998 16.7939   7
  -5   7   4 138.923 16.2484   7
   5   7  -4 167.303 16.0736   7
  -5   7   4 160.035 16.0018   5
   5   7  -4 146.824 14.7692   6
  -4  -7   4 312.614 23.5584   7
   4  -7  -4 308.625 20.4933   7
  -4  -7   4 339.174 20.1191   6
  -4  -7   4 315.669 18.4802   3
   4  -7  -4 310.194 24.2916   4
   4  -7  -4 370.649 23.1788   6
   4  -7  -4 291.082 22.2200   3
  -4   7   4 330.243 19.9318   7
   4   7  -4 323.765 22.7961   7
  -4   7   4 355.006 24.2342   6
  -4   7   4 335.385 23.0310   5
   4   7  -4 318.081 20.5219   6
   3  -7  -4 23.9859 7.89563   6
  -3  -7   4 23.6840 11.1682   7
   3  -7  -4 24.6638 9.38536   7
  -3  -7   4 14.5282 10.7243   6
   3  -7  -4 12.8583 10.2556   3
   3  -7  -4 32.0684 11.3581   4
  -3  -7   4 40.6648 8.47717   3
  -3   7   4 27.0194 10.5711   7
  -3   7   4 29.1641 12.2192   6
   3   7  -4 32.0787 8.73990   7
  -3   7   4 28.6135 11.1941   5
   3   7  -4 23.7988 8.61463   6
   2  -7  -4 466.692 24.8115   3
   2  -7  -4 523.180 25.0740   7
   2  -7  -4 468.129 23.9739   4
  -2  -7   4 461.178 23.5193   7
  -2  -7   4 460.912 25.0534   3
  -2  -7   4 488.911 26.1788   6
   2  -7  -4 447.675 22.6873   6
  -2   7   4 465.697 25.0145   7
  -2   7   4 481.343 24.6918   6
   2   7  -4 467.801 26.4221   7
  -2   7   4 427.013 26.4383   5
   2   7  -4 513.123 26.0880   6
   1  -7  -4 535.966 25.1624   3
  -1  -7   4 522.976 24.3096   4
   1  -7  -4 506.845 28.5476   7
  -1  -7   4 575.533 27.2257   7
  -1  -7   4 527.434 27.1779   6
  -1  -7   4 501.188 25.0626   3
  -1   7   4 524.974 25.4308   7
  -1   7   4 561.059 26.8768   5
   1   7  -4 547.400 27.9237   7
  -1   7   4 560.203 28.7635   6
   0  -7   4 26.7759 9.48754   4
   0  -7  -4 38.9523 12.7229   7
   0  -7  -4 32.6686 8.39609   3
   0  -7   4 25.6085 8.31069   3
   0  -7   4 34.9419 10.8491   6
   0   7   4 37.1052 12.0112   6
   0   7   4 38.3833 12.2585   5
   0   7  -4 30.6830 8.54380   7
  -1  -7  -4 288.639 22.6107   7
   1  -7   4 307.720 18.8745   6
  -1  -7  -4 351.351 17.2311   3
   1  -7   4 308.727 22.0234   3
   1  -7   4 297.732 21.1780   4
   1   7   4 288.539 20.2202   5
  -1   7  -4 332.498 21.6890   7
   1   7   4 302.828 22.2239   6
   2  -7   4 249.168 21.3067   4
   2  -7   4 215.389 16.4252   6
  -2  -7  -4 222.825 18.6507   7
   2  -7   4 240.462 17.7817   3
   2   7   4 242.605 20.2607   6
   2   7   4 193.355 17.7393   5
  -2   7  -4 228.280 16.6450   7
   3  -7   4 44.8857 10.9422   4
   3  -7   4 55.9250 10.9240   3
   3  -7   4 63.3723 12.3790   6
  -3  -7  -4 27.8547 12.2863   7
   3   7   4 68.1595 12.9428   6
  -3   7  -4 40.4607 11.4198   7
   3   7   4 53.1395 11.6509   5
  -2  -8   4 22.0360 12.1180   7
  -2  -8   4 33.1716 12.5461   6
   2  -8  -4 28.0108 13.8338   7
  -2  -8   4 25.1453 8.97081   3
   2  -8  -4 20.5225 10.8919   3
  -2   8   4 29.2128 12.9945   5
  -2   8   4 31.8484 10.5560   6
  -2   8   4 38.8600 13.4288   7
   2   8  -4 25.7226 12.8231   7
  -1  -8   4 138.470 16.1457   3
   1  -8  -4 180.890 15.9679   3
   1  -8  -4 139.550 17.6587   7
  -1  -8   4 194.386 18.1852   6
  -1   8   4 164.520 17.9129   6
   1   8  -4 161.088 15.5339   7
  -1   8   4 150.917 18.0687   5
   0  -8   4 127.776 14.0959   6
   0  -8   4 136.727 14.5079   3
   0  -8  -4 124.861 11.6840   3
   0  -8  -4 142.231 17.5659   7
   0   8   4 153.461 17.2890   6
   0   8  -4 157.128 17.0277   7
   0   8   4 104.852 14.1197   5
 -11   0   5 226.594 21.4367   1
 -11   0   5 236.968 18.2328   7
  11   0  -5 284.364 22.3642   2
  11   0  -5 233.495 18.0243   6
  11   0  -5 258.466 26.6579   4
 -11   0   5 239.635 20.3611   5
 -10   0   5 -4.9697 7.10358   7
  10   0  -5 -25.077 11.0389   4
 -10   0   5 19.4976 8.86657   1
  10   0  -5 6.77299 7.05529   6
  10   0  -5 -2.3878 7.51617   2
 -10   0   5 -7.6447 9.30320   5
  -9   0   5 671.006 33.1751   1
  -9   0   5 675.018 27.9931   5
   9   0  -5 688.494 30.7070   2
  -9   0   5 634.542 28.0525   7
   9   0  -5 584.321 33.5833   4
   9   0  -5 650.034 28.0503   6
   8   0  -5 -7.5480 11.6274   4
  -8   0   5 -4.7894 8.20796   5
  -8   0   5 -0.6860 7.28037   1
   8   0  -5 -1.7545 7.75573   7
   8   0  -5 -6.2467 9.09319   2
  -8   0   5 -7.9726 8.44268   7
   8   0  -5 -2.0140 8.23744   6
  -7   0   5 547.264 25.7746   1
  -7   0   5 513.670 23.2511   7
   7   0  -5 561.771 23.6967   6
   7   0  -5 543.660 22.9052   7
  -7   0   5 570.701 25.3714   5
  -7   0   5 553.965 24.2783   6
   7   0  -5 550.256 23.2753   2
  -6   0   5 3.44283 7.32206   6
   6   0  -5 -7.6868 5.44207   7
   6   0  -5 0.78676 7.15492   6
  -6   0   5 3.99302 7.87709   5
  -6   0   5 -6.6259 5.12333   7
   6   0  -5 -13.177 7.01539   2
  -6   0   5 2.47423 9.08476   1
   5   0  -5 2170.27 69.8332   7
   5   0  -5 2226.76 69.0328   2
   5   0  -5 2229.49 69.7836   6
  -5   0   5 2261.40 72.1319   1
  -5   0   5 2284.19 70.2115   7
  -5   0   5 2265.02 70.7095   5
  -5   0   5 2255.49 70.2084   6
  -4   0   5 -3.5424 4.68098   5
   4   0  -5 -3.4942 6.71339   7
  -4   0   5 2.62381 5.98444   7
   4   0  -5 -1.4523 5.45909   2
  -4   0   5 2.76254 6.53986   6
   4   0  -5 3.30931 5.96175   6
  -4   0   5 -0.1733 5.27304   1
  -3   0   5 115.706 8.23268   7
  -3   0   5 109.476 8.69096   6
   3   0  -5 119.082 8.92687   2
   3   0  -5 107.101 8.95910   7
  -3   0   5 122.125 9.69890   5
  -3   0   5 107.384 10.2828   1
   3   0  -5 98.3190 8.18619   6
   2   0  -5 3.47184 5.23601   7
   2   0  -5 0.69292 3.62417   2
  -2   0   5 1.21560 3.06685   7
  -2   0   5 1.62083 4.20148   5
   2   0  -5 5.67329 4.15864   6
  -2   0   5 1.29367 4.93758   6
   1   0  -5 3985.48 124.063   6
  -1   0   5 4547.07 126.157   5
  -1   0   5 4479.13 125.208   6
  -1   0   5 4053.99 123.939   7
   1   0  -5 4634.79 123.859   2
   1   0  -5 3980.32 124.602   7
   0   0   5 7.10928 2.90090   6
   0   0  -5 -0.4972 1.44602   2
   0   0   5 1.32766 3.16004   5
   0   0   5 -2.2992 2.46060   6
   0   0  -5 4.06987 3.21910   7
   0   0  -5 -2.7462 2.81172   7
  -1   0  -5 971.245 29.0837   7
   1   0   5 955.605 34.1939   4
   1   0   5 959.526 30.8685   5
   1   0   5 993.074 29.2494   6
  -1   0  -5 977.252 29.0610   7
   1   0   5 967.179 29.2369   6
   2   0   5 -4.8773 4.63056   4
   2   0   5 -0.5191 0.76467   6
   2   0   5 3.43667 2.99873   5
   2   0   5 -0.9939 0.65751   6
   3   0   5 4848.20 140.037   5
   3   0   5 4817.22 144.964   4
   3   0   5 4822.37 140.788   3
   4   0   5 3.73148 3.90915   3
   4   0   5 -0.7254 7.90477   4
   5   0   5 1902.79 63.2485   4
   5   0   5 1855.68 56.9563   3
  -6   0  -5 -0.5401 2.25695   7
   6   0   5 8.53431 6.98472   4
  -7   0  -5 795.801 25.4847   7
   7   0   5 796.044 35.5904   4
   8   0   5 2.49711 8.03745   4
   8   0   5 3.61352 4.00013   6
  -8   0  -5 -2.9581 3.97773   7
  11  -1  -5 -11.412 10.0103   6
 -11  -1   5 -7.6633 13.6615   1
  11  -1  -5 18.4058 13.8612   4
  11  -1  -5 -2.4285 8.68400   2
 -11  -1   5 -0.6191 10.8240   5
 -11  -1   5 10.3341 11.4908   7
  11   1  -5 10.9392 11.0585   6
  11   1  -5 -6.4779 10.6940   4
  11   1  -5 -5.1070 12.0080   2
 -11   1   5 12.3319 11.1107   7
 -11   1   5 0.14123 11.1614   1
 -11   1   5 0.95755 9.22296   5
 -10  -1   5 923.533 38.3780   7
  10  -1  -5 914.620 39.2038   2
  10  -1  -5 901.835 38.0762   6
 -10  -1   5 937.957 43.4642   1
  10  -1  -5 885.674 46.9210   4
  10   1  -5 943.485 39.4037   2
 -10   1   5 939.088 38.3617   7
 -10   1   5 908.520 36.6729   5
 -10   1   5 939.648 40.3866   1
  10   1  -5 865.326 40.4922   4
  10   1  -5 894.582 38.1406   6
   9  -1  -5 98.1025 12.9709   6
   9  -1  -5 94.4571 13.2597   2
   9  -1  -5 111.346 17.4592   4
  -9  -1   5 92.5630 12.9172   7
  -9  -1   5 111.847 16.1208   1
  -9   1   5 91.7041 11.0122   7
  -9   1   5 87.9371 11.4487   1
   9   1  -5 102.485 13.7135   2
  -9   1   5 119.165 13.0054   5
   9   1  -5 160.811 20.7016   4
   9   1  -5 100.830 13.0477   6
   8  -1  -5 538.404 26.3679   2
   8  -1  -5 537.683 24.6522   7
  -8  -1   5 595.421 27.7714   1
   8  -1  -5 543.473 31.8353   4
  -8  -1   5 553.178 25.9611   7
   8  -1  -5 487.898 25.1897   6
   8   1  -5 545.628 26.1275   2
   8   1  -5 510.039 24.0345   7
  -8   1   5 558.889 25.9550   1
  -8   1   5 547.522 25.8248   7
  -8   1   5 569.395 25.5383   5
   8   1  -5 516.198 29.4312   4
   7  -1  -5 396.852 21.6672   2
   7  -1  -5 422.774 21.5109   6
  -7  -1   5 407.596 18.8843   6
  -7  -1   5 473.145 22.2861   7
   7  -1  -5 391.309 27.8037   4
   7  -1  -5 400.660 21.5428   7
  -7  -1   5 396.936 25.5491   1
   7   1  -5 433.349 21.7152   2
  -7   1   5 393.381 21.0988   5
  -7   1   5 413.237 23.8681   1
   7   1  -5 406.478 20.7869   7
  -7   1   5 386.630 21.4339   7
  -7   1   5 442.993 21.2237   6
   6  -1  -5 2142.09 65.7680   6
   6  -1  -5 2055.82 65.3774   2
  -6  -1   5 2004.33 65.7285   7
  -6  -1   5 2027.06 68.5316   1
  -6  -1   5 2074.67 65.6285   6
   6  -1  -5 2048.08 65.0297   7
  -6   1   5 2053.18 65.9020   5
   6   1  -5 2051.41 64.8028   7
  -6   1   5 2037.08 65.7136   6
   6   1  -5 2039.50 64.8456   2
  -6   1   5 2031.48 65.7249   7
  -6   1   5 2060.96 66.8443   1
   5  -1  -5 2.19321 7.71287   7
   5  -1  -5 -1.0977 4.40783   2
   5  -1  -5 2.53178 4.75134   6
  -5  -1   5 3.92725 5.32366   7
  -5  -1   5 2.47755 6.48631   1
  -5  -1   5 0.29438 4.90971   6
   5   1  -5 -8.3100 6.43573   2
   5   1  -5 10.9369 7.75194   7
  -5   1   5 4.67546 7.04008   5
  -5   1   5 3.00209 6.61767   7
  -5   1   5 -3.9005 5.15332   6
  -5   1   5 7.90122 7.97776   1
  -4  -1   5 436.055 19.4746   7
  -4  -1   5 463.493 18.5439   6
   4  -1  -5 475.091 18.7438   2
  -4  -1   5 443.363 20.5724   1
   4  -1  -5 447.198 19.0173   7
   4  -1  -5 445.792 18.2785   6
   4   1  -5 418.447 17.5799   2
  -4   1   5 458.549 20.3070   5
  -4   1   5 438.359 19.2266   7
  -4   1   5 467.254 18.9834   6
   4   1  -5 477.419 20.1727   7
   3  -1  -5 1.40041 3.45501   6
  -3  -1   5 -3.0726 5.41528   7
   3  -1  -5 0.87627 3.10621   2
  -3  -1   5 4.15544 4.23626   6
   3  -1  -5 23.5792 5.41036   7
  -3  -1   5 -2.7659 4.73206   1
   3   1  -5 6.15797 4.46629   7
  -3   1   5 2.10887 4.29011   6
   3   1  -5 -1.2772 4.79237   2
  -3   1   5 -2.8986 5.01697   7
  -3   1   5 4.11239 6.25390   5
  -2  -1   5 3224.99 96.7450   1
  -2  -1   5 3360.82 95.3761   7
   2  -1  -5 3136.65 94.1406   2
   2  -1  -5 3059.41 94.9657   6
  -2  -1   5 3128.25 95.6052   6
   2  -1  -5 3239.76 95.8556   7
   2   1  -5 3100.82 95.4367   7
   2   1  -5 3203.41 95.3784   6
  -2   1   5 3350.04 96.6928   5
  -2   1   5 3336.29 95.1228   7
  -2   1   5 3245.90 96.0363   6
   1  -1  -5 1006.57 31.8900   7
  -1  -1   5 1023.02 30.7499   7
   1  -1  -5 934.896 30.3225   6
  -1  -1   5 936.445 31.3314   6
  -1  -1   5 1012.72 32.2730   1
   1  -1  -5 1013.71 29.5414   2
  -1   1   5 1009.01 32.8500   5
  -1   1   5 974.136 31.8135   6
  -1   1   5 925.768 30.1462   7
   1   1  -5 924.356 31.1779   7
   1   1  -5 966.500 30.7066   6
   0  -1  -5 54.0230 5.25579   7
   0  -1   5 44.2072 4.61596   6
   0  -1   5 46.8578 4.68941   5
   0  -1   5 49.3471 6.72530   4
   0  -1   5 39.8083 6.00039   3
   0   1   5 49.4377 5.51329   5
   0   1   5 40.7057 4.91839   6
   0   1   5 49.5667 4.37744   6
   0   1  -5 61.4119 4.95314   7
   1  -1   5 221.498 13.0056   4
   1  -1   5 213.819 10.3745   3
  -1  -1  -5 221.062 8.18138   7
   1  -1   5 222.136 9.43580   5
  -1  -1  -5 214.308 8.79616   7
   1  -1   5 218.152 8.52190   6
  -1   1  -5 212.372 8.54972   7
   1   1   5 222.142 8.56928   6
   1   1   5 205.063 8.86382   6
   1   1   5 235.515 10.3709   5
  -1   1  -5 210.619 8.41447   7
   2  -1   5 4420.32 125.545   6
  -2  -1  -5 4190.97 125.263   7
  -2  -1  -5 4360.24 125.149   7
   2  -1   5 4414.39 125.966   5
   2  -1   5 4371.18 128.252   3
   2  -1   5 4305.11 130.988   4
   2   1   5 4365.24 127.823   5
  -2   1  -5 4239.75 125.462   7
   2   1   5 4380.13 125.514   6
   2   1   5 4401.01 125.329   6
  -2   1  -5 4413.81 125.380   7
   3  -1   5 2.41137 1.48537   5
  -3  -1  -5 2.03922 1.14353   7
   3  -1   5 4.79361 8.24769   4
   3  -1   5 3.21335 3.21490   3
   3  -1   5 1.72618 1.52878   6
  -3  -1  -5 -0.9637 1.30291   7
   3   1   5 0.25784 1.50669   6
  -3   1  -5 2.95648 1.58521   7
   3   1   5 1.33800 2.74587   5
   3   1   5 1.71183 1.22953   6
   3   1   5 1.02429 6.59616   4
  -3   1  -5 -0.2570 1.62620   7
  -4  -1  -5 19.5058 1.44644   7
   4  -1   5 18.7701 2.18205   6
   4  -1   5 19.0034 2.35742   6
  -4  -1  -5 17.2561 1.25200   7
   4  -1   5 20.6689 5.17936   3
   4  -1   5 7.30937 9.07067   4
  -4   1  -5 20.9688 2.15712   7
  -4   1  -5 17.8370 2.20523   7
   4   1   5 6.12039 7.35431   4
   4   1   5 18.0641 4.49667   5
   4   1   5 19.9408 1.76724   6
   4   1   5 19.2778 1.81692   6
   5  -1   5 604.769 28.2176   4
   5  -1   5 569.862 21.3032   3
   5   1   5 593.880 25.6631   4
  -5   1  -5 537.090 17.6540   7
   5   1   5 549.857 17.4045   6
   6  -1   5 1636.13 57.8930   4
   6  -1   5 1649.49 51.9726   3
   6  -1   5 1621.07 49.1163   6
  -6  -1  -5 1629.86 48.5693   7
  -6   1  -5 1629.34 48.9703   7
   6   1   5 1606.81 48.6778   6
   6   1   5 1700.27 56.7415   4
   7  -1   5 198.906 9.52189   6
   7  -1   5 168.991 16.9505   4
  -7  -1  -5 188.521 9.69836   7
   7   1   5 187.583 9.25740   6
   7   1   5 174.639 17.2854   4
  -7   1  -5 181.927 9.28389   7
   8  -1   5 43.5987 14.1523   4
   8  -1   5 40.8116 5.64630   6
  -8  -1  -5 36.9589 5.68816   7
  -8   1  -5 33.3732 5.60879   7
   8   1   5 47.1354 12.0096   4
  10  -2  -5 85.5400 21.7724   4
 -10  -2   5 75.0953 17.1972   1
  10  -2  -5 81.2157 11.3733   6
  10  -2  -5 64.3884 13.6754   3
 -10  -2   5 82.0128 13.8838   7
  10   2  -5 71.2926 11.4925   2
  10   2  -5 114.512 18.0509   4
 -10   2   5 85.3428 10.3020   5
 -10   2   5 74.2398 11.0488   7
   9  -2  -5 1184.66 46.3277   6
  -9  -2   5 1266.54 46.7188   7
  -9  -2   5 1267.06 51.7518   1
   9  -2  -5 1224.58 52.8261   4
   9   2  -5 1141.46 49.2764   4
   9   2  -5 1273.71 45.4513   2
  -9   2   5 1260.42 45.4879   7
  -9   2   5 1303.00 45.3031   5
   8  -2  -5 30.7652 9.69073   6
   8  -2  -5 4.55054 18.0189   4
  -8  -2   5 34.1414 13.3323   1
  -8  -2   5 34.0769 10.1821   7
  -8   2   5 21.6385 7.41375   7
   8   2  -5 28.2917 6.53700   7
   8   2  -5 34.1893 10.0720   2
   8   2  -5 44.1733 15.1812   4
   7  -2  -5 75.1435 10.9819   2
  -7  -2   5 68.2949 11.2531   7
  -7  -2   5 71.7542 11.4969   1
  -7  -2   5 75.9560 10.4776   6
   7  -2  -5 83.0003 11.2661   6
   7  -2  -5 94.3708 16.7711   4
  -7   2   5 90.3937 11.6451   7
  -7   2   5 78.3959 9.25642   6
   7   2  -5 72.9840 8.90255   7
   7   2  -5 67.6025 9.09763   2
  -7   2   5 84.6017 10.8376   5
  -6  -2   5 30.7757 8.54639   6
  -6  -2   5 31.7332 9.43454   7
   6  -2  -5 21.3310 8.30024   6
  -6  -2   5 33.4766 11.7507   1
   6  -2  -5 30.7908 9.84008   7
   6  -2  -5 19.3140 8.51302   2
  -6   2   5 33.7326 7.24960   6
   6   2  -5 39.4202 9.18425   2
  -6   2   5 30.9361 8.79207   5
   6   2  -5 38.6510 7.18021   7
  -6   2   5 37.0998 8.98658   7
  -5  -2   5 3470.18 110.116   1
   5  -2  -5 3459.17 107.350   7
  -5  -2   5 3507.15 107.609   7
  -5  -2   5 3561.03 107.633   6
   5  -2  -5 3664.60 107.852   6
  -5   2   5 3502.25 107.244   7
  -5   2   5 3558.37 107.602   5
  -5   2   5 3669.37 108.200   6
   5   2  -5 3542.90 107.102   2
   5   2  -5 3539.95 107.100   7
   4  -2  -5 143.011 12.1633   7
  -4  -2   5 124.449 11.1052   1
  -4  -2   5 109.708 10.4222   7
   4  -2  -5 110.364 9.96046   6
  -4  -2   5 102.121 10.0168   6
  -4   2   5 110.960 9.87125   7
   4   2  -5 109.288 10.2397   7
  -4   2   5 94.2561 9.94944   5
  -4   2   5 94.4182 8.88441   6
   4   2  -5 121.977 9.56407   2
  -3  -2   5 1527.99 49.7378   7
   3  -2  -5 1595.39 49.9983   7
  -3  -2   5 1514.31 51.7835   1
   3  -2  -5 1575.00 49.6760   6
  -3  -2   5 1589.53 49.6774   6
   3   2  -5 1566.54 49.4619   7
  -3   2   5 1532.47 50.0906   5
  -3   2   5 1584.67 49.4972   7
  -3   2   5 1566.18 50.0472   6
  -2  -2   5 17.1743 5.81866   7
  -2  -2   5 23.7204 7.19827   1
   2  -2  -5 20.0763 4.86373   6
  -2  -2   5 19.4195 4.53435   6
   2  -2  -5 42.4109 7.28946   7
  -2   2   5 23.2276 5.00266   7
  -2   2   5 18.4002 6.60030   5
   2   2  -5 15.6241 4.63918   7
  -2   2   5 24.0257 5.13779   6
  -1  -2   5 1274.95 42.6311   3
   1  -2  -5 1303.06 40.6129   6
  -1  -2   5 1288.58 41.6244   6
   1  -2  -5 1348.79 42.1391   7
  -1  -2   5 1295.03 41.9172   1
  -1  -2   5 1308.46 41.0625   7
  -1   2   5 1342.06 41.7745   6
  -1   2   5 1323.56 40.5028   7
  -1   2   5 1320.39 42.6105   5
   1   2  -5 1315.35 41.5717   7
   0  -2   5 27.5394 6.22017   4
   0  -2  -5 36.0935 4.73784   7
   0  -2   5 39.1401 5.13130   6
   0  -2   5 35.4133 3.92910   7
   0  -2   5 43.6236 6.89519   3
   0  -2   5 37.2097 5.03894   1
   0   2   5 33.1842 5.49780   6
   0   2  -5 42.9012 5.37127   7
   0   2   5 34.9320 3.19315   7
   0   2   5 35.6982 6.83243   5
  -1  -2  -5 1232.12 38.6545   7
   1  -2   5 1220.66 38.5831   6
   1  -2   5 1270.97 40.7901   3
   1  -2   5 1249.88 38.5175   6
   1  -2   5 1235.11 43.0703   4
   1   2   5 1252.07 38.2675   6
  -1   2  -5 1226.72 38.3376   7
   1   2   5 1217.74 40.0887   5
   1   2   5 1241.86 38.7117   6
   2  -2   5 135.258 7.39408   6
  -2  -2  -5 134.427 6.74835   7
   2  -2   5 127.601 11.7614   4
  -2  -2  -5 131.355 8.08841   7
   2  -2   5 136.840 9.22944   3
   2  -2   5 132.699 6.35965   5
   2  -2   5 135.376 8.32800   6
  -2   2  -5 121.667 7.34817   7
  -2   2  -5 125.466 7.65039   7
   2   2   5 142.654 4.59613   2
   2   2   5 127.578 9.15796   5
   2   2   5 138.417 7.48985   6
   2   2   5 171.891 8.09080   6
   3  -2   5 32.8239 6.73647   3
  -3  -2  -5 36.5854 3.84760   7
   3  -2   5 29.0267 3.80625   6
   3  -2   5 43.8286 4.28529   6
   3  -2   5 26.3201 7.48374   4
   3   2   5 29.7060 3.94830   6
   3   2   5 34.4438 6.71913   5
   3   2   5 36.9267 3.55992   6
   3   2   5 36.0862 2.52670   2
  -3   2  -5 29.9455 3.80522   7
  -3   2  -5 38.1857 4.24176   7
   4  -2   5 20.9483 6.58535   3
   4  -2   5 11.0817 7.32495   4
   4  -2   5 19.0317 3.84652   6
   4   2   5 11.1672 6.69362   4
  -4   2  -5 9.53489 3.10033   7
   4   2   5 20.5814 6.05721   5
   4   2   5 12.6608 5.24221   6
   4   2   5 19.1710 3.44937   6
   5  -2   5 357.101 20.5118   4
   5  -2   5 315.983 12.2862   6
  -5  -2  -5 249.911 12.0072   7
   5  -2   5 359.301 16.5418   3
  -5   2  -5 321.818 12.5904   7
   5   2   5 289.810 12.3108   6
   5   2   5 351.482 17.7320   4
   6  -2   5 15.1913 8.58027   4
  -6  -2  -5 3.19218 4.20846   7
   6  -2   5 14.6066 4.21816   6
   6  -2   5 4.81199 5.96781   3
  -6   2  -5 6.64627 3.46397   7
   6   2   5 1.97050 4.01638   6
   6   2   5 15.5261 7.84130   4
   7  -2   5 25.7106 7.33641   3
   7  -2   5 25.5945 5.36315   6
  -7  -2  -5 14.7627 5.25372   7
   7  -2   5 42.3405 10.9901   4
   7   2   5 23.7397 4.49017   6
  -7   2  -5 14.6376 4.37254   7
   7   2   5 23.2313 8.59811   4
   8  -2   5 39.8153 11.6969   4
   8  -2   5 14.5179 4.82833   6
  -8  -2  -5 16.8518 5.97403   7
  -8   2  -5 17.2886 5.72538   7
   8   2   5 15.2772 5.31170   6
 -10  -3   5 7.04520 11.2946   7
  10  -3  -5 22.7628 12.8673   3
  10  -3  -5 29.9504 20.3500   4
 -10  -3   5 -5.6502 16.5409   1
  10  -3  -5 19.8509 11.6488   6
 -10   3   5 7.69531 11.4686   7
  10   3  -5 17.7010 11.9282   2
 -10   3   5 6.90856 8.62003   5
   9  -3  -5 184.073 24.8278   4
   9  -3  -5 212.916 17.2879   3
  -9  -3   5 174.354 16.7013   7
   9  -3  -5 145.869 16.0900   6
   9   3  -5 177.027 14.9988   2
  -9   3   5 140.660 15.6184   7
  -9   3   5 197.971 14.0197   5
   8  -3  -5 424.349 36.8178   4
   8  -3  -5 358.675 20.1070   6
  -8  -3   5 328.654 19.5603   7
   8  -3  -5 360.730 23.6936   3
   8   3  -5 328.674 19.6757   2
  -8   3   5 389.519 20.3843   7
  -8   3   5 364.547 20.3716   5
   8   3  -5 360.096 25.0852   4
   7  -3  -5 -4.6565 8.59125   6
   7  -3  -5 -4.6027 12.4320   4
  -7  -3   5 1.31820 9.37535   7
  -7  -3   5 8.65985 8.07289   6
  -7   3   5 2.35016 6.67074   7
   7   3  -5 12.0624 9.46706   2
  -7   3   5 11.3972 6.69278   6
   7   3  -5 -1.5096 5.67816   7
  -7   3   5 4.58368 5.68393   5
   6  -3  -5 488.002 30.1465   4
  -6  -3   5 469.415 23.4914   7
  -6  -3   5 465.387 22.3245   6
   6  -3  -5 457.352 21.6347   6
  -6   3   5 461.148 23.3603   6
  -6   3   5 491.236 22.8484   5
   6   3  -5 484.623 21.3389   7
  -6   3   5 440.748 23.1656   7
   6   3  -5 513.835 23.6163   2
   5  -3  -5 246.222 14.3386   6
  -5  -3   5 237.527 14.1941   6
  -5  -3   5 263.663 17.4161   7
   5   3  -5 231.236 16.9980   7
  -5   3   5 238.029 16.4998   5
  -5   3   5 286.044 15.5391   6
  -5   3   5 241.931 14.3843   7
   5   3  -5 246.717 16.6394   2
  -4  -3   5 291.240 15.2620   7
  -4  -3   5 297.678 15.1105   6
   4  -3  -5 300.624 16.3755   6
  -4   3   5 274.851 15.3155   5
   4   3  -5 283.760 17.3317   7
  -4   3   5 320.073 18.1910   6
  -4   3   5 296.185 14.9456   7
  -3  -3   5 20.2840 7.48111   6
  -3  -3   5 9.33604 6.89959   7
   3  -3  -5 7.47139 4.41774   6
  -3   3   5 10.0086 7.82985   6
  -3   3   5 5.44373 6.13068   7
  -3   3   5 8.06021 5.35767   5
   3   3  -5 5.69045 5.12083   7
   2  -3  -5 418.190 17.1648   6
  -2  -3   5 371.404 16.5704   7
  -2  -3   5 393.486 17.1369   6
  -2  -3   5 388.451 18.4637   3
  -2   3   5 392.623 16.9180   7
  -2   3   5 406.885 19.3877   5
  -2   3   5 412.334 19.2956   6
   2   3  -5 456.062 18.7153   7
  -1  -3   5 10.4873 5.38841   4
  -1  -3   5 23.0412 5.65259   7
   1  -3  -5 3.77878 3.04449   6
  -1  -3   5 18.0082 6.39676   1
   1   3  -5 27.9206 6.44954   7
   0  -3   5 103.829 9.60515   3
   0  -3   5 93.7680 6.65665   7
   0  -3  -5 105.440 6.90383   6
   0  -3   5 96.9192 10.8164   4
   0  -3   5 102.400 8.40851   6
   0  -3   5 107.414 9.25403   1
   0   3  -5 96.6500 8.25122   7
   0   3   5 105.484 8.88244   6
   0   3   5 102.174 8.73995   5
   0   3   5 102.436 6.86060   7
   1  -3   5 1142.71 38.9615   3
   1  -3   5 1155.18 35.5305   1
  -1  -3  -5 1165.05 35.8649   3
   1  -3   5 1129.25 35.3577   7
   1  -3   5 1154.23 37.5199   6
   1  -3   5 1125.89 40.5659   4
  -1   3  -5 1158.56 37.3882   7
   1   3   5 1150.61 37.7685   6
   1   3   5 1200.67 40.0109   5
   2  -3   5 790.136 31.3743   4
   2  -3   5 776.237 27.2157   6
  -2  -3  -5 813.955 24.6779   3
   2  -3   5 762.688 28.9142   3
   2   3   5 828.800 27.5680   6
   2   3   5 785.800 29.9162   5
  -2   3  -5 809.348 27.2857   7
   3  -3   5 12.9589 7.14279   3
   3  -3   5 11.0474 4.55827   6
   3  -3   5 3.63327 6.81968   4
   3   3   5 13.2998 5.09465   6
  -3   3  -5 15.7377 4.83885   7
   3   3   5 15.5675 7.36597   5
   3   3   5 8.89377 3.15960   2
   4  -3   5 5.22042 7.54555   4
   4  -3   5 3.32011 4.18380   6
   4  -3   5 6.90035 5.02587   3
   4   3   5 6.21232 4.95260   5
  -4   3  -5 4.71870 4.50535   7
   4   3   5 -1.0497 4.36628   6
   5  -3   5 389.634 16.0522   6
  -5  -3  -5 377.817 15.9602   7
   5  -3   5 388.510 19.6573   3
   5  -3   5 334.330 24.9527   4
  -5   3  -5 398.026 15.9478   7
   5   3   5 370.282 15.7901   6
   6  -3   5 45.1377 13.6240   4
  -6  -3  -5 2.86198 4.80311   7
   6   3   5 4.73134 4.78697   6
   7  -3   5 351.168 28.8841   4
   7  -3   5 299.066 18.9328   3
  -7  -3  -5 317.866 15.5537   7
   7  -3   5 318.380 15.4744   6
   7   3   5 347.864 15.6072   6
  -7   3  -5 333.818 16.3808   7
   9  -4  -5 40.2478 10.8884   3
   9  -4  -5 50.6888 12.7109   6
  -9  -4   5 54.0310 10.3757   7
   9  -4  -5 30.4323 20.1777   4
  -9   4   5 57.7862 13.2292   7
  -9   4   5 60.2127 10.9574   5
   9   4  -5 61.9556 13.6423   2
   8  -4  -5 389.838 24.1501   6
   8  -4  -5 376.608 22.3491   3
  -8  -4   5 364.324 23.9986   7
   8  -4  -5 370.980 31.1327   4
  -8   4   5 397.474 21.9067   5
  -8   4   5 345.046 20.7866   7
   8   4  -5 388.124 24.3514   2
   7  -4  -5 28.5043 8.91104   3
   7  -4  -5 20.1936 10.4028   6
   7  -4  -5 32.1446 18.8423   4
  -7  -4   5 16.0418 7.67970   7
  -7   4   5 3.74178 7.12165   7
  -7   4   5 14.1136 11.6382   6
  -7   4   5 18.7891 9.12560   5
   7   4  -5 9.80023 10.0918   2
   7   4  -5 23.2823 9.39850   7
  -6  -4   5 58.1460 9.11089   7
   6  -4  -5 62.1147 9.27634   6
  -6  -4   5 53.6273 8.30295   6
   6  -4  -5 44.8380 9.17048   3
   6  -4  -5 67.2009 19.1871   4
  -6   4   5 51.2286 10.8169   7
  -6   4   5 57.3268 9.12639   6
   6   4  -5 51.8115 10.3406   7
   6   4  -5 32.6436 10.4303   2
  -6   4   5 31.6358 9.63092   5
  -5  -4   5 31.4716 9.80908   7
  -5  -4   5 26.8923 6.81738   6
   5  -4  -5 37.8494 10.4901   3
   5  -4  -5 15.5432 17.4517   4
   5  -4  -5 9.77798 6.42044   6
  -5   4   5 17.0074 6.64480   5
  -5   4   5 25.8521 7.36036   6
  -5   4   5 18.9719 8.85006   7
   5   4  -5 26.7446 9.34956   7
   4  -4  -5 362.047 19.0732   6
  -4  -4   5 349.008 17.7687   6
  -4  -4   5 332.446 17.5383   7
   4  -4  -5 361.773 18.4366   3
   4  -4  -5 359.958 29.5114   4
  -4   4   5 342.950 17.2989   7
  -4   4   5 367.677 20.6323   6
  -4   4   5 343.230 19.5523   5
   4   4  -5 336.614 19.7524   7
   3  -4  -5 144.369 12.7642   3
   3  -4  -5 154.101 11.1095   6
  -3  -4   5 162.535 11.8992   6
  -3  -4   5 160.432 12.7344   7
  -3  -4   5 151.180 12.3302   3
   3   4  -5 173.428 12.9935   7
  -3   4   5 151.849 13.4128   7
  -3   4   5 148.017 12.8243   5
  -3   4   5 166.464 13.4440   6
  -2  -4   5 282.600 16.5899   3
  -2  -4   5 303.260 16.2632   7
   2   4  -5 226.677 16.1658   7
  -2   4   5 306.012 17.7622   6
  -2   4   5 276.102 17.2985   5
  -2   4   5 226.606 12.7962   7
   1  -4  -5 374.404 16.3546   3
  -1  -4   5 424.877 19.7004   3
  -1  -4   5 380.882 17.2829   6
  -1  -4   5 367.169 17.7066   7
   1  -4  -5 372.127 16.7098   6
  -1  -4   5 387.152 19.7956   4
   1   4  -5 379.108 17.3431   7
  -1   4   5 372.750 18.4357   5
  -1   4   5 380.726 19.6555   6
  -1   4   5 394.022 16.7499   7
   0  -4   5 1248.76 41.0223   6
   0  -4  -5 1222.45 39.4709   6
   0  -4   5 1240.13 43.7310   4
   0  -4   5 1199.70 42.0120   3
   0  -4   5 1162.60 39.8499   7
   0  -4  -5 1221.87 39.7271   3
   0   4   5 1238.85 41.9588   6
   0   4   5 1223.18 39.2909   7
   0   4  -5 1262.72 40.8270   7
   0   4   5 1251.59 43.4307   5
   1  -4   5 133.998 11.4012   3
   1  -4   5 136.024 9.47663   1
   1  -4   5 132.268 13.5211   4
   1  -4   5 147.391 9.97243   6
   1  -4   5 127.430 10.5700   7
  -1  -4  -5 137.608 8.74204   3
   1   4   5 148.998 12.8570   6
  -1   4  -5 148.983 11.8715   7
   1   4   5 161.024 13.0239   5
   2  -4   5 266.760 14.7857   6
   2  -4   5 275.356 20.0059   4
   2  -4   5 264.611 17.0324   3
  -2  -4  -5 266.092 10.4739   3
   2   4   5 298.259 15.5597   6
  -2   4  -5 262.346 13.4124   7
   2   4   5 281.583 15.9028   5
   3  -4   5 224.569 12.1360   6
   3  -4   5 223.853 17.1462   4
   3  -4   5 211.521 14.2115   3
   3   4   5 238.356 14.1274   6
  -3   4  -5 219.708 13.5237   7
   3   4   5 217.657 16.8616   5
  -4  -4  -5 870.892 30.7720   7
   4  -4   5 821.454 33.4379   3
   4  -4   5 825.069 30.3223   6
   4  -4   5 846.592 36.1297   4
   4   4   5 860.660 30.5160   6
  -4   4  -5 824.746 30.2537   7
   4   4   5 837.876 33.3988   5
   5  -4   5 428.981 18.3921   6
  -5  -4  -5 392.597 18.5266   7
   5  -4   5 388.090 27.7937   4
   5  -4   5 315.318 18.9934   3
  -5   4  -5 376.594 17.9901   7
   5   4   5 415.704 18.3228   6
   6  -4   5 27.4963 6.96273   6
   6  -4   5 13.3966 9.38102   3
   6  -4   5 26.2395 14.0803   4
  -6  -4  -5 10.9931 7.04996   7
   6   4   5 14.4375 6.82389   6
  -6   4  -5 20.0087 6.78860   7
   7  -4   5 87.2913 11.0960   3
   7  -4   5 85.6694 18.8622   4
  -7  -4  -5 108.001 10.6504   7
   7  -4   5 91.1857 9.64445   6
  -7   4  -5 100.467 11.0669   7
   7   4   5 86.5605 9.59179   6
  -8  -5   5 31.2923 12.2447   7
   8  -5  -5 14.9478 18.3551   4
   8  -5  -5 25.0802 11.9707   6
   8  -5  -5 38.3814 10.7309   3
  -8   5   5 21.0843 11.5349   7
  -8   5   5 38.1109 9.82903   5
   8   5  -5 25.0684 12.1511   2
   7  -5  -5 1989.45 73.8409   4
   7  -5  -5 2082.06 69.4235   6
  -7  -5   5 2109.61 68.9649   7
   7  -5  -5 2031.50 69.3420   3
   7   5  -5 1815.08 70.6209   7
   7   5  -5 1989.32 68.1049   2
  -7   5   5 2036.29 68.8966   7
  -7   5   5 1966.83 67.0788   5
  -6  -5   5 17.4806 7.90801   7
   6  -5  -5 9.43127 11.0676   3
   6  -5  -5 24.2515 16.7641   4
   6  -5  -5 11.7309 9.90221   6
  -6  -5   5 4.91939 6.41460   6
   6   5  -5 38.8968 10.2561   7
  -6   5   5 2.29799 7.07625   6
  -6   5   5 20.1720 7.48347   7
  -6   5   5 14.3311 9.31916   5
   5  -5  -5 591.943 27.9890   3
  -5  -5   5 566.433 24.8156   6
   5  -5  -5 573.727 26.7594   6
   5  -5  -5 576.074 35.0779   4
  -5  -5   5 533.641 25.1061   7
   5   5  -5 576.588 26.9779   7
  -5   5   5 599.152 27.9767   6
  -5   5   5 537.923 24.7011   5
  -5   5   5 556.720 25.0389   7
   4  -5  -5 63.4154 11.5457   3
  -4  -5   5 56.9373 10.5184   6
  -4  -5   5 76.7553 10.5681   3
   4  -5  -5 68.5055 16.5599   4
   4  -5  -5 56.5724 8.30407   6
  -4  -5   5 48.2246 8.62443   7
   4   5  -5 69.2070 10.6258   6
  -4   5   5 57.5857 10.5166   7
  -4   5   5 35.9123 8.92559   6
   4   5  -5 45.6241 8.61204   7
  -4   5   5 59.9349 10.8177   5
   3  -5  -5 1320.30 45.9132   3
  -3  -5   5 1347.34 46.0823   3
  -3  -5   5 1283.51 46.8001   6
  -3  -5   5 1346.34 46.7224   7
   3  -5  -5 1335.83 46.3181   6
   3  -5  -5 1348.39 51.1701   4
  -3   5   5 1300.38 46.4866   6
  -3   5   5 1366.21 46.1846   7
   3   5  -5 1317.66 45.8347   7
  -3   5   5 1345.54 47.5570   5
   3   5  -5 1327.25 45.8636   6
   2  -5  -5 17.1098 5.50287   6
  -2  -5   5 28.9804 7.09024   6
   2  -5  -5 6.72556 9.26941   4
   2  -5  -5 19.8943 6.23107   3
  -2  -5   5 25.4541 6.88114   3
  -2  -5   5 25.9748 8.59354   7
  -2   5   5 24.4372 9.76175   5
  -2   5   5 38.7163 9.92912   6
  -2   5   5 36.6934 7.87052   7
   2   5  -5 23.0842 9.19445   7
   2   5  -5 32.4838 8.22939   6
  -1  -5   5 1642.94 56.2908   3
   1  -5  -5 1691.02 57.0417   4
   1  -5  -5 1596.28 54.0464   6
   1  -5  -5 1739.96 54.6305   3
  -1  -5   5 1662.27 55.7790   6
  -1  -5   5 1677.53 54.7361   7
  -1  -5   5 1605.65 55.6984   4
   1   5  -5 1680.61 55.6955   7
  -1   5   5 1702.51 54.0283   7
  -1   5   5 1719.10 56.4313   6
   1   5  -5 1621.88 54.6216   6
  -1   5   5 1715.59 57.3108   5
   0  -5   5 94.4008 10.7156   6
   0  -5   5 99.9117 9.81425   7
   0  -5   5 92.0786 11.6146   3
   0  -5   5 115.325 12.5803   4
   0  -5  -5 95.2721 8.30148   3
   0   5  -5 116.657 11.3906   7
   0   5   5 97.5522 10.5235   5
   0   5   5 111.965 11.8936   6
   0   5   5 113.434 9.08287   7
   1  -5   5 565.675 23.9946   6
   1  -5   5 632.307 28.4551   4
   1  -5   5 555.357 26.5128   3
  -1  -5  -5 553.400 22.2586   3
  -1   5  -5 538.079 23.5709   7
   1   5   5 703.418 26.7768   6
   1   5   5 666.616 28.4066   5
   2  -5   5 231.749 13.8285   6
   2  -5   5 233.205 15.7039   3
   2  -5   5 235.784 20.0147   4
   2   5   5 274.645 17.0444   6
   2   5   5 250.952 16.5794   5
  -2   5  -5 238.461 15.9655   7
   3  -5   5 732.398 33.6996   4
  -3  -5  -5 640.656 26.5100   7
   3  -5   5 642.808 28.4532   3
   3  -5   5 706.302 27.8090   6
  -3   5  -5 680.995 26.5104   7
   3   5   5 672.601 27.8277   6
   3   5   5 667.154 28.9039   5
   4  -5   5 87.5478 12.6921   3
  -4  -5  -5 63.3572 10.3491   7
   4  -5   5 79.7663 8.66529   6
   4  -5   5 86.3263 15.8398   4
   4   5   5 91.3236 13.1111   5
   4   5   5 83.4621 10.5259   6
  -4   5  -5 81.5593 10.2149   7
  -5  -5  -5 161.153 13.5090   7
   5  -5   5 156.920 17.5948   4
   5  -5   5 154.605 13.9211   3
   5  -5   5 154.419 11.8227   6
   5   5   5 140.668 11.9130   6
  -5   5  -5 172.803 14.2951   7
   6  -5   5 127.768 12.1435   6
   6  -5   5 140.903 20.6315   4
  -6  -5  -5 142.187 13.1865   7
   6  -5   5 104.571 12.6304   3
  -6   5  -5 122.455 12.0475   7
   6   5   5 125.101 12.1923   6
   7  -6  -5 31.6936 14.0052   3
  -7  -6   5 35.8043 12.9028   7
   7  -6  -5 32.8732 18.1741   4
   7  -6  -5 30.6212 11.8778   6
   7   6  -5 10.5724 12.4835   2
  -7   6   5 23.1060 10.6519   5
  -7   6   5 46.7071 12.7681   7
   6  -6  -5 419.904 32.5355   4
   6  -6  -5 373.768 23.3807   3
   6  -6  -5 451.750 23.4809   6
  -6  -6   5 374.984 22.6404   7
  -6   6   5 510.768 25.7608   5
  -6   6   5 405.711 25.3928   7
   6   6  -5 417.804 22.2788   7
   5  -6  -5 296.642 21.1885   6
   5  -6  -5 290.562 22.8934   4
   5  -6  -5 282.026 19.3737   3
  -5  -6   5 299.661 19.2976   7
  -5  -6   5 288.753 18.1916   6
  -5   6   5 288.354 18.7157   7
   5   6  -5 325.922 21.7299   6
   5   6  -5 307.451 21.7885   7
  -5   6   5 293.622 22.5075   6
  -5   6   5 298.992 21.5064   5
  -4  -6   5 2025.48 68.3589   6
  -4  -6   5 2021.07 67.5461   3
   4  -6  -5 2055.78 68.8730   3
  -4  -6   5 2035.72 67.4490   7
   4  -6  -5 2100.14 70.5030   4
   4  -6  -5 2005.13 67.3968   6
  -4   6   5 1981.65 68.0655   6
   4   6  -5 2021.20 68.3909   6
  -4   6   5 1990.63 68.6196   5
  -4   6   5 2059.32 67.9836   7
   4   6  -5 1982.30 67.0225   7
   3  -6  -5 229.523 15.4102   6
  -3  -6   5 239.671 19.3740   6
  -3  -6   5 256.762 19.5348   7
  -3  -6   5 243.999 18.1975   3
   3  -6  -5 244.761 16.0852   3
   3  -6  -5 253.054 22.4018   4
  -3   6   5 281.760 18.0352   6
  -3   6   5 233.539 18.4362   5
   3   6  -5 224.484 19.3813   7
  -3   6   5 268.903 18.4986   7
   3   6  -5 234.999 15.9638   6
   2  -6  -5 19.5774 8.72228   3
   2  -6  -5 24.8813 8.34928   6
   2  -6  -5 0.73849 10.3953   4
  -2  -6   5 13.9778 7.15736   6
  -2  -6   5 36.0326 10.3210   3
  -2  -6   5 34.0746 9.71261   7
   2   6  -5 26.1544 8.94617   6
  -2   6   5 22.0003 6.57525   7
  -2   6   5 18.8196 10.7087   6
   2   6  -5 33.9854 10.4165   7
  -2   6   5 16.0041 7.73965   5
  -1  -6   5 37.4868 10.5329   3
  -1  -6   5 40.4973 8.03961   6
   1  -6  -5 34.9318 6.78102   3
   1  -6  -5 33.7063 10.0706   4
  -1  -6   5 45.6473 9.63371   7
  -1  -6   5 35.5818 9.35427   4
  -1   6   5 49.5444 11.5672   6
  -1   6   5 25.3626 10.8795   5
  -1   6   5 31.7882 6.44581   7
   1   6  -5 37.3521 8.44650   7
   0  -6   5 2037.52 69.5134   4
   0  -6   5 2094.46 68.5252   6
   0  -6   5 2064.27 69.9408   3
   0  -6  -5 2125.22 66.5864   3
   0   6   5 2106.20 69.5775   6
   0   6   5 2053.79 70.4622   5
   0   6  -5 2128.91 68.3190   7
  -1  -6  -5 156.721 13.4445   7
   1  -6   5 169.388 15.6124   3
   1  -6   5 153.196 13.1199   6
   1  -6   5 179.277 16.3794   4
  -1  -6  -5 173.642 11.4553   3
   1   6   5 144.959 12.9349   6
  -1   6  -5 166.920 14.2840   7
   1   6   5 171.501 16.4142   5
   2  -6   5 147.508 15.3736   3
  -2  -6  -5 107.304 13.4182   7
   2  -6   5 131.990 16.0284   4
   2  -6   5 123.191 12.9912   6
   2   6   5 109.470 12.6679   5
   2   6   5 136.895 12.2033   6
  -2   6  -5 117.464 12.4593   7
   3  -6   5 12.7906 10.5992   3
  -3  -6  -5 12.5731 7.50228   7
   3  -6   5 -5.1174 7.94652   4
   3  -6   5 18.2928 8.79234   6
   3   6   5 9.20827 9.37999   6
  -3   6  -5 -0.3255 8.74080   7
   3   6   5 11.2306 11.1348   5
   4  -6   5 351.413 23.8593   4
   4  -6   5 341.844 20.7038   6
  -4  -6  -5 346.844 21.6737   7
   4  -6   5 327.978 20.8014   3
  -4   6  -5 356.898 20.7886   7
   4   6   5 323.326 20.8708   6
   4   6   5 349.661 21.7112   5
   5  -6   5 10.1909 14.9702   4
  -5  -6  -5 15.2840 10.3886   7
   5  -6   5 17.8443 11.7081   3
   5  -6   5 14.2481 8.82257   6
  -5   6  -5 23.6134 9.97591   7
   5   6   5 21.0455 9.96908   6
   5  -7  -5 -3.7911 10.7999   6
   5  -7  -5 23.3335 14.9837   4
  -5  -7   5 -0.0987 11.8074   7
   5  -7  -5 -10.884 11.0436   3
   5  -7  -5 4.00189 12.4588   7
  -5   7   5 13.1653 8.05795   7
  -5   7   5 -8.9416 10.3773   5
   5   7  -5 3.14170 7.99828   6
  -5   7   5 -11.967 11.9778   6
   5   7  -5 -11.493 7.02257   7
   4  -7  -5 27.9943 10.9088   6
   4  -7  -5 8.38212 7.88023   3
  -4  -7   5 1.97519 6.76354   3
  -4  -7   5 9.89704 10.6691   6
   4  -7  -5 -8.3797 8.23053   7
  -4  -7   5 -0.3530 11.5597   7
   4  -7  -5 8.06426 9.27209   4
  -4   7   5 4.43137 12.1173   6
   4   7  -5 11.2444 10.6997   6
  -4   7   5 9.08462 8.11840   5
  -4   7   5 11.1760 7.71387   7
   4   7  -5 4.19618 10.9796   7
   3  -7  -5 381.701 23.2301   3
  -3  -7   5 365.434 20.8501   3
  -3  -7   5 383.006 24.1083   7
   3  -7  -5 342.351 21.9930   7
   3  -7  -5 347.868 24.2004   4
  -3  -7   5 366.382 24.2135   6
   3   7  -5 416.168 24.6792   7
  -3   7   5 371.931 22.1445   5
  -3   7   5 332.810 25.4056   6
  -3   7   5 371.077 22.6552   7
   3   7  -5 405.898 24.1133   6
  -2  -7   5 402.793 24.5927   6
   2  -7  -5 428.276 21.2462   3
  -2  -7   5 403.267 21.5930   7
  -2  -7   5 368.144 23.7112   3
   2  -7  -5 387.514 25.7222   7
   2   7  -5 440.775 25.3349   7
  -2   7   5 388.174 22.8415   5
  -2   7   5 382.585 22.7260   6
  -2   7   5 386.599 22.9680   7
  -1  -7   5 180.290 16.4850   3
  -1  -7   5 160.838 16.0153   6
   1  -7  -5 89.4912 10.4263   3
   1  -7  -5 122.664 13.6682   7
  -1  -7   5 133.137 13.5750   4
   1   7  -5 152.873 15.6802   7
  -1   7   5 150.517 16.6421   5
  -1   7   5 156.776 16.4269   6
   0  -7   5 91.1076 11.4435   6
   0  -7   5 98.1255 14.3586   3
   0  -7  -5 124.101 11.7018   3
   0  -7   5 91.8455 12.9157   4
   0  -7  -5 96.9333 12.3481   7
   0   7   5 92.3384 15.1436   5
   0   7   5 89.5557 14.5544   6
   0   7  -5 87.8768 11.4124   7
   1  -7   5 808.550 37.4675   3
  -1  -7  -5 861.203 37.5757   7
   1  -7   5 870.505 36.8170   6
   1  -7   5 887.117 37.9701   4
   1   7   5 874.620 37.1345   5
   1   7   5 854.437 35.5455   6
  -1   7  -5 930.624 37.2273   7
  -2  -7  -5 7.43133 11.5475   7
   2  -7   5 18.7232 8.59816   3
   2  -7   5 23.3053 10.8068   6
   2  -7   5 26.8113 12.1382   4
   2   7   5 16.9471 9.61244   5
  -2   7  -5 25.2902 10.6842   7
   2   7   5 6.23199 11.0972   6
   3  -7   5 241.889 24.0229   4
   3  -7   5 208.485 18.4440   3
   3  -7   5 260.714 20.2385   6
  -3  -7  -5 289.843 22.0331   7
   3   7   5 221.384 19.0212   5
   3   7   5 247.599 20.9688   6
  -3   7  -5 277.996 20.6254   7
  11   0  -6 -3.2771 8.82746   2
 -11   0   6 -10.042 7.94043   7
  11   0  -6 -7.1084 10.8736   6
 -11   0   6 8.28939 11.4177   5
  11   0  -6 -28.688 17.9053   4
 -11   0   6 6.32299 13.1498   1
 -10   0   6 557.164 33.2371   1
 -10   0   6 541.708 26.1710   5
  10   0  -6 571.105 38.3201   4
 -10   0   6 551.684 26.8242   7
  10   0  -6 511.546 26.2529   6
  10   0  -6 548.766 29.7441   2
   9   0  -6 3.26512 6.66987   6
   9   0  -6 -4.3437 18.0700   4
  -9   0   6 -6.4147 6.68934   5
   9   0  -6 -4.4367 7.25134   2
  -9   0   6 -8.2913 9.43759   7
  -9   0   6 6.06199 8.13606   1
  -8   0   6 412.720 22.7674   5
  -8   0   6 349.918 22.1391   7
   8   0  -6 384.574 21.5117   7
   8   0  -6 375.662 22.3161   2
   8   0  -6 388.730 22.1128   6
  -8   0   6 390.698 21.1425   6
  -8   0   6 373.555 22.5098   1
   7   0  -6 9.98824 8.50135   6
  -7   0   6 0.13890 6.20834   5
  -7   0   6 -2.3260 7.01502   1
  -7   0   6 1.46108 8.57858   7
   7   0  -6 -3.1124 5.97609   2
   7   0  -6 7.69750 8.88918   7
  -7   0   6 -2.0702 8.25112   6
  -6   0   6 2504.24 81.2591   1
   6   0  -6 2470.90 77.9975   2
  -6   0   6 2480.72 78.3591   6
   6   0  -6 2479.44 78.6449   7
   6   0  -6 2475.93 78.8799   6
  -6   0   6 2546.82 79.1772   5
  -6   0   6 2540.79 78.5101   7
  -5   0   6 6.35399 5.56858   6
   5   0  -6 0.08245 4.70177   2
  -5   0   6 -2.5614 6.84454   7
  -5   0   6 -6.5053 5.19986   5
  -5   0   6 -1.6761 5.72948   1
   5   0  -6 -12.166 7.79161   7
   5   0  -6 -1.4358 6.71960   6
   4   0  -6 147.623 11.1847   2
   4   0  -6 146.497 10.0014   6
  -4   0   6 152.084 12.3732   7
  -4   0   6 133.059 11.2442   5
   4   0  -6 158.110 12.0516   7
  -4   0   6 131.967 12.5541   1
  -4   0   6 145.489 11.7160   6
  -3   0   6 -0.0660 6.69679   5
  -3   0   6 0.32115 6.19883   6
   3   0  -6 0.38904 3.30809   2
  -3   0   6 3.07768 3.64311   7
   3   0  -6 -6.6147 6.37130   7
   3   0  -6 -7.0809 4.60585   6
   2   0  -6 9454.07 267.033   7
  -2   0   6 9093.64 266.097   7
  -2   0   6 9094.36 267.126   6
   2   0  -6 8959.40 266.217   6
   2   0  -6 9460.58 265.572   2
  -2   0   6 9246.31 267.900   5
   1   0  -6 5.36634 4.63379   7
  -1   0   6 -1.5668 2.30459   7
   1   0  -6 -2.7030 2.44648   2
  -1   0   6 -4.7596 5.02565   5
  -1   0   6 0.63010 3.07638   6
   0   0   6 282.915 11.3326   6
   0   0   6 264.861 13.2560   5
   0   0  -6 291.062 11.6744   7
   0   0   6 284.680 11.6442   6
   0   0  -6 277.977 9.54235   2
   1   0   6 4.11852 2.97268   6
   1   0   6 2.91130 2.54512   6
  -1   0  -6 -1.2666 2.45560   7
  -1   0  -6 -0.3573 2.35223   7
  -1   0  -6 1.17253 0.95892   2
   1   0   6 4.52171 4.05773   5
  -2   0  -6 4710.31 133.961   7
   2   0   6 4638.23 134.129   6
   2   0   6 4743.14 136.149   5
   2   0   6 4546.93 140.424   4
  -2   0  -6 4633.60 133.926   7
   2   0   6 4681.38 134.130   6
   3   0   6 -0.9031 3.57921   5
   3   0   6 7.43936 6.13305   4
   4   0   6 2266.37 77.9906   4
   4   0   6 2548.79 74.9703   5
   5   0   6 1.86396 9.58346   4
   6   0   6 1269.13 48.5279   4
   7   0   6 9.42048 10.7624   4
 -11  -1   6 204.739 19.4024   7
  11  -1  -6 210.418 19.0991   6
  11  -1  -6 222.943 28.3917   4
  11   1  -6 210.133 25.5618   4
  11   1  -6 182.196 16.5756   6
 -11   1   6 202.832 17.8879   7
 -10  -1   6 182.750 18.0024   1
  10  -1  -6 180.792 15.8428   2
 -10  -1   6 183.735 15.7450   7
  10  -1  -6 182.276 22.1985   4
  10  -1  -6 161.923 14.9084   6
  10   1  -6 197.236 21.1074   4
  10   1  -6 185.679 16.3057   2
 -10   1   6 181.759 18.7946   1
  10   1  -6 177.348 15.9112   6
 -10   1   6 167.223 17.2378   7
 -10   1   6 187.752 16.6647   5
  -9  -1   6 847.822 39.8044   1
   9  -1  -6 804.035 33.1757   2
   9  -1  -6 772.006 34.2916   6
   9  -1  -6 809.428 45.0470   4
  -9  -1   6 829.312 33.3965   7
  -9   1   6 843.848 33.0532   5
  -9   1   6 779.104 34.6849   7
   9   1  -6 801.793 32.9670   2
   9   1  -6 742.718 42.6366   4
   9   1  -6 802.370 33.3292   6
  -9   1   6 845.305 37.7414   1
   8  -1  -6 101.422 10.9531   2
  -8  -1   6 108.172 13.4441   7
   8  -1  -6 102.027 22.8754   4
  -8  -1   6 117.516 10.7891   6
   8  -1  -6 114.455 11.0895   7
   8  -1  -6 114.324 13.2846   6
  -8  -1   6 108.857 13.6143   1
   8   1  -6 125.354 12.8126   7
   8   1  -6 113.039 11.5387   6
  -8   1   6 124.586 13.5178   5
  -8   1   6 117.760 12.5979   6
  -8   1   6 99.1560 12.4996   7
   8   1  -6 108.518 11.3415   2
  -8   1   6 96.5735 14.1491   1
  -7  -1   6 617.630 27.4616   6
  -7  -1   6 634.083 29.5397   1
   7  -1  -6 661.953 28.3752   6
   7  -1  -6 646.635 26.1812   2
   7  -1  -6 644.186 28.3964   7
  -7  -1   6 594.992 28.0496   7
  -7   1   6 628.556 28.6066   1
   7   1  -6 642.547 28.1749   6
  -7   1   6 627.680 27.9669   6
  -7   1   6 639.553 26.6518   7
   7   1  -6 646.443 26.2888   2
   7   1  -6 639.632 27.6256   7
  -7   1   6 666.701 28.4773   5
  -6  -1   6 1369.68 49.6944   1
  -6  -1   6 1488.28 48.4162   6
   6  -1  -6 1381.01 47.3294   7
  -6  -1   6 1350.51 48.0280   7
   6  -1  -6 1376.90 46.4862   2
   6  -1  -6 1416.95 48.1225   6
   6   1  -6 1362.08 47.0232   7
  -6   1   6 1460.88 48.8410   5
  -6   1   6 1426.69 48.0975   7
   6   1  -6 1370.63 46.6153   2
  -6   1   6 1450.57 48.5686   6
   5  -1  -6 618.058 27.1883   7
   5  -1  -6 650.216 25.8234   6
  -5  -1   6 612.892 26.0656   7
  -5  -1   6 622.985 27.3183   1
  -5  -1   6 643.481 26.3112   6
   5  -1  -6 687.180 25.2970   2
   5   1  -6 647.116 26.7565   7
  -5   1   6 624.486 26.7765   6
   5   1  -6 637.124 25.4470   2
   5   1  -6 671.367 26.3628   6
  -5   1   6 667.319 24.9407   7
  -5   1   6 548.239 26.2811   5
   4  -1  -6 259.615 17.2297   7
   4  -1  -6 257.287 13.3220   6
  -4  -1   6 272.466 14.1755   6
  -4  -1   6 273.454 19.0637   1
   4  -1  -6 282.920 14.2046   2
  -4  -1   6 275.319 15.7218   7
  -4   1   6 256.835 15.2126   7
   4   1  -6 255.559 14.3380   7
  -4   1   6 267.513 16.6497   6
  -4   1   6 283.821 16.5021   5
   4   1  -6 263.493 13.1179   2
   4   1  -6 289.843 13.8790   6
  -3  -1   6 3259.57 97.6890   6
   3  -1  -6 3217.02 97.8468   7
  -3  -1   6 3258.25 97.3981   7
  -3  -1   6 3145.56 99.2990   1
   3  -1  -6 3251.89 95.9469   2
   3  -1  -6 3316.31 97.2011   6
   3   1  -6 3209.03 97.5804   7
   3   1  -6 3302.11 97.5452   6
  -3   1   6 3216.71 98.5860   5
   3   1  -6 3180.92 96.4412   2
  -3   1   6 3262.33 98.1544   6
  -3   1   6 3279.16 97.0732   7
   2  -1  -6 1340.62 40.0099   7
   2  -1  -6 1230.07 37.1813   2
  -2  -1   6 1209.07 39.2810   6
  -2  -1   6 1189.85 40.8175   1
  -2  -1   6 1225.22 38.5206   7
   2  -1  -6 1176.34 38.1387   6
  -2   1   6 1232.23 40.5104   5
  -2   1   6 1169.58 37.6977   7
   2   1  -6 1159.69 37.4937   2
   2   1  -6 1138.80 38.5298   7
   2   1  -6 1233.79 38.6385   6
  -2   1   6 1160.64 39.5646   6
  -1  -1   6 1288.88 42.3239   5
   1  -1  -6 1298.25 42.0358   7
   1  -1  -6 1319.88 40.2385   6
   1  -1  -6 1336.96 39.4309   2
  -1  -1   6 1346.56 41.8979   6
  -1  -1   6 1328.28 40.5395   7
  -1   1   6 1318.84 42.7981   5
   1   1  -6 1339.78 41.7108   7
  -1   1   6 1340.38 40.1997   7
  -1   1   6 1336.74 41.9184   6
   1   1  -6 1287.85 40.4754   6
   0  -1   6 932.108 29.9108   6
   0  -1   6 916.580 30.7962   5
   0  -1  -6 910.278 30.1173   7
   0   1  -6 924.800 29.7511   7
   0   1   6 927.295 30.2750   6
   0   1   6 938.254 29.6543   6
   0   1   6 957.693 31.9871   5
   1  -1   6 2815.11 81.7024   6
   1  -1   6 2750.90 82.3073   5
   1  -1   6 2814.87 83.9004   3
  -1  -1  -6 2699.85 81.5645   7
  -1  -1  -6 2797.57 81.3342   7
   1  -1   6 2743.68 86.9830   4
  -1   1  -6 2793.77 81.5459   7
  -1   1  -6 2685.75 81.6180   7
   1   1   6 2785.60 83.6828   5
   1   1   6 2785.49 81.8548   6
   1   1   6 2852.88 81.5541   6
  -2  -1  -6 7.76235 2.98656   7
   2  -1   6 12.2471 3.03139   5
   2  -1   6 8.83953 2.70284   6
   2  -1   6 1.19880 4.89993   3
  -2  -1  -6 7.44859 2.54171   7
   2  -1   6 -0.3717 8.59720   4
   2   1   6 9.96059 3.12579   6
  -2   1  -6 6.60507 2.75161   7
   2   1   6 17.5955 4.97274   5
   2   1   6 6.75202 2.27813   6
  -2   1  -6 9.78278 2.67613   7
   3  -1   6 50.7980 3.89869   5
   3  -1   6 47.3871 5.60327   3
  -3  -1  -6 49.3117 3.09370   7
   3  -1   6 52.2263 11.0132   4
   3  -1   6 49.2952 3.67320   6
  -3  -1  -6 49.0629 3.45949   7
   3   1   6 49.7345 4.19067   6
  -3   1  -6 46.7419 3.84506   7
   3   1   6 39.2675 7.40945   4
   3   1   6 50.5693 6.19207   5
  -3   1  -6 53.4105 3.83969   7
   3   1   6 52.1620 3.41309   6
   4  -1   6 416.514 13.6253   6
  -4  -1  -6 414.148 12.9487   7
   4  -1   6 423.264 13.5459   6
   4  -1   6 415.111 21.8939   4
   4  -1   6 434.446 17.7918   3
  -4  -1  -6 417.934 12.8401   7
   4   1   6 419.069 13.0677   6
   4   1   6 432.365 13.2769   6
   4   1   6 392.768 19.9905   4
   4   1   6 413.990 16.4847   5
  -4   1  -6 430.651 13.3566   7
   5  -1   6 1763.29 55.7202   3
   5  -1   6 1778.67 62.3929   4
   5  -1   6 1762.72 51.8363   6
   5   1   6 1774.39 51.4552   6
  -5   1  -6 1759.90 51.6965   7
   5   1   6 1740.81 60.0710   4
   6  -1   6 53.4304 4.28770   6
  -6  -1  -6 58.1541 4.01694   7
   6  -1   6 48.3121 13.2877   4
   6   1   6 50.1672 3.91869   6
   6   1   6 58.5450 11.7178   4
  -6   1  -6 54.5243 4.31010   7
   7  -1   6 -0.7224 3.11233   6
   7  -1   6 3.80954 12.0550   4
   7   1   6 10.0845 10.0470   4
   7   1   6 3.83075 2.98491   6
 -10  -2   6 1283.00 54.8645   1
  10  -2  -6 1218.70 59.0412   4
 -10  -2   6 1316.54 49.3428   7
  10  -2  -6 1219.08 48.6501   6
 -10   2   6 1231.90 47.0661   5
  10   2  -6 1298.46 53.0203   4
  10   2  -6 1240.52 49.0592   2
 -10   2   6 1280.27 49.0002   7
   9  -2  -6 263.939 20.7130   6
  -9  -2   6 311.295 24.9145   1
  -9  -2   6 260.869 21.1292   7
   9  -2  -6 251.726 28.7090   4
   9   2  -6 281.566 22.2092   2
  -9   2   6 258.252 21.1619   7
   9   2  -6 294.329 28.8951   4
  -9   2   6 252.057 16.9652   5
   8  -2  -6 403.853 24.2597   7
   8  -2  -6 444.395 31.2734   4
   8  -2  -6 444.139 24.3501   6
  -8  -2   6 446.295 24.7835   7
  -8  -2   6 452.533 26.3439   1
   8  -2  -6 418.826 24.1065   2
  -8   2   6 450.572 21.6711   5
  -8   2   6 426.728 24.0207   6
   8   2  -6 480.615 24.6741   2
   8   2  -6 435.693 23.0370   7
  -8   2   6 475.368 24.8290   7
   7  -2  -6 290.634 20.8020   7
  -7  -2   6 320.824 25.0225   1
   7  -2  -6 350.052 29.9959   4
   7  -2  -6 289.208 17.0194   2
  -7  -2   6 292.638 18.9816   6
   7  -2  -6 329.837 17.8735   6
  -7  -2   6 300.583 20.2447   7
  -7   2   6 317.028 20.1980   7
  -7   2   6 270.622 16.8758   5
   7   2  -6 287.115 19.5141   7
   7   2  -6 319.477 17.6901   2
  -7   2   6 293.606 19.5867   6
  -6  -2   6 1342.16 45.2528   6
   6  -2  -6 1264.03 43.2468   2
  -6  -2   6 1299.12 44.3078   7
   6  -2  -6 1294.88 45.7654   7
  -6  -2   6 1257.29 48.7185   1
   6  -2  -6 1223.55 44.0992   6
   6   2  -6 1274.17 44.9687   7
  -6   2   6 1259.48 45.1686   5
  -6   2   6 1265.86 44.4270   6
   6   2  -6 1296.41 44.6049   2
  -6   2   6 1308.15 45.0793   7
   5  -2  -6 620.885 24.3948   6
   5  -2  -6 586.914 24.3637   2
  -5  -2   6 594.149 27.0430   1
   5  -2  -6 607.180 27.0250   7
  -5  -2   6 607.847 25.8994   7
  -5  -2   6 617.652 24.5556   6
   5   2  -6 599.677 26.2430   7
  -5   2   6 615.107 26.3206   5
  -5   2   6 596.490 25.5227   7
  -5   2   6 628.898 26.4892   6
   5   2  -6 571.112 24.8156   2
  -4  -2   6 1291.73 47.6575   1
   4  -2  -6 1398.16 44.9626   6
  -4  -2   6 1371.13 45.4022   6
   4  -2  -6 1360.98 46.0174   7
  -4  -2   6 1343.25 44.3871   7
  -4   2   6 1320.71 44.9498   6
  -4   2   6 1398.45 44.2496   7
   4   2  -6 1332.47 45.1360   7
   4   2  -6 1327.16 44.1667   2
  -4   2   6 1259.11 44.7701   5
  -3  -2   6 565.217 22.8411   6
  -3  -2   6 592.750 22.7515   7
  -3  -2   6 594.413 25.8287   1
   3  -2  -6 534.053 22.2600   7
   3  -2  -6 546.098 20.9484   6
  -3   2   6 522.926 22.1262   6
   3   2  -6 533.821 22.7625   7
  -3   2   6 583.419 22.7467   5
  -3   2   6 551.058 21.5104   7
   2  -2  -6 171.250 10.2109   6
  -2   2   6 228.289 13.8226   6
  -2   2   6 159.551 10.0346   7
  -1  -2   6 2.57498 4.07267   7
   1  -2  -6 4.75004 6.12695   7
  -1  -2   6 -1.0365 5.32039   1
  -1  -2   6 3.94956 6.22991   3
  -1  -2   6 -2.1455 4.86418   6
   1  -2  -6 0.10874 3.01956   6
  -1   2   6 5.12150 3.32960   7
  -1   2   6 1.51120 4.10304   6
   1   2  -6 -0.0600 3.63631   6
   1   2  -6 -5.8152 5.02287   7
  -1   2   6 -1.4745 4.57316   5
   0  -2   6 738.574 23.3378   7
   0  -2  -6 732.590 25.4588   7
   0  -2   6 739.730 28.8695   4
   0  -2   6 752.899 27.0632   3
   0  -2   6 749.147 25.6167   6
   0   2   6 760.598 27.7520   5
   0   2  -6 746.030 25.4957   7
   0   2   6 736.189 26.0999   6
   1  -2   6 1227.71 42.2992   4
   1  -2   6 1172.37 39.9779   3
   1  -2   6 1160.11 37.4031   6
   1  -2   6 1230.60 37.7298   6
   1  -2   6 1163.89 37.2789   5
  -1  -2  -6 1194.73 37.7179   7
  -1   2  -6 1171.71 37.2902   7
   1   2   6 1163.19 39.2362   5
   1   2   6 1161.64 37.6660   6
   1   2   6 1212.15 37.2415   6
  -2  -2  -6 23.5711 4.56663   7
   2  -2   6 21.3376 3.85033   6
   2  -2   6 8.77922 9.49353   4
   2  -2   6 20.6728 4.13449   6
   2  -2   6 16.0011 6.50272   3
  -2  -2  -6 24.3683 4.09469   7
   2  -2   6 23.2167 3.59801   5
   2   2   6 18.7366 5.10514   5
   2   2   6 17.4386 4.14328   6
  -2   2  -6 25.6574 6.54669   7
  -2   2  -6 18.3740 3.95155   7
   2   2   6 25.2353 3.58326   6
  -3  -2  -6 27.8233 4.93092   7
   3  -2   6 24.4400 5.23975   3
   3  -2   6 23.5552 3.75301   6
   3  -2   6 19.9948 8.05531   4
   3   2   6 22.3352 5.09422   5
   3   2   6 22.3963 3.85598   6
  -3   2  -6 21.9684 3.69770   7
   4  -2   6 170.726 16.6102   4
   4  -2   6 149.301 10.5271   3
   4  -2   6 164.595 7.94365   6
   4   2   6 144.092 11.3034   5
  -4   2  -6 151.955 8.36139   7
   4   2   6 160.553 8.39996   6
   5  -2   6 59.5900 5.39503   6
   5  -2   6 70.8447 8.74524   3
   5  -2   6 71.5023 11.6615   4
  -5   2  -6 64.3713 5.51780   7
   5   2   6 70.9780 5.52081   6
   6  -2   6 318.486 12.9440   6
   6  -2   6 322.897 16.9258   3
   6  -2   6 274.107 24.4315   4
  -6  -2  -6 303.999 12.5506   7
   6   2   6 300.084 12.5639   6
   6   2   6 322.420 19.5005   4
  -6   2  -6 294.729 12.3352   7
   7  -2   6 57.6555 6.16125   6
  -7  -2  -6 56.2833 6.15092   7
   7  -2   6 53.0171 15.8795   4
   7   2   6 60.9867 6.15224   6
  -7   2  -6 60.3804 6.30763   7
  10  -3  -6 41.9682 10.0976   6
  10  -3  -6 51.1540 23.0603   4
 -10  -3   6 46.1642 14.4012   1
  10  -3  -6 45.4271 14.2798   3
 -10  -3   6 41.2308 13.3452   7
 -10   3   6 31.9241 9.80538   7
  10   3  -6 25.0221 9.61520   2
 -10   3   6 41.4332 8.86969   5
   9  -3  -6 23.9220 21.7080   4
  -9  -3   6 12.4297 11.9456   1
   9  -3  -6 22.7276 8.85131   6
  -9  -3   6 28.2413 11.9881   7
  -9   3   6 25.8338 11.6233   7
   9   3  -6 23.1988 15.0771   4
  -9   3   6 37.1046 10.2849   5
   9   3  -6 23.5975 11.8179   2
   8  -3  -6 -19.001 8.89492   6
  -8  -3   6 8.91291 14.2086   1
  -8  -3   6 -1.1628 7.21783   7
   8  -3  -6 12.1531 14.3111   4
  -8   3   6 5.68818 10.3517   7
  -8   3   6 -5.9868 8.86811   5
   8   3  -6 0.06860 9.00632   7
   8   3  -6 -9.1065 7.04691   2
   7  -3  -6 589.130 39.2838   4
  -7  -3   6 568.518 26.4243   6
   7  -3  -6 597.469 27.6709   6
  -7  -3   6 554.223 32.7739   1
  -7  -3   6 563.556 25.5900   7
  -7   3   6 584.008 27.3236   6
   7   3  -6 579.755 26.8367   7
  -7   3   6 562.531 26.7050   5
  -7   3   6 584.903 27.4496   7
   7   3  -6 557.548 27.0828   2
   6  -3  -6 13.2508 8.81988   6
  -6  -3   6 30.9462 9.70937   7
  -6  -3   6 46.7290 12.9056   1
  -6  -3   6 13.2743 6.58771   6
   6   3  -6 15.7140 9.06598   2
  -6   3   6 20.7953 6.97156   7
  -6   3   6 17.0322 7.13803   6
   6   3  -6 16.7442 9.67986   7
  -6   3   6 23.0563 7.24083   5
   5  -3  -6 495.976 26.0887   7
  -5  -3   6 544.813 24.1525   6
  -5  -3   6 529.010 23.9984   7
   5  -3  -6 499.402 23.4016   6
  -5  -3   6 511.541 28.4730   1
  -5   3   6 515.157 22.0917   7
   5   3  -6 526.447 24.5056   7
  -5   3   6 476.629 22.7160   6
   5   3  -6 490.701 23.5074   2
  -5   3   6 502.444 22.5659   5
  -4  -3   6 419.269 21.8574   1
   4  -3  -6 428.091 23.2027   7
   4  -3  -6 437.618 20.2842   6
  -4  -3   6 444.738 21.0610   6
  -4  -3   6 396.689 20.6567   7
  -4   3   6 421.952 21.6680   5
   4   3  -6 423.694 21.4071   7
  -4   3   6 427.174 20.1562   7
  -4   3   6 444.755 20.2887   6
   3  -3  -6 1508.89 49.1617   6
  -3  -3   6 1578.87 50.7830   6
   3  -3  -6 1539.76 50.4652   7
  -3  -3   6 1497.46 51.3625   1
  -3  -3   6 1539.12 49.9851   7
  -3   3   6 1561.02 51.5547   5
  -3   3   6 1413.56 50.7313   6
  -3   3   6 1556.60 49.5685   7
   3   3  -6 1535.40 50.4114   7
  -2  -3   6 189.132 13.1462   1
   2  -3  -6 193.382 16.2615   7
  -2  -3   6 203.848 13.7584   6
  -2  -3   6 184.360 14.1470   3
   2  -3  -6 204.286 11.6698   6
  -2  -3   6 210.342 13.0721   7
  -2   3   6 189.288 12.9333   5
   2   3  -6 188.637 13.9243   7
  -2   3   6 185.031 14.5696   6
  -2   3   6 190.586 11.5520   7
   1  -3  -6 264.007 11.9043   6
  -1  -3   6 239.062 12.9073   7
  -1  -3   6 248.558 15.6672   3
   1  -3  -6 269.557 14.1521   7
  -1  -3   6 251.815 14.2444   6
  -1  -3   6 249.529 15.1593   1
   1   3  -6 250.150 14.6619   7
  -1   3   6 245.771 13.3630   6
  -1   3   6 245.464 11.6529   7
  -1   3   6 248.551 14.2668   5
   0  -3   6 687.570 29.1009   4
   0  -3   6 640.435 23.9927   6
   0  -3   6 645.259 22.7550   7
   0  -3   6 666.353 25.8572   3
   0  -3   6 657.963 24.5815   1
   0  -3  -6 679.073 24.8006   7
   0   3  -6 666.734 24.7863   7
   0   3   6 661.982 25.8495   5
   0   3   6 686.800 22.0322   7
   0   3   6 712.790 25.5394   6
   1  -3   6 407.382 17.1508   6
   1  -3   6 382.545 18.2473   3
   1  -3   6 422.714 23.0899   4
   1   3   6 421.089 20.2961   5
   1   3   6 418.647 17.7312   6
  -1   3  -6 396.490 17.1430   7
   2  -3   6 786.930 27.1961   6
   2  -3   6 764.302 30.0319   3
   2  -3   6 794.194 33.5797   4
   2   3   6 781.359 30.1942   5
  -2   3  -6 776.601 27.1351   7
   2   3   6 789.065 27.3387   6
   3  -3   6 355.301 15.4451   6
   3  -3   6 373.526 21.1925   4
   3  -3   6 380.407 17.9205   3
  -3   3  -6 367.025 15.6245   7
   3   3   6 361.754 15.6502   6
   3   3   6 388.829 19.1538   5
   4  -3   6 38.9230 7.04343   3
   4  -3   6 37.9727 9.58159   4
   4  -3   6 32.6483 5.45966   6
   4   3   6 32.8894 6.45274   5
   4   3   6 29.5654 5.63882   6
  -4   3  -6 30.3558 6.13701   7
   5  -3   6 69.4630 12.3958   4
  -5  -3  -6 81.7497 8.14229   7
   5   3   6 79.2087 10.0743   5
   5   3   6 111.650 9.86429   6
  -6  -3  -6 765.409 27.1767   7
   6  -3   6 764.916 27.4162   6
   6  -3   6 794.314 37.1191   4
   6  -3   6 814.838 31.8590   3
  -6   3  -6 790.811 27.4411   7
   6   3   6 757.119 27.5736   6
   7  -3   6 66.3871 7.82750   6
   7  -3   6 75.6335 9.22964   3
   7  -3   6 63.6830 14.1866   4
  -7  -3  -6 64.5145 8.42437   7
   7   3   6 61.3821 7.74855   6
  -7   3  -6 78.1361 8.36707   7
  -9  -4   6 96.3606 12.7711   7
   9  -4  -6 89.7320 15.9725   3
   9  -4  -6 98.7517 18.8457   4
   9  -4  -6 93.5064 15.3751   6
  -9   4   6 83.4728 14.5247   7
  -9   4   6 108.191 13.6550   5
   9   4  -6 104.833 12.9660   2
   8  -4  -6 87.6829 22.7263   4
  -8  -4   6 113.516 14.9932   7
   8  -4  -6 105.226 13.6114   3
   8  -4  -6 114.838 13.1172   6
  -8   4   6 107.811 13.8022   5
  -8   4   6 109.540 14.3468   7
   8   4  -6 119.915 15.2676   2
  -7  -4   6 231.807 17.8251   6
   7  -4  -6 203.651 22.2138   4
  -7  -4   6 213.264 17.4514   7
   7  -4  -6 216.855 16.1681   6
   7  -4  -6 192.726 16.9865   3
  -7   4   6 211.493 17.1929   5
   7   4  -6 209.881 18.5863   7
   7   4  -6 246.351 16.6235   2
  -7   4   6 188.930 15.8979   6
  -7   4   6 202.035 17.0858   7
  -6  -4   6 68.4161 11.7403   7
   6  -4  -6 79.4757 16.4270   4
   6  -4  -6 64.2014 11.3909   6
  -6  -4   6 69.3607 9.49605   6
  -6   4   6 63.7223 9.75921   6
   6   4  -6 70.2222 9.67874   2
   6   4  -6 74.4880 11.8319   7
  -6   4   6 75.3730 10.1799   7
  -6   4   6 41.4688 10.8339   5
  -5  -4   6 458.340 23.9170   7
  -5  -4   6 476.357 23.6925   6
   5  -4  -6 463.139 23.3654   6
   5  -4  -6 489.445 29.8655   4
  -5   4   6 465.859 24.2673   5
  -5   4   6 481.808 22.7846   6
  -5   4   6 469.581 21.8254   7
   5   4  -6 479.934 22.2305   7
  -4  -4   6 41.4988 9.88151   7
   4  -4  -6 26.9376 8.66542   6
  -4  -4   6 53.7208 10.0783   6
  -4   4   6 41.5121 9.11196   7
  -4   4   6 48.4489 8.48525   5
  -4   4   6 36.0163 10.6918   6
   4   4  -6 46.5702 8.02685   7
  -3  -4   6 582.044 24.7144   3
  -3  -4   6 607.595 24.2741   7
  -3  -4   6 582.440 24.6166   6
   3  -4  -6 615.435 24.7659   6
   3   4  -6 656.855 26.6158   7
  -3   4   6 602.234 24.7757   7
  -3   4   6 553.976 26.8108   6
  -3   4   6 603.968 26.9666   5
   2  -4  -6 135.794 9.81990   6
  -2  -4   6 131.975 11.5523   3
  -1  -4   6 1056.01 37.4057   6
   1  -4  -6 1065.87 36.3273   3
  -1  -4   6 1017.96 38.4532   3
  -1  -4   6 1035.40 36.0402   7
   1  -4  -6 1043.09 35.2818   6
  -1  -4   6 1033.25 39.3038   4
  -1  -4   6 1058.91 37.5043   1
  -1   4   6 1063.59 38.1015   5
  -1   4   6 1083.57 38.1172   6
  -1   4   6 1043.18 35.0180   7
   1   4  -6 1086.66 37.4680   7
   0  -4   6 742.805 31.3617   4
   0  -4   6 725.233 26.9699   6
   0  -4   6 697.192 29.4347   3
   0  -4   6 714.559 26.6073   1
   0  -4  -6 744.296 26.0505   3
   0   4   6 723.906 30.2682   5
   0   4  -6 718.232 26.8841   7
   0   4   6 727.846 28.4180   6
   1  -4   6 72.1737 8.43282   6
  -1  -4  -6 64.0891 6.10561   3
   1  -4   6 44.8253 9.16221   4
   1  -4   6 34.9121 9.60040   3
   1   4   6 65.8012 8.89600   6
  -1   4  -6 52.5035 8.08687   7
   1   4   6 61.5307 10.5069   5
   2  -4   6 46.1348 8.19026   3
   2  -4   6 67.0194 8.23018   6
   2  -4   6 55.8775 10.4521   4
   2   4   6 64.8215 8.54611   6
  -2   4  -6 72.8784 8.33219   7
   2   4   6 59.9384 8.67801   5
   3  -4   6 1552.58 53.6819   3
   3  -4   6 1539.33 50.9968   6
   3  -4   6 1548.98 57.9308   4
  -3   4  -6 1628.61 51.4389   7
   3   4   6 1600.33 51.5169   6
   3   4   6 1621.23 54.6293   5
   4  -4   6 1038.89 36.5146   6
   4  -4   6 1058.40 40.0744   3
   4  -4   6 1069.49 45.0252   4
  -4   4  -6 1096.07 36.6406   7
   4   4   6 1006.84 36.3710   6
   4   4   6 1055.63 39.7609   5
   5  -4   6 25.9121 10.3324   4
  -5  -4  -6 28.7673 7.49396   7
   5  -4   6 38.5876 7.01319   6
   5  -4   6 12.9241 6.84639   3
   5   4   6 39.4833 10.0318   5
  -5   4  -6 21.2057 6.52412   7
   5   4   6 -2.1180 6.07998   6
   6  -4   6 56.4782 7.89815   6
   6  -4   6 45.3123 8.87677   3
  -6  -4  -6 27.4330 7.65733   7
   6  -4   6 49.9782 16.7317   4
   6   4   6 57.6282 8.18937   6
  -6   4  -6 65.3869 8.36215   7
   8  -5  -6 867.215 38.6653   6
  -8  -5   6 878.852 38.5726   7
   8  -5  -6 807.209 39.5192   3
   8  -5  -6 803.266 48.1256   4
  -8   5   6 833.953 38.0524   7
  -8   5   6 872.105 36.5317   5
   8   5  -6 895.156 38.4108   2
   7  -5  -6 6.23709 10.6270   6
   7  -5  -6 -18.713 10.9966   3
  -7  -5   6 2.00497 11.0033   7
   7  -5  -6 -7.4159 12.6030   4
  -7   5   6 2.24210 9.83700   5
  -7   5   6 -11.787 6.88867   7
   7   5  -6 -6.3267 7.74610   2
   7   5  -6 9.09050 7.72106   7
  -6  -5   6 344.306 19.7122   6
   6  -5  -6 365.215 20.2302   6
   6  -5  -6 350.434 27.5648   4
  -6  -5   6 341.585 23.1471   7
   6  -5  -6 340.203 20.9075   3
   6   5  -6 372.108 22.8468   7
  -6   5   6 321.714 22.5711   7
  -6   5   6 358.912 22.4464   5
  -6   5   6 358.331 20.7392   6
   5  -5  -6 7.95550 6.51371   6
   5  -5  -6 3.69661 17.0802   4
  -5  -5   6 11.6055 9.20204   6
   5  -5  -6 2.36880 7.28657   3
  -5  -5   6 -1.6388 9.61651   7
  -5   5   6 -7.9178 6.34988   5
  -5   5   6 11.9529 9.17116   7
   5   5  -6 5.06555 6.88092   7
  -5   5   6 -2.8130 10.4886   6
   4  -5  -6 1393.40 56.1388   4
   4  -5  -6 1455.72 49.6946   6
  -4  -5   6 1492.68 49.8803   6
  -4  -5   6 1346.28 48.5221   7
   4  -5  -6 1368.79 49.3055   3
  -4   5   6 1424.43 49.9859   6
   4   5  -6 1402.73 50.0091   7
  -4   5   6 1385.59 48.4072   7
  -4   5   6 1441.28 50.9858   5
  -3  -5   6 252.882 15.8599   7
   3  -5  -6 268.631 18.2954   3
   3  -5  -6 273.343 21.5121   4
  -3  -5   6 294.955 19.2606   6
   3  -5  -6 296.691 17.3799   6
  -3  -5   6 302.660 19.0228   3
  -3   5   6 275.406 17.3090   5
  -3   5   6 262.821 20.0794   6
   3   5  -6 220.520 15.9516   7
  -3   5   6 290.906 17.8011   7
  -2  -5   6 138.745 13.2412   6
  -2  -5   6 150.168 13.8476   3
   2  -5  -6 143.776 11.6117   3
  -2  -5   6 136.296 11.3965   7
   2  -5  -6 145.396 12.6660   6
   2   5  -6 137.879 13.4788   7
  -2   5   6 141.251 13.8830   6
  -2   5   6 149.916 14.4482   5
  -2   5   6 129.179 11.0772   7
  -1  -5   6 51.0985 7.95290   6
  -1  -5   6 46.6424 8.61867   4
  -1  -5   6 41.4932 10.2749   3
   1  -5  -6 37.6736 8.11140   3
  -1  -5   6 32.2850 7.91613   7
   1   5  -6 39.5285 7.57871   7
  -1   5   6 40.8588 10.3322   6
  -1   5   6 36.8956 8.28194   7
  -1   5   6 41.5305 10.8327   5
   0  -5  -6 483.542 20.2856   3
   0  -5   6 466.502 21.1099   1
   0  -5   6 489.765 25.5738   4
   0  -5   6 491.924 24.3707   3
   0  -5   6 465.949 21.3751   6
   0   5  -6 471.093 21.4347   7
   0   5   6 504.889 23.6991   5
   0   5   6 545.780 24.3178   6
  -1  -5  -6 314.437 15.0252   3
   1  -5   6 319.310 18.3083   3
   1  -5   6 318.381 19.8668   4
   1  -5   6 328.936 16.7521   6
   1   5   6 311.142 18.7981   6
   1   5   6 348.590 21.6752   5
  -1   5  -6 312.810 16.4749   7
   2  -5   6 123.272 14.0972   3
   2  -5   6 117.434 11.4982   6
   2  -5   6 115.588 13.2916   4
  -2   5  -6 116.821 10.3294   7
   2   5   6 120.212 12.1035   5
   3  -5   6 116.972 13.8373   3
   3  -5   6 106.744 16.3130   4
   3  -5   6 93.6184 10.8298   6
   3   5   6 85.8270 10.9487   6
  -3   5  -6 107.212 11.2995   7
   3   5   6 97.6943 11.5705   5
   4  -5   6 834.064 31.7042   6
   4  -5   6 789.327 39.8023   4
  -4  -5  -6 810.206 31.8316   7
   4  -5   6 800.807 33.3836   3
   4   5   6 765.627 31.3858   6
  -4   5  -6 827.405 31.6084   7
   4   5   6 785.440 33.0680   5
  -5  -5  -6 163.317 13.6835   7
   5  -5   6 158.342 13.1859   6
   5  -5   6 155.826 18.0163   4
   5  -5   6 148.053 15.9226   3
  -5   5  -6 181.330 14.7780   7
   5   5   6 169.641 14.6836   6
   7  -6  -6 340.432 23.1115   3
   7  -6  -6 349.335 24.9811   6
  -7  -6   6 340.309 26.1177   7
   7  -6  -6 340.162 34.1709   4
   7   6  -6 440.730 27.5186   2
  -7   6   6 353.548 21.5375   5
  -7   6   6 367.508 22.4899   7
   6  -6  -6 141.785 17.2707   3
  -6  -6   6 174.834 17.4060   7
  -6  -6   6 172.613 16.5629   6
   6  -6  -6 211.771 16.4829   6
   6  -6  -6 156.889 19.2953   4
   6   6  -6 174.243 15.1419   7
  -6   6   6 181.823 16.0609   6
  -6   6   6 177.005 17.1095   7
  -6   6   6 188.595 17.4888   5
  -5  -6   6 966.564 38.9121   6
  -5  -6   6 989.953 39.1104   7
   5  -6  -6 862.255 39.0204   3
   5  -6  -6 921.239 41.5109   4
   5  -6  -6 894.794 36.8584   6
  -5   6   6 875.117 38.7290   5
  -5   6   6 910.959 38.2623   7
  -5   6   6 951.456 40.0676   6
   5   6  -6 959.619 38.8005   7
   4  -6  -6 54.4825 16.5371   4
  -4  -6   6 63.7713 9.82649   7
   4  -6  -6 45.8395 9.47537   3
   4  -6  -6 56.3599 10.9783   6
  -4  -6   6 44.2253 11.2718   3
  -4  -6   6 49.2664 9.38046   6
   4   6  -6 89.0173 13.0297   7
  -4   6   6 71.5705 13.3333   5
  -4   6   6 58.5055 12.9468   6
  -4   6   6 51.9000 9.22559   7
   3  -6  -6 107.085 13.2215   3
  -3  -6   6 137.563 14.4401   3
  -3  -6   6 124.131 12.3738   6
  -3  -6   6 131.669 13.9341   7
   3  -6  -6 111.909 17.1254   4
  -3   6   6 84.1515 14.0333   6
   3   6  -6 124.832 14.0700   7
  -3   6   6 117.593 11.2082   7
  -3   6   6 132.700 15.3827   5
   2  -6  -6 31.2053 12.6613   4
  -2  -6   6 11.2404 7.30782   6
  -2  -6   6 6.77465 6.75302   3
   2  -6  -6 6.57249 8.47753   3
  -2  -6   6 15.5534 9.00951   7
   2   6  -6 12.9275 10.1409   7
  -2   6   6 0.88645 7.41419   5
  -2   6   6 13.1024 10.9445   6
  -2   6   6 9.54938 7.80325   7
  -1  -6   6 561.838 27.6658   4
   1  -6  -6 595.913 25.4184   3
   1  -6  -6 584.031 27.9333   4
  -1  -6   6 573.437 25.8660   6
  -1  -6   6 582.564 26.7321   3
  -1   6   6 577.362 28.7479   6
  -1   6   6 605.473 27.6857   5
   1   6  -6 559.319 27.4911   7
   0  -6   6 -9.8625 8.35688   6
   0  -6   6 10.0233 7.25081   3
   0  -6  -6 6.61693 6.49577   3
   0  -6   6 3.66883 6.97362   4
   0   6   6 6.23287 10.2505   6
   0   6  -6 10.6389 9.29597   7
   0   6   6 0.09327 10.4258   5
   1  -6   6 70.2979 12.7515   3
   1  -6   6 62.8895 9.33729   6
   1  -6   6 88.4234 13.9800   4
  -1   6  -6 67.0650 11.4373   7
   1   6   6 55.0299 10.5935   5
   1   6   6 54.2020 11.4494   6
   2  -6   6 9.58868 10.3569   3
  -2  -6  -6 -4.6046 9.84365   7
   2  -6   6 7.91436 11.7395   4
   2  -6   6 11.2241 8.49898   6
  -2   6  -6 3.00960 8.85733   7
   2   6   6 0.46008 9.19776   6
   2   6   6 22.5983 8.93952   5
   3  -6   6 451.232 23.5941   6
   3  -6   6 477.661 27.1570   3
   3  -6   6 500.943 30.5618   4
  -3  -6  -6 464.190 25.1564   7
   3   6   6 453.072 24.4386   6
  -3   6  -6 482.176 24.2018   7
   3   6   6 437.932 27.3112   5
   4  -6   6 17.3416 9.02120   6
   4  -6   6 15.4191 14.4978   4
  -4  -6  -6 36.3692 11.0974   7
   4  -6   6 19.9858 8.60037   3
  -4   6  -6 26.9976 9.83988   7
   4   6   6 23.7217 10.1988   6
   4   6   6 3.25721 11.7292   5
  -5  -7   6 42.8608 13.0430   6
   5  -7  -6 39.7067 12.7073   6
   5  -7  -6 51.3930 17.3001   4
  -5  -7   6 38.7006 10.3268   7
   5  -7  -6 45.7157 11.0453   3
  -5   7   6 37.7053 10.1245   7
  -5   7   6 40.4042 11.1357   6
   5   7  -6 61.7573 13.7146   7
  -5   7   6 45.1193 10.7571   5
  -4  -7   6 807.071 34.4113   6
  -4  -7   6 755.399 33.1987   3
   4  -7  -6 826.207 36.1038   3
  -4  -7   6 806.091 35.9325   7
   4  -7  -6 802.790 38.4448   4
  -4   7   6 783.717 34.6953   7
   4   7  -6 745.026 35.5479   7
  -4   7   6 752.155 34.2869   5
  -4   7   6 757.515 34.7706   6
  -3  -7   6 -3.5840 10.3371   3
   3  -7  -6 1.06379 9.92942   3
  -3  -7   6 -0.1501 7.52865   7
   3  -7  -6 -14.480 11.0619   4
  -3  -7   6 -0.7765 7.90637   6
  -3   7   6 -1.6761 8.27076   5
  -3   7   6 0.77317 8.71763   6
   3   7  -6 11.9419 11.2624   7
  -2  -7   6 29.4021 9.00122   3
  -2  -7   6 33.9610 12.1939   6
   2  -7  -6 19.2097 9.84169   3
  -2   7   6 15.4446 9.09942   5
  -2   7   6 37.0055 13.2111   6
   2   7  -6 37.8075 12.5919   7
  -1  -7   6 -4.0854 10.1551   6
   1  -7  -6 -10.393 7.77173   3
   1  -7  -6 -7.8561 11.4731   7
  -1  -7   6 3.23158 7.52872   3
  -1   7   6 19.4133 12.0710   6
  -1   7   6 7.33784 11.7245   5
   1   7  -6 -1.7325 10.6791   7
   0  -7  -6 750.531 35.6858   7
   0  -7   6 790.010 34.7986   6
   0  -7   6 800.339 33.9076   4
   0  -7   6 775.739 35.8591   3
   0   7   6 806.447 37.3708   5
   0   7   6 753.665 35.4684   6
   0   7  -6 799.284 35.0305   7
   1  -7   6 20.3581 7.89835   6
   1  -7   6 11.9761 8.71118   3
   1  -7   6 14.4486 11.8909   4
  -1  -7  -6 15.8304 11.9087   7
   1   7   6 24.9749 11.8964   6
   1   7   6 20.9855 12.9186   5
  -1   7  -6 17.4893 8.31533   7
   2  -7   6 248.854 19.9895   3
   2  -7   6 303.953 25.8052   4
   2  -7   6 318.688 19.3230   6
  -2  -7  -6 346.610 24.2925   7
  -2   7  -6 272.066 18.8436   7
   2   7   6 300.199 26.0134   5
   2   7   6 361.728 23.3900   6
  10   0  -7 -4.9171 13.4210   4
 -10   0   7 -3.7824 9.17241   1
  10   0  -7 4.66521 8.40617   2
 -10   0   7 -4.0796 11.2016   5
 -10   0   7 -7.7967 7.44037   7
  10   0  -7 -9.3360 7.01181   6
  -9   0   7 426.769 22.6437   5
   9   0  -7 391.780 24.2333   6
   9   0  -7 386.957 23.2130   7
  -9   0   7 376.279 28.7240   1
   9   0  -7 367.138 24.4273   2
  -9   0   7 397.985 24.6413   7
   9   0  -7 486.012 38.9599   4
   8   0  -7 -7.0245 9.23535   7
   8   0  -7 -0.1689 6.07582   6
  -8   0   7 6.10625 10.1463   5
  -8   0   7 4.84964 6.54608   6
   8   0  -7 -9.8632 6.25945   2
  -8   0   7 -3.1639 9.50386   7
  -8   0   7 -10.933 10.8849   1
   7   0  -7 1740.63 58.0729   7
   7   0  -7 1705.46 57.2316   2
  -7   0   7 1715.11 60.6385   1
  -7   0   7 1703.89 59.7735   5
   7   0  -7 1743.86 58.4005   6
  -7   0   7 1817.33 59.3758   7
  -7   0   7 1782.86 59.1312   6
   6   0  -7 -5.0762 7.61606   6
  -6   0   7 -2.7582 5.91764   6
   6   0  -7 -4.0566 7.70250   2
  -6   0   7 -3.7541 6.85026   1
  -6   0   7 4.86240 5.77894   7
  -6   0   7 0.52440 9.03683   5
   6   0  -7 -3.0933 8.96128   7
   5   0  -7 1.12809 4.69061   2
  -5   0   7 -3.0828 8.39009   6
  -5   0   7 1.02998 5.19761   7
   5   0  -7 1.41923 6.93360   6
  -5   0   7 4.24816 6.37056   5
   5   0  -7 15.1686 9.31853   7
  -5   0   7 0.70081 6.77313   1
  -4   0   7 -0.1564 4.44661   7
   4   0  -7 -2.6854 5.84946   6
  -4   0   7 -3.3049 5.46457   5
   4   0  -7 6.79746 5.93631   7
  -4   0   7 -8.9507 5.11653   6
   4   0  -7 -9.5738 3.67233   2
  -3   0   7 3416.22 103.009   6
   3   0  -7 3405.23 102.705   7
   3   0  -7 3435.45 100.841   2
  -3   0   7 3391.10 103.773   5
  -3   0   7 3459.95 101.621   7
   3   0  -7 3292.05 101.617   6
  -2   0   7 -0.2132 4.49521   5
  -2   0   7 2.33566 3.91671   7
   2   0  -7 1.17456 3.63902   2
   2   0  -7 -1.9549 3.68301   6
  -2   0   7 4.72778 5.94295   6
   2   0  -7 -5.4563 6.03980   7
  -1   0   7 1095.84 35.2744   6
  -1   0   7 1089.32 36.8765   5
   1   0  -7 1094.16 35.5660   7
   1   0  -7 1055.53 33.0707   2
   0   0   7 1.99123 4.00709   6
   0   0  -7 2.33199 1.88509   2
   0   0  -7 1.38968 4.22445   7
   0   0   7 -1.3535 5.12778   5
   0   0   7 1.09887 3.55452   6
  -1   0  -7 1205.56 37.8598   7
   1   0   7 1251.48 38.1092   6
   1   0   7 1250.12 38.0661   6
  -1   0  -7 1227.07 37.8947   7
   1   0   7 1226.72 39.7718   5
   2   0   7 -0.3266 2.34170   6
  -2   0  -7 2.43271 2.76947   7
   2   0   7 1.97661 2.62865   6
   2   0   7 9.55587 9.21625   4
  -2   0  -7 -1.1641 2.23713   7
   2   0   7 4.39155 4.04471   5
  -3   0  -7 944.551 31.6107   7
   3   0   7 1188.71 41.9991   4
   3   0   7 1232.72 34.7242   5
   3   0   7 985.861 31.8178   6
   4   0   7 1.89991 1.13945   6
   4   0   7 -0.0143 1.10560   6
   4   0   7 -9.6739 6.31901   4
   5   0   7 -3.4447 7.20827   4
   6   0   7 1.57733 10.8915   4
   7   0   7 254.796 20.1819   4
  10  -1  -7 144.575 20.3698   4
  10  -1  -7 107.064 12.9956   6
 -10  -1   7 164.314 19.4870   1
 -10  -1   7 226.840 17.6530   5
  10  -1  -7 169.090 17.7311   2
  10   1  -7 130.250 23.4093   4
  10   1  -7 125.728 15.4908   6
  10   1  -7 143.942 16.6281   2
   9  -1  -7 31.8049 11.0805   6
   9  -1  -7 32.5555 15.9370   4
  -9  -1   7 24.6258 13.9996   1
  -9  -1   7 20.1350 11.4016   7
   9  -1  -7 14.2661 10.7077   7
   9  -1  -7 12.6275 11.0155   2
  -9   1   7 23.1048 8.56353   7
   9   1  -7 36.2037 9.30107   2
  -9   1   7 29.0599 11.0671   5
   9   1  -7 19.4933 12.1719   7
  -9   1   7 29.3328 12.9359   1
   9   1  -7 30.8291 11.7093   6
   8  -1  -7 705.961 29.5409   7
   8  -1  -7 737.972 31.7816   6
   8  -1  -7 717.310 31.3470   2
  -8  -1   7 736.764 33.5069   1
  -8  -1   7 655.955 30.4889   6
  -8  -1   7 715.423 30.3001   7
  -8   1   7 715.051 30.0737   7
  -8   1   7 709.334 31.2306   6
   8   1  -7 718.418 31.1653   7
  -8   1   7 718.039 30.4076   5
   8   1  -7 731.266 29.8170   2
   8   1  -7 732.480 30.3315   6
   7  -1  -7 1181.82 42.5734   6
  -7  -1   7 1191.72 43.7462   7
  -7  -1   7 1207.55 45.4559   1
  -7  -1   7 1162.52 43.3514   6
   7  -1  -7 1206.08 43.8566   7
   7  -1  -7 1214.93 41.7547   2
   7   1  -7 1144.95 41.6147   2
   7   1  -7 1190.36 43.4993   6
  -7   1   7 1177.07 42.9932   5
  -7   1   7 1209.04 43.7903   6
   7   1  -7 1113.16 42.8695   7
  -7   1   7 1226.85 43.6504   7
   6  -1  -7 733.165 29.3005   6
  -6  -1   7 773.278 34.5056   1
   6  -1  -7 766.977 28.5561   2
  -6  -1   7 737.867 29.5561   7
   6  -1  -7 773.193 31.9087   7
  -6  -1   7 756.415 29.7396   6
  -6   1   7 721.808 30.4845   7
   6   1  -7 763.564 28.6892   2
   6   1  -7 800.594 31.7508   7
  -6   1   7 729.611 31.5342   5
  -6   1   7 723.642 29.7693   6
   6   1  -7 757.985 30.7839   6
  -5  -1   7 78.9670 12.5300   1
  -5  -1   7 86.3495 10.6807   7
  -5  -1   7 83.2938 9.32749   6
   5  -1  -7 93.9663 12.1289   7
   5  -1  -7 86.3627 9.39099   2
   5  -1  -7 94.4275 10.2918   6
   5   1  -7 82.6612 8.88675   6
   5   1  -7 79.4957 8.36230   2
  -5   1   7 86.1000 9.68527   6
   5   1  -7 82.3114 9.37129   7
  -5   1   7 77.2591 11.0498   5
  -5   1   7 75.4709 8.52197   7
  -4  -1   7 859.139 34.2568   1
   4  -1  -7 811.410 32.0303   7
  -4  -1   7 823.406 30.8570   7
   4  -1  -7 848.191 29.2905   2
   4  -1  -7 861.068 30.5923   6
  -4  -1   7 816.139 30.4744   6
   4   1  -7 835.632 30.0017   6
   4   1  -7 796.849 28.8845   2
   4   1  -7 806.466 30.3235   7
  -4   1   7 854.053 32.3258   5
  -4   1   7 842.949 31.9973   6
  -4   1   7 856.910 30.5591   7
   3  -1  -7 148.315 9.70573   2
  -3  -1   7 165.855 13.3161   1
   3  -1  -7 151.300 11.8464   7
  -3  -1   7 149.367 11.5728   7
  -3  -1   7 161.977 13.0788   6
  -3  -1   7 144.209 11.7413   5
   3  -1  -7 158.954 10.7359   6
   3   1  -7 131.368 10.8333   2
   3   1  -7 147.654 11.6822   7
  -3   1   7 157.963 14.0052   5
   3   1  -7 155.682 9.72981   6
  -3   1   7 153.056 9.58096   7
  -3   1   7 177.400 13.7984   6
  -2  -1   7 20.8695 6.38723   6
   2  -1  -7 20.9866 7.50436   7
  -2  -1   7 27.5791 5.27239   7
  -2  -1   7 19.1419 5.74603   5
   2  -1  -7 29.6135 4.20731   2
   2  -1  -7 24.7792 4.81835   6
  -2   1   7 19.1450 5.40172   6
   2   1  -7 20.5837 4.93550   6
   2   1  -7 29.2334 5.12550   2
  -2   1   7 25.2828 6.16869   5
  -2   1   7 24.0339 4.73001   7
   2   1  -7 16.1734 6.69473   7
  -1  -1   7 141.175 6.97726   7
   1  -1  -7 136.285 10.0331   7
  -1  -1   7 139.630 10.1291   6
  -1  -1   7 142.064 11.6986   5
   1   1  -7 122.114 10.4261   7
  -1   1   7 143.130 12.3434   5
  -1   1   7 142.781 6.50752   7
  -1   1   7 122.694 10.9905   6
   0  -1   7 2088.25 63.7885   6
   0  -1  -7 2039.34 63.7732   7
   0  -1   7 2069.70 64.4025   5
   0   1   7 2072.27 64.0524   6
   0   1   7 2113.79 65.6975   5
   0   1  -7 2116.49 63.6363   7
   0   1   7 2207.10 63.8936   6
  -1  -1  -7 -2.2005 2.65789   7
  -1  -1  -7 -8.6293 4.53133   7
   1  -1   7 -5.6963 4.00681   6
   1  -1   7 -1.7558 3.88779   5
   1  -1   7 0.78751 9.25645   4
   1   1   7 -0.7130 4.63455   6
   1   1   7 0.95692 2.75143   6
  -1   1  -7 4.43768 3.43880   7
  -1   1  -7 3.56682 4.33985   7
   1   1   7 -1.9908 5.13480   5
  -2  -1  -7 14.3393 4.12102   7
   2  -1   7 18.2961 7.62949   4
   2  -1   7 12.8228 5.82923   3
   2  -1   7 16.6911 3.10781   6
   2  -1   7 16.5966 3.75932   5
   2   1   7 6.31270 5.25176   5
   2   1   7 16.7072 3.16848   6
  -2   1  -7 20.5662 3.75435   7
   2   1   7 18.1722 4.14396   6
   3  -1   7 115.217 12.2989   4
  -3  -1  -7 120.812 6.26523   7
   3  -1   7 148.228 10.7612   3
   3  -1   7 94.5670 5.89510   6
   3   1   7 128.740 6.92244   6
   3   1   7 141.983 9.88545   5
   3   1   7 109.937 5.84068   6
  -3   1  -7 118.965 6.38332   7
   4  -1   7 528.195 17.3950   6
   4  -1   7 546.237 21.6892   3
  -4  -1  -7 546.373 17.1482   7
   4  -1   7 595.393 29.3471   4
   4   1   7 493.289 20.2506   5
  -4   1  -7 536.707 17.3340   7
   4   1   7 600.207 26.9887   4
   4   1   7 544.501 17.2734   6
  -5  -1  -7 42.4860 3.35903   7
   5  -1   7 51.2622 10.6849   4
   5  -1   7 38.8028 3.25419   6
   5  -1   7 39.8971 8.14537   3
   5   1   7 34.0480 8.42862   4
  -5   1  -7 41.1018 3.39370   7
   5   1   7 40.0576 3.10989   6
   6  -1   7 44.2442 3.72598   6
   6  -1   7 37.2538 13.5812   4
   6   1   7 52.8718 12.1909   4
   6   1   7 41.6231 3.50083   6
   7  -1   7 265.013 10.3055   6
   7  -1   7 258.212 25.3608   4
   7   1   7 270.265 22.3240   4
 -10  -2   7 671.627 31.8530   7
  10  -2  -7 729.855 32.3721   6
 -10  -2   7 733.118 37.4204   1
  10  -2  -7 736.361 41.6997   4
 -10   2   7 689.678 32.7192   5
  10   2  -7 780.765 41.7915   4
 -10   2   7 657.629 33.9319   7
  10   2  -7 650.387 31.5063   6
  10   2  -7 711.962 34.8033   2
  -9  -2   7 661.579 37.7527   1
   9  -2  -7 629.871 28.8526   6
  -9  -2   7 574.623 28.3391   7
   9  -2  -7 683.527 43.6044   4
   9   2  -7 615.180 30.7516   2
  -9   2   7 631.391 30.9508   7
  -9   2   7 594.856 29.6851   5
   8  -2  -7 40.2401 16.2984   4
   8  -2  -7 47.3124 9.02962   2
  -8  -2   7 48.8827 11.6384   7
  -8  -2   7 36.5724 11.2535   1
   8  -2  -7 36.7982 11.9193   7
   8  -2  -7 31.3022 10.8690   6
  -8  -2   7 53.5639 9.09925   6
  -8   2   7 31.7668 8.58711   5
   8   2  -7 48.8590 11.1032   7
   8   2  -7 34.4574 11.1657   2
  -8   2   7 44.3039 11.6016   7
  -8   2   7 33.6625 8.73331   6
   7  -2  -7 340.085 18.6050   2
   7  -2  -7 359.959 19.2974   6
  -7  -2   7 344.188 21.0661   6
  -7  -2   7 390.867 22.3339   7
  -7  -2   7 375.774 23.2688   1
   7  -2  -7 367.695 22.8587   7
   7   2  -7 334.144 21.7544   7
  -7   2   7 373.296 21.9456   5
   7   2  -7 356.118 19.0917   2
  -7   2   7 354.099 21.7425   7
  -7   2   7 349.988 19.5748   6
   6  -2  -7 421.384 24.0504   7
  -6  -2   7 362.127 22.7808   1
   6  -2  -7 388.504 18.7194   2
  -6  -2   7 388.897 22.0232   6
  -6  -2   7 414.060 22.6122   7
   6  -2  -7 392.575 21.6210   6
   6   2  -7 447.202 21.8437   2
  -6   2   7 392.690 20.5298   5
   6   2  -7 424.622 20.5069   7
  -6   2   7 384.445 22.5910   6
  -6   2   7 417.509 22.0580   7
  -5  -2   7 656.807 32.1319   1
   5  -2  -7 698.478 29.9658   7
   5  -2  -7 676.725 26.7219   6
  -5  -2   7 656.748 28.2868   7
   5  -2  -7 692.886 26.6878   2
  -5  -2   7 671.604 28.5446   6
  -5   2   7 692.820 28.0390   7
   5   2  -7 688.842 26.2926   2
  -5   2   7 687.613 27.9769   5
  -5   2   7 681.411 27.7088   6
   5   2  -7 709.853 29.1683   7
   4  -2  -7 522.524 23.2571   7
  -4  -2   7 610.565 23.9579   7
   4  -2  -7 505.388 22.4932   6
  -4  -2   7 571.623 24.9936   1
  -4  -2   7 478.382 22.1721   6
  -4   2   7 567.423 23.0004   7
  -4   2   7 531.141 24.6926   5
   4   2  -7 528.979 22.4265   2
   4   2  -7 540.872 22.5578   7
  -4   2   7 531.196 24.6618   6
  -3  -2   7 42.4569 7.57419   7
   3  -2  -7 52.9073 9.75603   7
  -3  -2   7 42.8559 7.65226   1
  -3  -2   7 66.3272 8.86845   6
   3   2  -7 31.2070 8.28781   7
  -3   2   7 52.9189 9.41549   5
  -3   2   7 47.7856 7.13117   7
  -3   2   7 39.0562 9.00836   6
   2  -2  -7 875.471 30.1719   7
  -2  -2   7 797.109 30.5908   1
  -2  -2   7 840.738 30.3861   6
   2  -2  -7 827.625 27.9443   6
  -2  -2   7 844.816 28.5262   7
  -2   2   7 847.029 27.7983   7
  -2   2   7 847.680 30.0943   6
  -2   2   7 822.399 30.7679   5
   2   2  -7 818.078 28.5208   6
   2   2  -7 840.021 30.3181   7
  -1  -2   7 525.699 18.2164   7
  -1  -2   7 498.843 19.5106   6
   1  -2  -7 511.773 21.4093   7
   1   2  -7 514.586 20.5347   7
  -1   2   7 482.424 20.9873   6
  -1   2   7 504.915 17.3291   7
  -1   2   7 509.837 21.3267   5
   1   2  -7 486.349 18.6833   6
   0  -2  -7 72.2365 8.14989   7
   0  -2   7 70.5890 7.60979   5
   0  -2   7 69.6407 9.05886   3
   0  -2   7 75.4191 7.29671   6
   0   2   7 59.4880 7.62253   6
   0   2  -7 75.6718 7.56628   7
   0   2   7 81.6447 9.23129   5
   1  -2   7 580.880 20.8953   6
   1  -2   7 550.140 25.7141   4
  -1  -2  -7 602.983 21.5280   7
   1  -2   7 580.312 23.9946   3
   1  -2   7 551.109 20.5955   5
   1   2   7 569.882 21.2965   6
   1   2   7 582.988 23.7275   5
  -1   2  -7 589.623 20.9569   7
   2  -2   7 350.746 20.3224   4
  -2  -2  -7 368.256 15.6571   7
   2  -2   7 348.951 17.9900   3
   2  -2   7 361.061 14.4203   6
   2  -2   7 371.087 13.4564   5
   2   2   7 378.556 18.0614   5
   2   2   7 362.084 15.2496   6
  -2   2  -7 361.478 14.4101   7
   3  -2   7 34.9837 4.95399   6
  -3  -2  -7 32.7498 5.37346   7
   3  -2   7 49.2193 11.9398   4
   3  -2   7 53.9567 8.32332   3
   3   2   7 51.5031 7.68644   5
   3   2   7 35.7638 5.10433   6
  -3   2  -7 31.7567 4.96473   7
   4  -2   7 86.0717 7.03657   6
   4  -2   7 82.5900 9.65308   3
   4  -2   7 92.2183 12.7029   4
   4   2   7 109.222 9.74051   5
   4   2   7 90.3666 7.16231   6
  -4   2  -7 84.8640 7.04390   7
   5  -2   7 335.204 25.4950   4
   5  -2   7 307.273 17.0601   3
   5  -2   7 309.731 12.7268   6
  -5   2  -7 305.689 12.5939   7
   5   2   7 306.547 12.5144   6
   6  -2   7 335.251 13.6272   6
  -6  -2  -7 327.156 13.5839   7
   6  -2   7 313.890 23.6011   4
  -6   2  -7 333.403 13.5577   7
   6   2   7 354.774 13.7192   6
 -10  -3   7 22.5761 12.7397   7
  10  -3  -7 26.1303 12.4213   6
  10  -3  -7 9.60826 22.8191   4
 -10  -3   7 73.0939 19.9709   1
 -10   3   7 14.8713 12.3937   7
  10   3  -7 44.8523 14.1264   2
 -10   3   7 42.9056 11.8321   5
   9  -3  -7 339.051 31.8098   4
  -9  -3   7 247.594 22.3636   1
  -9  -3   7 205.478 18.1243   7
   9  -3  -7 245.653 20.5604   6
  -9   3   7 260.168 17.7476   5
  -9   3   7 244.277 19.9475   7
   9   3  -7 250.529 19.9884   2
  -8  -3   7 1223.65 55.6561   6
  -8  -3   7 1157.51 43.9628   7
  -8  -3   7 1192.46 51.1518   1
   8  -3  -7 1195.42 52.4874   4
   8  -3  -7 1198.10 44.4962   6
  -8   3   7 1176.80 43.7962   5
  -8   3   7 1156.69 45.2519   7
   8   3  -7 1204.16 43.8423   2
  -8   3   7 1094.49 44.6471   6
   8   3  -7 1177.48 43.0185   7
   7  -3  -7 78.7738 22.3356   4
  -7  -3   7 37.4617 10.7618   6
   7  -3  -7 51.8618 9.00109   6
  -7  -3   7 45.6886 11.8010   1
  -7  -3   7 46.4727 11.1902   7
   7   3  -7 72.2699 12.0898   2
   7   3  -7 62.7746 12.0362   7
  -7   3   7 49.0940 11.4535   5
  -7   3   7 54.9567 11.5080   7
  -7   3   7 55.0932 11.6629   6
   6  -3  -7 53.5008 10.3240   7
  -6  -3   7 57.3573 9.04262   7
   6  -3  -7 62.1169 10.7826   6
  -6  -3   7 48.3869 8.53323   6
  -6  -3   7 66.4418 14.3918   1
   6   3  -7 66.8159 9.27306   2
  -6   3   7 56.2150 11.4468   6
  -6   3   7 57.2268 9.15248   7
   6   3  -7 53.8969 11.3680   7
  -6   3   7 52.9843 9.10678   5
  -5  -3   7 1211.89 43.9030   6
  -5  -3   7 1167.21 47.0041   1
  -5  -3   7 1249.90 43.7811   7
   5  -3  -7 1196.95 43.1851   6
   5  -3  -7 1257.39 45.3152   7
  -5   3   7 1200.07 43.3363   5
  -5   3   7 1207.91 42.2288   7
   5   3  -7 1180.41 42.6110   7
   5   3  -7 1248.13 43.0391   2
  -5   3   7 1235.05 44.6465   6
   4  -3  -7 1159.37 43.7200   7
  -4  -3   7 1186.60 41.7143   6
  -4  -3   7 1227.17 42.3276   7
   4  -3  -7 1225.26 41.7083   6
  -4  -3   7 1226.32 45.6942   1
   4   3  -7 1221.29 42.8125   7
  -4   3   7 1219.20 40.8608   7
  -4   3   7 1197.31 43.5721   5
  -4   3   7 1100.12 42.9665   6
  -3  -3   7 550.873 25.5355   1
   3  -3  -7 607.278 26.9675   7
  -3  -3   7 587.275 24.6333   7
   3  -3  -7 599.619 22.7270   6
  -3  -3   7 580.325 25.3039   6
  -3   3   7 590.983 23.4821   7
  -3   3   7 617.880 24.8154   6
   3   3  -7 588.673 23.9330   7
  -3   3   7 571.478 26.4916   5
  -2  -3   7 95.7789 8.38393   7
   2  -3  -7 89.8118 7.40556   6
   2  -3  -7 88.5435 9.67631   7
  -2  -3   7 94.5096 8.92868   6
  -2  -3   7 101.109 11.0667   1
  -2   3   7 88.9539 9.14925   6
  -2   3   7 81.3500 7.28437   7
   2   3  -7 81.8787 8.44736   7
  -2   3   7 105.087 9.99319   5
  -1  -3   7 666.531 24.9823   7
  -1  -3   7 694.030 28.6091   3
  -1  -3   7 739.712 27.2727   6
   1  -3  -7 722.159 28.4113   7
  -1  -3   7 705.136 27.4590   1
  -1   3   7 727.076 24.1063   7
  -1   3   7 705.437 27.6387   6
  -1   3   7 702.270 29.1047   5
   1   3  -7 720.855 27.0998   7
   0  -3   7 1244.63 46.5205   4
   0  -3   7 1268.45 41.8841   6
   0  -3  -7 1212.10 42.3331   7
   0  -3   7 1271.81 44.2772   3
   0   3  -7 1235.09 41.7169   7
   0   3   7 1304.13 44.3580   5
   0   3   7 1288.28 42.3902   6
   1  -3   7 1781.81 56.7545   5
  -1  -3  -7 1783.94 57.3257   7
   1  -3   7 1883.33 62.6544   4
   1  -3   7 1850.62 60.4574   3
   1  -3   7 1863.98 57.3884   6
   1   3   7 1871.17 57.9157   6
  -1   3  -7 1795.44 57.3774   7
   1   3   7 1825.76 59.6609   5
   2  -3   7 92.6495 8.04815   6
   2  -3   7 100.343 12.2163   4
   2  -3   7 111.908 10.3357   3
  -2   3  -7 106.283 8.43342   7
   2   3   7 105.833 10.0667   5
   2   3   7 97.1151 8.47605   6
   3  -3   7 35.7035 5.83969   6
   3  -3   7 51.5936 7.76653   3
   3  -3   7 34.4738 12.4473   4
  -3   3  -7 36.4374 6.74900   7
   3   3   7 29.8111 5.90424   6
   3   3   7 40.5157 7.05842   5
   4  -3   7 1109.36 43.2942   4
   4  -3   7 926.748 31.9131   6
   4  -3   7 1037.18 36.5711   3
  -4   3  -7 889.312 31.6359   7
   4   3   7 870.556 35.0445   5
   4   3   7 913.954 31.7033   6
   5  -3   7 796.945 28.1721   6
   5  -3   7 792.749 31.4232   3
   5  -3   7 815.243 40.3863   4
   5   3   7 791.943 31.7246   5
   5   3   7 839.055 28.5402   6
  -5   3  -7 821.267 28.5358   7
   6  -3   7 42.3188 15.9562   4
   6  -3   7 38.2320 7.61684   3
  -6  -3  -7 29.7502 6.80860   7
   6  -3   7 30.6308 5.65039   6
  -6   3  -7 27.1508 5.67892   7
   6   3   7 43.0713 6.86373   6
   9  -4  -7 38.7196 22.7835   4
   9  -4  -7 48.1381 13.9622   6
  -9  -4   7 51.0138 15.5448   1
  -9  -4   7 30.5079 13.2663   7
   9  -4  -7 29.0140 13.8076   3
   9   4  -7 52.4669 11.3582   2
  -9   4   7 42.9015 10.4008   7
  -9   4   7 36.5522 9.55400   5
  -8  -4   7 329.672 24.4116   7
   8  -4  -7 324.592 24.1796   6
   8  -4  -7 374.019 33.2038   4
  -8  -4   7 353.338 32.6701   1
   8  -4  -7 335.054 25.1144   3
  -8   4   7 351.473 21.5242   7
  -8   4   7 343.355 20.7769   5
   8   4  -7 324.854 24.8256   2
   8   4  -7 342.885 23.0425   7
  -7  -4   7 707.748 31.6799   6
  -7  -4   7 738.383 35.4327   1
   7  -4  -7 702.837 32.1662   6
  -7  -4   7 727.209 32.9695   7
   7  -4  -7 645.627 38.1537   4
  -7   4   7 788.562 33.3416   5
  -7   4   7 714.460 30.6875   7
   7   4  -7 659.554 29.8637   7
  -7   4   7 730.754 31.1298   6
   7   4  -7 689.473 30.2246   2
  -6  -4   7 372.822 20.5258   7
   6  -4  -7 389.170 20.8277   6
  -6  -4   7 370.509 24.7587   1
  -6  -4   7 379.446 20.7704   6
   6  -4  -7 406.483 29.8704   4
  -6   4   7 368.260 21.1850   5
   6   4  -7 451.091 23.9404   2
  -6   4   7 383.396 21.4996   6
  -6   4   7 425.867 23.3367   7
   6   4  -7 439.987 24.1381   7
   5  -4  -7 218.832 16.9487   6
  -5  -4   7 222.398 15.4466   6
  -5  -4   7 249.883 18.1859   7
  -5  -4   7 264.893 21.0893   1
   5   4  -7 213.907 19.0231   7
  -5   4   7 186.144 15.6102   5
  -5   4   7 209.317 14.8145   7
  -5   4   7 208.834 17.2259   6
  -4  -4   7 280.863 18.3013   7
  -4  -4   7 291.379 23.0109   1
   4   4  -7 250.563 19.1822   7
  -3  -4   7 1036.07 37.4060   1
  -3  -4   7 1033.58 34.9563   7
   3   4  -7 989.603 36.8329   7
  -3   4   7 875.866 36.9495   6
  -3   4   7 971.982 36.5526   5
  -3   4   7 878.663 34.2214   7
  -2  -4   7 1438.41 49.0062   7
  -2  -4   7 1534.85 50.0104   6
  -2  -4   7 1453.36 50.2711   1
  -2  -4   7 1463.57 51.3329   3
  -2   4   7 1507.40 51.2221   5
  -2   4   7 1502.79 50.3518   6
  -2   4   7 1489.12 47.7286   7
   2   4  -7 1461.22 49.4431   7
  -1  -4   7 1875.66 61.1192   6
  -1  -4   7 1800.58 60.7012   1
  -1  -4   7 1872.56 62.6854   3
  -1   4   7 1903.86 61.6487   6
   1   4  -7 1901.17 61.0525   7
  -1   4   7 1922.80 63.1381   5
   0  -4   7 10.5310 8.89767   3
   0  -4   7 3.10421 9.88206   4
   0  -4  -7 10.9980 5.72248   3
   0  -4   7 19.7718 7.40955   6
   0  -4   7 17.9403 5.37432   1
   0   4   7 14.9311 6.09830   6
   0   4   7 14.5679 6.91578   5
   0   4  -7 12.5361 7.50269   7
   1  -4   7 457.873 24.1131   4
  -1  -4  -7 472.851 17.7814   3
   1  -4   7 468.234 22.0188   3
   1  -4   7 464.687 20.6865   6
   1   4   7 482.791 20.1721   6
  -1   4  -7 450.174 20.7209   7
   1   4   7 427.725 21.7571   5
   2  -4   7 679.475 33.5056   4
   2  -4   7 635.489 29.3410   3
   2  -4   7 710.103 26.6933   6
   2   4   7 675.546 26.8532   6
   2   4   7 704.585 30.0597   5
  -2   4  -7 693.517 26.6376   7
   3  -4   7 953.918 41.9559   4
   3  -4   7 1028.04 39.8399   3
   3  -4   7 1016.97 36.2093   6
   3   4   7 1070.19 40.0082   5
  -3   4  -7 1084.77 36.4935   7
   3   4   7 1059.43 36.4486   6
   4  -4   7 148.027 13.1428   3
   4  -4   7 134.587 11.4330   6
   4  -4   7 151.849 16.8505   4
   4   4   7 163.811 14.4629   5
  -4   4  -7 153.405 12.3621   7
   4   4   7 142.354 12.2868   6
   5  -4   7 117.711 13.5668   3
  -5  -4  -7 108.403 10.3885   7
   5  -4   7 108.036 18.3228   4
   5  -4   7 101.353 9.65045   6
   5   4   7 110.675 10.9003   6
   5   4   7 103.772 11.5342   5
  -5   4  -7 115.179 10.2890   7
  -8  -5   7 108.964 16.1566   7
   8  -5  -7 126.091 16.5855   6
   8  -5  -7 130.564 15.5666   3
   8  -5  -7 122.677 25.4435   4
  -8   5   7 126.682 14.1796   7
  -8   5   7 108.428 15.3512   5
   8   5  -7 163.166 18.1521   2
   7  -5  -7 67.8411 11.0157   6
  -7  -5   7 70.1876 11.4399   7
  -7  -5   7 57.7405 12.9815   6
   7  -5  -7 66.7643 17.2897   4
   7  -5  -7 61.2464 11.8935   3
  -7   5   7 67.9398 10.7733   5
   7   5  -7 63.8010 10.8989   7
   7   5  -7 58.1474 11.0809   2
  -7   5   7 90.2858 12.0774   6
  -7   5   7 50.9837 12.9001   7
   6  -5  -7 137.790 19.0373   4
   6  -5  -7 116.422 15.9446   3
   6  -5  -7 143.440 15.0947   6
  -6  -5   7 140.417 15.3769   6
  -6  -5   7 152.929 14.1714   7
   6   5  -7 153.195 15.6269   7
  -6   5   7 165.482 16.3208   5
  -6   5   7 144.334 13.6592   7
  -6   5   7 126.028 15.8699   6
   5  -5  -7 109.252 22.1115   4
   5  -5  -7 128.963 13.8251   6
   5  -5  -7 122.533 15.1560   3
  -5  -5   7 153.069 14.9184   7
  -5  -5   7 123.919 12.5433   6
  -5   5   7 145.173 12.8283   7
   5   5  -7 118.326 14.2774   7
  -5   5   7 129.446 15.2924   5
  -5   5   7 116.741 15.3821   6
   4  -5  -7 551.374 37.3179   4
   4  -5  -7 568.070 27.9875   3
  -4  -5   7 570.845 26.2826   6
   4  -5  -7 610.645 26.5787   6
  -4  -5   7 582.948 27.4450   7
   4   5  -7 589.219 26.2310   7
  -4   5   7 559.408 24.9206   7
  -4   5   7 608.370 29.1297   5
  -4   5   7 605.430 29.5837   6
   3  -5  -7 2.71820 8.97483   3
  -3  -5   7 29.1367 10.3204   3
  -3  -5   7 34.3377 11.1030   1
  -3  -5   7 29.3996 9.31260   7
  -3  -5   7 31.8467 9.96880   6
  -3   5   7 27.0381 8.11935   7
  -3   5   7 46.4984 8.93692   5
   3   5  -7 29.1879 8.03780   7
  -3   5   7 26.4386 11.2165   6
   2  -5  -7 -10.615 7.54884   3
  -2  -5   7 19.9447 9.17840   6
  -2  -5   7 -11.802 8.78041   3
  -2  -5   7 6.52668 5.32208   7
  -2  -5   7 11.5998 9.58733   1
  -2   5   7 -1.9859 6.75807   5
   2   5  -7 5.31599 6.59266   7
  -2   5   7 7.20205 7.31732   6
  -1  -5   7 217.615 16.2424   6
   1  -5  -7 143.155 10.9795   3
  -1  -5   7 187.341 15.7907   1
  -1  -5   7 129.185 14.2078   3
  -1   5   7 127.871 12.3439   6
  -1   5   7 136.119 13.4148   5
   0  -5   7 685.022 27.4123   6
   0  -5  -7 627.010 25.3334   3
   0  -5   7 705.085 30.8099   3
   0  -5   7 695.206 32.1417   4
   0   5   7 691.871 31.3950   5
   0   5   7 693.500 29.2207   6
   0   5  -7 637.666 28.3078   7
   1  -5   7 -4.8747 7.52431   4
   1  -5   7 4.13661 6.91354   3
   1  -5   7 -2.3149 7.24105   6
   1   5   7 -8.6650 5.56144   6
   1   5   7 12.1822 10.0370   5
  -1   5  -7 -2.3195 5.53104   7
   2  -5   7 259.781 16.7487   6
   2  -5   7 255.291 23.5414   4
   2  -5   7 249.296 17.2328   3
   2   5   7 261.064 20.7649   5
   2   5   7 263.547 17.4977   6
  -2   5  -7 255.044 17.2195   7
   3  -5   7 410.014 20.9163   6
   3  -5   7 413.648 22.2469   3
   3  -5   7 337.929 24.6153   4
   3   5   7 444.183 25.0533   5
  -3   5  -7 389.875 20.8374   7
   3   5   7 452.606 21.6459   6
   4  -5   7 311.670 24.2077   4
   4  -5   7 314.974 18.4728   6
   4  -5   7 322.445 22.3810   3
  -4  -5  -7 290.259 18.8244   7
   4   5   7 330.077 22.6588   5
  -4   5  -7 305.261 18.3359   7
   4   5   7 349.040 19.2227   6
  -6  -6   7 160.431 15.0620   6
   6  -6  -7 172.121 24.7017   4
   6  -6  -7 185.061 17.7532   6
   6  -6  -7 154.155 18.2957   3
  -6  -6   7 191.039 18.0977   7
  -6   6   7 159.664 15.0069   7
  -6   6   7 183.982 18.1754   5
   6   6  -7 148.699 16.7941   7
  -6   6   7 164.523 18.4457   6
  -5  -6   7 15.2813 8.45071   6
   5  -6  -7 12.8647 11.7080   3
   5  -6  -7 10.3799 10.2565   6
  -5  -6   7 10.8343 10.9750   7
   5  -6  -7 18.8510 17.5832   4
  -5   6   7 -9.6113 11.6982   6
  -5   6   7 27.5080 8.39618   7
   5   6  -7 22.5717 11.8676   7
  -5   6   7 28.0286 12.1883   5
  -4  -6   7 4.60392 7.01975   7
  -4  -6   7 -4.0845 7.18603   6
   4  -6  -7 21.9585 16.1827   4
   4  -6  -7 9.96322 10.4531   3
   4   6  -7 7.00230 10.7469   7
  -4   6   7 -2.1311 11.0863   5
  -4   6   7 6.34334 8.95453   7
  -4   6   7 7.96086 11.6740   6
  -3  -6   7 5.30207 9.19747   7
   3  -6  -7 -6.4727 14.5090   4
  -3  -6   7 10.7404 7.35871   6
   3  -6  -7 2.57831 9.27623   3
  -3  -6   7 -0.6701 7.04082   3
  -3   6   7 18.0683 8.44086   6
  -3   6   7 1.27744 7.72189   5
   3   6  -7 -4.0087 10.2060   7
   2  -6  -7 112.334 12.5344   3
  -2  -6   7 111.412 14.5735   3
  -2  -6   7 120.941 14.5270   1
   2  -6  -7 128.723 14.7200   4
  -2  -6   7 119.159 14.1559   6
  -2   6   7 93.0047 14.7817   5
  -2   6   7 89.6622 14.4699   6
   2   6  -7 114.425 14.1764   7
  -1  -6   7 40.6609 11.7512   3
  -1  -6   7 67.1748 11.9311   6
   1  -6  -7 36.8007 8.81412   3
   1  -6  -7 31.5809 13.5719   4
  -1   6   7 43.6981 11.7423   6
   1   6  -7 30.5377 10.8574   7
  -1   6   7 30.7901 9.09630   5
   0  -6  -7 177.772 15.4931   3
   0  -6   7 191.065 14.7770   6
   0  -6   7 213.681 18.7478   4
   0  -6   7 196.482 16.2354   3
   0   6  -7 180.077 14.8629   7
   0   6   7 185.488 16.6637   6
   0   6   7 191.456 16.9306   5
   1  -6   7 -3.9822 11.2041   4
   1  -6   7 13.9475 9.29272   6
   1  -6   7 2.09250 7.07382   3
   1   6   7 10.2234 7.38311   6
  -1   6  -7 3.85708 9.41018   7
   1   6   7 22.0850 11.7632   5
   2  -6   7 71.9171 11.6194   6
   2  -6   7 88.2856 16.1639   4
   2  -6   7 97.7836 14.5859   3
   2   6   7 76.0384 12.4866   6
   2   6   7 92.5244 14.6944   5
  -2   6  -7 98.1934 12.7870   7
   3  -6   7 39.0089 15.4126   4
   3  -6   7 43.6879 10.2449   3
  -3  -6  -7 28.5951 11.1816   7
   3  -6   7 38.4998 10.1457   6
   3   6   7 32.5351 11.1514   6
   3   6   7 50.5092 10.7322   5
  -3   6  -7 48.7483 10.9380   7
   4  -7  -7 193.969 18.6491   3
   4  -7  -7 208.040 21.4684   4
  -4  -7   7 196.310 19.1914   6
  -4   7   7 177.277 17.1230   5
  -4   7   7 188.698 19.8106   6
   4   7  -7 190.933 16.9258   7
  -3  -7   7 117.565 15.6958   3
   3  -7  -7 136.573 17.5180   4
  -3  -7   7 86.5088 12.4571   6
   3  -7  -7 114.925 14.5203   3
   3   7  -7 117.970 13.5152   7
  -3   7   7 104.976 13.8248   5
  -3   7   7 95.4938 16.3546   6
  -2  -7   7 3.06684 11.2518   3
   2  -7  -7 5.52620 9.28048   3
  -2  -7   7 11.0184 11.3006   6
   2   7  -7 27.0035 11.7802   7
  -2   7   7 7.87553 9.16054   6
  -2   7   7 22.9394 13.1497   5
   1  -7  -7 322.988 19.8894   3
  -1  -7   7 383.058 25.5858   3
  -1  -7   7 372.876 21.6459   6
   1   7  -7 329.441 21.2512   7
  -1   7   7 330.060 22.5918   5
  -1   7   7 380.363 22.6488   6
   0  -7   7 186.732 19.2655   4
   0  -7   7 197.720 17.3956   3
   0  -7   7 196.615 18.1365   6
   0   7  -7 209.886 18.2063   7
   0   7   7 189.262 19.7972   5
   0   7   7 194.916 16.9156   6
 -10   0   8 5.14810 11.6738   7
  10   0  -8 11.8959 8.36378   6
  10   0  -8 -0.9719 21.0505   4
  10   0  -8 9.31209 9.00749   2
 -10   0   8 8.38073 12.4578   5
 -10   0   8 -1.9580 14.2675   1
  -9   0   8 0.79552 8.14878   5
   9   0  -8 0.50426 7.40581   7
   9   0  -8 -14.869 10.5112   2
  -9   0   8 19.7975 13.5668   1
   9   0  -8 -4.7394 9.79299   6
  -9   0   8 -2.0073 7.06547   7
   8   0  -8 588.350 29.9796   7
  -8   0   8 653.931 34.7882   1
   8   0  -8 656.699 30.0119   6
   8   0  -8 631.703 27.6120   2
  -8   0   8 668.480 31.7565   5
  -8   0   8 649.027 28.5823   7
  -8   0   8 663.338 28.5411   6
   7   0  -8 2.75736 7.22491   7
  -7   0   8 11.7612 9.31884   7
  -7   0   8 -1.8257 9.12568   6
   7   0  -8 -0.5502 5.91415   2
   7   0  -8 -7.0644 5.45191   6
  -7   0   8 7.62137 10.0690   5
  -7   0   8 7.23144 8.18065   1
   6   0  -8 779.594 33.1347   7
  -6   0   8 788.328 33.8373   1
   6   0  -8 806.788 30.9475   2
  -6   0   8 794.367 32.2727   5
   6   0  -8 811.782 31.9339   6
  -6   0   8 754.534 30.5694   7
  -6   0   8 805.702 31.4704   6
   5   0  -8 -7.1072 6.53695   7
  -5   0   8 2.44581 6.41533   6
  -5   0   8 -8.0687 8.82506   5
   5   0  -8 -3.9771 4.73839   6
  -5   0   8 -2.4342 7.25463   7
   5   0  -8 -3.0397 6.55330   2
   4   0  -8 689.412 27.1384   6
   4   0  -8 695.767 29.3067   7
  -4   0   8 768.571 27.6554   7
  -4   0   8 670.908 28.9506   6
  -4   0   8 670.769 29.5723   5
   4   0  -8 748.526 26.3075   2
   3   0  -8 0.91844 3.63440   6
  -3   0   8 -5.3050 7.30386   6
   3   0  -8 -3.6581 4.70422   2
  -3   0   8 0.71284 7.79144   5
   3   0  -8 9.59052 7.88056   7
  -3   0   8 1.96596 3.70894   7
  -2   0   8 1144.21 39.8829   5
  -2   0   8 1180.86 39.5477   6
   2   0  -8 1118.87 36.8952   6
   2   0  -8 1172.23 39.4553   7
  -2   0   8 1177.67 36.7465   7
   2   0  -8 1161.96 36.4131   2
   1   0  -8 0.91517 5.92993   7
   1   0  -8 3.16338 3.21737   2
  -1   0   8 2.82391 5.66831   6
  -1   0   8 -0.1657 4.67149   5
   0   0  -8 189.624 7.00264   2
   0   0   8 192.092 11.1599   6
   0   0  -8 202.614 11.4732   7
   0   0   8 205.486 13.0259   5
   1   0   8 3.64224 3.82743   6
   1   0   8 -1.0689 5.00198   5
  -1   0  -8 -0.3323 3.89741   7
   2   0   8 1054.50 37.9742   5
  -2   0  -8 1267.32 36.7555   7
   2   0   8 1205.56 36.6171   6
  -3   0  -8 -1.0726 2.62091   7
   3   0   8 0.32660 2.92153   6
   3   0   8 -8.7531 9.96736   4
   4   0   8 157.146 16.6562   4
   4   0   8 149.675 6.64970   6
  -4   0  -8 156.365 6.74693   7
   5   0   8 15.5047 11.7014   4
   6   0   8 198.009 19.9300   4
 -10  -1   8 0.78729 11.6517   7
 -10  -1   8 25.8387 10.1947   5
  10  -1  -8 6.83120 15.3281   4
  10  -1  -8 26.3530 13.2132   2
 -10  -1   8 9.14525 15.3199   1
  10  -1  -8 17.6161 9.02468   6
  10   1  -8 29.0297 11.9267   6
  10   1  -8 30.7014 15.8960   4
 -10   1   8 7.83841 11.9271   7
  10   1  -8 21.3809 13.1535   2
 -10   1   8 26.4061 12.5872   5
  -9  -1   8 202.750 18.9334   5
  -9  -1   8 201.753 19.2483   1
   9  -1  -8 193.702 17.5699   6
   9  -1  -8 204.154 16.1150   7
   9  -1  -8 180.883 17.2861   2
  -9  -1   8 190.380 18.0073   7
   9   1  -8 200.819 16.1927   2
   9   1  -8 197.876 17.1519   7
  -9   1   8 199.190 16.4290   7
   9   1  -8 195.458 16.2464   6
  -9   1   8 218.796 17.4831   5
   8  -1  -8 106.927 14.1925   7
  -8  -1   8 105.583 12.2780   7
   8  -1  -8 107.126 13.3259   2
  -8  -1   8 119.779 14.6570   1
   8  -1  -8 130.445 12.7996   6
  -8  -1   8 107.170 11.7312   6
  -8  -1   8 130.631 15.6481   5
  -8   1   8 119.137 14.2703   6
   8   1  -8 95.8175 13.4345   6
  -8   1   8 124.246 13.1001   5
  -8   1   8 113.531 14.1083   7
   8   1  -8 121.210 14.2765   7
   8   1  -8 127.608 12.3704   2
   7  -1  -8 31.5976 10.0226   6
  -7  -1   8 2.55685 12.0885   1
   7  -1  -8 25.1489 7.06091   2
  -7  -1   8 38.0088 8.53043   7
   7  -1  -8 40.9691 11.7094   7
  -7  -1   8 23.3708 10.0127   6
  -7  -1   8 26.8655 11.4717   5
   7   1  -8 28.9912 10.9180   7
  -7   1   8 29.4046 7.99174   7
   7   1  -8 25.1621 9.80447   2
  -7   1   8 18.4957 7.89518   6
   7   1  -8 24.8886 9.82173   6
  -7   1   8 24.1325 8.53129   5
   6  -1  -8 34.4355 8.76147   2
  -6  -1   8 27.4640 10.8366   5
  -6  -1   8 24.7390 10.3024   6
   6  -1  -8 38.5291 9.56918   6
  -6  -1   8 32.2944 9.64308   1
   6  -1  -8 41.0525 11.5433   7
  -6  -1   8 56.0009 10.7001   7
   6   1  -8 23.4067 8.93554   2
  -6   1   8 37.4721 10.7193   5
  -6   1   8 18.0937 10.0025   6
   6   1  -8 41.4701 8.84791   7
   6   1  -8 41.0172 9.62333   6
  -6   1   8 39.3820 8.00618   7
  -5  -1   8 980.709 35.1191   7
  -5  -1   8 949.206 36.7056   5
   5  -1  -8 980.770 33.6369   2
   5  -1  -8 975.972 35.7339   6
   5  -1  -8 1025.37 37.9489   7
  -5  -1   8 971.472 35.8956   6
  -5  -1   8 966.351 39.5888   1
   5   1  -8 956.250 35.8932   6
  -5   1   8 935.114 37.3994   5
   5   1  -8 942.462 34.8478   2
   5   1  -8 961.250 35.6987   7
  -5   1   8 938.431 34.6874   7
  -5   1   8 1019.13 37.5897   6
  -4  -1   8 56.1594 8.13319   6
   4  -1  -8 51.5883 10.4473   7
  -4  -1   8 65.9055 9.34031   1
   4  -1  -8 49.7371 8.05565   6
  -4   1   8 55.2430 10.2898   6
   4   1  -8 69.2438 10.5501   7
   4   1  -8 61.2051 7.25317   6
  -4   1   8 62.8469 8.61374   7
  -3  -1   8 76.7639 8.16491   7
  -3  -1   8 78.1659 9.94057   6
  -3  -1   8 80.9697 10.6224   5
   3  -1  -8 64.7543 8.31732   7
   3  -1  -8 78.8537 6.84725   2
   3  -1  -8 73.7276 7.71167   6
  -3   1   8 61.0263 8.28925   6
   3   1  -8 71.1816 10.0247   7
  -3   1   8 71.1870 7.66147   7
   3   1  -8 79.3615 7.79691   2
  -3   1   8 75.1550 9.00797   5
   3   1  -8 84.1166 8.10659   6
  -2  -1   8 312.604 13.3796   7
   2  -1  -8 292.624 17.3742   7
  -2  -1   8 300.099 16.2086   6
   2  -1  -8 296.891 12.0306   2
  -2  -1   8 297.100 17.5595   5
   2  -1  -8 309.239 12.9520   6
  -2   1   8 311.878 12.8654   7
   2   1  -8 307.014 16.5698   7
   2   1  -8 284.122 13.2003   6
   2   1  -8 313.847 13.6918   2
  -2   1   8 328.165 17.0779   6
  -2   1   8 291.123 17.9688   5
   1  -1  -8 698.590 26.4032   7
  -1  -1   8 680.161 25.5762   6
  -1  -1   8 695.518 26.7881   5
  -1   1   8 705.432 26.3051   6
   1   1  -8 723.638 25.9127   7
  -1   1   8 671.828 27.4590   5
   1   1  -8 701.917 23.3343   2
   0  -1  -8 -3.0474 5.59151   7
   0  -1   8 -0.3431 5.35474   5
   0  -1   8 3.14595 4.83475   6
   0   1  -8 14.9608 5.31739   7
   0   1   8 7.57956 5.42905   6
   0   1   8 7.55249 6.37872   5
  -1  -1  -8 193.595 12.2012   7
   1  -1   8 213.341 11.3915   6
   1  -1   8 203.289 11.6629   5
   1   1   8 203.022 11.1675   6
   1   1   8 213.738 11.8912   5
  -1   1  -8 198.571 10.6809   7
   2  -1   8 1203.37 45.4537   4
  -2  -1  -8 1210.96 38.4172   7
   2  -1   8 1191.99 38.1790   6
   2  -1   8 1201.98 38.6801   5
   2   1   8 1232.14 40.7574   5
   2   1   8 1232.66 38.4977   6
  -2   1  -8 1288.53 38.3973   7
   3  -1   8 264.832 11.0086   6
  -3   1  -8 277.742 11.1068   7
   3   1   8 270.557 14.0281   5
   4  -1   8 223.782 9.28186   6
   4  -1   8 197.438 17.8882   4
  -4  -1  -8 217.131 9.21525   7
  -4   1  -8 226.708 8.98510   7
   4   1   8 214.872 9.18538   6
   5  -1   8 72.7722 5.08349   6
   5  -1   8 96.0271 15.5968   4
   5   1   8 71.7407 5.21459   6
   6  -1   8 275.702 10.0749   6
   6  -1   8 257.450 23.4733   4
   6   1   8 261.349 22.4840   4
 -10  -2   8 334.180 25.6655   7
  10  -2  -8 301.850 21.0443   6
 -10  -2   8 349.569 29.2822   1
  10  -2  -8 361.946 33.9041   4
  10   2  -8 378.060 31.4653   4
 -10   2   8 300.539 24.7417   7
  10   2  -8 278.932 23.7624   6
 -10   2   8 313.961 20.7370   5
  10   2  -8 346.485 24.6007   2
   9  -2  -8 115.050 13.4841   6
  -9  -2   8 110.847 19.2295   1
   9  -2  -8 109.493 14.9691   2
   9  -2  -8 102.180 12.5421   7
   9  -2  -8 134.051 25.7273   4
  -9  -2   8 94.7670 14.6949   7
   9   2  -8 113.646 15.5373   2
   9   2  -8 122.162 12.5455   7
  -9   2   8 93.8765 14.7427   5
  -9   2   8 121.544 15.2729   7
   9   2  -8 114.207 15.1707   6
  -8  -2   8 46.1915 11.9469   6
   8  -2  -8 65.8818 10.4455   7
  -8  -2   8 69.0186 13.2198   1
   8  -2  -8 59.2966 12.3438   6
  -8  -2   8 59.6431 12.7277   7
   8  -2  -8 56.7419 9.72068   2
   8   2  -8 65.5544 12.4891   7
   8   2  -8 48.8929 9.59649   6
  -8   2   8 64.7961 12.7415   5
  -8   2   8 74.3602 10.6780   7
   8   2  -8 68.7424 12.7039   2
  -8   2   8 52.2433 12.2516   6
   7  -2  -8 423.627 23.9105   6
  -7  -2   8 461.352 24.7219   6
  -7  -2   8 413.354 29.2259   1
   7  -2  -8 448.810 21.3515   2
   7  -2  -8 440.222 25.8052   7
  -7  -2   8 451.129 22.5671   7
  -7   2   8 468.128 24.8817   7
  -7   2   8 427.800 24.9823   6
  -7   2   8 470.247 23.3676   5
   7   2  -8 474.688 24.3529   2
   7   2  -8 465.015 25.2624   7
   7   2  -8 426.585 24.1335   6
  -6  -2   8 376.208 26.4007   1
  -6  -2   8 356.725 19.5131   7
   6  -2  -8 388.233 23.9017   7
  -6  -2   8 374.595 21.8738   6
   6  -2  -8 384.253 21.2359   6
   6  -2  -8 381.652 18.2720   2
   6   2  -8 382.489 22.9586   7
  -6   2   8 398.529 22.7805   6
  -6   2   8 346.167 22.5223   5
   6   2  -8 372.397 18.9083   2
   6   2  -8 375.951 21.2706   6
  -6   2   8 356.065 19.0587   7
  -5  -2   8 108.571 12.1423   7
   5  -2  -8 122.942 11.9966   7
  -5  -2   8 120.489 14.7605   1
   5  -2  -8 109.013 11.4823   6
   5  -2  -8 99.4755 10.3048   2
  -5  -2   8 130.946 12.9933   6
   5   2  -8 111.114 9.80783   2
   5   2  -8 123.736 10.9433   6
  -5   2   8 116.245 13.1698   5
  -5   2   8 132.490 12.0562   7
   5   2  -8 103.822 13.0211   7
  -5   2   8 109.916 11.3201   6
   4  -2  -8 561.865 25.4406   7
  -4  -2   8 595.740 26.6195   6
  -4  -2   8 636.198 25.7816   7
  -4  -2   8 613.218 27.4155   1
   4  -2  -8 609.567 24.6543   6
   4   2  -8 602.427 24.1586   6
   4   2  -8 648.205 26.9561   7
  -4   2   8 619.725 26.1005   5
  -4   2   8 581.465 27.0708   6
  -4   2   8 543.605 24.1301   7
   4   2  -8 641.709 24.9549   2
  -3  -2   8 1152.45 40.3178   7
   3  -2  -8 1221.00 42.7501   7
  -3  -2   8 1151.83 43.5260   1
  -3  -2   8 1230.35 41.8892   6
   3  -2  -8 1171.19 39.6928   6
   3   2  -8 1191.80 40.4245   6
  -3   2   8 1328.11 42.2298   6
  -3   2   8 1170.32 39.5682   7
   3   2  -8 1173.72 39.8414   2
   3   2  -8 1167.65 41.6327   7
  -3   2   8 1190.78 42.2033   5
  -2  -2   8 14.9713 7.24543   6
  -2  -2   8 12.6123 5.23139   7
   2  -2  -8 4.99873 6.04681   7
  -2  -2   8 28.1441 8.24809   1
  -2   2   8 12.0023 4.27421   7
  -2   2   8 15.0325 8.09070   6
   2   2  -8 8.02796 7.40214   7
  -2   2   8 11.3056 8.30857   5
   1  -2  -8 239.664 15.5517   7
  -1  -2   8 249.139 15.0028   5
  -1  -2   8 223.172 13.9115   6
  -1   2   8 214.492 14.6734   6
   1   2  -8 208.573 12.2162   7
  -1   2   8 217.911 16.4285   5
   0  -2   8 574.943 22.1033   6
   0  -2  -8 559.972 22.8690   7
   0  -2   8 563.301 22.5408   5
   0   2   8 582.155 24.7994   5
   0   2  -8 569.702 22.0808   7
   0   2   8 563.653 22.6861   6
   1  -2   8 961.455 32.4432   6
   1  -2   8 944.819 38.0563   4
   1  -2   8 945.497 32.2091   5
  -1  -2  -8 990.985 33.4565   7
   1  -2   8 932.236 35.2455   3
   1   2   8 973.768 35.2348   5
   1   2   8 984.760 32.9032   6
  -1   2  -8 981.098 32.5085   7
  -2  -2  -8 697.227 24.8721   7
   2  -2   8 671.065 30.7597   4
   2  -2   8 663.743 27.6172   3
   2  -2   8 653.481 23.8852   6
  -2   2  -8 734.410 24.2352   7
   2   2   8 674.898 26.3735   5
   2   2   8 704.594 24.7451   6
  -3  -2  -8 10.4859 5.13190   7
   3  -2   8 32.0511 12.3865   4
   3  -2   8 9.83852 4.51462   6
   3  -2   8 17.3908 7.36699   3
   3   2   8 12.5058 4.89765   6
  -3   2  -8 11.0305 4.07289   7
   3   2   8 10.4683 7.01125   5
   4  -2   8 926.139 41.6635   4
   4  -2   8 912.516 29.9530   6
   4  -2   8 846.713 33.1371   3
  -4   2  -8 943.275 29.9427   7
   4   2   8 921.771 32.5676   5
   4   2   8 918.422 29.7953   6
   5  -2   8 1221.47 39.0100   6
   5  -2   8 1257.99 43.8448   3
   5  -2   8 1214.08 49.9072   4
   5   2   8 1260.39 38.7525   6
  -5   2  -8 1237.28 38.9535   7
   6  -2   8 849.782 28.5554   6
   6  -2   8 867.795 43.6591   4
   6   2   8 877.742 28.2085   6
  -9  -3   8 536.107 32.9530   1
  -9  -3   8 549.119 27.4655   7
   9  -3  -8 580.262 43.3429   4
   9  -3  -8 520.422 29.8931   6
  -9   3   8 579.066 30.5656   7
  -9   3   8 509.867 26.8260   5
   9   3  -8 544.826 30.1559   2
   8  -3  -8 46.8419 17.4875   4
  -8  -3   8 43.8309 16.3997   1
  -8  -3   8 19.1445 11.4466   7
  -8  -3   8 53.7849 12.2121   6
   8  -3  -8 21.0550 8.60149   6
  -8   3   8 35.0385 12.1118   6
   8   3  -8 34.9611 11.9668   7
  -8   3   8 24.9669 11.4720   7
  -8   3   8 13.9801 8.62964   5
   8   3  -8 29.8561 12.6868   2
   7  -3  -8 73.6137 10.3858   6
  -7  -3   8 76.0917 10.7314   6
  -7  -3   8 83.4641 13.1404   7
   7  -3  -8 93.0420 14.5011   7
  -7  -3   8 94.8346 16.6633   1
   7   3  -8 70.6745 13.0902   7
  -7   3   8 75.4584 13.4528   6
  -7   3   8 75.7211 12.7261   7
  -7   3   8 85.9920 13.4469   5
   7   3  -8 89.9273 11.0543   2
  -6  -3   8 1576.75 56.8549   1
   6  -3  -8 1561.56 55.4664   7
  -6  -3   8 1509.89 53.5213   6
   6  -3  -8 1570.84 54.1619   6
  -6  -3   8 1399.04 53.4958   7
  -6   3   8 1517.98 53.9571   6
  -6   3   8 1571.06 55.3727   5
   6   3  -8 1605.56 53.7047   2
   6   3  -8 1550.94 54.6797   7
  -6   3   8 1611.78 53.2424   7
   5  -3  -8 1088.07 40.3916   6
   5  -3  -8 1089.71 42.7445   7
  -5  -3   8 1092.78 44.9271   1
  -5  -3   8 1139.44 40.8775   6
  -5  -3   8 1122.55 41.0302   7
   5   3  -8 1121.41 41.7346   7
  -5   3   8 1116.78 40.4791   7
  -5   3   8 1123.79 42.6182   5
   5   3  -8 1078.43 39.0141   2
  -5   3   8 1100.82 41.0258   6
  -4  -3   8 801.715 34.0207   1
   4  -3  -8 824.901 31.6233   6
  -4  -3   8 819.279 32.0903   6
  -4  -3   8 818.596 32.4075   7
   4  -3  -8 932.242 35.4393   7
  -4   3   8 873.753 31.8869   7
  -4   3   8 790.753 32.8853   5
   4   3  -8 865.361 33.7932   7
  -4   3   8 817.768 34.1167   6
  -3  -3   8 83.1386 9.93128   7
   3  -3  -8 68.3284 8.53479   6
  -3  -3   8 64.7354 8.64570   6
  -3  -3   8 73.6052 11.6971   1
   3  -3  -8 89.1374 10.3940   7
  -3   3   8 79.4209 9.99856   6
  -3   3   8 92.5193 12.1736   5
   3   3  -8 65.5996 8.88763   7
  -3   3   8 78.9753 8.63558   7
   2  -3  -8 732.959 28.6596   7
  -2  -3   8 792.194 28.4041   7
  -2  -3   8 697.176 29.9906   1
  -2  -3   8 722.897 29.0423   6
   2   3  -8 721.327 29.1282   7
  -2   3   8 716.894 28.4778   6
  -2   3   8 744.302 29.6087   5
  -1  -3   8 1906.69 61.1189   6
   1  -3  -8 1856.04 61.5593   7
  -1  -3   8 1895.52 63.0416   3
   1   3  -8 1917.77 60.9434   7
  -1   3   8 1926.28 63.2290   5
  -1   3   8 1904.58 61.6199   6
   0  -3  -8 1458.48 48.3262   7
   0  -3   8 1382.86 49.8494   3
   0  -3   8 1490.44 47.8627   6
   0  -3   8 1426.28 47.6428   5
   0   3  -8 1426.91 47.5829   7
   0   3   8 1466.98 50.3032   5
   0   3   8 1462.43 48.1533   6
  -1  -3  -8 38.3754 7.97212   7
   1  -3   8 30.3881 7.20461   3
   1  -3   8 25.0529 9.21837   4
   1  -3   8 37.5528 6.69881   5
   1  -3   8 33.4851 6.90893   6
  -1   3  -8 45.8279 7.39499   7
   1   3   8 38.7667 7.36339   5
   1   3   8 35.9958 7.27781   6
   2  -3   8 76.3547 12.2881   4
   2  -3   8 52.7796 7.22922   6
   2  -3   8 105.558 11.5813   3
   2   3   8 119.933 11.8960   5
   2   3   8 81.2033 8.17332   6
   3  -3   8 1756.90 64.5192   4
   3  -3   8 1757.26 55.0861   6
   3  -3   8 1707.97 58.3860   3
   3   3   8 1716.30 55.1770   6
   3   3   8 1776.53 58.5344   5
  -3   3  -8 1747.16 54.9919   7
   4  -3   8 287.088 18.5103   3
   4  -3   8 284.770 13.6994   6
   4  -3   8 308.277 25.3560   4
   4   3   8 288.780 18.2636   5
   4   3   8 256.166 14.4554   6
  -4   3  -8 278.785 13.8026   7
   5  -3   8 21.7390 6.06204   6
   5  -3   8 15.5108 11.0274   4
   5  -3   8 23.4354 9.23915   3
  -5   3  -8 22.4351 6.50086   7
   5   3   8 18.6484 5.36058   6
   9  -4  -8 69.7842 16.0313   3
  -9  -4   8 63.4470 16.6455   1
   9  -4  -8 53.2674 14.2926   6
  -9  -4   8 63.0103 14.8215   7
   9  -4  -8 91.1993 26.2457   4
  -9   4   8 41.3478 13.9173   5
  -9   4   8 61.7464 14.6943   7
   9   4  -8 77.6108 13.3837   2
  -8  -4   8 1505.40 61.0679   1
   8  -4  -8 1421.37 65.0215   4
   8  -4  -8 1453.78 53.4427   6
  -8  -4   8 1395.18 54.1735   7
  -8   4   8 1419.64 55.7303   6
   8   4  -8 1521.11 54.0830   7
  -8   4   8 1448.64 54.5790   5
   8   4  -8 1448.48 52.8194   2
  -8   4   8 1445.11 54.3521   7
   7  -4  -8 677.774 31.3168   6
  -7  -4   8 654.344 31.2432   6
   7  -4  -8 660.669 44.2357   4
  -7  -4   8 627.920 29.1091   7
  -7  -4   8 659.640 37.8495   1
  -7   4   8 645.996 31.2820   7
   7   4  -8 677.485 31.7478   2
  -7   4   8 653.463 32.1330   6
   7   4  -8 611.354 29.0346   7
  -7   4   8 624.058 29.8094   5
  -6  -4   8 358.939 29.0311   1
  -6  -4   8 416.690 24.1352   6
  -6  -4   8 391.451 23.7479   7
   6  -4  -8 413.202 21.1453   6
  -6   4   8 383.779 23.1181   7
  -6   4   8 370.209 24.5284   6
   6   4  -8 418.692 22.0828   7
  -6   4   8 422.057 22.7050   5
   6   4  -8 381.554 20.9683   2
  -5  -4   8 60.7578 11.5724   6
  -5  -4   8 35.7271 13.1582   1
  -5   4   8 49.2396 9.48510   6
   5   4  -8 46.1514 11.3648   7
  -4  -4   8 2186.94 74.9948   1
  -4  -4   8 2202.90 71.0866   7
   4  -4  -8 2165.72 70.6101   6
  -4  -4   8 2281.03 72.9309   6
  -4   4   8 2248.98 73.2659   5
  -4   4   8 2226.37 71.0471   7
   4   4  -8 2259.10 72.6661   7
  -4   4   8 2099.15 73.0821   6
  -3  -4   8 659.070 28.0428   7
  -3  -4   8 659.362 29.6733   6
  -3  -4   8 657.596 31.4671   1
   3   4  -8 769.222 30.2773   7
  -3   4   8 666.433 30.2666   6
  -3   4   8 690.483 26.9455   7
  -3   4   8 679.724 29.3303   5
  -2  -4   8 975.856 36.0166   6
  -2  -4   8 871.323 36.1442   1
  -2  -4   8 934.005 36.9195   3
  -2   4   8 933.996 35.3388   6
   2   4  -8 982.071 36.0382   7
  -2   4   8 910.919 36.2313   5
  -1  -4   8 161.626 13.3542   6
  -1  -4   8 174.195 13.7416   1
  -1  -4   8 164.023 14.8506   3
  -1   4   8 147.220 13.3844   6
  -1   4   8 161.571 14.1456   5
   1   4  -8 161.232 13.4975   7
   0  -4   8 289.777 19.8743   3
   0  -4   8 286.646 22.5965   4
   0  -4   8 259.396 16.6341   6
   0   4   8 283.112 15.7669   6
   0   4   8 290.990 17.9424   5
   0   4  -8 286.927 17.3806   7
   1  -4   8 270.727 16.1829   6
   1  -4   8 282.009 19.5183   3
   1  -4   8 288.348 20.1646   4
   1   4   8 273.082 20.2157   5
  -1   4  -8 276.258 16.7665   7
   1   4   8 274.333 16.8473   6
   2  -4   8 1267.45 50.7544   4
   2  -4   8 1210.58 42.6344   6
   2  -4   8 1237.42 45.4094   3
   2   4   8 1241.43 45.0605   5
  -2   4  -8 1251.27 42.7847   7
   2   4   8 1273.55 43.1672   6
   3  -4   8 206.548 19.5710   4
   3  -4   8 199.402 16.7483   3
   3  -4   8 174.730 13.1685   6
  -3   4  -8 207.005 14.1385   7
   3   4   8 197.945 14.1115   6
   3   4   8 220.770 17.0292   5
   4  -4   8 59.9873 8.05578   6
   4  -4   8 51.6333 11.5290   3
   4  -4   8 62.9703 13.7087   4
   4   4   8 68.4055 9.77752   6
   4   4   8 49.6057 11.2727   5
  -4   4  -8 54.7871 8.34131   7
  -7  -5   8 220.595 18.5135   7
  -7  -5   8 251.633 23.0382   1
   7  -5  -8 190.549 23.0702   4
   7  -5  -8 228.533 19.4434   6
   7  -5  -8 196.545 17.7685   3
  -7  -5   8 215.333 19.1835   6
   7   5  -8 226.749 19.4253   2
  -7   5   8 242.579 20.3189   5
  -7   5   8 195.092 17.4603   7
   7   5  -8 235.233 18.6921   7
  -7   5   8 235.066 20.4618   6
  -6  -5   8 105.955 14.5189   7
  -6  -5   8 132.452 16.7226   1
   6  -5  -8 126.723 23.6203   4
   6  -5  -8 114.539 16.2169   3
  -6  -5   8 130.548 15.3613   6
   6  -5  -8 134.994 13.1952   6
  -6   5   8 121.606 13.7992   5
   6   5  -8 119.386 12.8924   7
  -6   5   8 109.044 14.2512   7
  -6   5   8 97.3054 13.3104   6
  -5  -5   8 659.750 29.9852   7
   5  -5  -8 642.947 28.9242   3
   5  -5  -8 624.194 41.1858   4
  -5  -5   8 570.482 34.2296   1
  -5  -5   8 590.906 29.8773   6
  -5   5   8 653.914 27.5665   7
  -5   5   8 617.719 29.2515   5
   5   5  -8 623.985 28.4563   7
  -5   5   8 611.573 31.6104   6
  -4  -5   8 111.612 12.7116   7
  -4  -5   8 98.9720 15.6949   1
  -4  -5   8 74.4771 12.6309   6
   4  -5  -8 69.7390 10.4782   3
  -4   5   8 91.4504 14.1997   6
  -4   5   8 91.9833 11.7460   7
   4   5  -8 64.6086 10.7558   7
  -4   5   8 93.3755 14.0183   5
   3  -5  -8 -2.0339 8.71497   3
  -3  -5   8 -8.7059 10.3768   1
  -3  -5   8 16.9105 7.57742   6
  -3   5   8 -9.6088 10.0966   6
  -3   5   8 5.32723 10.8731   5
   3   5  -8 -1.1172 6.75065   7
   2  -5  -8 15.8814 8.87283   3
  -2  -5   8 27.8482 8.54805   3
  -2  -5   8 25.8479 10.0327   1
  -2  -5   8 48.3753 10.3773   6
   2   5  -8 32.0390 10.4062   7
   1  -5  -8 723.755 28.1967   3
  -1  -5   8 702.961 30.2406   6
  -1  -5   8 690.150 30.3398   3
   1   5  -8 702.832 30.2680   7
  -1   5   8 718.635 31.2463   6
  -1   5   8 670.188 32.5527   5
   0  -5   8 -19.371 9.39165   3
   0  -5   8 7.38446 6.02181   6
   0  -5  -8 3.81850 6.08720   3
   0  -5   8 6.89313 8.15056   4
   0   5  -8 -4.8755 8.19640   7
   0   5   8 9.45997 6.81545   6
   0   5   8 -4.6404 6.97864   5
   1  -5   8 62.0444 11.8223   4
   1  -5   8 81.2063 13.1827   3
   1  -5   8 75.7241 10.5922   6
   1   5   8 89.0412 13.5603   5
   1   5   8 64.3455 9.27809   6
  -1   5  -8 87.0643 11.3958   7
   2  -5   8 83.6498 11.3779   3
   2  -5   8 79.1567 15.9882   4
   2  -5   8 54.2332 9.46017   6
   2   5   8 63.8559 10.3184   6
  -2   5  -8 60.4849 8.62048   7
   2   5   8 60.9809 10.4887   5
   3  -5   8 154.812 16.3197   3
   3  -5   8 132.809 12.2605   6
   3  -5   8 135.015 16.8964   4
   3   5   8 108.581 12.7855   5
  -3   5  -8 118.812 12.2576   7
   3   5   8 97.8026 12.1524   6
   6  -6  -8 15.1954 12.7732   3
  -6  -6   8 -15.529 10.9447   6
  -6  -6   8 -10.067 10.9517   7
   6  -6  -8 16.6369 19.5686   4
  -6  -6   8 10.6610 11.4926   1
  -6   6   8 10.0835 11.1671   7
  -6   6   8 18.1332 10.3737   6
  -6   6   8 6.34808 9.20745   5
   6   6  -8 3.38218 12.0553   7
  -5  -6   8 60.8041 10.2131   7
   5  -6  -8 44.1124 12.6660   3
   5  -6  -8 14.6782 13.4928   4
  -5  -6   8 74.7645 13.8211   6
  -5  -6   8 33.2191 15.2052   1
   5   6  -8 11.0420 9.07620   7
  -5   6   8 76.3781 11.5685   5
  -5   6   8 50.0973 11.4312   7
  -5   6   8 51.5263 14.3270   6
   4  -6  -8 47.3108 18.7660   4
   4  -6  -8 28.1451 11.6232   3
  -4  -6   8 41.3554 11.2048   1
  -4  -6   8 42.7683 12.6421   6
  -4   6   8 20.0571 12.9385   6
  -4   6   8 52.9167 10.8975   5
   4   6  -8 24.2432 9.14489   7
   3  -6  -8 0.43274 9.45465   3
   3  -6  -8 -15.390 15.9384   4
  -3  -6   8 17.3515 8.66075   3
  -3  -6   8 7.12926 11.4456   1
  -3  -6   8 3.38655 7.40290   6
  -3   6   8 18.7737 12.5362   6
   3   6  -8 -13.563 10.3360   7
  -3   6   8 -12.578 11.1265   5
   2  -6  -8 88.3294 11.6875   3
  -2  -6   8 92.1964 12.4023   3
  -2  -6   8 90.8090 13.3977   6
  -2   6   8 94.2069 14.7966   6
   2   6  -8 90.6151 13.5450   7
  -2   6   8 87.3465 12.6021   5
   1  -6  -8 230.124 15.8923   3
  -1  -6   8 220.796 19.1028   6
  -1  -6   8 250.559 19.9142   3
   1   6  -8 184.471 17.0533   7
  -1   6   8 203.745 16.9796   6
  -1   6   8 198.237 18.8311   5
   0  -6   8 1.83743 7.81664   3
   0  -6   8 -5.7127 6.17591   6
   0  -6   8 -1.3240 11.4121   4
   0   6   8 -4.2344 11.4300   5
   0   6  -8 -6.2397 9.66457   7
   0   6   8 -9.1966 10.5099   6
   1  -6   8 104.634 13.1499   6
   1  -6   8 110.955 13.5871   3
   1  -6   8 118.668 15.0171   4
  -1   6  -8 84.1053 12.9279   7
   1   6   8 123.065 14.2261   5
   1   6   8 107.723 12.3001   6
   2  -6   8 -4.6254 8.87409   6
 -10   0   9 9.75115 13.1335   5
 -10   0   9 -7.8264 10.1961   1
  10   0  -9 -1.5517 11.1937   6
  10   0  -9 1.13490 8.74982   2
 -10   0   9 -11.155 11.5622   7
  -9   0   9 1088.53 44.4974   5
  -9   0   9 1253.22 46.6680   6
   9   0  -9 1094.67 43.0131   7
   9   0  -9 1114.96 44.3435   2
   9   0  -9 1086.45 43.4352   6
  -9   0   9 1144.82 47.6733   1
  -9   0   9 1144.82 45.4469   7
   8   0  -9 -6.4489 9.47832   6
  -8   0   9 1.49557 10.7900   6
  -8   0   9 -23.722 12.2938   1
  -8   0   9 -0.9734 10.0789   7
   8   0  -9 1.91400 10.0429   2
   8   0  -9 0.58951 11.3606   7
  -8   0   9 -10.207 7.65587   5
   7   0  -9 1168.73 42.2828   2
  -7   0   9 1170.93 42.4312   7
  -7   0   9 1113.44 43.7048   5
  -7   0   9 1126.45 42.7618   6
   7   0  -9 1185.14 43.6051   6
   7   0  -9 1145.27 44.3423   7
  -6   0   9 -5.4492 6.61659   6
   6   0  -9 -5.0632 7.06452   7
   6   0  -9 -10.423 7.46481   2
  -6   0   9 -1.2222 8.06954   7
   6   0  -9 1.81029 7.90860   6
  -6   0   9 -2.9261 10.0649   5
   5   0  -9 17.1952 7.45664   7
   4   0  -9 6.20064 6.07810   6
   4   0  -9 6.48843 6.71950   7
   4   0  -9 -3.6697 5.70063   2
  -4   0   9 -2.6151 6.19731   7
  -4   0   9 0.90496 6.21805   6
  -4   0   9 -3.2215 8.85287   5
   3   0  -9 3909.21 118.437   7
  -3   0   9 3951.28 120.320   5
  -3   0   9 3869.55 118.766   6
   3   0  -9 3924.67 115.908   2
  -3   0   9 3925.44 116.677   7
   2   0  -9 4.47186 5.39114   7
  -2   0   9 -4.6708 6.85989   6
   2   0  -9 -1.1576 3.57751   2
  -2   0   9 -11.479 7.20382   5
  -1   0   9 -7.3922 6.71082   5
  -1   0   9 9.62616 6.48492   6
   1   0  -9 -11.463 6.34401   7
   1   0  -9 2.02297 3.11909   2
   0   0   9 -3.1710 5.99662   5
   0   0   9 -1.8901 5.22214   6
   0   0  -9 1.92933 5.65815   7
   1   0   9 776.807 28.6081   5
  -1   0  -9 766.933 26.7781   7
   1   0   9 789.948 27.0239   6
  -2   0  -9 -1.8792 4.41424   7
   2   0   9 -0.3181 3.41368   6
   2   0   9 -4.4250 4.69087   5
  -3   0  -9 233.500 10.6826   7
   3   0   9 236.071 10.6507   6
  -4   0  -9 5.11045 3.26372   7
   4   0   9 2.06058 2.93474   6
   5   0   9 426.497 28.2712   4
   5   0   9 404.531 13.9385   6
  10  -1  -9 547.494 28.2575   6
 -10  -1   9 554.463 29.4056   5
  10  -1  -9 551.285 37.7304   4
 -10  -1   9 554.651 33.0483   1
 -10  -1   9 520.774 30.8000   7
  10  -1  -9 567.255 31.2777   2
  10   1  -9 568.504 31.6599   2
 -10   1   9 562.880 31.4434   5
  10   1  -9 547.123 28.1577   6
 -10   1   9 549.452 31.3842   7
   9  -1  -9 115.161 13.2950   6
   9  -1  -9 156.258 16.4445   2
  -9  -1   9 112.830 15.2286   6
   9  -1  -9 136.281 14.1873   7
  -9  -1   9 133.601 14.3313   7
  -9  -1   9 131.480 16.8008   1
  -9  -1   9 124.101 17.4894   5
   9   1  -9 134.077 13.8409   2
  -9   1   9 126.600 18.9764   6
   9   1  -9 113.785 15.4735   7
   9   1  -9 125.347 15.7510   6
  -9   1   9 130.518 14.8182   5
  -9   1   9 123.369 15.9720   7
   8  -1  -9 62.8202 9.77547   2
  -8  -1   9 52.6285 12.6168   7
  -8  -1   9 53.7861 12.2772   1
  -8  -1   9 83.2902 13.3253   6
  -8  -1   9 52.1020 10.8762   5
   8  -1  -9 57.0647 13.6605   7
   8  -1  -9 64.4153 12.2651   6
   8   1  -9 64.0472 10.8710   7
   8   1  -9 77.4224 12.8478   2
  -8   1   9 52.6514 12.3891   7
  -8   1   9 58.9294 13.1746   6
  -8   1   9 57.3957 10.8739   5
   8   1  -9 80.9512 12.7805   6
  -7  -1   9 24.7554 9.11047   5
  -7  -1   9 35.6358 8.74567   6
   7  -1  -9 40.9509 8.55921   6
  -7  -1   9 13.3609 13.1853   1
   7  -1  -9 3.01226 11.5483   7
   7  -1  -9 24.3628 7.09435   2
  -7  -1   9 23.4216 7.96804   7
  -7   1   9 20.7452 11.3025   6
  -7   1   9 27.8138 9.06477   5
  -7   1   9 28.8159 10.8287   7
   7   1  -9 19.1621 11.2986   7
   7   1  -9 34.3501 10.3411   2
   7   1  -9 38.8923 10.4951   6
  -6  -1   9 1262.42 46.0742   7
  -6  -1   9 1303.28 48.3678   5
  -6  -1   9 1279.70 50.1154   1
   6  -1  -9 1269.73 45.8625   6
  -6  -1   9 1311.79 47.4882   6
   6  -1  -9 1301.37 46.2438   7
   6  -1  -9 1255.64 44.2441   2
  -6   1   9 1253.72 47.2581   6
   6   1  -9 1286.18 44.0027   2
   6   1  -9 1281.88 45.2346   6
  -6   1   9 1266.98 46.7835   5
  -6   1   9 1290.22 45.0612   7
   6   1  -9 1280.58 47.1671   7
  -5  -1   9 327.907 19.2335   6
  -5  -1   9 445.666 26.2149   1
   5  -1  -9 398.954 18.7900   2
   5  -1  -9 357.373 20.0049   7
  -5  -1   9 401.700 20.9161   5
   5  -1  -9 319.270 19.1170   6
  -5  -1   9 407.183 18.9031   7
   5   1  -9 414.253 19.5109   2
  -5   1   9 377.588 18.2247   7
  -5   1   9 370.136 22.9266   5
  -5   1   9 330.757 19.3809   6
   5   1  -9 321.178 19.2349   6
   5   1  -9 389.129 22.6411   7
  -4  -1   9 145.221 13.4317   6
   4  -1  -9 152.542 14.0813   7
   4  -1  -9 145.330 11.4456   2
  -4  -1   9 156.488 13.4798   7
  -4  -1   9 147.578 13.2252   5
   4  -1  -9 132.888 10.4339   6
  -4   1   9 144.914 13.7205   6
  -4   1   9 153.781 12.9188   7
  -4   1   9 145.658 12.6797   5
   4   1  -9 156.237 12.4844   7
   4   1  -9 150.589 10.8304   6
   4   1  -9 131.055 10.3536   2
  -3  -1   9 646.543 24.1923   7
   3  -1  -9 675.151 26.7319   7
  -3  -1   9 660.909 29.0224   5
   3  -1  -9 694.886 23.7300   2
  -3  -1   9 680.000 27.7587   6
   3   1  -9 679.140 27.9954   7
  -3   1   9 670.374 24.5067   7
  -3   1   9 666.046 26.7179   6
   3   1  -9 650.991 24.7309   2
  -3   1   9 637.707 27.4686   5
   2  -1  -9 1385.70 42.9774   2
   2  -1  -9 1356.22 47.3543   7
  -2  -1   9 1412.53 48.4647   5
  -2  -1   9 1447.00 46.8712   6
   2   1  -9 1401.43 44.4205   2
  -2   1   9 1425.89 48.9790   5
   2   1  -9 1377.52 46.9925   7
  -2   1   9 1464.17 47.2422   6
  -1  -1   9 12.2585 7.13050   5
  -1  -1   9 19.7399 6.75629   6
   1  -1  -9 22.0275 7.70846   7
  -1   1   9 9.20512 7.30004   6
   1   1  -9 12.5334 4.06019   2
   1   1  -9 14.1483 7.00679   7
  -1   1   9 39.2631 8.60860   5
   0  -1   9 404.954 18.5304   5
   0  -1   9 380.837 17.3440   6
   0  -1  -9 427.466 18.3018   7
   0   1   9 390.441 17.9753   6
   0   1  -9 401.468 14.2883   2
   0   1  -9 395.023 17.6332   7
   0   1   9 377.888 18.2232   5
  -1  -1  -9 792.004 28.9546   7
   1  -1   9 829.820 28.2449   6
   1  -1   9 845.354 29.1199   5
   1   1   9 793.762 30.4755   5
  -1   1  -9 829.376 28.6959   7
   1   1   9 810.482 29.1046   6
  -2  -1  -9 612.124 22.5476   7
   2  -1   9 574.588 21.8425   6
   2   1   9 601.966 22.6785   6
   2   1   9 718.238 25.3865   5
  -2   1  -9 620.230 22.3851   7
   3  -1   9 154.162 9.22176   6
  -3  -1  -9 160.606 9.50950   7
   3  -1   9 163.276 18.2267   4
   3   1   9 150.759 9.27698   6
  -3   1  -9 163.742 9.44391   7
  -4  -1  -9 401.769 15.3810   7
   4  -1   9 410.816 15.3813   6
   4  -1   9 426.223 25.2268   4
  -4   1  -9 412.884 15.4100   7
   4   1   9 406.596 15.2128   6
   5  -1   9 92.1674 6.36062   6
   5  -1   9 95.7266 17.3416   4
   5   1   9 97.9389 6.29118   6
  -9  -2   9 206.107 20.9629   1
   9  -2  -9 183.903 17.6615   2
  -9  -2   9 200.831 18.8443   7
   9  -2  -9 236.308 20.0237   7
   9  -2  -9 186.305 16.6068   6
   9   2  -9 203.346 19.2295   2
   9   2  -9 205.779 19.2347   6
  -9   2   9 215.256 19.0975   7
  -9   2   9 185.884 16.6162   5
   9   2  -9 194.943 17.8490   7
  -8  -2   9 107.750 12.7085   6
   8  -2  -9 101.678 13.0304   7
   8  -2  -9 119.522 13.7773   2
  -8  -2   9 112.729 15.1577   7
   8  -2  -9 116.091 14.3934   6
  -8  -2   9 117.353 15.9371   1
   8   2  -9 116.281 12.9672   6
   8   2  -9 93.1627 11.7038   2
   8   2  -9 114.803 15.4277   7
  -8   2   9 107.011 13.2391   5
  -8   2   9 103.841 12.5500   7
  -8   2   9 125.125 15.5387   6
  -7  -2   9 -8.8646 9.73960   6
   7  -2  -9 6.22294 9.12915   6
   7  -2  -9 13.4054 9.16088   2
  -7  -2   9 1.18615 10.0989   7
  -7  -2   9 19.1883 13.7341   1
   7  -2  -9 5.17690 11.7566   7
  -7   2   9 -6.5285 7.21751   6
   7   2  -9 6.10840 10.7761   7
  -7   2   9 -8.4911 10.0785   5
  -7   2   9 5.72153 7.22339   7
   7   2  -9 4.55206 6.56259   6
   7   2  -9 4.47778 6.97882   2
   6  -2  -9 274.085 22.7971   7
   6  -2  -9 330.200 18.2794   6
  -6  -2   9 340.906 21.2387   7
  -6  -2   9 316.087 25.9378   1
  -6  -2   9 344.590 22.1548   6
   6  -2  -9 371.753 19.2321   2
   6   2  -9 293.084 19.2787   7
  -6   2   9 331.611 22.7529   5
   6   2  -9 341.905 18.5728   6
  -6   2   9 379.442 22.8596   6
   6   2  -9 319.862 17.9017   2
  -6   2   9 321.195 20.5900   7
   5  -2  -9 416.328 21.6566   6
  -5  -2   9 511.623 28.0135   1
   5  -2  -9 425.134 25.0742   7
  -5  -2   9 366.785 21.1032   6
   5   2  -9 518.920 25.2672   7
   5   2  -9 435.545 22.3499   6
  -5   2   9 415.054 22.1403   6
  -5   2   9 468.909 25.0376   5
   5   2  -9 481.327 20.6548   2
  -5   2   9 483.699 20.9562   7
  -4  -2   9 166.802 14.5648   1
  -4  -2   9 178.524 14.6253   6
   4  -2  -9 152.138 15.2021   7
   4  -2  -9 156.099 18.3074   6
  -4  -2   9 170.134 13.1511   7
   4   2  -9 199.009 15.2624   7
  -4   2   9 169.304 14.2242   6
  -4   2   9 169.949 11.4779   7
  -4   2   9 179.329 15.5564   5
   4   2  -9 140.821 11.3512   6
   4   2  -9 158.892 12.2701   2
  -3  -2   9 219.219 19.0431   1
   3  -2  -9 241.525 18.7253   7
  -3  -2   9 222.778 17.8144   7
  -3  -2   9 228.090 16.7153   6
  -3  -2   9 244.123 18.5802   5
  -3   2   9 235.866 18.7244   5
   3   2  -9 236.907 17.4096   7
  -3   2   9 223.378 17.6919   6
   3   2  -9 229.416 14.3497   2
   2  -2  -9 133.361 12.8953   7
  -2  -2   9 137.094 10.9538   6
  -2  -2   9 139.947 11.5121   5
  -2   2   9 129.619 11.6634   6
  -2   2   9 128.848 11.7335   5
   2   2  -9 131.778 11.2469   7
   1  -2  -9 1378.86 47.0122   7
  -1  -2   9 1344.88 46.4674   5
  -1  -2   9 1403.95 46.4883   6
  -1   2   9 1380.14 47.0446   6
  -1   2   9 1418.05 48.7984   5
   1   2  -9 1408.88 46.3486   7
   0  -2   9 532.214 21.5984   6
   0  -2   9 480.879 21.5920   5
   0  -2  -9 503.293 22.1991   7
   0   2   9 522.536 22.1487   6
   0   2   9 549.810 22.9940   5
   0   2  -9 517.999 21.5291   7
   1  -2   9 850.716 29.4837   5
  -1  -2  -9 844.684 30.7228   7
   1  -2   9 866.140 29.8053   6
   1   2   9 846.502 32.6020   5
   1   2   9 837.504 30.0433   6
  -1   2  -9 806.794 29.4679   7
   2  -2   9 85.1754 8.32084   6
  -2  -2  -9 103.028 9.18989   7
   2  -2   9 91.8977 13.3411   4
   2   2   9 98.2960 9.75623   5
  -2   2  -9 95.0143 8.16230   7
   2   2   9 83.9702 8.61029   6
   3  -2   9 324.000 14.0823   6
   3  -2   9 321.886 26.1081   4
   3  -2   9 320.638 18.5169   3
  -3  -2  -9 310.106 14.3326   7
  -3   2  -9 323.807 14.2126   7
   3   2   9 330.897 14.1693   6
   3   2   9 324.003 18.0522   5
   4  -2   9 239.469 14.4849   3
   4  -2   9 212.751 11.5358   6
   4   2   9 236.781 11.7879   6
  -4   2  -9 223.954 11.2438   7
   5  -2   9 1130.37 49.2968   4
   5  -2   9 1176.37 37.4614   6
   5   2   9 1188.16 37.1580   6
  -5   2  -9 1169.46 37.4622   7
  -9  -3   9 130.531 14.7724   7
   9  -3  -9 145.030 22.7641   4
  -9  -3   9 132.277 19.2510   1
   9  -3  -9 115.067 14.0427   6
   9   3  -9 113.218 14.0485   2
  -9   3   9 96.2406 15.9849   5
  -9   3   9 99.1546 15.3156   7
   9   3  -9 122.317 16.1855   7
   9   3  -9 148.734 17.2233   6
   8  -3  -9 222.526 17.6746   6
  -8  -3   9 247.644 22.0145   1
  -8  -3   9 218.483 19.4140   7
   8  -3  -9 222.256 18.4170   7
  -8  -3   9 220.854 17.9370   6
  -8   3   9 247.232 20.6197   5
   8   3  -9 232.113 18.0302   2
  -8   3   9 221.711 19.0867   7
   8   3  -9 253.913 20.2736   7
  -8   3   9 212.298 19.4151   6
  -7  -3   9 587.071 30.0256   6
  -7  -3   9 568.374 31.4717   1
   7  -3  -9 580.478 27.2118   6
   7  -3  -9 626.339 32.0543   7
  -7  -3   9 584.983 27.5218   7
   7   3  -9 579.709 30.4667   7
  -7   3   9 565.854 28.2926   5
   7   3  -9 634.674 29.8578   2
  -7   3   9 615.687 30.7801   6
  -7   3   9 640.067 29.6121   7
  -6  -3   9 361.957 20.6333   7
   6  -3  -9 386.605 25.9290   7
  -6  -3   9 371.841 23.8508   6
  -6  -3   9 410.852 28.8519   1
   6  -3  -9 344.283 21.6760   6
  -6   3   9 402.350 22.7300   7
  -6   3   9 406.053 22.2701   6
   6   3  -9 417.602 22.9168   2
  -6   3   9 440.870 25.2754   5
   6   3  -9 385.608 24.8927   7
   5  -3  -9 559.111 24.4113   6
  -5  -3   9 607.236 28.5245   6
  -5  -3   9 545.171 26.6914   7
  -5  -3   9 573.175 31.1848   1
   5  -3  -9 562.546 29.3444   7
  -5   3   9 585.305 28.8777   6
  -5   3   9 593.013 29.1873   5
   5   3  -9 549.601 24.1895   2
  -5   3   9 584.395 26.1398   7
   5   3  -9 594.558 26.2892   7
  -4  -3   9 165.628 13.8635   6
  -4  -3   9 167.730 15.8844   1
   4  -3  -9 162.345 16.1166   7
  -4  -3   9 180.698 14.2653   7
  -4   3   9 152.788 11.7693   7
  -4   3   9 163.999 14.3834   5
  -4   3   9 160.054 15.4444   6
   4   3  -9 163.220 14.2580   7
   4   3  -9 166.853 13.4947   2
  -3  -3   9 75.2104 11.0510   6
  -3  -3   9 85.1449 11.9607   1
   3  -3  -9 66.5526 12.1214   7
   3   3  -9 67.3916 11.2257   7
  -3   3   9 78.5949 10.6079   5
  -3   3   9 56.6583 11.2117   6
   2  -3  -9 1104.47 41.1852   7
  -2  -3   9 1127.93 40.4584   6
  -2  -3   9 1105.45 41.4535   1
  -2   3   9 1145.18 41.4105   5
   2   3  -9 1108.63 40.1780   7
  -2   3   9 1100.98 40.7430   6
  -1  -3   9 273.041 16.9147   6
  -1  -3   9 282.207 17.7404   5
   1  -3  -9 308.516 19.0313   7
  -1   3   9 283.315 17.8980   6
  -1   3   9 279.464 19.8831   5
   1   3  -9 302.421 17.5441   7
   0  -3   9 152.686 12.8442   6
   0  -3   9 151.357 14.5198   3
   0  -3   9 150.159 12.7075   5
   0  -3  -9 159.115 13.1712   7
   0   3   9 146.464 12.3165   6
   0   3   9 160.773 14.4825   5
   0   3  -9 159.901 12.2385   7
   2  -3   9 562.683 22.4347   6
   2  -3   9 552.804 29.2169   4
   2  -3   9 524.605 26.0154   3
  -2   3  -9 527.887 22.3557   7
   2   3   9 578.995 22.7801   6
   2   3   9 566.490 26.4855   5
   3  -3   9 11.3398 5.32505   6
   3  -3   9 2.49643 8.96544   3
   3  -3   9 -0.1439 12.9349   4
   3   3   9 0.23131 6.76990   6
   3   3   9 0.41764 8.11860   5
  -3   3  -9 4.74830 5.53893   7
   4  -3   9 63.2652 17.5074   4
   4  -3   9 77.8234 7.79550   6
   4  -3   9 67.2381 11.6618   3
   4   3   9 70.7517 10.7046   5
   4   3   9 79.4824 8.59499   6
  -4   3  -9 78.0056 8.17794   7
  -8  -4   9 551.554 27.5770   7
  -8  -4   9 514.851 32.5730   1
  -8  -4   9 542.870 29.8116   6
   8  -4  -9 485.714 36.3356   4
   8  -4  -9 497.702 26.5547   6
  -8   4   9 521.190 30.3904   6
  -8   4   9 555.127 29.8856   7
   8   4  -9 536.672 27.0919   7
   8   4  -9 531.629 30.6950   2
  -8   4   9 491.874 30.1145   5
  -7  -4   9 177.050 19.3937   1
  -7  -4   9 135.401 16.5306   6
   7  -4  -9 200.810 17.5721   6
  -7  -4   9 190.567 18.0863   7
   7   4  -9 140.367 16.6353   7
  -7   4   9 186.574 18.6208   6
  -7   4   9 177.982 16.5660   5
  -7   4   9 176.325 17.0940   7
   7   4  -9 154.450 14.8563   2
   6  -4  -9 53.1921 9.17796   6
  -6  -4   9 66.6781 12.3546   7
  -6  -4   9 51.1158 15.1936   1
  -6  -4   9 49.3544 9.87080   6
  -6   4   9 68.8127 11.7022   7
   6   4  -9 46.0403 12.5087   7
   6   4  -9 31.6394 8.83248   2
  -6   4   9 59.1196 10.7869   5
  -5  -4   9 481.181 29.8386   1
  -5  -4   9 452.744 25.6268   6
  -5  -4   9 474.570 24.8189   7
  -5   4   9 414.751 23.6304   6
   5   4  -9 494.765 25.0542   2
  -5   4   9 442.578 24.2663   5
  -5   4   9 440.666 21.6597   7
   5   4  -9 464.922 26.2684   7
  -4  -4   9 426.889 27.6367   1
  -4  -4   9 445.379 24.3239   6
  -4   4   9 456.173 26.2498   5
  -4   4   9 426.063 25.5417   6
   4   4  -9 429.122 24.9475   7
  -3  -4   9 319.068 18.3689   6
  -3  -4   9 337.637 22.7238   1
   3   4  -9 315.469 18.3758   7
  -3   4   9 302.180 19.5899   5
  -3   4   9 321.987 21.7493   6
  -2  -4   9 362.067 21.3051   1
  -2  -4   9 369.961 20.8168   6
   2   4  -9 341.590 20.8427   7
  -2   4   9 326.373 19.1529   6
  -2   4   9 352.078 20.4979   5
  -1  -4   9 26.9324 10.7514   3
  -1  -4   9 40.8183 9.32108   6
  -1   4   9 29.7229 9.87903   6
  -1   4   9 41.4671 9.00480   5
   1   4  -9 23.8729 9.13805   7
   0  -4   9 327.935 21.4323   3
   0  -4   9 309.518 16.7182   6
   0  -4   9 292.747 17.8056   5
   0   4   9 314.197 17.1666   6
   0   4   9 312.518 22.1756   5
   0   4  -9 342.420 19.2088   7
   1  -4   9 88.3237 13.2256   3
   1  -4   9 92.1059 13.9149   4
   1  -4   9 74.1656 9.62455   6
  -1   4  -9 88.2269 10.7030   7
   1   4   9 73.9678 8.72198   6
   1   4   9 85.3425 13.0505   5
   2  -4   9 41.1339 11.2406   3
   2  -4   9 50.3472 15.4653   4
   2  -4   9 55.3036 8.80387   6
   2   4   9 39.8953 8.91126   6
  -2   4  -9 54.3731 9.28362   7
   2   4   9 51.4832 11.7773   5
   3  -4   9 91.4460 9.82357   6
   3  -4   9 101.923 15.8663   4
   3  -4   9 77.1337 10.9671   3
   3   4   9 72.7881 9.63470   6
  -3   4  -9 81.0244 9.87893   7
   3   4   9 84.9315 10.8053   5
  -7  -5   9 20.9417 12.0999   7
   7  -5  -9 13.4860 22.4372   4
   7  -5  -9 11.5455 10.0686   3
  -7  -5   9 20.4682 9.42207   6
  -7  -5   9 7.18015 17.5816   1
  -7   5   9 1.66484 13.1073   6
  -7   5   9 22.9508 13.4037   5
   7   5  -9 31.8111 13.6891   7
  -7   5   9 22.7154 12.0123   7
   7   5  -9 23.0935 9.94881   2
   6  -5  -9 284.987 23.4885   3
  -6  -5   9 274.483 23.1578   6
   6  -5  -9 316.573 30.7210   4
  -6  -5   9 308.700 22.7802   7
  -6  -5   9 299.166 26.3789   1
   6   5  -9 264.242 23.5925   7
  -6   5   9 285.742 20.5207   5
  -6   5   9 283.680 21.5619   7
  -6   5   9 301.734 24.9057   6
   6   5  -9 271.479 19.4371   2
  -5  -5   9 77.7199 14.2763   7
  -5  -5   9 99.9211 14.4577   6
  -5  -5   9 79.9120 17.1637   1
  -5   5   9 68.2782 14.3684   6
   5   5  -9 74.2045 13.9163   7
  -5   5   9 79.6199 12.3515   5
  -4  -5   9 20.5703 8.36139   6
  -4  -5   9 4.17710 12.1438   1
  -4   5   9 1.47212 11.4983   6
  -4   5   9 10.0637 8.95541   5
   4   5  -9 12.9915 8.14069   7
  -3  -5   9 143.287 15.9822   1
  -3  -5   9 129.139 14.6384   6
   3  -5  -9 142.370 14.3723   3
  -3   5   9 131.485 15.6359   6
   3   5  -9 136.617 14.9329   7
  -3   5   9 130.353 16.2735   5
  -2  -5   9 129.830 15.4390   3
   2  -5  -9 146.415 13.3562   3
  -2  -5   9 118.368 13.0959   1
  -2  -5   9 120.932 13.8127   6
  -2   5   9 128.494 12.8239   6
  -2   5   9 131.237 16.0521   5
   2   5  -9 111.270 13.7877   7
   1  -5  -9 406.665 20.1308   3
  -1  -5   9 414.627 22.9237   6
  -1  -5   9 384.444 22.1067   3
  -1   5   9 378.423 25.6056   5
  -1   5   9 371.446 20.7840   6
   1   5  -9 394.871 22.5441   7
   0  -5   9 14.7290 11.0031   3
   0  -5   9 0.56027 6.00729   6
   0   5   9 4.13148 11.1589   5
   0   5   9 2.59185 9.67618   6
   0   5  -9 8.23255 6.70807   7
   1  -5   9 123.507 15.7592   3
   1  -5   9 113.838 11.4387   6
   1  -5   9 116.159 17.8497   4
   1   5   9 139.713 14.1934   5
  -1   5  -9 141.638 13.7790   7
   1   5   9 120.778 11.7251   6
   2  -5   9 3.28502 5.41372   6
   2  -5   9 7.10170 10.4196   4
   2  -5   9 -0.0942 11.0289   3
   2   5   9 20.2081 9.28557   6
  -2   5  -9 5.99201 8.66043   7
   2   5   9 -0.7498 7.70776   5
   5  -6  -9 -11.134 11.6519   3
  -5  -6   9 18.0186 12.5439   6
   5   6  -9 0.85125 11.9904   7
  -5   6   9 -0.5505 13.3929   6
   4  -6  -9 225.366 19.0614   3
   4  -6  -9 230.018 22.4245   4
  -4  -6   9 277.493 23.7343   1
  -4  -6   9 214.337 18.1630   6
  -4   6   9 227.532 20.9735   5
  -4   6   9 211.459 20.6167   6
   4   6  -9 202.661 17.4624   7
  -3  -6   9 -5.5599 10.4942   6
  -3  -6   9 0.55388 11.1483   1
   3  -6  -9 0.44960 9.58411   3
  -3   6   9 6.91255 8.73844   5
   3   6  -9 13.5693 11.6434   7
  -3   6   9 -7.9902 12.5164   6
   2  -6  -9 104.332 12.8317   3
  -2  -6   9 107.534 15.7526   3
  -2  -6   9 101.980 12.6560   6
  -2   6   9 101.716 16.3328   5
  -2   6   9 92.7149 15.1587   6
   2   6  -9 91.8939 14.1360   7
  -1  -6   9 67.9494 11.0047   6
  -1  -6   9 86.9873 12.3797   3
   1   6  -9 78.8035 11.1713   7
  -1   6   9 79.8042 14.6499   6
  -1   6   9 73.9603 15.5308   5
   0  -6   9 871.079 37.4153   3
   0  -6   9 889.766 36.7993   6
   0   6   9 817.443 37.0701   6
   0   6  -9 861.244 36.8381   7
   0   6   9 817.104 39.6147   5
  -9   0  10 -9.0933 7.79411   6
  -9   0  10 2.83198 12.7783   5
   9   0 -10 -16.270 11.8132   7
   9   0 -10 4.26727 8.03452   2
   9   0 -10 4.77075 10.5356   6
  -9   0  10 0.55047 8.02164   7
  -8   0  10 2526.41 84.1195   5
  -8   0  10 2441.44 82.7118   6
   8   0 -10 2543.03 80.9248   2
   8   0 -10 2518.05 83.6201   7
  -8   0  10 2450.52 82.6982   7
   8   0 -10 2528.70 82.6303   6
   7   0 -10 8.70181 8.37511   7
   7   0 -10 5.66447 9.02628   6
  -7   0  10 3.94652 8.14961   6
  -7   0  10 -8.5983 10.9651   5
   7   0 -10 12.3241 6.91609   2
  -7   0  10 -7.0359 9.55582   7
   6   0 -10 508.642 24.7330   7
  -6   0  10 512.591 25.0104   6
  -6   0  10 478.046 25.2240   5
   6   0 -10 471.431 24.4219   6
  -6   0  10 497.785 24.8494   7
   6   0 -10 538.998 22.2055   2
   5   0 -10 4.28000 6.92202   2
  -5   0  10 3.16171 7.05305   6
  -5   0  10 13.2193 7.56165   5
   5   0 -10 -5.8504 6.89395   7
  -5   0  10 -5.3070 7.49692   7
   4   0 -10 2072.91 63.0751   2
  -4   0  10 1956.43 67.2492   5
  -4   0  10 2019.30 67.1761   6
   4   0 -10 2033.59 66.9682   7
  -3   0  10 -0.0111 8.12500   6
  -3   0  10 1.26117 6.38765   5
   3   0 -10 14.0356 9.26140   7
   3   0 -10 -6.0090 4.40645   2
   2   0 -10 37.0256 7.13558   7
  -2   0  10 34.4353 9.32284   5
  -2   0  10 31.9048 8.62209   6
   2   0 -10 39.0116 5.50769   2
   1   0 -10 -1.8151 6.77978   7
  -1   0  10 7.45048 7.00499   6
  -1   0  10 -4.0389 7.17347   5
   0   0  10 1115.63 37.8123   6
   0   0  10 1094.10 39.1891   5
   0   0 -10 1088.48 37.5523   7
   1   0  10 -3.9823 5.93511   6
  -1   0 -10 10.5246 5.48347   7
   1   0  10 -1.6454 5.91723   5
   2   0  10 41.2863 6.56424   6
  -2   0 -10 51.8553 7.01951   7
  -3   0 -10 1.67899 4.51616   7
   3   0  10 -1.6801 4.17199   6
   4   0  10 919.757 29.9787   6
  -9  -1  10 -10.894 15.9616   1
   9  -1 -10 -3.0385 7.58069   2
  -9  -1  10 -16.980 11.0980   6
  -9  -1  10 -5.0152 11.2836   7
   9  -1 -10 -9.3241 10.2978   6
  -9  -1  10 2.77912 9.25037   5
   9  -1 -10 -0.4450 9.14977   7
   9   1 -10 8.31001 11.6380   2
  -9   1  10 6.05866 9.39321   5
  -9   1  10 1.53753 11.8760   6
   9   1 -10 5.52913 8.88855   7
  -9   1  10 -1.3150 11.5150   7
   9   1 -10 -10.474 10.5964   6
  -8  -1  10 -2.6669 9.81916   1
  -8  -1  10 12.9787 10.6851   7
   8  -1 -10 8.91471 8.66641   7
  -8  -1  10 10.4871 12.4107   5
   8  -1 -10 5.45524 7.30400   6
   8  -1 -10 10.1192 7.16721   2
  -8  -1  10 9.78121 11.3714   6
  -8   1  10 0.43774 10.3008   7
  -8   1  10 13.3817 11.4299   6
   8   1 -10 -3.4335 11.3965   7
   8   1 -10 2.01112 7.43644   2
  -8   1  10 -0.2287 8.28723   5
   8   1 -10 12.0105 10.4021   6
  -7  -1  10 1522.97 55.2445   6
   7  -1 -10 1605.03 53.8221   2
  -7  -1  10 1495.50 60.1722   1
  -7  -1  10 1506.55 56.2205   5
   7  -1 -10 1594.03 56.8307   7
   7  -1 -10 1526.79 55.1333   6
  -7  -1  10 1604.27 55.6465   7
   7   1 -10 1571.81 54.1192   2
  -7   1  10 1524.40 55.4027   6
   7   1 -10 1498.45 55.0663   6
  -7   1  10 1596.41 57.5996   5
  -7   1  10 1619.26 55.4277   7
   7   1 -10 1544.70 56.4090   7
   6  -1 -10 193.936 14.4741   2
  -6  -1  10 201.280 17.4589   6
   6  -1 -10 209.275 16.9170   6
  -6  -1  10 202.473 15.0573   7
  -6  -1  10 197.721 17.4928   5
  -6  -1  10 225.404 20.6432   1
   6  -1 -10 220.316 18.3895   7
  -6   1  10 183.541 14.5141   7
  -6   1  10 188.971 16.7379   5
   6   1 -10 212.140 16.8996   7
   6   1 -10 204.343 14.1405   2
  -6   1  10 197.211 17.6190   6
   6   1 -10 200.554 16.7679   6
  -5  -1  10 91.3466 13.0207   6
   5  -1 -10 90.1811 11.5142   7
  -5  -1  10 70.4076 11.0373   5
  -5  -1  10 86.1761 11.0714   7
   5  -1 -10 86.5512 9.68856   2
  -5   1  10 85.3772 9.25759   7
   5   1 -10 69.0882 12.7368   7
  -5   1  10 75.3387 10.9181   5
   5   1 -10 83.0788 10.2643   2
  -5   1  10 71.5407 10.5442   6
  -4  -1  10 306.320 20.0677   6
   4  -1 -10 304.076 15.4168   2
   4  -1 -10 328.889 21.0137   7
  -4  -1  10 348.387 19.4293   5
  -4   1  10 305.453 20.4334   6
  -4   1  10 316.854 21.6970   5
   4   1 -10 296.169 20.6156   7
   4   1 -10 292.986 16.6123   2
   3  -1 -10 1738.35 52.9923   2
   3  -1 -10 1642.26 57.2791   7
  -3  -1  10 1771.03 57.7129   6
  -3  -1  10 1667.22 58.5163   5
  -3   1  10 1746.94 59.1776   5
   3   1 -10 1698.42 54.1392   2
   3   1 -10 1679.96 57.1774   7
  -3   1  10 1743.92 57.8378   6
  -2  -1  10 25.4572 6.92758   5
  -2  -1  10 18.2978 7.97786   6
   2  -1 -10 25.1016 9.07596   7
   2   1 -10 15.9998 5.33488   2
  -2   1  10 20.4746 8.90784   6
  -2   1  10 11.8213 9.18721   5
   2   1 -10 19.6595 8.62038   7
   1  -1 -10 469.780 22.5313   7
  -1  -1  10 525.944 22.1453   6
  -1  -1  10 511.541 21.7510   5
  -1   1  10 488.335 23.9999   5
   1   1 -10 495.537 22.0917   7
  -1   1  10 478.622 22.2736   6
   0  -1 -10 12.4227 6.97249   7
   0  -1  10 45.8901 6.62978   5
   0  -1  10 38.7469 7.19464   6
   0   1  10 33.9936 7.42721   6
   0   1 -10 28.8826 7.21577   7
   0   1  10 42.0301 7.17373   5
   1  -1  10 1563.80 51.3744   6
   1  -1  10 1599.06 51.9489   5
  -1  -1 -10 1615.68 51.3268   7
   1   1  10 1593.17 53.4097   5
   1   1  10 1577.60 51.4905   6
  -1   1 -10 1647.78 51.1559   7
  -2  -1 -10 108.290 8.64100   7
   2  -1  10 101.708 8.92847   6
  -2   1 -10 105.590 9.25635   7
   2   1  10 112.310 9.71464   5
   2   1  10 104.665 8.42918   6
   3  -1  10 194.087 10.4914   6
  -3  -1 -10 195.736 11.5300   7
  -3   1 -10 209.184 11.6935   7
   3   1  10 214.979 11.5903   6
   4  -1  10 50.0757 5.51937   6
   4   1  10 53.6596 5.47887   6
  -4   1 -10 33.1012 5.40748   7
   9  -2 -10 15.0815 11.7428   6
  -9  -2  10 21.9242 10.5519   5
  -9  -2  10 9.20901 14.1925   6
  -9  -2  10 27.6426 13.0228   7
   9  -2 -10 16.6208 13.3261   7
  -9  -2  10 43.9636 14.8296   1
  -9   2  10 35.5513 13.1339   7
  -9   2  10 42.4845 13.9086   6
   9   2 -10 18.1754 9.80060   2
   9   2 -10 24.9739 9.63791   7
  -9   2  10 36.9053 14.0024   5
   9   2 -10 20.3972 9.34499   6
  -8  -2  10 26.6482 12.1551   7
   8  -2 -10 22.0511 8.83054   6
   8  -2 -10 27.3714 10.4640   7
   8  -2 -10 16.7888 10.4760   2
  -8  -2  10 11.6374 15.1645   1
  -8  -2  10 11.3815 12.9422   5
  -8  -2  10 24.5962 9.52337   6
   8   2 -10 26.5827 13.2598   7
  -8   2  10 23.0881 9.91656   5
   8   2 -10 31.6753 9.15089   6
  -8   2  10 31.6664 12.0371   7
  -8   2  10 21.3887 12.5966   6
   8   2 -10 24.8485 11.9900   2
   7  -2 -10 36.5856 8.76934   6
  -7  -2  10 57.7001 15.7541   1
   7  -2 -10 57.2892 14.0365   7
  -7  -2  10 75.8684 13.4908   6
  -7  -2  10 61.6847 12.4382   7
   7  -2 -10 49.4941 10.3409   2
  -7  -2  10 32.7886 13.0326   5
  -7   2  10 51.0440 11.7727   7
   7   2 -10 48.3774 9.20792   6
   7   2 -10 52.3735 11.5326   2
   7   2 -10 38.1235 10.2310   7
  -7   2  10 55.6428 13.2854   5
   6  -2 -10 1034.80 40.3151   7
  -6  -2  10 1027.82 41.1620   5
  -6  -2  10 936.917 39.5609   6
  -6  -2  10 1089.66 40.4701   7
  -6  -2  10 1122.46 45.9818   1
  -6   2  10 1057.29 39.7159   7
   6   2 -10 1026.74 41.6392   7
  -6   2  10 1011.81 40.3347   6
   6   2 -10 1015.26 37.8828   2
  -6   2  10 1042.06 41.0953   5
  -5  -2  10 15.3211 10.2532   6
  -5  -2  10 3.56478 8.75588   7
   5  -2 -10 -3.4403 7.89457   7
  -5  -2  10 21.9775 11.4165   5
  -5  -2  10 15.0948 9.21239   1
   5   2 -10 6.28558 7.78348   7
   5   2 -10 13.7915 6.34444   2
  -5   2  10 10.9606 10.6789   6
  -5   2  10 6.79374 8.05761   7
  -5   2  10 2.26519 7.79505   5
  -4  -2  10 299.247 21.6204   5
   4  -2 -10 324.562 19.0048   7
  -4  -2  10 336.138 20.7841   6
   4   2 -10 300.711 20.9640   7
  -4   2  10 316.281 18.7110   6
   4   2 -10 300.298 17.6115   2
  -4   2  10 307.583 21.7147   5
  -3  -2  10 102.769 10.7247   6
  -3  -2  10 106.420 13.4727   5
   3  -2 -10 114.882 13.5335   7
  -3   2  10 113.885 12.9649   6
   3   2 -10 111.113 10.9542   7
   3   2 -10 134.793 10.5431   2
  -3   2  10 120.782 13.7248   5
  -2  -2  10 727.534 29.8324   5
   2  -2 -10 766.845 31.2471   7
  -2  -2  10 772.151 30.0892   6
   2   2 -10 748.626 27.1453   2
  -2   2  10 717.058 29.4221   6
  -2   2  10 727.135 32.1963   5
   2   2 -10 752.553 30.0960   7
  -1  -2  10 -2.6553 6.79172   5
  -1  -2  10 5.53116 6.99021   6
   1  -2 -10 -3.2167 8.22182   7
  -1   2  10 12.7614 8.80692   5
   1   2 -10 11.3271 7.73311   7
  -1   2  10 2.71624 5.70489   6
   0  -2  10 1372.82 46.1541   6
   0  -2 -10 1364.25 46.6025   7
   0  -2  10 1371.62 46.3867   5
   0   2 -10 1402.78 46.1307   7
   0   2  10 1375.99 46.6663   6
   0   2  10 1369.73 48.6853   5
   1  -2  10 24.5457 6.54513   6
  -1  -2 -10 29.8857 7.67233   7
  -1   2 -10 28.7987 7.07918   7
   1   2  10 32.7924 7.45903   6
   1   2  10 36.4070 9.17920   5
   2  -2  10 31.7529 6.33035   6
  -2  -2 -10 32.7335 6.86397   7
   2   2  10 26.3267 8.67853   5
  -2   2 -10 33.9969 6.71173   7
   2   2  10 34.8882 6.63213   6
   3  -2  10 6.49191 4.64020   6
   3  -2  10 14.9267 14.3573   4
  -3  -2 -10 1.70553 5.08038   7
   3   2  10 4.81179 5.84510   6
  -3   2 -10 14.5941 5.22109   7
   4  -2  10 998.585 46.9636   4
   4  -2  10 945.952 32.5373   6
   4   2  10 945.031 31.9096   6
  -4   2 -10 965.494 32.5329   7
  -8  -3  10 8.07178 8.96122   6
   8  -3 -10 10.7908 8.23191   6
   8  -3 -10 -4.9959 9.13421   7
  -8  -3  10 13.3891 12.1934   7
  -8  -3  10 -4.8012 10.5567   1
  -8   3  10 17.9791 11.4923   7
  -8   3  10 -1.6996 12.3145   6
  -8   3  10 -6.1507 8.74175   5
   8   3 -10 -2.4224 11.2470   2
   8   3 -10 5.32175 8.07467   6
   8   3 -10 9.42922 12.5347   7
   7  -3 -10 43.1969 14.4320   7
  -7  -3  10 49.9032 16.1919   1
  -7  -3  10 49.4263 12.6677   7
  -7  -3  10 50.9628 13.3252   6
   7   3 -10 39.9948 9.79474   6
   7   3 -10 49.7420 10.8345   7
   7   3 -10 76.8099 13.0915   2
  -7   3  10 51.9485 13.8466   5
  -7   3  10 67.6474 12.6094   7
  -7   3  10 66.7925 14.1430   6
  -6  -3  10 334.763 20.3498   6
  -6  -3  10 300.591 23.0360   1
  -6  -3  10 306.856 19.0074   7
   6  -3 -10 354.556 25.3736   7
  -6   3  10 321.293 24.0808   6
   6   3 -10 314.643 21.4544   2
  -6   3  10 335.287 21.2244   7
   6   3 -10 318.758 23.8787   7
  -6   3  10 296.949 20.8068   5
  -5  -3  10 78.5604 14.6147   1
  -5  -3  10 51.0188 12.3208   6
   5  -3 -10 83.0618 14.2410   7
  -5   3  10 65.6656 13.5503   6
   5   3 -10 84.4000 13.7026   7
   5   3 -10 87.9484 11.7182   2
  -5   3  10 76.5473 14.0574   5
  -4  -3  10 58.9652 10.2103   1
  -4  -3  10 68.1829 9.91318   6
   4  -3 -10 56.9546 10.2788   7
  -4   3  10 60.2218 10.2430   6
   4   3 -10 69.5173 10.3205   2
   4   3 -10 52.7785 11.8865   7
  -4   3  10 66.4535 13.3093   5
  -3  -3  10 180.113 16.5010   1
   3  -3 -10 156.169 15.2889   7
  -3  -3  10 139.944 13.9725   6
  -3   3  10 154.062 16.1927   5
  -3   3  10 163.650 15.2622   6
   3   3 -10 159.657 14.6939   7
  -2  -3  10 13.2225 8.53605   6
   2  -3 -10 4.35013 10.0557   7
  -2  -3  10 3.99494 6.33257   5
  -2   3  10 13.7183 10.2755   5
  -2   3  10 -1.6125 6.10996   6
   2   3 -10 11.3755 9.10672   7
  -1  -3  10 5.59959 7.50063   5
   1  -3 -10 12.3361 9.34464   7
  -1  -3  10 12.4079 5.89898   6
   1   3 -10 -0.9653 7.94657   7
  -1   3  10 1.10138 8.45400   6
  -1   3  10 -2.0845 6.67410   5
   0   3  10 101.388 11.0105   5
  -1  -3 -10 285.181 17.5238   7
   1  -3  10 273.952 16.1531   6
   1   3  10 307.693 18.1516   5
  -1   3 -10 283.979 16.6679   7
   1   3  10 272.170 16.6194   6
   2  -3  10 24.0270 6.92199   6
  -2  -3 -10 28.4774 7.89628   7
   2   3  10 31.9984 10.0763   5
   2   3  10 21.7667 8.48401   6
  -2   3 -10 7.66732 8.16707   7
   3  -3  10 41.1832 10.4960   3
   3  -3  10 10.5887 15.1511   4
   3  -3  10 3.70684 5.49309   6
  -3   3 -10 13.1034 7.72619   7
   3   3  10 7.56114 6.24720   6
   3   3  10 8.91371 8.98298   5
  -7  -4  10 236.004 20.3176   6
  -7  -4  10 260.762 24.8233   1
  -7  -4  10 197.895 17.7536   7
  -7   4  10 240.373 17.9545   7
  -7   4  10 245.222 21.3857   6
  -7   4  10 203.214 20.4714   5
   7   4 -10 227.993 17.7080   2
   7   4 -10 217.310 20.1786   7
  -6  -4  10 43.6385 11.7738   1
  -6  -4  10 50.2192 11.5402   7
  -6  -4  10 52.2356 13.1344   6
   6   4 -10 54.8891 10.6781   7
  -6   4  10 52.6108 14.1604   6
  -6   4  10 29.2416 10.0013   5
   6   4 -10 32.4752 11.9949   2
  -5  -4  10 615.686 29.1652   6
   5  -4 -10 678.500 33.4241   7
  -5  -4  10 586.114 30.6932   1
   5   4 -10 642.997 31.4275   7
  -5   4  10 634.249 32.0711   6
  -5   4  10 652.012 30.6700   5
   5   4 -10 616.957 29.2240   2
   4  -4 -10 7.06391 8.64941   7
  -4  -4  10 -2.9865 9.93939   6
  -4  -4  10 7.22458 10.6567   1
  -4   4  10 7.49004 11.0412   5
   4   4 -10 -10.695 7.17427   7
  -4   4  10 5.70659 8.23221   6
  -3  -4  10 82.1167 12.7246   1
   3  -4 -10 70.4444 11.0432   7
  -3  -4  10 75.4266 12.1885   6
  -3   4  10 81.9973 10.9524   6
   3   4 -10 60.6812 12.0709   7
  -3   4  10 90.5041 12.2894   5
  -2  -4  10 64.4198 9.58113   6
   2  -4 -10 62.4697 13.1066   7
  -2   4  10 73.7836 11.2422   5
   2   4 -10 67.4777 9.73704   7
  -2   4  10 62.3111 11.9360   6
  -1  -4  10 102.063 12.1027   5
  -1  -4  10 96.6868 11.8886   6
  -1   4  10 98.1082 13.0259   6
   1   4 -10 121.416 12.9945   7
  -1   4  10 102.407 14.3884   5
   0  -4  10 164.050 13.9895   6
   0   4  10 174.547 14.5321   6
   0   4 -10 150.542 13.6418   7
   0   4  10 140.337 14.2080   5
   1  -4  10 121.890 12.3664   6
   1  -4  10 146.325 15.6087   3
  -1   4 -10 153.795 13.2080   7
   1   4  10 141.231 15.5423   5
   1   4  10 124.384 12.7705   6
   2  -4  10 20.4125 11.3729   4
   2  -4  10 21.5752 7.77404   6
   2  -4  10 12.0405 7.88351   3
   2   4  10 18.4226 8.36875   6
  -2   4 -10 10.3717 7.95693   7
   2   4  10 10.8962 10.2077   5
  -6  -5  10 338.720 27.6998   1
  -6  -5  10 272.399 21.3716   6
  -6   5  10 291.314 22.2413   6
  -6   5  10 334.537 22.5623   5
   6   5 -10 364.863 26.2166   7
   6   5 -10 298.211 20.7290   2
  -5  -5  10 86.8860 16.8510   1
  -5  -5  10 51.8755 13.7601   6
  -5   5  10 84.8359 15.8958   6
   5   5 -10 67.9521 14.6718   7
  -5   5  10 81.8864 12.8064   5
  -4  -5  10 592.239 27.9605   6
  -4  -5  10 544.635 31.7441   1
  -4   5  10 569.528 31.0343   6
   4   5 -10 548.595 29.7099   7
  -4   5  10 587.341 29.5024   5
  -3  -5  10 40.8760 12.0908   6
  -3  -5  10 74.2166 12.9266   1
   3   5 -10 32.4192 11.9975   7
  -3   5  10 36.7615 13.5484   5
  -3   5  10 63.3852 14.0481   6
   2  -5 -10 1530.25 53.0631   3
  -2  -5  10 1496.55 54.8050   6
  -2   5  10 1468.48 57.0065   5
   2   5 -10 1539.54 54.6001   7
  -2   5  10 1525.91 55.3650   6
  -1  -5  10 0.67899 9.16682   6
  -1  -5  10 12.4996 11.5869   3
  -1   5  10 -7.2948 10.0540   6
   1   5 -10 -6.4865 9.75567   7
  -1   5  10 -15.476 10.9710   5
   0  -5  10 236.418 18.8733   6
   0  -5  10 269.611 21.6008   3
   0   5  10 269.149 20.1631   6
   0   5 -10 223.714 19.1592   7
   0   5  10 257.545 23.1974   5
   9   0 -11 809.301 37.1791   6
   9   0 -11 750.527 35.4569   2
   9   0 -11 809.970 35.7917   7
  -9   0  11 789.205 37.9871   6
  -9   0  11 769.475 37.0404   7
  -9   0  11 786.303 39.5363   5
  -8   0  11 1.07348 12.2171   6
   8   0 -11 -1.9332 9.90707   2
  -8   0  11 -7.6245 12.6589   5
   8   0 -11 4.11559 8.94306   7
  -8   0  11 6.75934 10.6998   7
   7   0 -11 286.935 20.9822   7
  -7   0  11 363.348 22.8043   7
  -7   0  11 305.428 23.9960   6
   7   0 -11 373.164 21.5035   2
  -7   0  11 328.977 21.9604   5
   6   0 -11 11.1560 5.80879   2
  -6   0  11 0.07655 7.58704   6
   6   0 -11 -5.4399 11.3580   7
  -6   0  11 7.69070 11.2288   5
  -5   0  11 241.359 20.3375   6
   5   0 -11 215.766 18.1880   7
   5   0 -11 221.946 15.3714   2
  -5   0  11 245.362 19.9506   5
  -4   0  11 -3.7333 6.30282   6
  -4   0  11 1.25891 6.77991   5
   4   0 -11 -0.5459 5.68360   2
   4   0 -11 -5.5965 6.67575   7
  -3   0  11 139.115 14.8849   5
  -3   0  11 145.474 13.9455   6
   3   0 -11 136.949 14.0894   7
   3   0 -11 140.000 11.2871   2
  -2   0  11 0.25665 8.08728   6
   2   0 -11 -9.0336 8.39845   7
  -2   0  11 4.96672 6.05952   5
   1   0 -11 513.617 22.3340   7
  -1   0  11 533.530 23.8397   6
  -1   0  11 553.059 23.9758   5
   0   0  11 8.06471 6.74893   6
   0   0  11 -5.4749 7.07651   5
   0   0 -11 -2.4971 6.59417   7
  -1   0 -11 956.399 34.1992   7
   1   0  11 997.914 34.6109   6
   1   0  11 972.756 35.6018   5
  -2   0 -11 7.98960 6.28612   7
   2   0  11 7.00944 6.25646   6
  -3   0 -11 505.839 20.1636   7
   3   0  11 505.268 20.2523   6
  -9  -1  11 28.0444 19.3122   1
   9  -1 -11 59.1736 15.6466   7
  -9  -1  11 29.8947 13.0389   7
   9  -1 -11 26.3365 9.83400   6
  -9  -1  11 45.8972 13.8818   6
   9  -1 -11 24.9889 11.9278   2
  -9  -1  11 8.35746 13.9348   5
   9   1 -11 53.2281 14.7852   7
  -9   1  11 43.6697 11.0175   6
  -9   1  11 44.1764 13.1435   7
   9   1 -11 39.6749 9.82159   6
   9   1 -11 22.9588 9.80587   2
  -9   1  11 31.2620 11.2578   5
  -8  -1  11 664.489 35.3343   5
  -8  -1  11 635.874 32.1283   7
  -8  -1  11 652.349 31.3568   6
   8  -1 -11 648.562 34.3999   7
   8  -1 -11 646.569 30.6280   2
  -8   1  11 672.657 30.2759   7
   8   1 -11 642.505 33.7698   7
   8   1 -11 719.345 32.0737   2
  -8   1  11 660.866 32.1402   5
  -8   1  11 685.124 34.0076   6
  -7  -1  11 17.0377 10.1755   7
  -7  -1  11 6.53569 12.0914   5
   7  -1 -11 6.57541 9.11356   2
  -7  -1  11 14.4381 8.82498   6
   7  -1 -11 5.34402 9.16011   7
  -7   1  11 -3.3009 11.4963   6
  -7   1  11 3.08109 9.53696   7
   7   1 -11 -3.4806 9.05707   2
   7   1 -11 6.79245 11.9036   7
  -7   1  11 23.0555 12.2150   5
   6  -1 -11 71.3965 14.5113   7
  -6  -1  11 67.1542 11.5939   5
  -6  -1  11 66.1036 10.9496   6
   6  -1 -11 82.3859 10.4426   2
  -6   1  11 74.5234 13.7024   6
  -6   1  11 58.9463 11.1361   5
   6   1 -11 79.6314 14.1579   7
   6   1 -11 71.5236 9.25525   2
   5  -1 -11 42.2002 6.44468   2
   5  -1 -11 22.3945 8.72934   7
  -5  -1  11 16.8223 8.66728   5
  -5  -1  11 44.8416 11.8648   6
   5   1 -11 39.9793 11.9503   7
  -5   1  11 31.3966 9.01877   6
   5   1 -11 27.3791 6.32522   2
  -5   1  11 18.0124 11.4010   5
   4  -1 -11 1663.47 56.1487   7
   4  -1 -11 1566.35 50.4482   2
  -4  -1  11 1551.48 55.9849   5
  -4  -1  11 1586.18 56.0400   6
   4   1 -11 1605.24 51.9555   2
  -4   1  11 1575.43 56.0358   6
  -4   1  11 1627.65 57.5551   5
   4   1 -11 1574.61 55.6854   7
  -3  -1  11 273.835 19.3339   6
  -3  -1  11 307.755 18.7178   5
   3  -1 -11 302.769 20.4851   7
  -3   1  11 317.597 20.4078   6
  -3   1  11 294.191 21.4606   5
   3   1 -11 309.294 20.2276   7
   3   1 -11 299.657 15.1597   2
  -2  -1  11 0.99870 5.61249   6
  -2  -1  11 6.34776 8.14155   5
   2  -1 -11 4.07553 6.36803   7
  -2   1  11 -5.9359 8.10248   6
   2   1 -11 0.81119 8.47729   7
  -2   1  11 -8.1708 5.94024   5
  -1  -1  11 106.991 11.5491   5
  -1  -1  11 86.1012 10.3697   6
   1  -1 -11 109.634 11.6565   7
   1   1 -11 86.5714 10.5947   7
  -1   1  11 113.679 12.6771   5
  -1   1  11 83.3169 10.6385   6
   0  -1  11 630.867 25.1313   5
   0  -1  11 609.770 25.2041   6
   0  -1 -11 610.914 25.6344   7
   0   1  11 600.251 25.4367   6
   0   1 -11 627.351 25.5171   7
   0   1  11 610.361 27.3294   5
  -1  -1 -11 160.764 12.4781   7
   1  -1  11 154.481 12.0259   6
  -1   1 -11 152.066 12.3877   7
   1   1  11 157.326 13.5051   5
   1   1  11 138.802 12.1638   6
   2  -1  11 160.506 11.4062   6
  -2  -1 -11 171.191 13.2335   7
   2   1  11 164.558 12.8279   6
  -2   1 -11 175.474 11.9252   7
  -3  -1 -11 388.607 17.6684   7
   3  -1  11 392.499 17.4308   6
   3   1  11 403.580 17.6217   6
  -3   1 -11 394.162 17.7412   7
  -8  -2  11 20.4073 9.33459   6
  -8  -2  11 39.6667 14.3139   5
  -8  -2  11 31.5979 12.0145   7
  -8  -2  11 74.4173 17.7623   1
  -8   2  11 25.1342 9.59978   6
  -8   2  11 38.1455 13.8477   5
  -7  -2  11 831.965 38.6516   1
   7  -2 -11 740.540 34.3051   7
  -7  -2  11 853.349 38.7878   5
  -7  -2  11 752.438 34.0824   6
  -7  -2  11 828.244 33.3231   7
   7   2 -11 853.447 34.3152   2
   7   2 -11 703.656 33.4400   7
  -7   2  11 624.438 33.5296   7
  -7   2  11 733.978 36.1893   6
  -7   2  11 836.303 35.9334   5
  -6  -2  11 -26.069 10.2530   6
  -6  -2  11 11.3682 9.58789   1
   6  -2 -11 1.70864 12.5152   7
  -6  -2  11 13.1111 8.67212   5
  -6   2  11 1.93341 7.94780   5
   6   2 -11 4.35717 6.49932   2
  -6   2  11 -1.7351 11.1877   6
   6   2 -11 -7.0826 7.97202   7
   5  -2 -11 697.632 33.8912   7
  -5  -2  11 717.766 34.4189   5
  -5  -2  11 692.710 33.0153   6
  -5   2  11 704.101 32.5218   5
  -5   2  11 737.314 33.7645   6
   5   2 -11 759.037 30.2673   2
   5   2 -11 782.482 33.8875   7
  -4  -2  11 240.066 20.8249   5
   4  -2 -11 215.895 17.1472   7
  -4  -2  11 220.530 17.9059   6
   4   2 -11 242.599 20.0932   7
  -4   2  11 235.636 19.1998   5
   4   2 -11 235.157 14.0464   2
  -4   2  11 243.479 16.9639   6
   3  -2 -11 148.282 15.1983   7
  -3  -2  11 133.933 14.4751   6
  -3  -2  11 159.767 15.7105   5
   3   2 -11 184.643 15.4636   7
  -3   2  11 155.827 16.5332   5
  -3   2  11 167.161 15.7574   6
   3   2 -11 159.758 13.2074   2
  -2  -2  11 37.0640 9.56083   6
  -2  -2  11 34.7850 9.85527   5
   2  -2 -11 25.9772 8.21579   7
   2   2 -11 47.3605 5.96270   2
   2   2 -11 34.0117 10.0215   7
  -2   2  11 43.8033 11.3411   5
  -2   2  11 59.2146 10.9842   6
  -1  -2  11 1571.61 53.9333   5
   1  -2 -11 1497.74 52.6877   7
  -1  -2  11 1606.09 53.4783   6
   1   2 -11 1572.03 53.2824   7
  -1   2  11 1638.16 55.9742   5
  -1   2  11 1579.13 53.9976   6
   0  -2 -11 126.248 12.5503   7
   0  -2  11 141.100 13.3531   5
   0  -2  11 135.040 11.5723   6
   0   2  11 137.667 12.3492   6
   0   2 -11 151.827 12.2727   7
   0   2  11 132.886 14.0039   5
  -1  -2 -11 26.5448 8.07260   7
   1  -2  11 24.9190 6.97505   6
   1   2  11 18.0320 6.92270   5
  -1   2 -11 12.4513 8.81602   7
   1   2  11 17.7619 7.26641   6
  -2  -2 -11 26.8805 8.42992   7
   2  -2  11 15.4927 6.23944   6
  -2   2 -11 24.6240 6.98619   7
   2   2  11 23.8371 7.97574   6
   2   2  11 21.2762 6.98480   5
   7  -3 -11 124.139 17.7515   7
  -7  -3  11 95.7556 13.5554   6
  -7  -3  11 150.195 19.9549   1
  -7   3  11 93.2666 13.8078   5
   7   3 -11 119.590 16.6607   7
   7   3 -11 111.544 15.0255   2
  -7   3  11 106.306 13.8529   6
  -6  -3  11 38.6298 14.5626   1
   6  -3 -11 26.4539 13.7848   7
  -6  -3  11 17.6409 12.1094   6
  -6   3  11 18.0353 13.1167   5
   6   3 -11 12.9890 10.4151   2
   6   3 -11 10.1879 9.03256   7
  -6   3  11 23.8702 9.45170   6
   5  -3 -11 128.077 16.6220   7
  -5  -3  11 172.060 17.7538   5
  -5  -3  11 207.811 19.6344   1
  -5  -3  11 167.673 16.8545   6
  -5   3  11 111.238 14.0933   5
  -5   3  11 116.357 15.8319   6
   5   3 -11 153.373 14.0389   2
   5   3 -11 143.187 16.3940   7
  -4  -3  11 315.020 23.0895   5
  -4  -3  11 342.566 22.7315   6
   4  -3 -11 344.430 20.9786   7
   4   3 -11 356.314 22.9467   7
   4   3 -11 304.125 17.2364   2
  -4   3  11 322.565 24.3600   5
  -4   3  11 340.699 23.1629   6
  -3  -3  11 8.75634 7.34700   5
  -3  -3  11 2.68230 9.59628   6
   3  -3 -11 18.2369 11.1429   7
   3   3 -11 8.26792 5.70561   2
  -3   3  11 20.1706 10.7093   6
  -3   3  11 15.8630 8.49402   5
   3   3 -11 -7.0949 9.40311   7
  -2  -3  11 201.984 17.1495   6
  -2  -3  11 203.987 15.5081   5
   2  -3 -11 224.200 17.5998   7
  -2   3  11 212.490 15.5150   6
   2   3 -11 225.112 15.4396   7
  -2   3  11 198.643 16.6544   5
   1  -3 -11 30.0769 10.3297   7
  -1  -3  11 20.6560 8.12178   5
  -1  -3  11 41.3669 9.34135   6
  -1   3  11 25.9653 9.46253   6
   1   3 -11 21.3520 6.99405   7
  -1   3  11 29.1811 10.8502   5
   0  -3 -11 122.718 13.1982   7
   0   3  11 118.186 12.5436   6
   0   3  11 218.319 19.0224   5
   1  -3  11 14.0970 7.30782   6
  -1  -3 -11 0.83215 8.11594   7
   1   3  11 9.70753 7.63842   6
  -1   3 -11 9.11196 7.72048   7
   1   3  11 8.68412 9.68827   5
   2  -3  11 320.469 17.1098   6
  -2  -3 -11 259.040 17.5026   7
   2   3  11 274.237 18.1914   5
   2   3  11 258.300 16.6802   6
  -2   3 -11 319.491 17.3581   7
  -6  -4  11 86.3717 17.1686   1
   6  -4 -11 128.178 18.2985   7
  -6  -4  11 119.971 16.6656   6
  -6   4  11 108.215 16.8658   6
   6   4 -11 113.707 16.7199   7
  -6   4  11 122.113 17.9240   5
   6   4 -11 119.741 13.0374   2
  -5  -4  11 -7.1503 11.3267   6
  -5  -4  11 -3.9902 8.59002   1
   5  -4 -11 10.4379 9.97988   7
   5   4 -11 24.3414 8.14047   2
   5   4 -11 6.72379 12.1143   7
  -5   4  11 27.5932 13.5825   5
  -5   4  11 30.5513 13.3578   6
  -4  -4  11 97.7662 12.4089   6
   4  -4 -11 134.043 16.9089   7
  -4  -4  11 112.834 16.1842   1
  -4   4  11 123.591 16.0531   6
   4   4 -11 117.658 13.2292   7
   4   4 -11 111.405 11.5151   2
  -4   4  11 103.681 13.5006   5
   3  -4 -11 54.6882 13.6846   7
  -3  -4  11 43.2761 9.27347   6
  -3   4  11 42.7279 12.6582   6
   3   4 -11 43.1716 9.30646   7
  -3   4  11 22.8546 12.6167   5
   2  -4 -11 256.982 19.0088   7
  -2  -4  11 245.545 19.1598   6
  -2  -4  11 229.573 17.1142   5
  -2   4  11 274.322 21.0175   6
   2   4 -11 268.169 20.5176   7
  -2   4  11 280.602 21.5643   5
  -1  -4  11 9.39532 9.08003   6
  -1   4  11 12.3231 11.1263   5
  -1   4  11 7.05930 7.13340   6
   1   4 -11 9.66570 9.60353   7
   0  -4  11 3.79421 6.17564   6
   0   4  11 3.78036 9.13294   6
   0   4  11 0.41280 11.0865   5
   0   4 -11 10.9738 9.50115   7
  -3  -5  11 1179.32 47.2358   6
  -3   5  11 1231.23 48.7338   6
   8   0 -12 29.9027 10.7272   2
  -8   0  12 25.5756 10.7779   5
   8   0 -12 23.3580 10.2926   7
  -8   0  12 26.2160 13.6885   6
   7   0 -12 -6.7354 12.1869   7
  -7   0  12 -2.1368 8.67432   6
  -7   0  12 3.58001 12.1700   5
   7   0 -12 13.4782 9.22798   2
   6   0 -12 5.61476 8.35045   2
  -6   0  12 30.2006 12.9511   6
   6   0 -12 10.3876 12.3418   7
  -6   0  12 18.7608 9.27524   5
   5   0 -12 -5.4051 6.60154   2
  -5   0  12 -7.6464 7.27460   5
  -5   0  12 -5.0045 7.19241   6
   5   0 -12 6.03550 7.96602   7
   4   0 -12 511.807 27.7388   7
  -4   0  12 529.122 27.3940   6
  -4   0  12 502.818 28.3495   5
   3   0 -12 14.1770 10.2602   7
  -3   0  12 5.43635 9.23309   6
  -3   0  12 0.22114 9.26116   5
  -2   0  12 24.5973 9.83147   5
   2   0 -12 25.6618 9.90052   7
  -2   0  12 16.2701 9.27047   6
  -1   0  12 -6.1464 8.10023   5
  -1   0  12 -2.2434 5.39385   6
   1   0 -12 -4.7121 8.12941   7
   0   0  12 964.140 35.3264   6
   0   0 -12 903.079 34.5789   7
   0   0  12 922.719 36.1665   5
   1   0  12 -2.6753 6.28654   6
  -1   0 -12 3.52629 8.17083   7
  -8  -1  12 479.472 28.6370   5
  -8  -1  12 505.075 30.7715   6
   8  -1 -12 488.396 26.6437   2
   8  -1 -12 485.719 31.6106   7
  -8   1  12 507.310 28.5400   5
   8   1 -12 529.382 31.6073   7
   8   1 -12 532.241 27.6540   2
  -8   1  12 470.297 30.3458   6
  -7  -1  12 32.5663 13.7442   6
   7  -1 -12 2.53165 9.05882   7
  -7  -1  12 8.68062 9.55637   5
   7  -1 -12 33.6035 9.76858   2
  -7   1  12 10.3986 13.2098   5
  -7   1  12 10.8578 13.0601   6
   7   1 -12 -5.1999 9.11277   2
   7   1 -12 -0.1192 12.6203   7
   6  -1 -12 -4.7961 12.3004   7
   6  -1 -12 -1.1333 7.37616   2
  -6  -1  12 4.16068 11.7927   6
  -6  -1  12 -17.965 11.5140   5
  -6   1  12 -8.5492 11.3861   5
   6   1 -12 -4.9084 8.01662   2
   6   1 -12 -3.8148 11.6853   7
  -6   1  12 -13.829 11.2677   6
   5  -1 -12 262.223 20.5797   7
  -5  -1  12 284.081 23.8170   5
   5  -1 -12 291.404 16.3923   2
  -5  -1  12 275.068 19.1989   6
   5   1 -12 286.600 17.7227   2
   5   1 -12 296.458 19.7175   7
  -5   1  12 287.340 23.7186   5
  -5   1  12 295.461 22.6236   6
  -4  -1  12 873.041 37.3440   5
   4  -1 -12 910.459 38.2036   7
  -4  -1  12 941.853 38.2332   6
   4   1 -12 878.597 32.8675   2
   4   1 -12 855.607 37.5044   7
  -4   1  12 942.464 38.1299   5
  -4   1  12 983.754 38.6501   6
  -3  -1  12 2.87517 6.48847   6
  -3  -1  12 -4.0911 6.56230   5
   3  -1 -12 -0.1272 9.96617   7
  -3   1  12 -12.481 9.21390   6
  -3   1  12 -2.2998 7.00295   5
   3   1 -12 -11.681 9.38647   7
  -2  -1  12 322.062 19.8550   6
   2  -1 -12 301.584 20.3175   7
  -2  -1  12 294.352 20.6399   5
   2   1 -12 303.416 20.0803   7
  -2   1  12 336.884 21.9800   5
  -2   1  12 297.016 17.6473   6
   1  -1 -12 347.289 20.6428   7
  -1  -1  12 363.119 20.0368   6
  -1  -1  12 336.583 20.8155   5
  -1   1  12 374.944 20.6276   6
  -1   1  12 329.734 19.7506   5
   1   1 -12 357.909 20.2692   7
   0  -1 -12 175.348 15.2834   7
   0  -1  12 177.089 14.8048   6
   0   1 -12 208.033 15.5950   7
   0   1  12 192.741 15.7875   5
   0   1  12 215.011 15.6181   6
  -1  -1 -12 59.3530 9.21422   7
   1  -1  12 36.9203 7.76174   6
  -1   1 -12 53.6364 8.66562   7
   1   1  12 29.2735 7.93185   6
   1   1  12 22.3045 10.2750   5
  -7  -2  12 581.243 33.8075   5
  -7  -2  12 553.130 31.7037   6
   7  -2 -12 584.596 29.7202   7
  -7   2  12 560.384 31.9578   6
  -7   2  12 550.783 29.8894   5
   7   2 -12 596.585 32.6747   7
   7   2 -12 520.568 28.1830   2
  -6  -2  12 1247.88 51.7408   5
  -6  -2  12 1325.43 51.1729   6
   6  -2 -12 1282.04 51.1663   7
   6   2 -12 1326.59 47.1570   2
   6   2 -12 1257.93 50.5658   7
  -6   2  12 1312.86 50.8094   5
  -6   2  12 1334.64 51.4325   6
   5  -2 -12 352.857 24.8787   7
  -5  -2  12 305.440 23.2673   6
  -5  -2  12 309.020 24.6038   5
  -5   2  12 323.814 23.7706   6
   5   2 -12 315.350 17.1523   2
  -5   2  12 268.501 21.0060   5
   5   2 -12 323.127 24.1429   7
  -4  -2  12 9.51392 10.4989   6
   4  -2 -12 0.25916 8.21544   7
  -4  -2  12 6.65254 7.95070   5
  -4   2  12 -6.8001 7.62199   6
  -4   2  12 -4.2917 11.2280   5
   4   2 -12 17.8525 11.1128   7
   4   2 -12 5.39119 7.61789   2
   3  -2 -12 86.2214 13.5944   7
  -3  -2  12 115.013 14.3118   5
  -3  -2  12 104.928 11.7019   6
   3   2 -12 97.4853 11.5568   7
  -3   2  12 114.757 13.9880   6
  -3   2  12 96.6178 14.8423   5
  -2  -2  12 939.479 37.4742   6
  -2  -2  12 954.347 37.0528   5
   2  -2 -12 924.202 38.0634   7
   2   2 -12 960.463 37.5478   7
  -2   2  12 1006.95 40.2935   5
  -2   2  12 890.255 37.6345   6
   1  -2 -12 877.603 35.1596   7
  -1  -2  12 865.511 34.6574   5
  -1  -2  12 869.708 33.3899   6
   1   2 -12 842.949 34.0132   7
  -1   2  12 846.977 36.7389   5
  -1   2  12 865.473 33.7046   6
   0  -2 -12 166.713 14.4810   7
   0  -2  12 166.020 14.6700   6
   0   2 -12 149.334 13.2345   7
   0   2  12 151.294 15.3444   5
   0   2  12 159.799 13.7167   6
   1  -2  12 38.6039 8.19909   6
  -1  -2 -12 59.2910 9.80328   7
   1   2  12 50.8398 11.2321   5
  -1   2 -12 52.6636 9.11513   7
   1   2  12 57.4379 9.40702   6
   6  -3 -12 5.87989 10.0709   7
  -6  -3  12 15.1328 14.6559   1
  -6  -3  12 5.74923 9.29790   5
  -6  -3  12 -16.732 12.1007   6
   6   3 -12 -10.087 9.88263   2
  -6   3  12 13.1281 13.4406   6
   6   3 -12 5.48150 12.7536   7
  -6   3  12 5.52361 13.0906   5
   5  -3 -12 568.404 31.9324   7
  -5  -3  12 559.663 29.2039   5
  -5  -3  12 614.086 31.0764   6
   5   3 -12 591.219 31.4299   7
   5   3 -12 526.832 27.0304   2
  -5   3  12 581.630 32.9093   5
  -5   3  12 625.091 29.3725   6
  -4  -3  12 61.3772 13.2420   6
  -4  -3  12 87.4689 12.6078   5
   4  -3 -12 59.7494 14.5252   7
   4   3 -12 55.2067 13.3316   7
   4   3 -12 85.2969 11.1328   2
  -4   3  12 71.8363 12.2286   5
  -4   3  12 51.9887 13.7358   6
  -3  -3  12 795.219 35.3614   6
   3  -3 -12 809.831 36.1732   7
  -3  -3  12 833.334 36.4017   5
  -3   3  12 799.722 35.6540   6
   3   3 -12 792.946 31.4468   2
   3   3 -12 819.791 35.2386   7
  -3   3  12 835.204 35.9019   5
  -2  -3  12 56.3502 9.29510   6
  -2  -3  12 58.7243 11.2028   5
   2  -3 -12 48.2823 12.2322   7
   2   3 -12 57.7627 9.39128   7
  -2   3  12 37.3927 9.12466   6
  -2   3  12 57.5410 10.7328   5
   1  -3 -12 304.905 21.5159   7
  -1  -3  12 275.686 19.5577   6
  -1   3  12 257.938 20.1589   6
   1   3 -12 330.373 21.1001   7
  -1   3  12 323.016 23.3164   5
   0  -3  12 482.711 22.0503   6
   0  -3 -12 440.261 24.5620   7
   0   3  12 452.742 22.3154   6
   0   3 -12 486.268 24.1845   7
   0   3  12 450.418 24.3549   5
   3  -4 -12 196.679 20.1384   7
  -3  -4  12 231.094 19.0572   6
  -3   4  12 212.047 19.6010   6
   3   4 -12 212.181 18.9060   7
   6   0 -13 8.48913 8.96295   7
  -6   0  13 -22.945 11.1680   5
   6   0 -13 -3.2436 7.93798   2
  -6   0  13 -1.5158 8.83362   6
  -5   0  13 328.914 24.2745   6
   5   0 -13 322.582 25.1588   7
  -5   0  13 329.633 25.5136   5
   4   0 -13 2.39215 11.1566   7
  -4   0  13 1.95161 7.76451   5
  -4   0  13 -17.448 9.99518   6
   3   0 -13 169.177 16.7529   7
  -3   0  13 196.602 17.3187   5
  -3   0  13 257.037 19.7801   6
  -2   0  13 1.10176 6.53719   6
  -2   0  13 1.94516 9.46485   5
   2   0 -13 -1.5018 9.53724   7
   1   0 -13 40.2699 10.9680   7
  -1   0  13 44.0345 10.9758   5
  -1   0  13 38.0408 10.2227   6
  -6  -1  13 143.793 17.9007   6
  -6  -1  13 159.390 19.0275   5
   6  -1 -13 106.061 14.2578   7
   6   1 -13 156.625 12.6223   2
   6   1 -13 153.415 18.3197   7
  -6   1  13 136.993 17.7252   6
  -6   1  13 128.707 17.8105   5
   5  -1 -13 427.154 28.0708   7
  -5  -1  13 446.933 28.5681   5
  -5  -1  13 441.618 24.8165   6
   5   1 -13 461.877 25.2214   7
  -5   1  13 454.068 27.8278   6
  -5   1  13 475.461 26.5209   5
   4  -1 -13 156.666 15.1204   7
  -4  -1  13 199.228 17.9691   6
  -4  -1  13 166.729 15.6826   5
  -4   1  13 124.882 14.1143   6
   4   1 -13 168.198 17.3964   7
  -4   1  13 143.789 17.6649   5
   3  -1 -13 81.4810 13.4431   7
  -3  -1  13 88.4628 13.2586   6
  -3  -1  13 69.2938 10.7220   5
  -3   1  13 67.7173 13.5990   5
   3   1 -13 83.8184 13.3476   7
  -3   1  13 86.2419 13.3649   6
  -2  -1  13 421.484 23.7245   6
   2  -1 -13 453.427 24.7843   7
  -2  -1  13 383.718 24.1503   5
   2   1 -13 383.333 21.3179   7
  -2   1  13 407.347 23.9015   6
  -2   1  13 424.664 25.8556   5
  -1  -1  13 -7.5806 8.23435   5
   1  -1 -13 15.0533 9.82471   7
  -1  -1  13 11.3420 8.85145   6
   1   1 -13 4.31150 9.10864   7
  -1   1  13 4.10772 9.93575   5
  -1   1  13 0.16177 8.64132   6
  -5  -2  13 37.4656 13.7376   5
  -5  -2  13 55.4883 14.2197   6
   5  -2 -13 41.3598 10.8797   7
  -5   2  13 64.4781 12.3036   5
  -5   2  13 35.0132 10.8378   6
   5   2 -13 56.6305 10.2837   2
   5   2 -13 81.7191 14.9845   7
  -4  -2  13 204.282 17.3730   6
  -4  -2  13 197.394 17.3853   5
   4  -2 -13 249.352 20.6350   7
  -4   2  13 247.676 20.1824   6
  -4   2  13 228.269 20.3649   5
   4   2 -13 206.461 17.8077   7
  -3  -2  13 381.048 22.4183   5
  -3  -2  13 390.028 24.1087   6
   3  -2 -13 403.347 22.7490   7
  -3   2  13 393.152 26.9402   5
  -3   2  13 381.025 24.9456   6
   3   2 -13 412.584 25.0433   7
  -2  -2  13 187.352 16.4969   6
   2  -2 -13 157.689 14.7952   7
  -2  -2  13 211.625 17.2123   5
   2   2 -13 182.273 16.7328   7
  -2   2  13 170.021 16.4385   6
  -2   2  13 189.031 18.0120   5
   0   0   0    0.00    0.00   0
 _exptl_absorpt_process_details 'SADABS 2014/5'
 _exptl_absorpt_correction_type   multi-scan
 _exptl_absorpt_correction_T_max  0.7454
 _exptl_absorpt_correction_T_min  0.5986
 _exptl_special_details

;
loop_
_symmetry_equiv_pos_as_xyz
'x, y, z'
'-x+1/2, y+1/2, -z+1/2'
'-x, -y, -z'
'x-1/2, -y-1/2, z-1/2'
loop_
_atom_site_label
_atom_site_type_symbol
_atom_site_fract_x
_atom_site_fract_y
_atom_site_fract_z
_atom_site_U_iso_or_equiv
_atom_site_adp_type
_atom_site_occupancy
_atom_site_site_symmetry_order
_atom_site_calc_flag
_atom_site_refinement_flags_posn
_atom_site_refinement_flags_adp
C1 C 0.8452(5) 0.8595(6) 0.0552(4) 0.0086(9) Uani 1 1 d . .
H1A H 0.827899 0.745838 -0.005045 0.01 Uiso 1 1 calc R U
H1B H 0.759668 0.956339 0.016699 0.01 Uiso 1 1 calc R U
C2 C 1.0039(5) 0.9556(6) 0.0654(4) 0.0102(9) Uani 1 1 d . .
H2A H 1.02861 1.060578 0.13228 0.012 Uiso 1 1 calc R U
H2B H 1.08912 0.855342 0.09174 0.012 Uiso 1 1 calc R U
C3 C 1.0106(5) 0.6332(6) 0.2782(4) 0.0089(9) Uani 1 1 d . .
H3A H 1.101193 0.725866 0.299288 0.011 Uiso 1 1 calc R U
H3B H 1.00937 0.572384 0.36046 0.011 Uiso 1 1 calc R U
C4 C 1.0365(5) 0.4719(6) 0.1906(5) 0.0126(9) Uani 1 1 d . .
H4A H 0.943567 0.385221 0.163333 0.019 Uiso 1 1 calc R U
H4B H 1.130202 0.394449 0.237882 0.019 Uiso 1 1 calc R U
H4C H 1.052322 0.53191 0.113937 0.019 Uiso 1 1 calc R U
S1 S 0.82820(12) 0.77300(15) 0.20851(10) 0.0068(2) Uani 1 1 d . .
Cl1 Cl 0.86845(12) 0.86537(15) 0.55213(11) 0.0115(2) Uani 1 1 d . .
Cu1 Cu 0.86704(6) 1.03529(8) 0.35614(5) 0.00946(17) Uani 1 1 d . .
loop_
_atom_site_aniso_label
_atom_site_aniso_U_11
_atom_site_aniso_U_22
_atom_site_aniso_U_33
_atom_site_aniso_U_23
_atom_site_aniso_U_13
_atom_site_aniso_U_12
C1 0.010(2) 0.0071(19) 0.008(2) 0.0035(17) 0.0019(17) 0.0013(17)
C2 0.010(2) 0.010(2) 0.011(2) -0.0014(19) 0.0032(18) -0.0018(18)
C3 0.007(2) 0.009(2) 0.008(2) 0.0034(18) -0.0017(17) 0.0020(17)
C4 0.013(2) 0.010(2) 0.015(2) 0.0016(19) 0.0046(19) 0.0030(18)
S1 0.0068(5) 0.0071(5) 0.0065(5) 0.0002(4) 0.0022(4) -0.0001(4)
Cl1 0.0094(5) 0.0142(5) 0.0104(5) 0.0034(4) 0.0025(4) -0.0029(4)
Cu1 0.0083(3) 0.0114(3) 0.0086(3) -0.0002(2) 0.0026(2) 0.0022(2)
loop_
_atom_type_symbol
_atom_type_description
_atom_type_scat_dispersion_real
_atom_type_scat_dispersion_imag
_atom_type_scat_source
C C 0.0033 0.0016 'International Tables Vol C Tables 4.2.6.8 and 6.1.1.4'
H H 0 0 'International Tables Vol C Tables 4.2.6.8 and 6.1.1.4'
S S 0.1246 0.1234 'International Tables Vol C Tables 4.2.6.8 and 6.1.1.4'
Cl Cl 0.1484 0.1585 'International Tables Vol C Tables 4.2.6.8 and 6.1.1.4'
Cu Cu 0.3201 1.2651 'International Tables Vol C Tables 4.2.6.8 and 6.1.1.4'
loop_
_geom_angle_atom_site_label_1
_geom_angle_atom_site_label_2
_geom_angle_atom_site_label_3
_geom_angle
_geom_angle_site_symmetry_1
_geom_angle_site_symmetry_3
C2 C1 S1 115.0(3) . .
C2 C2 C1 109.9(5) 3_775 .
C4 C3 S1 114.2(3) . .
C3 S1 C1 102.6(2) . .
C3 S1 Cu1 104.47(14) . 2_645
C1 S1 Cu1 102.97(14) . 2_645
C3 S1 Cu1 101.24(15) . .
C1 S1 Cu1 110.40(14) . .
Cu1 S1 Cu1 131.69(5) 2_645 .
Cu1 Cl1 Cu1 87.39(4) 3_776 .
S1 Cu1 S1 112.96(3) 2_655 .
S1 Cu1 Cl1 119.15(4) 2_655 3_776
S1 Cu1 Cl1 114.37(4) . 3_776
S1 Cu1 Cl1 112.70(4) 2_655 .
S1 Cu1 Cl1 101.73(4) . .
Cl1 Cu1 Cl1 92.61(4) 3_776 .
loop_
_geom_bond_atom_site_label_1
_geom_bond_atom_site_label_2
_geom_bond_distance
_geom_bond_site_symmetry_2
C1 C2 1.531(6) .
C1 S1 1.823(4) .
C2 C2 1.527(9) 3_775
C3 C4 1.517(6) .
C3 S1 1.822(4) .
S1 Cu1 2.3074(11) 2_645
S1 Cu1 2.3441(12) .
Cl1 Cu1 2.3443(12) 3_776
Cl1 Cu1 2.4227(12) .
loop_
_geom_hbond_atom_site_label_D
_geom_hbond_atom_site_label_H
_geom_hbond_atom_site_label_A
_geom_hbond_distance_DH
_geom_hbond_distance_HA
_geom_hbond_distance_DA
_geom_hbond_angle_DHA
_geom_hbond_site_symmetry_A
C1 H1B Cl1 0.99 3 3.908(4) 153.8 2_655
C4 H4B Cl1 0.98 2.88 3.499(5) 121.7 3_766
C1 H1B Cl1 0.99 3 3.908(4) 153.8 2_655
C4 H4B Cl1 0.98 2.88 3.499(5) 121.7 3_766
loop_
_geom_torsion_atom_site_label_1
_geom_torsion_atom_site_label_2
_geom_torsion_atom_site_label_3
_geom_torsion_atom_site_label_4
_geom_torsion
_geom_torsion_site_symmetry_4
S1 C1 C2 C2 -172.9(4) 3_775
C4 C3 S1 C1 -54.9(3) .
C4 C3 S1 Cu1 52.2(3) 2_645
C4 C3 S1 Cu1 -169.0(3) .
C2 C1 S1 C3 -48.8(3) .
C2 C1 S1 Cu1 -157.1(3) 2_645
C2 C1 S1 Cu1 58.5(3) .
