#------------------------------------------------------------------------------
#$Date: 2019-07-10 06:30:08 +0300 (Wed, 10 Jul 2019) $
#$Revision: 216916 $
#$URL: file:///home/coder/svn-repositories/cod/cif/7/23/30/7233049.cif $
#------------------------------------------------------------------------------
#
# This file is available in the Crystallography Open Database (COD),
# http://www.crystallography.net/
#
# All data on this site have been placed in the public domain by the
# contributors.
#
data_7233049
loop_
_publ_author_name
'Schlachter, Adrien Camille'
'Bonnot, Antoine'
'Fortin, Daniel'
'Karsenti, Paul-Ludovic'
'Knorr, Michael'
'Harvey, Pierre D.'
_publ_section_title
;
 Unusual Triplet-Triplet Annihilation in a 3D Copper Chloride Coordination
 Polymer
;
_journal_name_full               'Physical Chemistry Chemical Physics'
_journal_paper_doi               10.1039/C9CP02891A
_journal_year                    2019
_chemical_formula_moiety         'C4 H9 Cl Cu S'
_chemical_formula_sum            'C4 H9 Cl Cu S'
_chemical_formula_weight         188.16
_space_group_IT_number           14
_space_group_name_Hall           '-P 2yn'
_space_group_name_H-M_alt        'P 1 21/n 1'
_symmetry_cell_setting           monoclinic
_symmetry_Int_Tables_number      14
_symmetry_space_group_name_Hall  '-P 2yn'
_symmetry_space_group_name_H-M   'P 1 21/n 1'
_atom_sites_solution_hydrogens   geom
_audit_conform_dict_location     ftp://ftp.iucr.org/pub/cif_core.dic
_audit_conform_dict_name         cif_core.dic
_audit_conform_dict_version      2.4.3
_audit_creation_date             2018-10-31T16:21:19-00:00
_audit_creation_method           'WinGX routine CIF_UPDATE'
_audit_update_record
;
2019-05-21 deposited with the CCDC.    2019-07-09 downloaded from the CCDC.
;
_cell_angle_alpha                90
_cell_angle_beta                 109.052(3)
_cell_angle_gamma                90
_cell_formula_units_Z            4
_cell_length_a                   8.9369(12)
_cell_length_b                   6.7675(9)
_cell_length_c                   10.9024(15)
_cell_measurement_reflns_used    9089
_cell_measurement_temperature    137(2)
_cell_measurement_theta_max      26.4
_cell_measurement_theta_min      2.57
_cell_measurement_wavelength     0.71073
_cell_volume                     623.26(15)
_computing_cell_refinement       'SAINT V8.34A integration software'
_computing_data_collection       'Bruker APEX2 software'
_computing_data_reduction        'SORTAV (Blessing, 1995)'
_computing_molecular_graphics    'Ortep for Windows (Farrugia, 2012)'
_computing_publication_material  'WinGX publication routines (Farrugia, 2012)'
_computing_structure_refinement  'SHELXL-2016/6 (Sheldrick, 2016)'
_diffrn_ambient_temperature      137(2)
_diffrn_detector                 'APEX-II CCD'
_diffrn_measured_fraction_theta_full 0.999
_diffrn_measured_fraction_theta_max 0.999
_diffrn_measurement_device       '\k-geometry diffractometer'
_diffrn_measurement_device_type  'Bruker APEX-II'
_diffrn_measurement_method       '\f or \w oscillation scans'
_diffrn_orient_matrix_UB_11      -0.008786
_diffrn_orient_matrix_UB_12      -0.147075
_diffrn_orient_matrix_UB_13      0.003831
_diffrn_orient_matrix_UB_21      -0.070245
_diffrn_orient_matrix_UB_22      0.014532
_diffrn_orient_matrix_UB_23      0.054542
_diffrn_orient_matrix_UB_31      -0.094913
_diffrn_orient_matrix_UB_32      0.002859
_diffrn_orient_matrix_UB_33      -0.080165
_diffrn_radiation_monochromator  graphite
_diffrn_radiation_probe          x-ray
_diffrn_radiation_type           MoK\a
_diffrn_radiation_wavelength     0.71073
_diffrn_reflns_av_unetI/netI     0.0435
_diffrn_reflns_Laue_measured_fraction_full 0.999
_diffrn_reflns_Laue_measured_fraction_max 0.999
_diffrn_reflns_limit_h_max       11
_diffrn_reflns_limit_h_min       -11
_diffrn_reflns_limit_k_max       8
_diffrn_reflns_limit_k_min       -8
_diffrn_reflns_limit_l_max       13
_diffrn_reflns_limit_l_min       -13
_diffrn_reflns_number            10293
_diffrn_reflns_point_group_measured_fraction_full 0.999
_diffrn_reflns_point_group_measured_fraction_max 0.999
_diffrn_reflns_theta_full        25
_diffrn_reflns_theta_max         26.393
_diffrn_reflns_theta_min         2.571
_diffrn_source                   'sealed x-ray tube'
_diffrn_standards_number         0
_exptl_absorpt_coefficient_mu    4.134
_exptl_absorpt_correction_T_max  0.745
_exptl_absorpt_correction_T_min  0.609
_exptl_absorpt_correction_type   multi-scan
_exptl_absorpt_process_details
;
SADABS-2014/5 - Bruker AXS area detector scaling and absorption correction
;
_exptl_crystal_density_diffrn    2.005
_exptl_crystal_density_method    'not measured'
_exptl_crystal_description       Needle
_exptl_crystal_F_000             380
_exptl_crystal_size_max          0.33
_exptl_crystal_size_mid          0.1
_exptl_crystal_size_min          0.04
_refine_diff_density_max         0.654
_refine_diff_density_min         -1.095
_refine_diff_density_rms         0.122
_refine_ls_extinction_method     none
_refine_ls_goodness_of_fit_ref   1.085
_refine_ls_hydrogen_treatment    constr
_refine_ls_matrix_type           full
_refine_ls_number_constraints    0
_refine_ls_number_parameters     66
_refine_ls_number_reflns         10293
_refine_ls_number_restraints     0
_refine_ls_restrained_S_all      1.085
_refine_ls_R_factor_all          0.0374
_refine_ls_R_factor_gt           0.0314
_refine_ls_shift/su_max          0.001
_refine_ls_shift/su_mean         0
_refine_ls_structure_factor_coef Fsqd
_refine_ls_weighting_details
'w=1/[\s^2^(Fo^2^)+(0.0107P)^2^+2.1541P] where P=(Fo^2^+2Fc^2^)/3'
_refine_ls_weighting_scheme      calc
_refine_ls_wR_factor_gt          0.0759
_refine_ls_wR_factor_ref         0.078
_reflns_Friedel_coverage         0
_reflns_number_gt                9160
_reflns_number_total             10293
_reflns_threshold_expression     'I > 2\s(I)'
_iucr_refine_instructions_details
;
TITL mo_Harvey_AS_CP2_137K_0m in P2(1)/n
    shelx.res
    created by SHELXL-2016/6 at 16:20:12 on 31-Oct-2018
CELL  0.71073   8.9369   6.7675  10.9024   90.000  109.052   90.000
ZERR     4.00   0.0012   0.0009   0.0015    0.000    0.003    0.000
LATT   1
SYMM  1/2 - X, 1/2 + Y, 1/2 - Z
SFAC  C    H    S    CL   CU
UNIT  16 36 4 4 4
MERG   0
EQIV $2 -x+3/2, y+1/2, -z+1/2
HTAB C1 Cl1_$2
EQIV $5 -x+2, -y+1, -z+1
HTAB C4 Cl1_$5
HTAB C1 Cl1_$2
HTAB C4 Cl1_$5
FMAP   2
PLAN    2
SIZE     0.040   0.100   0.330
ACTA    50.00
BOND
L.S.  20
TEMP  -136.47
WGHT    0.010700    2.154100
BASF   0.13913
FVAR       0.70528
MOLE    1
C1    1    0.845530    0.859626    0.055342    11.00000    0.01098    0.00723 =
         0.00813    0.00366    0.00111    0.00119
AFIX  23
H1A   2    0.828403    0.745965   -0.004844    11.00000   -1.20000
H1B   2    0.760001    0.956357    0.016682    11.00000   -1.20000
AFIX   0
C2    1    1.003766    0.955685    0.065313    11.00000    0.01123    0.00999 =
         0.01126   -0.00059    0.00345   -0.00195
AFIX  23
H2A   2    1.028420    1.060705    0.132168    11.00000   -1.20000
H2B   2    1.089067    0.855543    0.091788    11.00000   -1.20000
AFIX   0
C3    1    1.010580    0.633182    0.278267    11.00000    0.00749    0.01121 =
         0.00944    0.00384   -0.00123    0.00258
AFIX  23
H3A   2    1.101247    0.725757    0.299633    11.00000   -1.20000
H3B   2    1.009145    0.572075    0.360380    11.00000   -1.20000
AFIX   0
C4    1    1.036484    0.472518    0.190557    11.00000    0.01474    0.01027 =
         0.01661    0.00141    0.00549    0.00339
AFIX 137
H4A   2    0.943607    0.385840    0.163151    11.00000   -1.50000
H4B   2    1.130214    0.394987    0.237763    11.00000   -1.50000
H4C   2    1.052388    0.532788    0.114014    11.00000   -1.50000
AFIX   0
S1    3    0.828121    0.773290    0.208460    11.00000    0.00778    0.00795 =
         0.00723    0.00024    0.00237   -0.00005
CL1   4    0.868459    0.865250    0.552043    11.00000    0.01071    0.01610 =
         0.01129    0.00405    0.00243   -0.00306
CU1   5    0.867112    1.035536    0.356237    11.00000    0.00964    0.01297 =
         0.00994   -0.00027    0.00288    0.00238
HKLF    5
 
 
 
 
REM  mo_Harvey_AS_CP2_137K_0m in P2(1)/n
REM R1 =  0.0314 for    9160 Fo > 4sig(Fo)  and  0.0374 for all   10293 data
REM     66 parameters refined using      0 restraints
 
END
 
WGHT      0.0107      2.1540
 
REM Highest difference peak  0.654,  deepest hole -1.095,  1-sigma level  0.122
Q1    1   0.9479  0.5258  0.4324  11.00000  0.05    0.65
Q2    1   0.8265  1.1247  0.1368  11.00000  0.05    0.61
;
_cod_data_source_file            c9cp02891a2.cif
_cod_data_source_block           shelx_CCDC8
_cod_original_sg_symbol_H-M      'P 21/n'
_cod_database_code               7233049
_shelx_estimated_absorpt_t_min   0.342
_shelx_estimated_absorpt_t_max   0.852
_iucr_refine_reflections_details
;
  -1   0   0 0.29083 0.97591   6
  -1   0   0 -0.1481 0.89346   7
  -1   0   0 0.48084 0.78633   7
   1   0   0 0.97172 0.74744   6
   1   0   0 -0.9270 0.91900   7
   1   0   0 -1.3584 0.86582   7
  -1   0   0 -0.3791 1.54753   4
  -1   0   0 3.96261 1.67886   2
   2   0   0 42.7341 3.51507   6
  -2   0   0 53.2128 3.80651   6
   2   0   0 45.5353 3.75104   7
  -2   0   0 54.3298 6.34234   4
  -2   0   0 51.0922 4.37523   2
   2   0   0 47.6131 4.12378   7
  -3   0   0 -3.5385 6.19100   4
   3   0   0 -0.1407 3.04212   7
  -3   0   0 -2.5567 2.71059   6
  -3   0   0 -4.2322 3.98793   2
   3   0   0 -3.5157 2.73384   7
   4   0   0 6040.02 179.578   7
  -4   0   0 6575.33 182.714   4
  -4   0   0 5962.32 179.547   6
  -4   0   0 6230.33 180.532   2
   4   0   0 5947.63 179.485   7
   5   0   0 -5.1639 3.67789   7
  -5   0   0 1.04942 3.61616   6
  -5   0   0 -5.9998 3.45358   3
  -5   0   0 0.70442 7.87784   4
  -5   0   0 1.93596 5.10469   2
  -6   0   0 2720.57 81.2202   3
   6   0   0 2751.20 81.9747   7
  -6   0   0 2676.54 86.2538   4
  -6   0   0 2606.17 82.7008   2
  -7   0   0 4.66427 6.83873   2
   7   0   0 -4.3819 5.57861   7
  -7   0   0 2.57808 10.0499   4
  -7   0   0 2.21144 4.59901   3
  -8   0   0 1572.21 53.6046   2
  -8   0   0 1586.43 51.1450   3
   8   0   0 1617.49 52.4587   7
   8   0   0 1596.63 57.0545   1
  -8   0   0 1628.14 59.1422   4
  -9   0   0 7.88811 6.83744   6
  -9   0   0 -3.4317 7.55336   4
   9   0   0 -13.985 9.60101   1
  -9   0   0 6.92559 8.35410   2
   9   0   0 -0.6548 7.02172   7
  10   0   0 334.705 20.2977   7
  10   0   0 343.803 25.1905   1
 -10   0   0 388.175 28.2588   4
 -10   0   0 340.859 19.7325   6
   0  -1   0 -1.7166 2.13956   6
   0  -1   0 -2.4197 1.67475   7
   0  -1   0 -1.9420 1.94342   3
   0  -1   0 -0.9791 1.69620   4
   0   1   0 -3.2061 1.60491   7
   0   1   0 -1.1657 1.59176   6
   0   1   0 -2.9513 2.13178   5
   1  -1   0 3771.37 108.505   7
   1  -1   0 3707.54 108.432   6
  -1  -1   0 3792.19 108.608   6
  -1  -1   0 3714.70 108.698   3
   1  -1   0 3783.95 107.922   3
  -1  -1   0 3668.48 109.454   4
  -1   1   0 3755.19 108.693   5
   1   1   0 3615.26 108.042   5
   1   1   0 3793.15 108.566   6
   1   1   0 3651.03 108.514   7
  -1   1   0 3766.22 108.530   6
  -1   1   0 3649.96 108.381   7
   2  -1   0 2271.16 67.0293   7
  -2  -1   0 2177.26 69.0331   4
  -2  -1   0 2274.55 67.2855   6
  -2  -1   0 2250.84 67.5256   3
   2  -1   0 2295.52 66.9486   6
   2  -1   0 2514.74 68.0606   7
   2   1   0 2195.34 67.1158   1
  -2   1   0 2227.82 66.8145   7
   2   1   0 2213.50 66.3591   5
  -2   1   0 2284.60 66.8932   4
  -2   1   0 2301.28 67.1379   6
   2   1   0 2302.43 66.9110   6
   2   1   0 2215.52 67.1169   7
  -3  -1   0 6131.67 192.174   4
  -3  -1   0 6557.40 189.927   6
  -3  -1   0 6265.30 189.993   3
   3  -1   0 6485.65 190.177   6
   3  -1   0 6456.84 189.625   7
   3   1   0 6643.42 190.186   1
  -3   1   0 6788.44 189.126   7
   3   1   0 6423.54 189.115   6
   3   1   0 6542.26 189.813   7
  -3   1   0 6448.23 190.014   6
  -3   1   0 6302.76 189.603   6
   3   1   0 7012.42 188.946   5
  -3   1   0 6415.35 190.170   4
  -3   1   0 6721.82 190.246   2
  -4  -1   0 1158.63 34.5853   3
  -4  -1   0 1166.90 38.9854   4
   4  -1   0 1048.01 33.7588   7
  -4  -1   0 1041.64 32.3044   7
  -4  -1   0 1054.67 33.8785   6
   4   1   0 1062.17 32.6770   5
  -4   1   0 1051.67 34.7255   2
   4   1   0 1082.03 34.9468   1
  -4   1   0 1015.12 35.1731   4
  -4   1   0 1022.16 33.5313   6
  -4   1   0 1068.28 32.3374   7
   4   1   0 1067.15 34.0610   7
   5  -1   0 914.880 29.9752   7
  -5  -1   0 929.704 36.0914   4
  -5  -1   0 926.715 30.0940   3
  -5  -1   0 933.085 30.3024   6
  -5   1   0 912.076 31.1341   2
   5   1   0 886.534 30.9559   1
   5   1   0 884.237 28.4466   5
  -5   1   0 902.921 31.6382   4
   5   1   0 890.278 30.1820   7
  -5   1   0 884.236 29.7725   6
   6  -1   0 16.2218 5.40677   7
  -6  -1   0 12.4431 5.44290   6
  -6  -1   0 24.9600 5.87396   3
  -6  -1   0 8.75765 7.87795   4
  -6   1   0 19.9696 6.79928   2
  -6   1   0 31.4281 8.41198   4
   6   1   0 22.6261 7.17316   1
   6   1   0 23.0657 3.91900   5
   6   1   0 17.2999 4.49653   7
  -7  -1   0 2387.30 80.8428   4
  -7  -1   0 2390.75 74.0321   6
  -7  -1   0 2341.85 73.7650   3
   7  -1   0 2413.33 74.0215   7
   7   1   0 2352.13 75.9126   1
  -7   1   0 2391.69 74.8737   2
  -7   1   0 2429.26 77.4693   4
  -7   1   0 2345.16 71.6686   3
   7   1   0 2376.34 74.1511   7
   7   1   0 2306.49 71.4203   5
  -8  -1   0 234.745 24.3747   4
  -8  -1   0 229.574 14.1982   6
   8  -1   0 218.315 12.9406   7
  -8  -1   0 219.222 13.6051   3
  -8   1   0 227.101 19.4064   4
  -8   1   0 242.123 14.5676   2
   8   1   0 232.927 14.9069   7
   8   1   0 200.007 16.6721   1
   9  -1   0 166.480 14.3728   7
  -9  -1   0 144.950 11.3631   3
  -9  -1   0 151.241 19.4664   4
  -9  -1   0 144.650 13.1467   6
   9   1   0 114.234 13.2275   1
  -9   1   0 141.679 13.3521   2
  -9   1   0 143.939 15.5392   4
   9   1   0 138.318 11.6931   7
  10  -1   0 110.919 12.1607   7
 -10  -1   0 122.269 19.0224   4
 -10  -1   0 110.420 12.1461   6
  10   1   0 111.404 12.8103   7
 -10   1   0 142.293 15.1407   4
 -10   1   0 103.024 13.0366   2
   0  -2   0 2220.20 64.8354   6
   0  -2   0 2154.52 64.4288   4
   0  -2   0 2117.81 64.7478   7
   0  -2   0 2141.23 64.3217   3
   0   2   0 2176.46 64.9101   7
   0   2   0 2185.63 65.0456   6
   0   2   0 2134.44 64.4878   5
   1  -2   0 474.928 15.3693   3
  -1  -2   0 448.097 16.5259   6
  -1  -2   0 453.786 16.1351   7
   1  -2   0 450.215 16.2279   7
  -1  -2   0 446.481 18.1289   4
  -1  -2   0 454.756 16.6198   3
   1  -2   0 462.216 16.3314   6
   1  -2   0 467.375 14.1336   4
   1   2   0 466.991 15.7541   5
  -1   2   0 457.375 15.9164   7
   1   2   0 463.864 16.7838   6
  -1   2   0 456.525 16.1915   5
   1   2   0 468.443 16.2379   7
  -1   2   0 475.943 16.9155   6
  -2  -2   0 805.941 27.5079   3
   2  -2   0 845.042 27.3725   7
  -2  -2   0 809.002 27.1501   6
  -2  -2   0 833.396 26.6484   7
  -2  -2   0 793.661 28.8552   4
   2  -2   0 865.585 25.6170   3
   2  -2   0 832.987 26.6799   6
  -2   2   0 856.737 26.8430   7
   2   2   0 876.094 27.1028   6
  -2   2   0 817.549 27.1743   6
   2   2   0 827.969 27.2378   7
   2   2   0 813.784 25.7864   5
  -3  -2   0 7.93100 3.69857   7
   3  -2   0 13.8227 4.60954   7
   3   2   0 10.6251 3.66327   6
   3   2   0 9.33868 2.63437   5
  -3   2   0 7.12303 4.33979   6
  -3   2   0 8.18800 2.50474   4
  -4  -2   0 421.593 15.3645   7
  -4  -2   0 394.118 20.3853   4
  -4  -2   0 424.583 16.9655   3
   4  -2   0 441.715 15.6188   6
   4  -2   0 445.134 17.1679   7
  -4   2   0 479.807 15.6880   7
   4   2   0 414.055 14.5984   5
  -4   2   0 428.469 15.6477   4
  -4   2   0 450.605 16.9199   6
  -4   2   0 483.465 16.9085   2
   4   2   0 407.734 15.4218   6
  -5  -2   0 102.549 11.9055   4
  -5  -2   0 103.946 9.01347   6
  -5  -2   0 117.115 9.40819   3
   5  -2   0 116.545 9.78413   7
  -5  -2   0 93.6168 5.81342   7
   5   2   0 101.809 7.93275   7
  -5   2   0 100.574 7.47438   6
  -5   2   0 105.423 5.97105   7
  -5   2   0 99.1964 8.20433   2
  -5   2   0 100.664 8.65706   4
   5   2   0 107.456 6.35239   5
   6  -2   0 22.2863 6.53089   7
  -6  -2   0 34.3541 7.24705   3
  -6  -2   0 4.91641 8.79543   4
  -6  -2   0 17.9332 4.71700   6
  -6   2   0 20.7681 6.16494   4
   6   2   0 21.8671 3.25123   5
  -6   2   0 14.0316 5.92681   6
   6   2   0 26.7117 6.54875   7
  -6   2   0 10.0914 6.65107   2
   7  -2   0 72.0427 7.53876   7
  -7  -2   0 60.5743 8.43349   6
  -7  -2   0 72.2953 15.5035   4
  -7  -2   0 69.8555 9.09586   3
  -7   2   0 57.6514 7.47198   2
   7   2   0 70.7227 7.63630   7
  -7   2   0 68.6170 9.06325   4
   7   2   0 76.6993 8.41781   1
   7   2   0 77.2783 6.29042   5
   8  -2   0 1316.15 45.0489   7
  -8  -2   0 1353.41 54.8188   4
  -8  -2   0 1297.10 45.2098   6
  -8  -2   0 1314.12 44.5417   3
  -8   2   0 1256.14 45.5997   2
   8   2   0 1256.53 45.1642   7
  -8   2   0 1294.58 46.1632   4
   9  -2   0 4.99975 8.03167   7
  -9  -2   0 14.8555 8.07827   6
  -9  -2   0 9.66393 7.50362   3
  -9  -2   0 20.0696 11.6520   4
   9   2   0 12.0023 8.55265   7
  -9   2   0 22.2570 8.78873   2
  10  -2   0 36.1878 7.79325   7
 -10  -2   0 105.031 19.7993   4
 -10  -2   0 58.0583 8.70028   6
 -10   2   0 58.9465 9.04993   2
  10   2   0 57.8860 10.9237   7
   0  -3   0 3.31395 4.67183   6
   0  -3   0 -2.4245 2.49241   4
   0  -3   0 -0.1045 2.86806   3
   0  -3   0 0.64711 5.32696   7
   0   3   0 -1.7330 4.47152   5
   0   3   0 0.10117 3.36544   7
   0   3   0 -0.9367 3.50318   6
   1  -3   0 90.5428 8.03973   7
   1  -3   0 87.8548 5.03690   4
  -1  -3   0 88.0698 7.77415   4
   1  -3   0 87.0502 6.50319   3
  -1  -3   0 90.2531 7.76288   7
  -1  -3   0 81.3028 7.28085   6
  -1  -3   0 85.3017 6.79322   3
   1  -3   0 88.4425 7.72086   6
  -1   3   0 93.7671 7.07356   5
   1   3   0 78.8685 6.99446   7
  -1   3   0 95.2262 7.90426   6
   1   3   0 90.1951 7.41599   5
  -1   3   0 92.0306 6.66968   7
   1   3   0 92.9856 7.18624   6
  -2  -3   0 1092.31 36.1974   7
   2  -3   0 1142.90 34.9956   3
   2  -3   0 1150.95 36.4405   6
   2  -3   0 1135.35 36.7079   7
  -2  -3   0 1102.50 36.5789   3
  -2  -3   0 1101.45 36.8879   6
  -2  -3   0 1131.65 38.3999   4
   2   3   0 1139.37 36.4592   6
   2   3   0 1115.31 36.6542   7
  -2   3   0 1135.22 36.7256   6
  -2   3   0 1135.53 36.4075   7
   2   3   0 1135.50 35.5542   5
  -3  -3   0 23.6396 4.43931   6
   3  -3   0 23.0177 5.07348   7
  -3  -3   0 27.7853 7.30761   4
  -3  -3   0 29.9397 4.50712   7
  -3   3   0 26.4538 4.90295   6
   3   3   0 28.8908 4.11059   5
   3   3   0 23.3878 4.54736   7
   3   3   0 25.9434 4.40586   6
   4  -3   0 370.938 15.2149   6
  -4  -3   0 394.662 16.3870   6
  -4  -3   0 376.503 14.9490   7
   4  -3   0 388.633 16.3679   7
  -4  -3   0 382.232 23.5666   4
  -4  -3   0 395.089 16.8651   3
  -4   3   0 383.640 17.0034   6
  -4   3   0 378.242 15.5874   7
   4   3   0 403.149 14.3222   5
   4   3   0 386.291 15.7340   6
   4   3   0 409.242 16.5777   7
  -5  -3   0 52.3566 10.5956   4
  -5  -3   0 63.7360 7.92990   6
   5  -3   0 55.5724 8.38005   7
  -5  -3   0 48.5952 7.15635   3
  -5  -3   0 48.7400 5.66378   7
   5   3   0 61.1398 6.07449   6
   5   3   0 57.1966 4.87428   5
  -5   3   0 64.8578 4.71610   4
  -5   3   0 62.4359 5.89541   7
   5   3   0 57.5988 8.02286   7
  -5   3   0 69.1143 8.19193   6
  -5   3   0 60.5673 7.87453   2
   6  -3   0 69.6527 7.88200   7
  -6  -3   0 75.4277 12.5625   4
  -6  -3   0 77.2449 9.22888   6
  -6  -3   0 55.3827 9.42727   3
  -6   3   0 73.2345 8.89346   6
   6   3   0 74.8385 9.20525   7
  -6   3   0 61.7609 7.35219   2
   6   3   0 73.3336 5.64523   5
  -6   3   0 77.8257 7.07046   4
  -7  -3   0 352.560 18.2811   6
  -7  -3   0 357.376 24.6581   4
  -7  -3   0 326.118 17.2777   3
   7  -3   0 366.189 18.7789   7
  -7   3   0 341.183 17.8283   6
  -7   3   0 322.106 18.2437   2
   7   3   0 345.915 18.4926   7
  -8  -3   0 112.342 11.9670   6
  -8  -3   0 131.302 12.8645   3
  -8  -3   0 125.788 20.1711   4
   8  -3   0 125.707 12.5458   7
  -8   3   0 134.327 11.3700   2
   8   3   0 124.506 11.4386   7
  -9  -3   0 205.154 16.3799   6
   9  -3   0 179.164 14.4802   7
  -9  -3   0 219.656 15.0780   3
  -9  -3   0 279.984 27.9464   4
  -9   3   0 187.827 14.5935   2
   9   3   0 232.126 15.2177   7
   0  -4   0 581.737 21.8048   4
   0  -4   0 622.042 23.3232   6
   0  -4   0 597.310 22.1732   3
   0  -4   0 586.670 23.8455   7
   0   4   0 603.623 22.7412   6
   0   4   0 618.372 22.9980   5
   0   4   0 594.913 22.4919   7
  -1  -4   0 1946.79 62.7732   6
  -1  -4   0 1999.52 63.0679   7
   1  -4   0 2005.27 62.7912   6
  -1  -4   0 1986.95 63.3202   4
   1  -4   0 2041.04 63.3916   7
   1  -4   0 2001.25 60.0935   4
   1  -4   0 2026.38 61.5004   3
  -1  -4   0 2022.13 62.5607   3
  -1   4   0 1955.35 62.4593   7
   1   4   0 2019.33 63.1866   7
   1   4   0 1974.65 61.8199   5
   1   4   0 2024.45 62.8913   6
  -1   4   0 1927.50 62.3598   5
  -1   4   0 2020.92 63.3358   6
   2  -4   0 91.1324 9.84464   7
   2  -4   0 98.7495 8.53621   6
  -2  -4   0 98.6954 11.0871   4
  -2  -4   0 103.796 8.89609   7
  -2  -4   0 102.792 9.31053   6
  -2  -4   0 84.1844 8.77676   3
   2  -4   0 87.9600 7.24955   3
  -2   4   0 86.0583 7.69314   7
   2   4   0 103.088 9.22870   6
   2   4   0 99.9745 9.28210   7
   2   4   0 79.6689 6.96243   5
  -2   4   0 102.751 9.94840   6
   3  -4   0 660.725 24.4290   6
   3  -4   0 714.497 26.1684   7
  -3  -4   0 688.569 26.7393   3
  -3  -4   0 714.893 26.6166   6
  -3  -4   0 659.093 28.3488   4
  -3  -4   0 702.481 25.1104   7
   3  -4   0 680.461 23.1514   3
   3   4   0 680.655 25.7538   6
   3   4   0 677.910 24.0523   5
  -3   4   0 657.669 26.4946   6
  -3   4   0 689.617 24.7271   7
   3   4   0 696.178 26.6645   7
   4  -4   0 86.6658 10.2304   7
  -4  -4   0 112.148 10.8987   3
  -4  -4   0 96.6961 9.78331   6
  -4  -4   0 70.4813 7.24682   7
  -4  -4   0 88.0013 11.6421   4
   4   4   0 89.5371 7.77019   6
   4   4   0 103.368 9.97625   7
  -4   4   0 134.507 9.94347   7
   4   4   0 74.7555 6.33070   5
  -4   4   0 85.2269 10.0532   6
  -5  -4   0 1240.32 49.3614   4
  -5  -4   0 1102.66 42.1469   7
   5  -4   0 1236.76 42.7086   7
  -5  -4   0 1234.74 42.6008   6
  -5  -4   0 1223.89 43.1890   3
   5   4   0 1218.59 42.5726   7
   5   4   0 1214.35 38.6844   5
  -5   4   0 1239.93 42.4570   6
   6  -4   0 151.813 12.2942   7
  -6  -4   0 158.429 13.8288   3
  -6  -4   0 127.304 11.3151   6
  -6  -4   0 168.815 19.1638   4
  -6   4   0 163.755 13.5031   6
   6   4   0 127.370 11.4978   7
  -6   4   0 149.362 11.1272   2
   6   4   0 126.429 8.96674   5
  -7  -4   0 68.7199 14.1974   4
  -7  -4   0 58.7961 8.92136   3
  -7  -4   0 63.6764 10.2284   6
   7  -4   0 70.2059 10.6345   7
   7   4   0 65.0987 10.5105   7
  -7   4   0 54.9915 9.93455   6
  -7   4   0 55.2697 7.81051   2
  -8  -4   0 76.8410 9.94681   6
  -8  -4   0 79.6787 16.2634   4
   8  -4   0 82.0164 11.9372   7
  -8  -4   0 90.0565 12.4664   3
   8   4   0 71.8133 9.95917   7
  -8   4   0 79.4267 11.4294   6
  -8   4   0 79.9747 11.0408   2
  -9  -4   0 370.583 22.7358   6
   9  -4   0 402.026 23.4651   7
  -9  -4   0 372.493 31.1193   4
  -9  -4   0 394.287 23.9439   3
   9   4   0 391.237 23.3284   7
  -9   4   0 378.384 20.3989   2
   0  -5   0 1.74951 5.73523   7
   0  -5   0 3.59607 4.91207   4
   0  -5   0 0.53349 5.90133   3
   0  -5   0 -2.7369 4.68777   6
   0   5   0 -2.6225 4.84156   5
   0   5   0 3.41985 7.14473   7
   0   5   0 3.88978 8.04772   6
  -1  -5   0 126.535 11.7853   7
  -1  -5   0 110.852 10.1341   6
   1  -5   0 136.075 10.2500   3
   1  -5   0 142.872 12.2325   7
  -1  -5   0 134.213 10.0344   3
   1  -5   0 128.441 7.61757   4
   1  -5   0 120.457 9.97271   6
  -1  -5   0 125.891 12.4928   4
   1   5   0 141.766 11.9715   5
  -1   5   0 119.711 11.0571   6
   1   5   0 112.496 10.0262   7
  -1   5   0 128.802 11.2460   7
   1   5   0 134.249 11.9671   6
  -1   5   0 124.254 10.2191   5
  -2  -5   0 1605.68 55.1441   6
   2  -5   0 1629.89 52.8437   3
   2  -5   0 1742.67 56.4847   7
   2  -5   0 1667.58 54.5440   6
  -2  -5   0 1677.61 56.3633   4
  -2  -5   0 1660.62 54.7754   7
  -2  -5   0 1707.21 54.8806   3
   2   5   0 1667.62 55.2116   7
  -2   5   0 1674.08 55.0379   7
   2   5   0 1700.89 55.4798   6
   2   5   0 1657.00 53.5837   5
  -2   5   0 1684.15 56.1193   6
   3  -5   0 278.388 18.5366   7
   3  -5   0 273.233 12.8769   3
  -3  -5   0 266.222 16.6368   7
  -3  -5   0 268.219 16.8031   6
  -3  -5   0 296.884 20.8979   4
   3  -5   0 267.052 15.1718   6
  -3  -5   0 269.783 17.1132   3
   3   5   0 282.785 14.5997   5
   3   5   0 278.505 16.3411   6
  -3   5   0 278.768 14.4264   7
  -3   5   0 295.101 17.7300   6
   3   5   0 271.799 15.5379   7
  -5  -5   0 40.9452 14.2974   4
   5  -5   0 42.2439 8.20251   7
  -5  -5   0 32.1450 9.23109   6
  -5  -5   0 44.8270 10.4561   3
   5   5   0 34.3693 9.28830   7
  -5   5   0 31.2017 7.50235   6
   5   5   0 43.0469 6.25801   5
  -6  -5   0 1964.85 73.6217   4
   6  -5   0 1986.63 66.2600   7
  -6  -5   0 1917.46 65.6333   6
  -6  -5   0 1922.34 66.4358   3
   6   5   0 1943.26 65.5254   7
  -6   5   0 2002.12 66.1276   6
  -6   5   0 1992.27 64.7877   2
   7  -5   0 96.4910 11.2588   7
  -7  -5   0 89.6194 20.0539   4
  -7  -5   0 100.283 11.8417   3
  -7  -5   0 104.892 12.7888   6
  -7   5   0 119.877 12.3176   2
   7   5   0 97.4889 13.1989   7
  -7   5   0 98.5949 12.5764   6
  -8  -5   0 2.03108 6.72901   6
  -8  -5   0 39.8847 11.5502   3
  -8  -5   0 20.2519 13.7447   4
   8  -5   0 19.7771 8.12755   7
  -8   5   0 20.9367 7.75823   6
  -8   5   0 -3.3965 6.01078   2
   8   5   0 10.3575 7.78665   7
   0  -6   0 39.2547 7.68902   4
   0  -6   0 36.3029 8.38433   7
   0  -6   0 49.2634 7.82028   6
   0  -6   0 56.3393 8.77299   3
   0   6   0 54.0302 10.1292   7
   0   6   0 50.3563 9.77864   5
   0   6   0 34.0178 10.2647   6
  -1  -6   0 668.786 26.8596   3
   1  -6   0 652.865 30.0527   7
  -1  -6   0 660.572 28.0587   7
  -1  -6   0 664.631 28.0040   4
   1  -6   0 658.012 27.3893   6
   1  -6   0 654.860 25.6652   3
  -1  -6   0 695.534 29.2198   6
   1  -6   0 774.827 29.3422   4
   1   6   0 708.904 29.5941   7
  -1   6   0 688.603 29.8607   6
  -1   6   0 664.397 28.6444   7
   1   6   0 702.735 28.1539   5
   1   6   0 679.886 29.3764   6
   2  -6   0 36.7845 7.04375   3
   2  -6   0 36.2459 8.69288   6
   2  -6   0 47.7355 9.27399   7
  -2  -6   0 42.9022 9.49994   3
  -2  -6   0 35.4891 7.69557   6
  -2  -6   0 34.0170 9.95879   4
  -2  -6   0 37.6375 8.14909   7
   2   6   0 32.3813 9.89792   7
  -2   6   0 35.9441 10.5880   6
   2   6   0 37.8692 8.30292   5
  -2   6   0 36.5025 7.43243   7
   2   6   0 33.5638 9.94011   6
   3  -6   0 980.836 37.9355   7
  -3  -6   0 909.843 36.8948   6
   3  -6   0 992.834 33.0746   3
  -3  -6   0 943.393 36.1892   7
  -3  -6   0 889.627 39.0661   4
   3  -6   0 884.331 38.2829   6
  -3  -6   0 926.626 35.4555   3
   3   6   0 909.606 34.1619   5
   3   6   0 936.185 37.0841   7
  -3   6   0 974.857 35.8332   7
   3   6   0 987.657 36.5239   6
  -3   6   0 933.438 37.4847   6
   4  -6   0 56.8468 6.75556   3
  -4  -6   0 67.5068 11.3934   6
  -4  -6   0 64.6829 11.4424   3
   4  -6   0 69.9789 12.3545   7
  -4  -6   0 52.9990 13.5610   4
   4   6   0 57.4250 9.47191   7
   4   6   0 60.9876 8.41625   5
  -4   6   0 50.8590 9.25218   6
  -5  -6   0 539.260 25.2081   3
   5  -6   0 532.549 27.5960   7
  -5  -6   0 561.945 30.5519   4
  -5  -6   0 544.826 26.8338   6
   5   6   0 553.549 25.5654   7
   5   6   0 513.140 21.8467   5
  -5   6   0 491.564 24.6769   6
  -6  -6   0 31.2182 16.0447   4
  -6  -6   0 7.92660 10.7382   3
   6  -6   0 18.7692 11.0328   7
  -6  -6   0 5.59049 9.72328   6
  -6   6   0 29.0531 11.0411   6
   6   6   0 10.6478 10.1419   7
  -7  -6   0 370.428 29.6694   4
  -7  -6   0 351.667 21.0483   6
  -7  -6   0 336.141 21.4641   3
   7  -6   0 347.799 21.3573   7
  -7   6   0 345.849 20.6794   6
  -7   6   0 358.721 21.8049   2
   7   6   0 346.660 21.3147   7
   0  -7   0 -1.9653 10.4763   7
   0  -7   0 -7.8715 8.65915   6
   0  -7   0 -6.9667 5.28767   3
   0   7   0 -4.9768 6.60815   6
   0   7   0 4.91938 6.98561   7
   1  -7   0 -4.0221 6.05355   6
   1  -7   0 -1.2292 7.16930   3
  -1  -7   0 5.99415 7.18301   4
  -1  -7   0 -4.7872 5.91233   3
  -1  -7   0 5.53328 9.41356   6
   1  -7   0 15.7761 11.0545   7
  -1  -7   0 -2.8716 7.00142   7
  -1   7   0 0.18817 7.49958   6
   1   7   0 -1.9946 9.86442   6
   1   7   0 8.17517 6.86192   7
  -1   7   0 37.5924 10.2157   7
   1   7   0 4.89753 9.01764   5
  -2  -7   0 1312.39 48.9421   6
   2  -7   0 1297.61 44.3930   3
  -2  -7   0 1275.93 47.1639   7
   2  -7   0 1319.07 49.4315   7
  -2  -7   0 1267.34 47.4376   3
   2  -7   0 1245.59 50.6670   6
  -2  -7   0 1287.44 48.3173   4
   2   7   0 1307.40 46.5992   5
  -2   7   0 1321.27 47.8669   7
  -2   7   0 1297.44 48.0068   6
   2   7   0 1308.71 48.4432   6
   2   7   0 1301.47 47.7232   7
  -3  -7   0 66.5481 12.1322   3
  -3  -7   0 84.2014 12.8784   7
   3  -7   0 113.624 14.8927   7
  -3  -7   0 128.848 14.1682   6
  -3  -7   0 55.6469 12.5528   4
  -3   7   0 123.039 15.0276   6
   3   7   0 105.607 14.0508   7
   3   7   0 113.709 10.4647   5
  -4  -7   0 214.370 18.4739   3
   4  -7   0 241.817 18.2768   7
  -4  -7   0 215.527 16.9241   6
  -4  -7   0 302.038 25.5606   4
   4   7   0 239.703 14.4249   5
   4   7   0 257.207 20.7185   7
  -4   7   0 226.522 17.5348   6
  -5  -7   0 273.027 18.5755   3
   5  -7   0 229.461 18.7530   7
  -5  -7   0 255.868 27.0641   4
  -5  -7   0 255.661 20.7275   6
   5   7   0 232.448 21.2425   7
  -5   7   0 233.888 21.5978   6
   0  -8   0 247.749 20.2836   7
   0  -8   0 237.622 15.6400   3
   0  -8   0 216.372 19.8261   6
   0   8   0 208.190 17.3435   7
   0   8   0 201.707 17.5718   6
   1  -8   0 475.319 26.0643   7
   1  -8   0 480.623 23.9978   3
  -1  -8   0 459.762 23.4970   3
  -1  -8   0 480.934 27.2429   6
  -1  -8   0 460.677 25.6162   7
   1   8   0 438.242 24.8381   7
  -1   8   0 613.262 29.9092   6
  -1   8   0 444.818 24.6756   7
   1   8   0 584.757 29.2958   6
  -2  -8   0 14.2953 8.58305   7
   2  -8   0 9.19770 9.11918   7
   2  -8   0 7.83364 8.11160   3
  -2  -8   0 9.85531 10.4292   3
  -2  -8   0 17.8244 11.3920   6
   2   8   0 0.20105 11.0408   7
  -2   8   0 24.0018 12.5042   6
  -3  -8   0 87.5778 13.7803   3
  -3  -8   0 65.1151 11.3823   4
   3  -8   0 89.4734 13.1547   7
  -3  -8   0 78.5236 12.4238   6
   3   8   0 77.2621 14.3204   7
  -3   8   0 83.5213 16.1405   6
 -10   0   1 -1.8146 8.01644   6
 -10   0   1 -1.7361 9.11718   2
  10   0  -1 -1.9467 11.5133   1
  10   0  -1 3.36847 8.66683   7
 -10   0   1 11.4328 13.2730   4
  -9   0   1 620.810 33.7187   4
  -9   0   1 577.547 27.4851   2
  -9   0   1 607.833 26.0269   6
   9   0  -1 604.996 26.5066   7
  -9   0   1 597.686 23.9533   3
   9   0  -1 576.120 31.0275   1
   8   0  -1 -2.7733 6.73123   7
  -8   0   1 -0.4765 11.6526   4
  -8   0   1 -10.290 5.13906   2
   8   0  -1 -0.6110 6.91560   1
  -8   0   1 -3.5292 5.45850   3
   7   0  -1 973.478 34.3643   7
  -7   0   1 945.419 35.9421   2
   7   0  -1 1034.62 39.3596   1
  -7   0   1 992.552 33.7711   3
  -6   0   1 7.26383 10.2332   4
   6   0  -1 -2.0568 5.33069   7
  -6   0   1 0.49043 4.43835   2
   5   0  -1 8657.81 270.593   7
  -5   0   1 9167.00 271.405   2
  -5   0   1 9999.99 274.299   4
  -4   0   1 -3.1581 5.41856   4
  -4   0   1 1.14530 3.51319   7
   4   0  -1 1.87669 2.87702   7
  -4   0   1 -1.5401 4.75317   2
   4   0  -1 -2.1752 2.17080   6
  -3   0   1 1657.18 50.6269   2
  -3   0   1 1644.53 52.1872   4
  -3   0   1 1666.84 49.9974   7
   3   0  -1 1672.12 50.0087   6
   3   0  -1 1608.81 50.1848   7
  -2   0   1 -0.6068 2.43063   7
   2   0  -1 -5.6539 3.11781   7
  -2   0   1 0.49107 3.53794   2
   2   0  -1 10.5554 3.35211   6
  -1   0   1 7943.04 242.372   7
   1   0  -1 8500.01 239.914   6
   1   0  -1 8291.91 244.472   1
   1   0  -1 8392.86 242.529   7
  -1   0   1 8328.77 242.428   2
   0   0  -1 -0.1566 0.53183   7
   0   0   1 0.19072 0.60409   7
   0   0  -1 -0.4011 0.66618   6
   0   0  -1 0.52261 0.53720   7
   0   0  -1 1.93306 1.87679   4
   0   0   1 0.29448 0.56261   7
   0   0   1 -0.3270 0.49520   6
   0   0  -1 -0.1843 1.24645   5
   0   0  -1 0.11625 0.69160   6
  -1   0  -1 1367.93 39.9468   3
  -1   0  -1 1341.13 39.7845   5
  -1   0  -1 1382.83 39.9700   2
  -1   0  -1 1361.76 41.1772   4
  -2   0  -1 -2.8960 1.82179   3
  -2   0  -1 1.69945 3.51504   4
  -2   0  -1 0.55899 2.63318   2
  -3   0  -1 3052.98 89.0698   6
  -3   0  -1 3036.30 92.3984   4
  -3   0  -1 3135.42 89.6459   3
  -3   0  -1 3041.44 90.3851   2
  -3   0  -1 3046.00 89.0520   6
   3   0   1 3016.45 88.9605   7
   3   0   1 3069.37 88.9627   7
  -4   0  -1 -1.6366 2.08522   6
  -4   0  -1 3.80842 2.67541   3
  -4   0  -1 4.32759 4.53242   4
   4   0   1 2.56635 2.36746   7
  -4   0  -1 -0.2041 2.66128   2
   4   0   1 2.61585 2.23279   7
   5   0   1 203.746 9.29783   7
  -5   0  -1 206.050 10.4319   2
  -5   0  -1 196.512 9.62728   3
  -5   0  -1 199.496 15.7670   4
   5   0   1 206.613 9.35329   7
  -5   0  -1 202.633 9.06203   6
  -6   0  -1 0.69143 3.50694   3
  -6   0  -1 -2.5007 3.29285   6
   6   0   1 -5.3731 3.73201   7
  -6   0  -1 7.35311 5.65794   2
   6   0   1 -2.0932 3.87596   7
  -6   0  -1 -7.5831 5.79069   4
  -7   0  -1 639.170 25.7355   2
   7   0   1 635.286 23.8976   7
  -7   0  -1 648.787 28.8008   4
  -7   0  -1 649.681 22.6761   3
   8   0   1 4.77986 5.72838   7
  -8   0  -1 -2.2953 4.98234   2
  -8   0  -1 5.14732 4.23322   3
  -8   0  -1 4.07045 7.23028   4
   9   0   1 62.6102 7.68093   7
  -9   0  -1 88.1567 14.8610   4
  -9   0  -1 71.0632 9.12951   6
   9   0   1 66.1869 12.5678   1
 -10   0  -1 -6.7593 11.7981   4
 -10   0  -1 3.16655 7.23794   6
  10   0   1 0.35988 7.64725   7
 -10  -1   1 -4.6279 9.92845   4
 -10  -1   1 5.07883 7.14012   3
  10  -1  -1 7.19294 9.53317   1
  10  -1  -1 14.8382 9.27229   7
 -10  -1   1 19.5952 8.69779   6
 -10   1   1 15.0104 9.47899   2
 -10   1   1 10.1419 11.6180   4
  10   1  -1 -0.6765 8.50300   7
  -9  -1   1 398.733 18.8400   3
   9  -1  -1 426.654 22.0366   7
  -9  -1   1 424.205 21.1628   6
  -9  -1   1 409.049 26.9054   4
  -9   1   1 425.888 26.2323   4
   9   1  -1 412.537 20.1949   7
   9   1  -1 397.456 23.3742   1
  -9   1   1 416.748 22.8508   2
  -8  -1   1 1720.22 57.2199   6
  -8  -1   1 1768.24 65.5107   4
   8  -1  -1 1737.33 57.6169   7
  -8  -1   1 1735.64 56.8686   3
   8   1  -1 1748.51 59.8052   1
   8   1  -1 1694.07 57.5447   7
   8   1  -1 1713.26 54.6405   5
  -8   1   1 1844.95 58.9152   2
  -8   1   1 1722.31 61.0586   4
  -7  -1   1 102.674 8.70150   3
  -7  -1   1 91.9685 9.32295   2
   7  -1  -1 90.3162 9.49757   7
  -7  -1   1 114.706 16.7586   4
  -7  -1   1 105.678 10.0778   6
   7   1  -1 99.7039 8.87235   7
  -7   1   1 110.479 13.3008   4
   7   1  -1 101.117 7.85421   5
   7   1  -1 113.645 11.8829   1
  -7   1   1 97.5292 9.30412   2
  -6  -1   1 337.729 25.2005   4
   6  -1  -1 393.628 17.3234   7
  -6  -1   1 380.666 17.1073   2
  -6  -1   1 386.937 17.0270   6
  -6  -1   1 406.471 17.2238   3
   6   1  -1 372.218 15.0943   5
  -6   1   1 384.005 18.2369   2
   6   1  -1 381.332 17.2452   7
  -6   1   1 401.671 21.1369   4
  -6   1   1 364.791 14.0025   7
   6   1  -1 361.105 19.3616   1
   5  -1  -1 721.642 24.4679   7
  -5  -1   1 676.498 25.2969   2
  -5  -1   1 672.897 24.4598   3
  -5  -1   1 632.684 23.7944   6
   5  -1  -1 614.657 22.6748   6
  -5  -1   1 783.993 31.3846   4
   5   1  -1 696.104 24.6127   7
   5   1  -1 732.060 23.1185   5
  -5   1   1 639.049 24.3068   2
   5   1  -1 609.147 22.5831   6
  -5   1   1 659.958 25.5398   4
   5   1  -1 795.684 26.8151   1
  -5   1   1 658.693 22.4807   7
  -4  -1   1 4090.71 118.963   4
  -4  -1   1 3802.69 115.117   6
   4  -1  -1 3611.61 114.683   7
  -4  -1   1 3939.12 115.603   2
   4  -1  -1 3818.04 114.494   6
   4   1  -1 3665.17 114.328   6
  -4   1   1 4007.16 114.462   7
   4   1  -1 3854.35 115.086   7
  -4   1   1 3894.36 115.426   2
  -4   1   1 4041.71 116.295   4
   4   1  -1 3865.74 115.951   1
   4   1  -1 3943.40 114.082   5
  -3  -1   1 389.259 19.8928   4
   3  -1  -1 365.657 13.2515   6
  -3  -1   1 352.359 14.0387   6
   3  -1  -1 366.076 13.4857   7
  -3  -1   1 345.927 14.4758   2
   3   1  -1 353.993 13.0323   5
   3   1  -1 375.813 13.7862   6
  -3   1   1 354.938 13.2390   7
  -3   1   1 361.434 13.8602   6
  -3   1   1 375.553 16.4007   4
   3   1  -1 343.386 15.0255   1
  -3   1   1 371.768 13.7778   2
   3   1  -1 362.835 14.2267   7
  -2  -1   1 2214.40 64.9831   6
   2  -1  -1 2195.91 64.8715   7
  -2  -1   1 2120.56 67.3203   4
   2  -1  -1 2219.95 64.7930   6
   2   1  -1 2142.48 64.2485   5
   2   1  -1 2134.64 64.7547   7
  -2   1   1 2171.44 64.8447   6
   2   1  -1 2171.38 64.8540   6
  -2   1   1 2190.38 64.7735   7
   1  -1  -1 394.503 13.6294   7
  -1  -1   1 413.670 13.6691   6
   1  -1  -1 387.466 13.4383   3
   1  -1  -1 400.099 13.5748   6
  -1   1   1 406.735 13.9002   7
  -1   1   1 404.406 13.9079   6
   1   1  -1 398.019 13.3471   5
   1   1  -1 421.521 14.1190   6
   1   1  -1 402.745 13.5815   7
   0  -1   1 2405.76 69.3477   6
   0  -1  -1 2308.19 69.3215   7
   0  -1  -1 2440.52 69.4755   6
   0  -1  -1 2317.88 69.8838   4
   0  -1  -1 2329.74 69.4144   3
   0   1  -1 2299.36 69.4880   5
   0   1  -1 2434.97 69.3559   7
   0   1  -1 2403.94 69.4978   6
   0   1   1 2290.68 69.3627   6
   0   1   1 2414.50 69.4304   7
  -1  -1  -1 69.8077 4.42485   6
   1  -1   1 75.3224 2.88029   3
   1  -1   1 73.1774 4.17428   7
  -1  -1  -1 68.3284 6.45119   4
  -1  -1  -1 70.8458 3.96012   7
   1  -1   1 62.7050 3.83413   6
  -1  -1  -1 70.7434 5.73657   3
  -1  -1  -1 79.2666 4.36520   6
   1   1   1 71.4050 3.84154   6
  -1   1  -1 60.8502 3.61611   7
  -1   1  -1 75.3411 4.41345   6
   1   1   1 71.5990 4.22884   7
  -1   1  -1 71.6009 4.12248   6
  -1   1  -1 68.5134 4.10775   4
   1   1   1 69.6612 3.86025   7
  -1   1  -1 71.4319 5.62109   5
  -2  -1  -1 4026.88 118.506   6
   2  -1   1 4167.42 118.316   7
  -2  -1  -1 3964.80 121.085   4
  -2  -1  -1 4104.04 119.236   3
  -2  -1  -1 3751.01 118.326   7
   2  -1   1 4085.68 118.303   7
  -2  -1  -1 4115.07 118.438   6
   2   1   1 4084.55 118.652   1
   2   1   1 4174.71 118.397   7
  -2   1  -1 3967.18 118.970   5
   2   1   1 4160.11 117.789   5
  -2   1  -1 4019.41 118.364   6
  -2   1  -1 3999.36 119.026   4
  -2   1  -1 4160.33 118.754   2
   2   1   1 4101.99 118.452   7
  -2   1  -1 4186.75 118.377   6
   3  -1   1 -6.6268 2.11167   7
  -3  -1  -1 -4.2695 3.41794   3
  -3  -1  -1 -2.9918 2.21385   6
  -3  -1  -1 -3.4590 4.53031   4
  -3  -1  -1 -0.1104 2.30360   6
   3  -1   1 -3.1287 2.14488   7
   3   1   1 -2.4792 2.33593   7
  -3   1  -1 -2.4251 2.12558   6
   3   1   1 0.17342 2.64937   1
   3   1   1 0.03973 1.00237   5
  -3   1  -1 1.74164 2.28994   6
  -3   1  -1 -0.6793 3.40727   2
  -3   1  -1 -0.4601 3.60489   4
  -3   1  -1 -0.5311 1.07924   3
  -4  -1  -1 1972.96 59.5368   3
   4  -1   1 1968.29 58.4971   7
   4  -1   1 1919.60 58.5735   7
  -4  -1  -1 1946.51 63.0559   4
  -4  -1  -1 2019.55 58.7527   6
  -4  -1  -1 1945.34 58.8610   6
  -4   1  -1 2003.65 57.4422   3
   4   1   1 1907.24 59.4165   1
  -4   1  -1 1937.87 59.5218   2
   4   1   1 1904.96 58.7203   7
  -4   1  -1 1935.92 58.5299   6
   4   1   1 1936.79 57.2786   5
  -4   1  -1 1949.59 60.8065   4
  -4   1  -1 1974.14 58.7088   6
  -5  -1  -1 640.470 21.5459   6
   5  -1   1 647.652 21.2708   7
   5  -1   1 604.108 21.1656   7
  -5  -1  -1 632.429 28.4234   4
  -5  -1  -1 616.593 21.1087   6
  -5  -1  -1 634.263 21.6569   3
  -5   1  -1 617.865 19.6544   3
  -5   1  -1 600.045 22.6728   2
   5   1   1 611.462 21.2189   7
  -5   1  -1 600.201 24.4197   4
  -5   1  -1 612.854 21.0800   6
   5   1   1 613.768 19.3457   5
   5   1   1 600.929 21.3732   7
   5   1   1 603.139 23.2171   1
  -5   1  -1 624.073 21.2056   6
  -6  -1  -1 648.561 29.5092   4
  -6  -1  -1 689.852 24.2244   3
   6  -1   1 681.946 23.7504   7
  -6  -1  -1 676.298 23.9281   6
   6   1   1 653.366 21.3555   5
  -6   1  -1 673.760 21.7397   3
  -6   1  -1 682.458 26.6300   4
   6   1   1 675.583 24.0023   7
  -6   1  -1 666.915 24.5501   2
   6   1   1 652.446 25.5094   1
  -7  -1  -1 108.482 9.42567   6
  -7  -1  -1 111.390 8.91048   3
  -7  -1  -1 96.8247 12.8122   4
   7  -1   1 105.355 8.86353   7
  -7   1  -1 119.866 12.6255   4
  -7   1  -1 113.095 10.2773   2
   7   1   1 114.564 10.0928   7
   7   1   1 113.117 10.8363   1
  -7   1  -1 123.162 7.12539   3
  -8  -1  -1 77.0431 8.58402   6
   8  -1   1 80.8100 8.66212   7
  -8  -1  -1 76.5163 8.10275   3
  -8  -1  -1 70.1802 12.1931   4
  -8   1  -1 82.6391 12.3005   4
   8   1   1 76.1905 10.1432   1
   8   1   1 66.3199 7.58857   7
  -8   1  -1 83.6931 9.89993   2
   9  -1   1 106.707 10.5649   7
  -9  -1  -1 95.3912 10.1506   6
  -9  -1  -1 157.686 19.0415   4
  -9   1  -1 95.5731 11.6379   2
   9   1   1 113.224 10.9952   7
  -9   1  -1 125.624 14.6805   4
  10  -1   1 651.639 28.3893   7
 -10  -1  -1 694.284 38.9700   4
 -10  -1  -1 654.338 28.2294   6
 -10   1  -1 649.054 29.6496   2
 -10   1  -1 661.011 34.1414   4
  10   1   1 650.140 28.5818   7
 -10  -2   1 44.3995 10.0121   3
  10  -2  -1 45.2912 10.9286   7
 -10  -2   1 36.7472 10.3253   6
 -10  -2   1 57.5677 14.5746   4
  10   2  -1 49.7253 9.49508   7
 -10   2   1 47.1497 8.85227   2
  -9  -2   1 307.012 16.9660   3
  -9  -2   1 274.051 18.4910   6
  -9  -2   1 325.402 31.1570   4
   9  -2  -1 307.340 17.2506   7
  -9   2   1 319.925 19.9310   2
   9   2  -1 290.909 19.4633   7
  -9   2   1 295.129 20.3933   4
  -8  -2   1 392.307 18.6663   6
   8  -2  -1 378.874 18.5970   7
  -8  -2   1 394.232 30.9279   4
  -8  -2   1 405.564 20.2567   3
  -8   2   1 389.432 21.2639   4
   8   2  -1 393.309 20.5344   7
  -8   2   1 374.526 19.0067   2
  -7  -2   1 281.996 14.1851   3
  -7  -2   1 206.199 13.0139   6
  -7  -2   1 227.614 20.9187   4
   7  -2  -1 226.933 15.1880   7
   7   2  -1 236.215 11.2486   5
  -7   2   1 250.743 16.1294   4
   7   2  -1 248.889 15.6226   7
  -7   2   1 208.230 15.7542   2
  -6  -2   1 5.59058 6.09572   6
  -6  -2   1 -6.5112 12.3300   4
   6  -2  -1 11.8475 6.73334   7
  -6  -2   1 21.9471 7.21189   3
  -6   2   1 12.2407 4.30244   7
  -6   2   1 11.3689 6.62687   4
  -6   2   1 9.62554 6.16243   6
   6   2  -1 8.13251 6.48257   7
  -6   2   1 11.3872 5.23528   2
   6   2  -1 13.5593 4.11148   5
   5  -2  -1 882.417 30.5687   6
   5  -2  -1 1004.93 32.4035   7
  -5  -2   1 904.063 38.6859   4
  -5  -2   1 901.781 32.1416   6
  -5  -2   1 957.553 32.0429   3
  -5   2   1 936.898 32.3925   2
   5   2  -1 898.679 32.1763   7
  -5   2   1 942.673 32.0161   6
  -5   2   1 941.478 31.6022   4
  -5   2   1 972.869 30.8084   7
   5   2  -1 904.490 30.6112   6
   5   2  -1 885.532 29.7703   5
  -4  -2   1 93.5184 10.5847   4
  -4  -2   1 114.279 8.78769   3
  -4  -2   1 99.3336 7.32230   6
   4  -2  -1 99.7564 7.50420   6
   4  -2  -1 106.970 9.34170   7
  -4   2   1 102.770 8.17372   7
   4   2  -1 89.8982 7.32112   7
   4   2  -1 93.9655 6.62705   6
   4   2  -1 90.4016 5.61445   5
  -4   2   1 94.2696 7.60912   2
  -4   2   1 95.2360 7.95040   4
  -4   2   1 101.958 8.51994   6
   3  -2  -1 392.761 15.7601   7
   3  -2  -1 391.025 14.3652   6
  -3  -2   1 389.319 15.4889   6
  -3  -2   1 385.643 20.8711   4
  -3  -2   1 365.763 14.9180   3
  -3   2   1 383.791 15.1327   7
   3   2  -1 358.615 13.8567   5
   3   2  -1 380.585 14.5683   6
   3   2  -1 359.210 14.7090   7
  -3   2   1 394.638 15.4533   6
  -2  -2   1 172.408 9.95308   3
  -2  -2   1 160.282 14.3771   4
   2  -2  -1 170.191 8.28359   6
   2  -2  -1 191.923 10.2943   7
   2  -2  -1 166.868 7.35849   3
  -2  -2   1 167.660 9.46255   6
   2   2  -1 169.348 8.71197   6
   2   2  -1 180.944 9.80078   7
  -2   2   1 173.891 8.52134   7
   2   2  -1 165.930 8.50764   5
  -2   2   1 181.646 9.79202   6
   1  -2  -1 434.281 15.3814   3
   1  -2  -1 424.912 15.7669   7
   1  -2  -1 455.182 16.2047   6
  -1  -2   1 421.700 16.0887   6
  -1  -2   1 441.751 16.0560   3
  -1  -2   1 437.908 18.5822   4
   1  -2  -1 426.382 14.7215   4
  -1   2   1 450.257 15.7466   7
   1   2  -1 432.383 15.2955   5
   1   2  -1 433.616 16.2359   7
   1   2  -1 451.519 16.0152   6
  -1   2   1 424.853 16.4019   6
   0  -2  -1 580.242 19.7767   6
   0  -2   1 621.927 20.0917   6
   0  -2   1 607.951 20.3983   4
   0  -2   1 591.089 19.3629   3
   0  -2  -1 594.068 20.0200   3
   0  -2  -1 572.581 19.7596   7
   0  -2  -1 566.601 20.3024   4
   0   2  -1 595.278 20.0373   7
   0   2   1 585.137 19.8079   7
   0   2  -1 580.063 19.9251   6
   0   2   1 593.334 20.2913   6
   0   2  -1 580.953 20.1502   5
  -1  -2  -1 37.5543 5.33564   4
   1  -2   1 45.2456 3.35458   3
  -1  -2  -1 42.9494 4.06106   7
  -1  -2  -1 33.6411 3.83172   6
  -1  -2  -1 37.8569 5.15626   3
   1  -2   1 40.7822 4.31148   6
  -1   2  -1 39.7940 5.16660   6
  -1   2  -1 41.1289 4.44202   5
   1   2   1 40.6564 4.11366   7
  -1   2  -1 37.9702 3.67833   7
   1   2   1 44.3659 4.12688   6
   1   2   1 38.4570 3.79907   5
  -2  -2  -1 11.1588 3.61419   6
   2  -2   1 19.8228 4.35944   7
   2  -2   1 16.6881 2.99355   6
   2  -2   1 16.9633 2.00165   3
  -2  -2  -1 18.9287 2.85133   7
  -2  -2  -1 19.6105 4.97743   3
  -2   2  -1 14.5393 3.21646   6
  -2   2  -1 23.0227 5.06971   5
  -2   2  -1 20.0310 3.27670   7
   2   2   1 15.5804 2.82935   5
   2   2   1 19.3053 3.44266   6
   2   2   1 17.9754 3.16734   7
  -3  -2  -1 3558.53 114.301   4
   3  -2   1 3744.33 110.904   7
  -3  -2  -1 3653.15 109.918   7
  -3  -2  -1 3691.39 111.915   3
  -3  -2  -1 3796.53 111.256   6
  -3   2  -1 3707.90 110.011   4
  -3   2  -1 3860.87 111.103   6
   3   2   1 3823.87 109.326   5
  -3   2  -1 4023.09 109.942   7
   3   2   1 3694.51 111.123   7
  -4  -2  -1 367.377 15.3337   3
  -4  -2  -1 383.055 19.5502   4
  -4  -2  -1 380.089 15.0193   6
   4  -2   1 370.185 14.9083   7
  -4   2  -1 378.886 14.3129   4
  -4   2  -1 389.586 14.8221   6
   4   2   1 402.204 15.1386   7
   4   2   1 379.373 12.1596   5
  -4   2  -1 359.646 15.1393   2
   5  -2   1 15.9315 5.29518   7
  -5  -2  -1 21.0716 5.08283   6
  -5  -2  -1 22.4101 6.15318   3
  -5  -2  -1 19.6073 10.5908   4
  -5   2  -1 17.0547 3.78996   6
  -5   2  -1 17.8152 4.83533   4
  -5   2  -1 21.1825 1.87727   3
  -5   2  -1 22.7615 4.66282   2
   5   2   1 23.2644 2.14625   5
   5   2   1 10.9173 4.89553   7
  -6  -2  -1 83.4069 7.90898   6
  -6  -2  -1 92.6301 9.16449   3
  -6  -2  -1 84.4310 12.3457   4
   6  -2   1 82.0694 7.96184   7
  -6   2  -1 82.1634 7.74721   6
   6   2   1 87.8064 5.16071   5
   6   2   1 85.8221 8.19263   7
  -6   2  -1 95.2321 8.80232   4
  -6   2  -1 89.8451 8.82079   2
  -7  -2  -1 1918.23 61.3474   6
  -7  -2  -1 1855.79 68.0303   4
   7  -2   1 1958.36 60.9684   7
  -7  -2  -1 1880.08 61.6065   3
  -7   2  -1 1934.31 62.5211   4
   7   2   1 1931.99 61.0137   7
  -7   2  -1 1940.27 61.6212   2
  -7   2  -1 1877.48 60.7032   6
  -8  -2  -1 401.441 26.6084   4
  -8  -2  -1 443.439 19.8739   6
   8  -2   1 419.149 19.7053   7
  -8  -2  -1 420.392 18.8108   3
   8   2   1 408.558 20.0673   7
  -8   2  -1 397.004 19.2159   2
  -8   2  -1 405.995 21.2098   4
   9  -2   1 580.255 24.7975   7
  -9  -2  -1 559.855 32.8834   4
  -9  -2  -1 548.882 24.3996   3
  -9  -2  -1 522.722 24.2714   6
   9   2   1 551.592 24.9662   7
  -9   2  -1 522.897 25.2610   2
  10  -3  -1 207.241 18.8068   7
 -10  -3   1 171.897 26.3565   4
 -10  -3   1 182.114 16.3960   6
 -10  -3   1 181.990 16.5306   3
  10   3  -1 202.660 17.5394   7
 -10   3   1 173.733 14.7058   2
  -9  -3   1 186.205 21.5609   4
  -9  -3   1 167.965 14.0970   3
  -9  -3   1 176.730 15.3760   6
   9  -3  -1 199.387 16.3974   7
  -9   3   1 186.910 15.6882   2
   9   3  -1 187.764 16.8300   7
   8  -3  -1 30.5437 9.35505   7
  -8  -3   1 56.1624 17.4464   4
  -8  -3   1 34.5872 9.89514   3
  -8  -3   1 41.8950 9.17616   6
  -8   3   1 38.9068 9.23280   2
   8   3  -1 23.6428 8.96817   7
   7  -3  -1 574.571 24.4550   7
  -7  -3   1 506.155 29.8985   4
  -7  -3   1 515.124 22.8142   6
  -7  -3   1 523.195 24.5658   3
   7   3  -1 533.211 24.1724   7
  -7   3   1 560.075 22.8456   2
  -7   3   1 546.208 23.6785   6
   7   3  -1 517.785 19.4625   5
  -6  -3   1 398.561 18.1823   6
  -6  -3   1 383.411 19.7595   7
  -6  -3   1 384.241 28.8241   4
  -6  -3   1 391.045 18.6569   3
   6  -3  -1 417.797 20.0805   7
   6   3  -1 408.440 18.3911   7
   6   3  -1 385.347 15.5616   5
  -6   3   1 396.391 19.2540   6
  -6   3   1 398.538 16.2462   4
  -6   3   1 422.698 19.6908   2
  -5  -3   1 26.2295 6.15923   7
   5  -3  -1 22.1882 5.65780   7
  -5  -3   1 15.7227 12.6581   4
   5  -3  -1 24.5613 5.34666   6
  -5  -3   1 19.1943 6.67577   6
  -5  -3   1 23.5245 7.75042   3
  -5   3   1 14.4652 6.82978   2
  -5   3   1 23.5237 3.96662   4
   5   3  -1 22.0071 3.68196   5
  -5   3   1 24.8601 5.66839   7
   5   3  -1 27.0643 7.06605   7
  -5   3   1 17.4967 5.42988   6
   4  -3  -1 35.9525 6.00825   7
  -4   3   1 47.7066 6.17365   6
  -4   3   1 49.8474 4.47596   4
  -3  -3   1 2710.59 82.3663   6
  -3  -3   1 2673.59 82.4134   3
   3  -3  -1 2731.51 80.4466   3
   3  -3  -1 2693.94 82.4087   7
  -3  -3   1 2628.66 84.6665   4
   3  -3  -1 2708.63 81.7953   6
  -3   3   1 2715.04 81.8053   7
   3   3  -1 2661.76 81.9440   6
   3   3  -1 2698.77 80.8713   5
   3   3  -1 2692.77 82.2077   7
  -3   3   1 2698.65 82.4196   6
  -2  -3   1 670.693 23.8697   3
   2  -3  -1 640.330 23.4580   6
  -2  -3   1 646.510 23.8089   6
  -2  -3   1 648.400 25.1380   4
   2  -3  -1 687.448 23.6988   7
   2  -3  -1 660.944 22.2585   3
   2   3  -1 645.209 22.4117   5
  -2   3   1 668.351 23.2257   7
   2   3  -1 682.042 23.5971   6
  -2   3   1 644.392 23.4447   6
   2   3  -1 678.371 23.6105   7
  -1  -3   1 946.190 31.9324   6
   1  -3  -1 965.158 30.2383   4
   1  -3  -1 974.179 31.9770   6
  -1  -3   1 957.142 31.5134   3
   1  -3  -1 941.122 31.7511   7
   1  -3  -1 965.635 31.0237   3
  -1  -3   1 964.093 32.7248   4
   1   3  -1 922.331 31.5642   7
  -1   3   1 949.657 31.9330   7
   1   3  -1 984.334 31.5363   5
   1   3  -1 971.162 31.9188   6
  -1   3   1 973.906 31.8739   6
   0  -3   1 199.799 9.67266   6
   0  -3  -1 193.226 9.85043   6
   0  -3   1 210.383 10.0796   4
   0  -3  -1 192.129 10.4655   4
   0  -3  -1 200.416 10.0786   7
   0  -3  -1 193.108 10.4369   3
   0  -3   1 197.820 10.3965   7
   0  -3   1 210.808 9.07552   3
   0   3   1 193.486 9.33575   5
   0   3  -1 194.593 9.75625   5
   0   3  -1 205.565 10.7664   7
   0   3   1 208.718 11.1419   6
   0   3  -1 189.275 11.3560   6
   0   3   1 198.627 11.1735   7
  -1  -3  -1 1004.32 33.1734   6
   1  -3   1 995.087 32.3903   6
  -1  -3  -1 991.053 32.5815   7
  -1  -3  -1 1003.90 34.4726   4
   1  -3   1 1005.28 31.4602   3
   1  -3   1 1033.08 30.5277   4
  -1  -3  -1 1003.81 33.1876   3
   1  -3   1 990.691 32.9047   7
  -1   3  -1 1006.51 32.9700   5
  -1   3  -1 1023.60 32.4782   7
   1   3   1 972.532 31.9236   5
   1   3   1 998.687 33.2667   7
   1   3   1 1009.18 33.0521   6
  -1   3  -1 996.200 32.9620   6
  -2  -3  -1 1245.82 40.0702   6
   2  -3   1 1220.87 38.9043   6
  -2  -3  -1 1205.51 39.0630   7
  -2  -3  -1 1244.68 40.0834   3
   2  -3   1 1260.46 37.7010   3
   2  -3   1 1241.55 39.7546   7
   2   3   1 1214.59 39.1989   6
  -2   3  -1 1220.06 38.8578   7
   2   3   1 1241.17 40.0842   7
   2   3   1 1270.43 38.4168   5
  -2   3  -1 1254.12 39.8092   6
   3  -3   1 1566.42 50.9440   6
  -3  -3  -1 1705.45 56.5040   4
   3  -3   1 1705.13 52.5401   7
  -3  -3  -1 1700.88 53.2481   3
   3  -3   1 1619.65 49.5251   3
  -3  -3  -1 1732.35 52.7023   6
  -3  -3  -1 1588.76 51.2001   7
   3   3   1 1648.36 51.4305   6
   3   3   1 1642.61 50.2289   5
   3   3   1 1762.18 52.7445   7
  -3   3  -1 1644.78 52.3991   6
  -3   3  -1 1688.13 51.1072   7
  -4  -3  -1 281.864 13.8319   3
  -4  -3  -1 262.671 11.4426   7
   4  -3   1 290.531 13.2664   7
  -4  -3  -1 270.720 13.6956   6
  -4  -3  -1 281.325 21.0155   4
   4   3   1 282.021 10.3261   5
  -4   3  -1 281.721 11.3820   7
  -4   3  -1 289.070 13.9277   6
   4   3   1 288.065 14.2063   7
  -5  -3  -1 59.1215 10.7547   4
   5  -3   1 54.3755 6.41879   7
  -5  -3  -1 53.9937 7.33664   6
  -5  -3  -1 73.0078 8.91213   3
  -5   3  -1 48.9593 7.41432   6
   5   3   1 52.4793 4.14073   5
  -5   3  -1 54.1758 5.03972   4
  -5   3  -1 41.0956 7.00965   2
   5   3   1 38.1822 7.22210   7
  -6  -3  -1 1169.48 40.1675   3
  -6  -3  -1 1101.39 38.5746   6
  -6  -3  -1 1178.21 47.8123   4
   6  -3   1 1135.66 38.9746   7
  -6   3  -1 1083.25 38.4988   6
  -6   3  -1 1105.50 39.1236   4
   6   3   1 1172.08 39.2473   7
  -6   3  -1 1097.36 38.6880   2
  -7  -3  -1 130.690 10.2925   6
  -7  -3  -1 169.955 14.0698   3
   7  -3   1 137.498 11.6825   7
  -7  -3  -1 151.031 16.7727   4
  -7   3  -1 131.258 11.8134   2
   7   3   1 143.302 12.7522   7
  -7   3  -1 144.861 12.0212   6
   8  -3   1 27.0181 6.70767   7
  -8  -3  -1 24.8497 8.71653   3
  -8  -3  -1 29.7310 8.02547   6
  -8  -3  -1 20.5309 11.7013   4
   8   3   1 18.2313 7.82384   7
  -8   3  -1 21.0663 7.57650   6
  -8   3  -1 29.1221 8.38672   2
   9  -3   1 26.3290 9.35373   7
  -9  -3  -1 37.8992 9.14569   6
  -9  -3  -1 36.3525 14.1143   4
  -9  -3  -1 34.1064 9.42233   3
  -9   3  -1 30.2778 7.32321   2
   9   3   1 29.2577 9.05860   7
   9  -4  -1 93.7925 13.3684   7
  -9  -4   1 71.1059 12.3003   6
  -9  -4   1 99.6398 22.3122   4
  -9  -4   1 73.8830 11.0062   3
  -9   4   1 73.1710 12.0005   2
   9   4  -1 65.2560 12.1982   7
  -8  -4   1 56.4025 9.26778   6
  -8  -4   1 62.5167 9.81603   3
  -8  -4   1 57.3226 18.7897   4
   8  -4  -1 65.3374 9.48620   7
  -8   4   1 48.7489 8.64488   6
  -8   4   1 45.5954 9.83181   2
   8   4  -1 69.3194 9.74846   7
  -7  -4   1 9.02853 6.62297   3
   7  -4  -1 4.37867 8.69554   7
  -7  -4   1 19.7144 15.1645   4
  -7  -4   1 7.67910 8.40210   6
   7   4  -1 -7.6863 8.12795   7
  -7   4   1 -0.2294 8.07529   6
  -7   4   1 -2.8191 5.51038   2
  -6  -4   1 1084.62 40.2596   6
  -6  -4   1 1103.93 46.2027   4
   6  -4  -1 1184.99 41.4075   7
  -6  -4   1 1141.82 41.4575   3
   6   4  -1 1109.40 36.8050   5
  -6   4   1 1119.01 39.4768   2
  -6   4   1 1122.04 40.6794   6
   6   4  -1 1094.11 40.1091   7
  -5  -4   1 1350.46 45.0770   7
  -5  -4   1 1356.17 47.4610   3
   5  -4  -1 1371.03 45.4916   6
  -5  -4   1 1384.51 51.8845   4
  -5  -4   1 1338.67 47.1853   6
   5  -4  -1 1419.07 46.8782   7
   5   4  -1 1407.05 46.8300   7
   5   4  -1 1274.28 45.0170   6
   5   4  -1 1387.69 44.0306   5
  -5   4   1 1337.68 46.3897   6
  -5   4   1 1434.90 45.4849   7
   4  -4  -1 969.411 33.8384   6
  -4  -4   1 981.653 35.3370   6
  -4  -4   1 976.809 35.5587   3
  -4  -4   1 963.361 40.3186   4
  -4  -4   1 950.171 34.4278   7
   4  -4  -1 974.017 35.7304   7
  -4   4   1 1029.03 35.6842   6
   4   4  -1 964.752 32.8037   5
   4   4  -1 959.662 35.3124   7
   4   4  -1 959.167 33.8756   6
  -4   4   1 981.048 34.0762   7
  -3  -4   1 101.648 8.73565   7
  -3  -4   1 96.1788 9.61609   6
  -3  -4   1 81.5096 8.17887   3
  -3  -4   1 78.5558 10.2330   4
   3  -4  -1 98.1138 8.91800   6
   3  -4  -1 94.3406 7.76482   3
   3  -4  -1 104.196 10.5035   7
   3   4  -1 94.8332 9.65805   6
  -3   4   1 84.9155 9.73120   6
  -3   4   1 92.2746 9.05702   7
   3   4  -1 88.8239 9.56225   7
   3   4  -1 90.4664 7.44408   5
  -2  -4   1 1397.39 46.1029   3
  -2  -4   1 1402.20 48.0945   4
  -2  -4   1 1354.71 46.3884   6
   2  -4  -1 1378.94 46.7690   7
   2  -4  -1 1445.76 46.2700   6
  -2  -4   1 1404.44 46.0474   7
   2  -4  -1 1459.15 44.7493   3
  -2   4   1 1440.41 46.9116   6
   2   4  -1 1423.49 46.6152   6
   2   4  -1 1398.85 44.9348   5
   2   4  -1 1366.59 46.0343   7
  -2   4   1 1390.55 45.7475   7
  -1  -4   1 1052.01 36.3466   6
   1  -4  -1 1119.17 36.4290   7
   1  -4  -1 1076.56 35.1454   3
  -1  -4   1 1032.68 35.8665   4
   1  -4  -1 1039.95 35.7852   6
   1  -4  -1 1044.62 33.9613   4
  -1  -4   1 1079.44 35.7778   3
  -1  -4   1 1051.48 36.1422   7
   1   4  -1 1052.45 35.7326   5
  -1   4   1 1065.86 36.6931   6
   1   4  -1 1038.29 36.3917   7
  -1   4   1 1073.20 36.5109   7
   1   4  -1 1079.24 36.7792   6
   0  -4  -1 1158.94 38.7126   3
   0  -4   1 1189.93 38.5435   3
   0  -4  -1 1188.10 39.1068   4
   0  -4   1 1182.39 39.3227   6
   0  -4   1 1171.96 38.2165   4
   0  -4   1 1178.99 39.7074   7
   0  -4  -1 1161.19 39.8012   6
   0  -4  -1 1179.59 39.4855   7
   0   4   1 1192.93 40.0256   6
   0   4   1 1190.37 39.1502   5
   0   4  -1 1204.24 39.2504   5
   0   4  -1 1254.63 40.4942   6
   0   4   1 1214.43 40.0398   7
   0   4  -1 1145.31 39.4812   7
  -1  -4  -1 1729.66 55.6278   4
   1  -4   1 1682.48 54.2949   6
  -1  -4  -1 1732.19 55.0153   7
   1  -4   1 1725.96 53.2186   3
   1  -4   1 1726.33 51.8370   4
   1  -4   1 1744.85 55.5406   7
  -1  -4  -1 1711.32 55.2075   6
  -1  -4  -1 1752.55 54.7000   3
   1   4   1 1685.62 55.2141   7
  -1   4  -1 1706.55 54.6234   7
  -1   4  -1 1731.28 55.4465   6
   1   4   1 1731.00 53.8763   5
   1   4   1 1715.27 55.0255   6
  -1   4  -1 1709.02 55.1774   5
  -2  -4  -1 74.7272 8.75544   4
  -2  -4  -1 72.4162 7.37904   3
  -2  -4  -1 74.3487 8.24766   7
  -2  -4  -1 63.3736 8.14372   6
   2  -4   1 74.7997 9.12656   7
   2  -4   1 80.9741 7.50420   6
   2  -4   1 74.3055 6.30493   3
  -2   4  -1 70.5982 7.42874   7
   2   4   1 74.6462 7.47664   7
  -2   4  -1 77.4624 8.96638   6
   2   4   1 73.9297 6.23694   5
   2   4   1 86.9310 8.36886   6
  -2   4  -1 78.3544 9.09753   5
   3  -4   1 198.828 8.89232   3
  -3  -4  -1 207.937 15.2804   4
  -3  -4  -1 190.189 10.7529   7
   3  -4   1 196.400 10.0341   6
  -3  -4  -1 282.224 14.9521   3
  -3  -4  -1 211.396 11.7836   6
   3  -4   1 224.920 12.6276   7
  -3   4  -1 197.113 10.3632   7
   3   4   1 191.609 9.32211   5
  -3   4  -1 203.282 13.4948   6
   3   4   1 204.613 11.9544   7
   3   4   1 201.168 11.9772   6
  -4  -4  -1 923.481 32.5551   6
   4  -4   1 884.745 31.8411   7
  -4  -4  -1 841.467 32.9240   3
  -4  -4  -1 885.569 38.2225   4
  -4  -4  -1 876.549 30.2835   7
   4   4   1 913.524 28.9594   5
  -4   4  -1 898.976 32.4093   6
   4   4   1 892.558 32.5013   7
  -4   4  -1 876.498 29.9298   7
   4   4   1 856.457 32.2389   6
  -5  -4  -1 755.301 30.3341   3
  -5  -4  -1 739.402 34.1856   4
  -5  -4  -1 754.567 28.4172   6
   5  -4   1 811.154 29.8239   7
   5   4   1 721.676 28.2530   7
   5   4   1 717.718 24.4527   5
  -5   4  -1 786.196 29.3188   6
  -6  -4  -1 71.9661 10.8722   3
   6  -4   1 91.2562 10.5177   7
  -6  -4  -1 64.9131 9.32855   6
  -6  -4  -1 82.9005 16.2904   4
   6   4   1 71.3837 8.44311   7
  -6   4  -1 68.9529 8.14262   6
  -6   4  -1 75.7096 9.09621   2
  -7  -4  -1 17.9811 7.21950   3
  -7  -4  -1 25.5739 6.65652   6
   7  -4   1 20.6283 8.49981   7
  -7  -4  -1 28.4974 12.1556   4
  -7   4  -1 31.6706 8.55098   6
   7   4   1 26.7904 6.80139   7
  -7   4  -1 41.5738 8.14698   2
  -8  -4  -1 52.4302 18.6640   4
   8  -4   1 60.3883 10.8906   7
  -8  -4  -1 48.0230 10.0205   6
  -8  -4  -1 52.7584 11.5876   3
  -8   4  -1 64.1891 10.0394   2
  -8   4  -1 58.0050 8.69865   6
   8   4   1 49.4294 8.71114   7
  -9  -4  -1 194.613 16.9249   6
   9  -4   1 207.422 17.8246   7
  -9  -4  -1 144.642 15.6126   3
   9   4   1 203.468 17.8433   7
  -9   4  -1 214.453 16.7530   6
   8  -5  -1 191.210 17.4074   7
  -8  -5   1 172.121 15.3389   3
  -8  -5   1 158.859 14.6634   6
  -8  -5   1 195.884 23.0888   4
  -8   5   1 170.604 14.0590   2
  -8   5   1 172.158 16.3147   6
   8   5  -1 186.592 15.7047   7
  -7  -5   1 566.105 27.9389   3
  -7  -5   1 524.761 32.4766   4
  -7  -5   1 535.928 26.9104   6
   7  -5  -1 551.560 25.4011   7
  -7   5   1 543.946 25.7484   2
  -7   5   1 496.679 24.7097   6
   7   5  -1 512.823 26.8807   7
  -6  -5   1 68.5594 9.59465   6
   6  -5  -1 81.0518 12.3301   7
  -6  -5   1 65.9320 13.7363   4
  -6  -5   1 85.0635 10.7774   3
   6   5  -1 73.8459 9.91660   7
   6   5  -1 93.4526 7.72115   5
  -6   5   1 96.9258 12.2853   6
  -5  -5   1 136.569 17.5893   4
  -5  -5   1 152.542 12.4157   7
   5  -5  -1 107.060 12.9417   7
  -5  -5   1 133.083 11.9134   3
  -5  -5   1 126.418 12.6888   6
  -5   5   1 108.946 12.4889   6
   5   5  -1 118.745 9.65047   5
   5   5  -1 127.528 11.5781   7
  -4  -5   1 167.021 13.9299   3
   4  -5  -1 174.082 13.0399   6
   4  -5  -1 186.677 16.7378   7
   4  -5  -1 176.972 10.6068   3
  -4  -5   1 180.361 17.8613   4
  -4  -5   1 197.236 15.2175   7
  -4  -5   1 167.933 12.6673   6
   4   5  -1 181.714 13.3578   7
  -4   5   1 151.642 11.5654   7
   4   5  -1 156.711 10.5117   5
  -4   5   1 168.567 13.0337   6
   4   5  -1 170.913 12.2098   6
  -3  -5   1 467.786 21.2160   7
   3  -5  -1 481.406 18.8333   3
  -3  -5   1 476.312 21.2415   3
  -3  -5   1 484.796 21.5204   6
   3  -5  -1 485.227 23.8106   7
   3  -5  -1 504.724 20.7438   6
  -3  -5   1 516.914 26.5409   4
   3   5  -1 467.180 22.5085   6
   3   5  -1 488.336 21.7672   7
  -3   5   1 492.017 22.1883   7
  -3   5   1 485.791 23.2401   6
   3   5  -1 487.260 19.7964   5
   2  -5  -1 815.840 28.9244   3
   2  -5  -1 852.303 30.7713   6
  -2  -5   1 861.328 31.3404   3
  -2  -5   1 873.632 32.0733   6
   2  -5  -1 797.992 31.1683   7
  -2  -5   1 798.544 30.8972   7
  -2  -5   1 793.677 31.8105   4
  -2   5   1 762.651 31.8784   6
   2   5  -1 820.285 31.9751   7
  -2   5   1 842.044 31.7297   7
   2   5  -1 904.118 32.5453   6
   2   5  -1 847.499 30.6883   5
  -1  -5   1 246.643 13.5231   4
  -1  -5   1 235.088 13.5741   6
   1  -5  -1 236.392 15.0635   6
  -1  -5   1 212.719 16.7152   7
  -1  -5   1 246.056 13.1240   3
   1  -5  -1 224.482 12.1632   3
   1  -5  -1 231.701 16.9914   7
   1  -5  -1 249.120 11.6690   4
   1   5  -1 231.203 15.7420   7
  -1   5   1 225.881 16.1090   6
   1   5  -1 234.658 13.3806   5
  -1   5   1 242.374 13.8910   7
   1   5  -1 250.119 14.5449   6
   0  -5  -1 5.19622 5.01751   6
   0  -5  -1 6.17957 5.49369   4
   0  -5   1 6.12773 8.77814   7
   0  -5   1 3.24914 5.90943   3
   0  -5   1 5.51368 4.93643   4
   0  -5   1 -3.1443 6.47299   6
   0  -5  -1 11.2052 5.85137   7
   0  -5  -1 -1.1306 4.32994   3
   0   5  -1 -1.1529 4.71481   7
   0   5  -1 -7.7017 5.04523   5
   0   5   1 2.00186 7.61188   6
   0   5   1 0.58806 5.34863   7
   0   5  -1 7.80436 5.97597   6
  -1  -5  -1 1889.80 60.7891   6
  -1  -5  -1 1818.55 59.8650   3
   1  -5   1 1822.88 58.0546   3
  -1  -5  -1 1894.36 60.3787   7
   1  -5   1 1825.32 60.2280   7
  -1  -5  -1 1868.99 60.7854   4
   1  -5   1 1848.19 56.1266   4
   1  -5   1 1828.88 59.7560   6
   1   5   1 1836.75 58.6081   5
   1   5   1 1870.17 60.3916   6
  -1   5  -1 1789.01 59.7346   5
  -1   5  -1 1898.61 60.0179   7
  -1   5  -1 1808.26 60.7116   6
   1   5   1 1864.36 60.2112   7
   2  -5   1 551.157 23.0826   6
  -2  -5  -1 622.656 25.1678   7
  -2  -5  -1 617.413 25.5479   3
   2  -5   1 609.253 22.1735   3
   2  -5   1 638.456 26.8798   7
  -2  -5  -1 622.139 27.7673   4
  -2  -5  -1 599.004 24.6099   6
  -2   5  -1 600.655 23.5703   7
  -2   5  -1 599.866 26.1033   5
   2   5   1 605.955 24.7433   7
   2   5   1 631.067 25.2388   6
   2   5   1 611.001 22.6465   5
  -2   5  -1 609.442 26.1379   6
  -3  -5  -1 442.406 19.3995   6
   3  -5   1 331.593 16.4267   6
   3  -5   1 466.405 16.1324   3
   3   5   1 396.616 19.0257   7
  -3   5  -1 363.992 16.9608   7
   3   5   1 405.796 17.8688   6
  -4  -5  -1 121.703 16.0032   4
  -4  -5  -1 114.638 10.4253   6
   4  -5   1 100.815 6.81989   3
   4  -5   1 103.012 10.4363   7
  -4  -5  -1 103.807 11.9568   3
  -4   5  -1 99.8400 10.0552   6
   4   5   1 111.614 8.69131   5
   4   5   1 120.400 10.6203   7
  -5  -5  -1 1404.64 53.7567   4
  -5  -5  -1 1418.38 49.3680   3
  -5  -5  -1 1339.33 47.8739   6
   5  -5   1 1375.69 48.5800   7
   5   5   1 1366.78 47.9486   7
  -5   5  -1 1361.92 48.3623   6
  -6  -5  -1 131.614 14.1729   3
  -6  -5  -1 161.860 14.2506   6
   6  -5   1 168.554 14.7589   7
  -6  -5  -1 187.825 21.7539   4
   6   5   1 149.528 13.1642   7
  -6   5  -1 134.450 13.4543   6
  -6   5  -1 141.893 11.7205   2
  -7  -5  -1 1.93495 10.9981   4
  -7  -5  -1 8.95577 10.1278   3
   7  -5   1 13.3856 9.72883   7
  -7  -5  -1 3.50894 6.00952   6
  -7   5  -1 -0.5351 5.27513   2
  -7   5  -1 -2.9155 8.19867   6
   7   5   1 3.30486 6.32556   7
  -8  -5  -1 105.961 23.1385   4
  -8  -5  -1 71.5483 12.0405   6
   8  -5   1 69.4305 12.6844   7
  -8  -5  -1 94.7578 11.8426   3
  -8   5  -1 84.8362 12.4061   6
  -8   5  -1 88.9392 11.7397   2
   8   5   1 78.9692 10.7378   7
   7  -6  -1 -12.252 10.6908   7
  -7  -6   1 25.2342 17.6906   4
  -7  -6   1 9.34259 11.4234   3
  -7  -6   1 15.3878 7.83122   6
   7   6  -1 8.52100 7.72696   7
  -7   6   1 2.05587 9.73299   2
  -7   6   1 16.9769 10.9898   6
  -6  -6   1 230.956 21.6845   4
   6  -6  -1 202.156 17.8647   7
  -6  -6   1 219.418 18.3796   3
  -6  -6   1 216.808 18.6878   6
   6   6  -1 189.720 17.4390   7
  -6   6   1 209.410 18.6587   6
   5  -6  -1 -4.1811 10.2720   7
  -5  -6   1 -8.2966 9.58447   3
  -5  -6   1 18.3692 13.4890   4
  -5  -6   1 6.36307 6.68591   6
   5   6  -1 7.00675 6.77202   5
   5   6  -1 3.72422 6.92620   7
  -5   6   1 -7.8871 9.28848   6
   4  -6  -1 154.274 15.2861   7
  -4  -6   1 149.461 13.3920   6
  -4  -6   1 155.898 13.2333   3
  -4  -6   1 179.740 18.4264   4
   4  -6  -1 152.373 11.5250   3
  -4  -6   1 155.520 13.2903   7
   4   6  -1 163.146 12.6474   5
  -4   6   1 166.448 15.4380   6
  -4   6   1 161.061 12.7531   7
   4   6  -1 156.047 14.1399   7
  -3  -6   1 58.8400 9.02064   7
  -3  -6   1 57.6034 10.6973   3
   3  -6  -1 52.9648 9.46410   7
   3  -6  -1 53.9981 9.91591   6
   3  -6  -1 43.3006 7.57347   3
  -3  -6   1 50.0091 12.0411   4
  -3  -6   1 68.2775 10.8652   6
   3   6  -1 40.5799 8.25018   6
   3   6  -1 44.5796 10.5001   7
  -3   6   1 57.3111 11.4374   6
   3   6  -1 61.4943 9.48784   5
  -3   6   1 64.6352 10.3253   7
  -2  -6   1 1249.41 44.6307   6
  -2  -6   1 1218.37 42.8422   3
   2  -6  -1 1200.48 45.0688   7
   2  -6  -1 1249.10 41.9376   3
   2  -6  -1 1190.77 43.8423   6
  -2  -6   1 1197.64 44.6094   7
  -2  -6   1 1201.88 44.9088   4
   2   6  -1 1229.72 44.6797   6
   2   6  -1 1164.86 43.4439   7
  -2   6   1 1226.46 45.1602   6
  -2   6   1 1230.30 43.4240   7
   2   6  -1 1266.56 43.3824   5
  -1  -6   1 5.52777 7.95327   6
  -1  -6   1 -0.1451 6.54236   4
   1  -6  -1 3.39931 4.88803   3
   1  -6  -1 3.51551 4.16533   4
  -1  -6   1 6.83838 6.87673   7
   1  -6  -1 -4.8430 9.08395   7
  -1  -6   1 5.67705 7.59111   3
   1  -6  -1 10.5281 8.05306   6
  -1   6   1 16.0445 9.20214   6
   1   6  -1 3.80086 8.95681   6
   1   6  -1 -3.9826 7.94319   5
  -1   6   1 -1.8568 8.37092   7
   1   6  -1 -4.0366 5.60032   7
   0  -6   1 10.1943 6.11250   4
   0  -6  -1 3.21462 8.13125   6
   0  -6  -1 5.39423 5.78431   4
   0  -6   1 16.8587 7.49636   7
   0  -6  -1 10.3390 6.94150   7
   0  -6  -1 25.8653 8.01945   3
   0  -6   1 5.94988 4.90379   3
   0  -6   1 8.56842 7.64880   6
   0   6  -1 11.1548 9.49850   6
   0   6   1 -3.8567 5.73639   7
   0   6   1 17.4082 9.16276   6
   0   6  -1 -0.5634 5.59533   7
   0   6  -1 -5.4459 5.71825   5
  -1  -6  -1 164.094 14.3029   7
   1  -6   1 158.739 13.8246   6
   1  -6   1 147.690 11.8175   3
  -1  -6  -1 139.689 11.8215   3
  -1  -6  -1 159.705 12.8088   6
   1  -6   1 176.132 14.3329   7
  -1  -6  -1 175.531 12.6624   4
  -1   6  -1 166.637 13.4786   5
   1   6   1 151.657 12.6990   6
  -1   6  -1 157.475 14.2246   7
   1   6   1 184.187 16.3319   7
  -1   6  -1 156.683 14.5070   6
  -2  -6  -1 899.051 34.6367   3
   2  -6   1 907.484 31.2296   3
  -2  -6  -1 890.120 34.4080   7
   2  -6   1 883.808 33.4324   6
   2  -6   1 867.046 34.2847   7
  -2  -6  -1 845.985 33.8002   6
  -2  -6  -1 898.985 35.0861   4
  -2   6  -1 869.079 34.1782   6
   2   6   1 909.523 34.2733   7
   2   6   1 835.893 33.0578   6
  -2   6  -1 862.111 32.6717   7
  -3  -6  -1 98.4111 10.7259   6
  -3  -6  -1 96.4545 9.76631   7
   3  -6   1 107.365 11.2614   7
  -3  -6  -1 93.3232 13.5684   4
  -3  -6  -1 83.5352 11.8758   3
   3  -6   1 101.605 8.24880   3
   3   6   1 101.669 9.79469   5
  -3   6  -1 83.6217 10.4674   6
   3   6   1 99.5771 12.3404   7
  -4  -6  -1 688.750 29.3352   6
  -4  -6  -1 733.038 33.7575   4
   4  -6   1 671.606 29.3961   7
  -4  -6  -1 686.292 30.6279   3
  -4   6  -1 701.235 29.4897   6
   4   6   1 656.764 26.0239   5
   4   6   1 722.011 29.6076   7
  -5  -6  -1 19.7943 7.48154   6
  -5  -6  -1 11.8406 9.96066   4
  -5  -6  -1 7.15667 7.53541   3
   5  -6   1 18.4610 10.6223   7
  -5   6  -1 14.9518 7.52675   6
   5   6   1 18.0704 7.55951   7
  -6  -6  -1 1121.43 43.2810   3
  -6  -6  -1 1112.97 49.2617   4
  -6  -6  -1 1134.72 43.8767   6
   6  -6   1 1132.64 44.2264   7
  -6   6  -1 1080.36 43.4438   6
   6   6   1 1140.07 44.1170   7
   7  -6   1 237.254 19.4444   7
  -7  -6  -1 238.306 27.0057   4
  -7  -6  -1 218.803 19.4310   6
  -7  -6  -1 217.860 17.5325   3
   7   6   1 198.888 16.8794   7
  -7   6  -1 215.791 15.2484   2
  -7   6  -1 196.737 17.7215   6
  -6  -7   1 38.2640 13.2287   4
  -6  -7   1 60.5110 11.1387   3
   6  -7  -1 45.0233 13.9003   7
  -6  -7   1 48.3606 10.6241   6
  -6   7   1 49.4865 13.4133   6
   6   7  -1 38.3771 10.1387   7
  -5  -7   1 105.452 12.6833   3
  -5  -7   1 118.187 15.6771   6
   5  -7  -1 112.409 13.9768   7
  -5  -7   1 100.336 14.9691   4
   5   7  -1 115.741 11.9270   5
   5   7  -1 95.7541 14.6293   7
  -5   7   1 87.1555 14.6603   6
   4  -7  -1 76.4890 8.92033   3
  -4  -7   1 46.9606 11.4936   3
  -4  -7   1 43.7093 11.7451   6
  -4  -7   1 29.1901 9.98801   4
   4  -7  -1 79.4440 14.0965   7
   4   7  -1 21.0786 6.70621   5
  -4   7   1 61.4093 10.6695   6
   4   7  -1 51.5235 12.5006   7
  -3  -7   1 1056.52 41.9669   6
   3  -7  -1 1049.08 41.1098   7
  -3  -7   1 1050.39 40.9041   3
   3  -7  -1 1063.23 38.0009   3
  -3  -7   1 1039.27 43.2782   4
  -3  -7   1 970.746 39.7546   7
   3   7  -1 1008.08 39.2243   5
  -3   7   1 1062.62 41.1569   7
   3   7  -1 1193.57 48.1058   6
   3   7  -1 1009.48 40.4532   7
  -3   7   1 1003.51 42.1546   6
   2  -7  -1 165.298 14.2253   6
  -2  -7   1 206.820 16.3125   3
  -2  -7   1 175.901 15.8451   7
   2  -7  -1 176.961 14.5104   3
   2  -7  -1 167.208 15.0036   7
  -2  -7   1 178.041 14.6377   6
  -2  -7   1 188.842 17.5821   4
   2   7  -1 177.369 16.4705   6
   2   7  -1 224.747 19.1565   7
   2   7  -1 193.783 14.1895   5
  -2   7   1 163.445 16.5828   6
  -2   7   1 207.078 17.0509   7
   1  -7  -1 59.3056 11.3262   6
  -1  -7   1 38.7990 12.0243   7
  -1  -7   1 28.9660 8.11815   4
  -1  -7   1 35.8909 8.47468   6
  -1  -7   1 40.8643 9.70735   3
   1  -7  -1 33.6556 8.83796   3
   1  -7  -1 39.0835 9.25060   7
  -1   7   1 48.1478 8.88814   7
   1   7  -1 55.8987 11.5198   7
   1   7  -1 28.6925 8.72122   6
  -1   7   1 40.1976 11.8350   6
   1   7  -1 37.5578 8.43870   5
   0  -7   1 189.867 16.2533   6
   0  -7   1 174.740 15.1975   7
   0  -7  -1 164.082 14.1422   6
   0  -7   1 174.613 14.5777   3
   0  -7  -1 174.803 16.4275   7
   0  -7  -1 165.546 14.0480   3
   0   7  -1 165.855 15.6860   5
   0   7   1 213.918 18.5722   7
   0   7   1 186.592 14.9233   6
   0   7  -1 202.323 15.1375   7
   0   7  -1 182.550 16.9428   6
   1  -7   1 1122.92 39.0012   3
   1  -7   1 1115.71 41.9653   7
  -1  -7  -1 1063.63 40.6558   4
  -1  -7  -1 1044.62 40.6907   3
   1  -7   1 1030.10 39.8804   6
  -1  -7  -1 1093.56 41.1977   6
  -1  -7  -1 1057.58 40.6107   7
  -1   7  -1 1054.35 42.6487   6
   1   7   1 1081.00 42.3734   7
   1   7   1 1115.77 42.2499   6
  -1   7  -1 1054.06 40.9878   7
  -1   7  -1 1080.59 42.3023   5
  -2  -7  -1 128.554 12.5691   7
   2  -7   1 141.755 11.9848   3
  -2  -7  -1 120.368 13.7084   3
  -2  -7  -1 140.136 14.6155   4
  -2  -7  -1 129.709 14.9159   6
   2  -7   1 131.372 13.6647   7
  -2   7  -1 114.571 12.7467   6
   2   7   1 134.436 14.8179   7
  -2   7  -1 125.059 13.5824   7
   3  -7   1 66.6061 8.04010   3
  -3  -7  -1 56.5375 10.5184   4
   3  -7   1 78.3497 13.9052   7
  -3  -7  -1 58.6098 9.70639   3
  -3  -7  -1 42.4570 9.38040   6
   3   7   1 36.0720 11.4915   7
  -3   7  -1 45.6162 12.5597   6
  -4  -7  -1 379.662 21.5316   6
  -4  -7  -1 375.064 25.0025   4
   4  -7   1 383.480 25.0844   7
  -4  -7  -1 351.033 23.4208   3
   4   7   1 401.890 22.2128   7
  -4   7  -1 389.023 22.2161   6
  -5  -7  -1 232.490 23.7281   4
  -5  -7  -1 243.875 18.3712   3
   5  -7   1 243.336 18.8725   7
  -5  -7  -1 308.062 22.0382   6
  -5   7  -1 237.009 18.3570   6
   5   7   1 315.224 22.6530   7
  -3  -8   1 31.5629 12.6042   6
  -3  -8   1 26.9709 11.7138   3
   3  -8  -1 29.7160 8.86652   3
   3  -8  -1 42.3402 10.7427   7
  -3  -8   1 28.6140 11.5663   4
  -3   8   1 41.3020 13.4529   6
   3   8  -1 26.3448 9.25450   7
   3   8  -1 35.4143 8.58327   5
   2  -8  -1 261.037 20.2131   7
  -2  -8   1 261.038 21.7448   6
  -2  -8   1 280.446 17.9784   3
   2  -8  -1 281.990 18.5371   3
   2   8  -1 290.426 19.5639   7
  -1  -8   1 -10.198 12.0793   7
  -1  -8   1 22.9600 10.4112   3
   1  -8  -1 14.0472 9.34617   3
   1  -8  -1 29.0876 12.7737   7
  -1  -8   1 9.29380 10.6464   6
   1  -8  -1 13.3476 8.55882   6
   1   8  -1 13.9044 8.83402   7
  -1   8   1 -2.0003 11.0434   7
   1   8  -1 19.1172 11.3697   5
   1   8  -1 17.5756 8.91922   6
  -1   8   1 16.3248 8.97651   6
   0  -8  -1 777.242 33.1084   3
   0  -8   1 760.240 34.2342   7
   0  -8  -1 770.150 33.7707   6
   0  -8  -1 713.952 33.2372   7
   0  -8   1 746.819 32.0219   3
   0   8  -1 772.695 36.0393   6
   0   8   1 810.230 36.1237   7
   0   8  -1 740.223 32.9298   7
   0   8   1 785.003 35.6763   6
   1  -8   1 21.1171 8.50706   3
  -1  -8  -1 24.6914 10.6608   3
  -1  -8  -1 16.9769 11.7077   7
   1  -8   1 21.3736 9.83479   7
  -1  -8  -1 35.8270 11.6244   6
   1   8   1 24.1535 12.0323   7
  -1   8  -1 26.4459 13.0293   6
  -2  -8  -1 20.1417 8.71632   6
  -2  -8  -1 18.7599 10.0919   4
   2  -8   1 4.29677 9.02828   7
   2  -8   1 12.9030 7.79333   3
  -2  -8  -1 21.4876 8.61356   3
   2   8   1 14.8448 8.47078   7
  -2   8  -1 4.56491 12.1327   6
  -3  -8  -1 39.7860 12.6071   6
  -3  -8  -1 31.5034 9.66655   3
  -3  -8  -1 62.3885 13.3621   4
   3  -8   1 40.0636 11.2086   7
   3   8   1 36.7050 9.97157   7
  -3   8  -1 37.3749 10.6466   6
 -10   0   2 450.844 22.0925   3
  10   0  -2 535.729 30.9195   1
 -10   0   2 475.564 24.1183   2
 -10   0   2 468.985 32.9799   4
  10   0  -2 485.765 23.5698   7
 -10   0   2 485.575 23.3259   6
   9   0  -2 8.18130 8.35623   7
   9   0  -2 9.86940 8.82386   1
  -9   0   2 4.70971 7.71140   6
  -9   0   2 -11.694 5.45615   2
  -9   0   2 0.10227 6.45630   3
  -9   0   2 3.77931 9.40063   4
  -8   0   2 361.420 20.6473   2
   8   0  -2 385.738 24.9995   1
   8   0  -2 349.973 19.4145   7
  -8   0   2 344.424 18.7654   6
   7   0  -2 17.4037 10.2583   1
  -7   0   2 2.92481 8.99839   4
  -7   0   2 -5.3177 5.02665   2
   7   0  -2 -4.5139 6.37207   7
  -6   0   2 1841.35 60.3010   2
   6   0  -2 1719.64 58.5871   6
  -6   0   2 2175.54 66.2313   4
   6   0  -2 2062.00 63.4237   1
   6   0  -2 1834.61 60.2867   7
  -6   0   2 1792.73 58.5990   7
   5   0  -2 6.20464 4.45260   6
   5   0  -2 1.27284 5.43877   7
  -5   0   2 -3.2613 5.73729   2
  -5   0   2 0.33464 4.73197   7
   5   0  -2 4.09864 7.87168   1
  -5   0   2 -5.5100 7.31285   4
   4   0  -2 29.9659 6.15649   1
   4   0  -2 20.4116 4.39732   7
  -4   0   2 31.3089 5.50566   7
  -4   0   2 39.6768 11.4867   4
  -4   0   2 27.8613 5.83642   2
   4   0  -2 28.2464 5.26533   6
   3   0  -2 -1.3801 3.28475   6
   3   0  -2 -10.451 6.73804   1
  -3   0   2 -2.6128 5.08095   7
   3   0  -2 1.95776 3.58646   7
  -3   0   2 -6.7536 4.55284   2
   2   0  -2 694.558 24.7023   1
   2   0  -2 697.979 22.5714   6
   2   0  -2 682.474 22.4629   7
  -2   0   2 698.531 23.1271   7
  -2   0   2 669.947 22.0959   2
  -1   0   2 -1.0650 2.81181   6
   1   0  -2 -0.9806 2.13306   6
   1   0  -2 -3.6041 4.13551   1
  -1   0   2 2.00129 2.32869   7
  -1   0   2 -0.3916 2.40327   2
   1   0  -2 -1.6900 2.14717   7
   1   0  -2 -1.9078 2.43155   5
   0   0   2 412.778 12.5637   6
   0   0  -2 404.640 12.5271   6
   0   0   2 404.185 12.4643   7
   0   0  -2 402.085 12.1577   7
   0   0  -2 392.339 12.9283   5
   0   0   2 391.989 12.4686   7
   0   0  -2 406.818 12.5391   6
  -1   0  -2 0.84583 1.77552   5
  -1   0  -2 -2.5481 3.08648   4
  -1   0  -2 -2.0628 2.03892   3
  -2   0  -2 725.287 25.2662   4
  -2   0  -2 730.308 22.7079   3
  -2   0  -2 757.881 22.4112   5
  -3   0  -2 -2.0457 2.03957   3
  -3   0  -2 0.51334 3.85754   4
  -3   0  -2 2.91175 2.78973   2
  -4   0  -2 307.933 11.4063   3
  -4   0  -2 297.135 16.4313   4
   4   0   2 321.043 10.3867   7
  -4   0  -2 317.744 10.4709   6
  -4   0  -2 320.208 12.7766   2
  -4   0  -2 317.098 10.4252   6
  -5   0  -2 -2.0117 2.63547   6
  -5   0  -2 -0.1132 5.29544   4
  -5   0  -2 0.43530 2.79952   3
  -5   0  -2 -0.2849 4.28111   2
   5   0   2 -0.0397 2.78678   7
   5   0   2 0.20607 2.47252   7
  -6   0  -2 103.287 7.24775   6
  -6   0  -2 76.6689 11.6779   4
  -6   0  -2 98.3543 7.36457   3
  -6   0  -2 121.931 9.11737   2
   6   0   2 91.4328 7.00405   7
  -7   0  -2 -3.7801 9.05423   4
   7   0   2 -3.3683 4.08479   7
  -7   0  -2 -0.5266 3.99431   3
   8   0   2 248.367 13.5722   7
  -8   0  -2 256.071 21.8712   4
   9   0   2 5.83698 5.94953   7
  -9   0  -2 -3.5881 6.62175   6
  -9   0  -2 18.7890 11.5762   4
  10  -1  -2 163.883 14.5684   7
 -10  -1   2 170.258 20.1870   4
 -10  -1   2 181.251 15.3856   3
 -10  -1   2 202.768 16.4756   6
  10  -1  -2 190.638 21.3108   1
  10   1  -2 153.796 15.3926   7
 -10   1   2 171.783 14.8733   2
 -10   1   2 190.851 18.6061   4
  10   1  -2 177.198 17.3221   1
  -9  -1   2 769.596 32.5060   6
  -9  -1   2 809.605 34.2309   2
  -9  -1   2 825.997 32.0878   3
   9  -1  -2 864.620 40.0300   1
  -9  -1   2 809.997 39.0441   4
   9  -1  -2 816.167 32.1557   7
   9   1  -2 791.976 31.8066   7
  -9   1   2 747.214 31.9929   2
  -9   1   2 840.169 38.1967   4
   9   1  -2 852.817 35.8769   1
   9   1  -2 808.600 29.5998   5
   8  -1  -2 28.3873 8.53905   7
  -8  -1   2 5.42115 14.5872   4
  -8  -1   2 -1.3216 8.30665   2
  -8  -1   2 -2.7986 7.28754   6
  -8  -1   2 14.7306 6.13397   3
  -8   1   2 22.4627 6.71013   2
   8   1  -2 22.5638 8.37477   7
   8   1  -2 30.3602 10.1291   1
  -8   1   2 26.9388 9.10304   4
   8   1  -2 26.7436 6.38461   5
  -7  -1   2 82.3510 10.4729   2
  -7  -1   2 88.2217 9.75206   6
   7  -1  -2 81.7472 9.91085   7
  -7  -1   2 90.0343 16.7253   4
   7   1  -2 76.5518 7.73876   5
   7   1  -2 76.2801 11.1191   1
   7   1  -2 90.7081 10.0998   7
  -7   1   2 74.6527 10.2095   2
  -7   1   2 81.8971 13.6689   4
   6  -1  -2 2.63780 4.30757   7
   6  -1  -2 9.38936 4.78572   6
  -6  -1   2 8.40682 6.14272   6
  -6  -1   2 0.67648 6.58172   2
  -6  -1   2 11.4182 9.66593   4
  -6   1   2 6.13524 5.11213   2
  -6   1   2 7.73313 10.1653   4
   6   1  -2 3.20506 4.56285   6
   6   1  -2 -0.1014 7.38323   1
   6   1  -2 -1.7424 6.16248   7
  -6   1   2 5.36295 5.13759   7
   6   1  -2 17.6257 4.12041   5
   5  -1  -2 553.016 20.7733   7
  -4  -1   2 360.630 15.9755   2
  -4  -1   2 369.849 23.5304   4
  -4  -1   2 381.017 15.8181   6
   4  -1  -2 388.407 16.0001   7
   4  -1  -2 375.702 14.7449   6
  -4  -1   2 383.398 14.9920   7
   4   1  -2 361.562 16.2512   1
  -4   1   2 372.314 15.6509   7
  -4   1   2 378.546 15.2565   2
   4   1  -2 385.262 15.5175   6
   4   1  -2 362.004 15.9877   7
   4   1  -2 386.143 14.2963   5
  -3  -1   2 1473.59 46.0021   2
  -3  -1   2 1494.66 46.3443   6
   3  -1  -2 1469.67 46.1224   7
   3  -1  -2 1506.75 46.2900   6
  -3  -1   2 1505.20 46.5711   7
   3   1  -2 1447.29 47.5530   1
  -3   1   2 1508.31 46.3668   7
   3   1  -2 1441.50 45.7242   5
   3   1  -2 1531.18 46.2959   6
  -3   1   2 1519.73 46.3507   2
   3   1  -2 1480.34 46.2316   7
  -2  -1   2 89.0627 7.51842   7
   2  -1  -2 89.9052 7.88455   7
   2  -1  -2 72.3396 5.89747   6
  -2  -1   2 74.7702 5.86075   6
  -2  -1   2 81.1538 5.83905   2
   2   1  -2 78.9902 7.85786   6
   2   1  -2 71.8724 5.88777   7
   2   1  -2 78.4123 6.09459   5
  -2   1   2 87.3396 6.80486   7
   1  -1  -2 3609.81 106.590   3
   1  -1  -2 3632.70 106.619   6
  -1  -1   2 3756.35 106.612   6
   1  -1  -2 3633.26 106.675   7
  -1  -1   2 3611.31 106.750   7
   1   1  -2 3645.02 106.814   6
   1   1  -2 3554.05 106.593   5
   1   1  -2 3685.82 106.573   7
  -1   1   2 3561.78 106.527   7
   0  -1  -2 2639.30 78.7221   3
   0  -1   2 2720.80 78.2971   7
   0  -1  -2 2503.43 78.6263   1
   0  -1   2 2657.87 78.5225   7
   0  -1  -2 2615.21 78.2336   7
   0  -1   2 2725.24 78.1646   6
   0  -1  -2 2677.69 78.3504   6
   0  -1  -2 2602.04 79.6700   4
   0   1   2 2588.62 78.9457   7
   0   1   2 2672.84 78.3688   7
   0   1  -2 2725.08 78.5697   6
   0   1  -2 2760.98 78.1562   7
   0   1  -2 2738.42 78.8402   5
  -1  -1  -2 2.54963 1.93292   6
  -1  -1  -2 5.71249 5.57601   4
  -1  -1  -2 6.10824 2.71257   3
   1  -1   2 4.59345 2.13744   7
   1  -1   2 5.39355 2.29228   7
  -1  -1  -2 6.88517 2.52449   6
   1   1   2 8.77409 2.20365   7
  -1   1  -2 6.44015 2.69243   5
  -1   1  -2 8.99122 2.17097   6
  -1   1  -2 4.79573 1.74261   6
   1   1   2 2.36225 1.96584   7
  -2  -1  -2 543.514 17.0682   6
   2  -1   2 544.565 16.7934   7
  -2  -1  -2 523.288 21.6972   4
  -2  -1  -2 564.978 18.4710   3
  -2  -1  -2 557.209 17.1031   6
   2   1   2 547.236 17.0525   7
  -2   1  -2 558.224 18.4670   5
  -2   1  -2 569.894 16.9442   6
  -2   1  -2 545.712 19.2998   4
   2   1   2 559.356 17.0560   7
  -2   1  -2 556.299 16.9248   6
  -2   1  -2 551.318 17.4941   2
  -3  -1  -2 115.156 5.12520   6
  -3  -1  -2 106.162 6.15952   3
  -3  -1  -2 110.193 10.2876   4
   3  -1   2 105.548 4.78076   7
  -3  -1  -2 113.027 5.16299   6
   3   1   2 105.383 4.76413   7
  -3   1  -2 103.438 8.46609   4
  -3   1  -2 111.171 4.84669   6
   3   1   2 104.339 4.81821   7
  -3   1  -2 104.838 4.83034   6
  -3   1  -2 116.557 6.75105   5
  -3   1  -2 103.522 6.21870   2
  -4  -1  -2 1796.01 53.8943   6
  -4  -1  -2 1764.27 59.0799   4
   4  -1   2 1763.26 53.5767   7
   4  -1   2 1808.83 53.4673   7
  -4  -1  -2 1823.31 55.1988   3
  -4  -1  -2 1876.91 53.8006   6
   4   1   2 1764.05 53.7937   7
  -4   1  -2 1780.22 56.9875   4
  -4   1  -2 1778.15 54.9353   2
  -4   1  -2 1845.11 52.5500   3
  -4   1  -2 1788.59 53.6859   6
  -4   1  -2 1785.43 53.5516   6
  -5  -1  -2 1409.32 43.8804   6
   5  -1   2 1439.36 43.5168   7
  -5  -1  -2 1466.80 44.9486   3
   5  -1   2 1413.19 43.4628   7
  -5  -1  -2 1431.46 43.6142   6
  -5  -1  -2 1382.68 50.6264   4
   5   1   2 1431.92 43.8560   7
  -5   1  -2 1407.16 47.5131   4
  -5   1  -2 1379.78 43.3470   6
  -5   1  -2 1408.71 45.0189   2
  -5   1  -2 1434.82 42.0981   3
  -5   1  -2 1415.50 43.6315   6
  -6  -1  -2 958.169 38.0243   4
  -6  -1  -2 967.975 32.1314   3
  -6  -1  -2 969.255 31.4221   6
   6  -1   2 974.069 31.0577   7
   6   1   2 923.311 31.2428   7
  -6   1  -2 928.748 35.6862   4
  -6   1  -2 993.188 29.1500   3
  -6   1  -2 950.034 32.4309   2
   6   1   2 920.376 33.3081   1
  -6   1  -2 929.332 30.9338   6
  -7  -1  -2 402.027 17.2280   3
   7  -1   2 430.468 17.0294   7
  -7  -1  -2 381.020 26.2889   4
  -7  -1  -2 434.443 17.7509   6
   7   1   2 401.727 17.2690   7
  -7   1  -2 416.426 22.3221   4
  -7   1  -2 422.905 17.8602   2
   7   1   2 426.730 20.1108   1
  -8  -1  -2 139.264 17.2103   4
   8  -1   2 113.518 10.3658   7
  -8  -1  -2 105.534 9.04988   3
  -8  -1  -2 135.446 10.1415   6
   8   1   2 114.909 10.4979   7
  -8   1  -2 121.599 10.1346   2
  -8   1  -2 117.548 13.7060   4
   9  -1   2 179.998 13.0660   7
  -9  -1  -2 142.089 18.7701   4
  -9  -1  -2 148.518 12.2368   6
   9   1   2 177.493 13.2673   7
  -9   1  -2 148.398 12.1185   2
  -9   1  -2 191.311 19.5410   4
 -10  -2   2 334.656 28.9430   4
 -10  -2   2 351.678 21.2743   3
  10  -2  -2 348.147 22.4522   7
 -10  -2   2 363.299 21.8431   6
 -10   2   2 346.294 20.3251   2
  10   2  -2 359.805 22.7586   7
  -9  -2   2 462.065 23.5356   6
   9  -2  -2 464.223 24.0466   7
  -9  -2   2 395.822 35.1642   4
  -9  -2   2 468.082 23.2325   3
   9   2  -2 471.429 22.4409   7
  -9   2   2 439.841 23.9937   2
  -9   2   2 460.566 25.2796   4
  -8  -2   2 22.7972 15.9260   4
   8  -2  -2 25.9093 6.97553   7
  -8  -2   2 32.8603 8.72830   6
  -8  -2   2 25.9525 7.15116   3
   8   2  -2 41.1400 9.57646   7
  -8   2   2 34.6276 10.2379   4
   8   2  -2 24.7703 6.07387   5
  -8   2   2 20.5818 6.93074   2
  -7  -2   2 252.054 14.4570   6
   7  -2  -2 272.744 16.8340   7
  -7  -2   2 284.097 16.8974   3
  -7  -2   2 279.134 24.3959   4
   7   2  -2 270.740 15.0097   7
  -7   2   2 234.642 14.8900   2
   7   2  -2 241.201 13.1576   5
  -7   2   2 285.020 18.5087   4
  -6  -2   2 287.268 14.7600   3
   6  -2  -2 271.274 12.9430   6
  -6  -2   2 269.754 26.1968   4
   6  -2  -2 298.668 16.3834   7
  -6  -2   2 282.520 15.9165   6
  -6   2   2 288.405 17.8352   4
  -6   2   2 274.484 14.2485   7
   6   2  -2 279.468 16.2132   7
   6   2  -2 291.204 13.5516   5
  -6   2   2 321.706 15.1587   2
   6   2  -2 278.478 14.1251   6
   5  -2  -2 1002.10 33.5583   6
   5  -2  -2 929.206 33.6443   7
  -5  -2   2 1035.33 41.6521   4
  -5  -2   2 985.355 34.0661   3
  -5  -2   2 966.167 34.5252   6
  -5   2   2 1032.45 33.6890   7
  -5   2   2 993.320 35.3511   4
  -5   2   2 967.370 33.8148   2
   5   2  -2 933.563 33.8524   7
   5   2  -2 1048.66 32.8205   5
   5   2  -2 1028.60 33.8822   6
   4  -2  -2 34.5392 5.75156   6
   4  -2  -2 30.0816 5.11288   7
  -4  -2   2 41.5328 9.60331   4
  -4  -2   2 29.8908 5.11250   6
   4   2  -2 29.0216 4.89077   7
   4   2  -2 38.4879 5.16531   6
  -4   2   2 32.9693 6.31815   6
  -4   2   2 35.9189 5.29673   2
  -4   2   2 34.6812 5.07171   7
   4   2  -2 41.1737 5.37038   5
  -3  -2   2 231.783 20.1361   4
   3  -2  -2 257.617 11.9853   6
  -3  -2   2 261.290 12.4455   6
   3  -2  -2 256.765 11.6900   7
   3   2  -2 235.670 11.2283   5
   3   2  -2 237.713 11.3917   6
  -3   2   2 246.808 12.2522   7
   3   2  -2 245.021 11.5205   7
  -3   2   2 262.413 12.4973   6
  -2  -2   2 4469.42 130.330   6
   2  -2  -2 4408.03 129.526   3
   2  -2  -2 4320.12 130.173   7
   2  -2  -2 4509.67 130.272   6
  -2   2   2 4392.67 130.266   6
   2   2  -2 4472.25 130.553   6
   2   2  -2 4367.83 129.659   5
  -2   2   2 4405.81 130.122   7
   2   2  -2 4313.29 130.125   7
   1  -2  -2 5388.40 158.675   7
   1  -2  -2 5375.17 158.404   3
   1  -2  -2 5355.68 158.613   4
   1  -2  -2 5322.72 158.664   6
  -1  -2   2 5535.27 158.735   6
  -1   2   2 5408.01 158.749   6
  -1   2   2 5279.86 158.587   7
   1   2  -2 5503.65 158.647   7
   1   2  -2 5409.17 158.519   5
   1   2  -2 5523.63 158.963   6
   0  -2  -2 55.7344 5.41035   6
   0  -2  -2 55.0433 6.41987   4
   0  -2   2 53.4635 4.63635   6
   0  -2  -2 64.5842 5.68750   7
   0  -2   2 57.2446 4.64522   3
   0  -2  -2 52.1762 4.81032   3
   0   2  -2 62.2405 5.17038   5
   0   2   2 61.6768 5.45385   6
   0   2  -2 56.2636 4.76477   7
   0   2   2 66.2771 5.74323   7
   0   2  -2 51.4064 5.74325   6
  -1  -2  -2 566.442 18.8022   7
  -1  -2  -2 566.629 19.8068   3
  -1  -2  -2 579.257 22.3146   4
   1  -2   2 595.690 18.1520   3
  -1  -2  -2 564.490 19.2151   6
   1  -2   2 574.083 18.7211   6
   1   2   2 580.252 19.0421   6
  -1   2  -2 555.302 19.7338   5
  -1   2  -2 577.122 18.6866   7
  -1   2  -2 586.170 19.3443   6
   1   2   2 582.331 19.6297   7
  -2  -2  -2 6393.72 176.692   4
  -2  -2  -2 5867.22 173.719   3
  -2  -2  -2 5937.83 172.936   6
   2  -2   2 5797.75 171.152   3
  -2  -2  -2 5739.41 171.810   7
  -2   2  -2 5659.48 171.452   7
  -2   2  -2 5878.31 173.622   5
  -2   2  -2 5950.36 172.835   6
  -2   2  -2 6031.50 172.808   6
   2   2   2 5912.88 172.816   7
   3  -2   2 2212.83 65.6063   7
  -3  -2  -2 2124.32 70.0067   4
  -3  -2  -2 2172.49 65.9461   6
   3  -2   2 2212.34 65.6174   7
  -3  -2  -2 2241.37 65.9109   6
  -3  -2  -2 2205.60 66.9653   3
   3   2   2 2181.63 65.8652   7
  -3   2  -2 2158.95 66.7448   5
  -3   2  -2 2165.08 65.9233   4
  -3   2  -2 2229.42 65.7940   6
  -3   2  -2 2140.48 65.6454   2
  -3   2  -2 2221.07 65.7306   6
   4  -2   2 491.084 16.9967   7
  -4  -2  -2 476.169 16.9209   6
   4  -2   2 448.678 16.4928   7
  -4  -2  -2 478.380 22.4400   4
  -4  -2  -2 452.798 16.9229   6
  -4  -2  -2 448.460 17.8016   3
  -4   2  -2 481.220 16.8291   6
   4   2   2 450.260 16.8856   7
  -4   2  -2 464.810 17.5779   4
  -4   2  -2 460.220 16.8098   6
  -4   2  -2 449.594 16.7598   2
  -5  -2  -2 60.4545 7.57620   3
  -5  -2  -2 64.7012 6.17051   6
  -5  -2  -2 69.7819 6.30861   6
   5  -2   2 77.3363 6.50433   7
   5  -2   2 65.1979 5.97913   7
  -5  -2  -2 65.2170 10.1498   4
  -5   2  -2 69.7698 6.96839   2
  -5   2  -2 85.0970 6.98469   6
  -5   2  -2 64.3099 7.11589   4
  -5   2  -2 74.0006 6.32581   6
   5   2   2 71.4061 6.30832   7
  -6  -2  -2 1600.85 59.2487   4
  -6  -2  -2 1574.27 51.6902   3
   6  -2   2 1598.50 50.3655   7
  -6  -2  -2 1597.14 50.7916   6
   6   2   2 1598.86 50.6821   7
  -6   2  -2 1597.43 50.2791   6
  -6   2  -2 1599.75 51.3990   2
  -6   2  -2 1577.37 52.3310   4
  -7  -2  -2 1423.58 45.9542   6
   7  -2   2 1395.79 45.4437   7
  -7  -2  -2 1344.48 53.1756   4
  -7  -2  -2 1397.13 46.5577   3
   7   2   2 1393.34 45.8568   7
  -7   2  -2 1410.68 45.4647   6
  -7   2  -2 1371.27 46.4529   2
  -7   2  -2 1368.00 48.4009   4
  -8  -2  -2 1160.72 46.8340   4
  -8  -2  -2 1125.17 38.6049   3
  -8  -2  -2 1054.61 37.8987   6
   8  -2   2 1083.87 37.7330   7
   8   2   2 1110.54 38.2702   7
  -8   2  -2 1046.18 40.6592   4
  -8   2  -2 1007.27 38.4751   2
  -9   2  -2 60.5761 8.38300   2
 -10  -3   2 66.3226 17.7812   4
  10  -3  -2 80.1756 13.1730   7
 -10  -3   2 79.6368 11.1521   6
 -10  -3   2 80.6487 13.5324   3
 -10   3   2 63.0674 10.2644   2
  10   3  -2 82.1657 11.1907   7
  -9  -3   2 248.797 24.3986   4
   9  -3  -2 212.847 18.7166   7
  -9  -3   2 206.269 15.6509   3
  -9  -3   2 194.038 17.4413   6
   9   3  -2 221.186 18.2946   7
  -9   3   2 204.481 15.6280   2
  -8  -3   2 1700.49 58.1727   6
  -8  -3   2 1719.49 58.9817   3
  -8  -3   2 1707.74 68.2698   4
   8  -3  -2 1710.64 58.5173   7
   8   3  -2 1698.25 54.2518   5
   8   3  -2 1746.62 58.2205   7
  -8   3   2 1648.84 57.4505   2
   7  -3  -2 813.645 31.3754   7
  -7  -3   2 815.735 38.6255   4
  -7  -3   2 796.112 32.4030   6
  -7  -3   2 798.986 32.7136   3
  -7   3   2 847.729 29.9529   4
  -7   3   2 823.626 31.3211   2
   7   3  -2 823.526 28.7843   5
   7   3  -2 815.937 32.6840   7
  -6  -3   2 228.981 20.6226   4
  -6  -3   2 132.862 12.5529   3
   6  -3  -2 164.415 10.8969   6
   6  -3  -2 216.739 15.1175   7
  -6  -3   2 108.128 11.4042   6
  -6   3   2 159.011 10.2746   7
  -6   3   2 175.065 14.3952   2
  -6   3   2 189.144 13.9078   6
   6   3  -2 126.817 9.89912   6
   5  -3  -2 1005.75 34.6672   6
   5  -3  -2 843.146 34.5266   7
  -5  -3   2 1044.83 36.3296   6
  -5  -3   2 1051.26 35.7064   3
  -5  -3   2 1129.89 44.0660   4
   5   3  -2 1040.50 33.7631   5
   5   3  -2 1014.46 36.1652   7
  -5   3   2 876.313 33.7445   7
  -5   3   2 1122.50 36.0844   2
  -5   3   2 891.394 34.7857   6
   5   3  -2 1029.05 35.2741   6
  -5   3   2 1103.89 34.2752   4
  -4  -3   2 2994.77 91.9338   6
  -4  -3   2 2994.23 91.7451   3
   4  -3  -2 2963.47 90.9097   6
  -4  -3   2 2952.55 95.2844   4
   4  -3  -2 3029.91 91.5831   7
   4   3  -2 2952.67 90.0305   5
  -4   3   2 3009.18 90.8448   7
   4   3  -2 2955.50 91.5120   7
  -4   3   2 3025.62 91.6153   6
   4   3  -2 2980.54 91.4680   6
   3  -3  -2 1892.51 59.4943   7
   3  -3  -2 1869.91 58.0085   3
  -3  -3   2 1816.46 59.3468   3
   3  -3  -2 1979.15 59.4675   6
  -3  -3   2 1884.42 62.3188   4
  -3  -3   2 1866.79 59.7396   6
  -3   3   2 1888.64 59.0548   7
   3   3  -2 1930.40 59.8009   7
   3   3  -2 1893.24 59.4653   6
   3   3  -2 1859.53 58.4407   5
  -3   3   2 1915.30 59.4980   6
  -2  -3   2 1453.34 46.2959   6
   2  -3  -2 1443.32 45.2512   3
   2  -3  -2 1503.02 46.9127   7
  -2  -3   2 1429.93 46.1188   3
  -2  -3   2 1443.58 48.2394   4
   2  -3  -2 1466.59 46.2107   6
  -2   3   2 1413.04 46.2609   6
   2   3  -2 1469.56 45.8979   5
   2   3  -2 1443.59 46.5880   7
   2   3  -2 1423.03 46.3955   6
  -2   3   2 1456.31 46.5077   7
  -1  -3   2 932.816 32.2914   4
   1  -3  -2 952.128 31.4904   6
   1  -3  -2 940.318 31.1897   7
  -1  -3   2 913.339 30.3223   3
   1  -3  -2 908.872 30.7363   3
   1  -3  -2 923.173 30.6554   4
  -1  -3   2 938.438 30.9914   6
  -1   3   2 931.309 31.5541   7
  -1   3   2 941.660 31.5790   6
   1   3  -2 944.007 30.8686   5
   1   3  -2 933.658 31.3161   7
   1   3  -2 933.678 31.3519   6
   0  -3  -2 1058.77 34.4586   6
   0  -3  -2 1023.85 33.8523   3
   0  -3  -2 1013.21 34.1462   7
   0  -3   2 1067.32 34.0227   6
   0  -3   2 1044.62 32.9000   3
   0  -3  -2 1031.12 34.5206   4
   0   3  -2 1035.42 34.6368   6
   0   3   2 1050.88 34.1132   7
   0   3  -2 1053.37 33.7170   7
   0   3   2 1061.40 34.2680   6
   0   3  -2 1024.16 34.4083   5
  -1  -3  -2 3700.00 111.884   6
  -1  -3  -2 4227.26 114.344   4
   1  -3   2 4072.28 111.405   6
   1  -3   2 3689.22 110.065   3
  -1  -3  -2 3501.64 111.048   7
  -1  -3  -2 3538.80 111.799   3
   1   3   2 3651.13 111.771   7
  -1   3  -2 3623.91 110.954   7
  -1   3  -2 3633.88 111.841   6
   1   3   2 3674.63 111.364   6
  -1   3  -2 3898.19 112.308   5
   2  -3   2 1059.19 31.5816   3
  -2  -3  -2 1026.27 37.6192   4
   2  -3   2 1028.88 32.8343   6
  -2  -3  -2 1029.15 34.2280   6
   2  -3   2 1059.56 34.0317   7
  -2  -3  -2 1037.78 35.0261   3
  -2  -3  -2 1015.71 32.9416   7
  -2   3  -2 1026.73 32.7687   7
  -2   3  -2 1048.42 33.9998   6
  -2   3  -2 1025.35 34.8838   5
   2   3   2 1083.03 34.4451   7
   2   3   2 1011.21 33.1782   6
   3  -3   2 91.3233 7.84956   7
  -3  -3  -2 89.9620 6.14898   7
  -3  -3  -2 91.1251 8.69256   3
  -3  -3  -2 78.0975 9.77963   4
   3  -3   2 90.3800 3.89460   3
  -3  -3  -2 76.7356 7.26853   6
  -3   3  -2 82.0481 8.48116   5
  -3   3  -2 84.9508 7.02146   6
  -3   3  -2 90.2028 5.71033   7
   3   3   2 84.3255 7.42419   7
   4  -3   2 130.042 9.00402   7
  -4  -3  -2 183.256 12.3632   3
  -4  -3  -2 127.674 9.47506   6
  -4  -3  -2 116.940 14.5992   4
  -4   3  -2 131.230 8.07938   2
   4   3   2 140.703 10.1229   7
  -4   3  -2 134.366 9.89222   6
   5  -3   2 3321.99 98.7458   7
  -5  -3  -2 3231.72 105.902   4
  -5  -3  -2 3302.77 100.178   3
  -5  -3  -2 3265.08 99.0802   6
  -5   3  -2 3230.13 98.6251   6
  -5   3  -2 3202.59 98.4590   2
   5   3   2 3257.06 98.9527   7
  -5   3  -2 3215.70 97.0384   4
   6  -3   2 130.352 11.4944   7
  -6  -3  -2 113.048 9.73025   6
  -6  -3  -2 131.831 11.2771   3
  -6   3  -2 136.243 10.5981   6
   6   3   2 119.897 11.0041   7
  -6   3  -2 110.039 9.07501   2
   7  -3   2 24.7988 5.55863   7
  -7  -3  -2 12.4207 7.78396   3
  -7  -3  -2 20.0772 6.60390   6
  -7  -3  -2 17.3559 10.5823   4
  -7   3  -2 22.2267 7.04563   2
  -7   3  -2 8.05889 6.14462   6
   7   3   2 24.6174 6.90506   7
  -8  -3  -2 172.341 13.7740   3
  -8  -3  -2 176.789 13.2204   6
  -8  -3  -2 167.210 18.6418   4
   8  -3   2 151.098 13.8942   7
  -8   3  -2 180.714 13.1175   6
   8   3   2 153.331 12.5975   7
  -8   3  -2 141.885 12.3376   2
   9  -3   2 871.467 34.4943   7
  -9  -3  -2 916.305 48.3013   4
  -9  -3  -2 861.987 34.6387   6
  -9  -3  -2 875.677 35.3800   3
   9   3   2 932.259 35.2185   7
   9  -4  -2 155.508 15.9845   7
  -9  -4   2 131.761 13.4672   6
  -9  -4   2 150.864 16.1938   3
  -9  -4   2 164.531 26.0844   4
   9   4  -2 141.481 13.9648   7
  -9   4   2 155.269 15.0098   2
  -8  -4   2 77.3871 16.4385   4
  -8  -4   2 74.4265 12.3659   3
  -8  -4   2 65.5836 11.4495   6
   8  -4  -2 43.2154 9.12437   7
  -8   4   2 57.1158 9.21969   2
   8   4  -2 52.3896 11.3967   7
  -7  -4   2 713.643 30.0455   6
  -7  -4   2 687.279 41.1973   4
   7  -4  -2 746.529 31.4951   7
  -7  -4   2 772.434 32.2924   3
   7   4  -2 718.329 26.8311   5
  -7   4   2 751.541 30.9596   6
  -7   4   2 725.210 29.4060   2
   7   4  -2 741.378 30.3369   7
  -6  -4   2 1902.75 64.3099   6
  -6  -4   2 1884.03 62.2751   7
   6  -4  -2 1857.96 63.1719   7
  -6  -4   2 1912.11 63.6913   3
  -6  -4   2 1962.21 69.7358   4
  -6   4   2 2036.29 62.9521   7
   6   4  -2 1879.70 60.6109   5
  -6   4   2 1850.16 63.3205   6
   6   4  -2 1932.76 64.2509   7
  -6   4   2 2015.06 63.5823   2
  -5  -4   2 435.224 26.3972   4
  -5  -4   2 450.551 20.6241   6
  -5  -4   2 497.328 22.7333   3
   5  -4  -2 428.026 20.7430   7
   5  -4  -2 465.776 20.0856   6
   5   4  -2 480.989 21.4503   6
   5   4  -2 465.092 22.3429   7
   5   4  -2 498.269 19.3383   5
  -5   4   2 431.078 20.3943   6
  -5   4   2 394.648 18.9203   7
   4  -4  -2 1170.14 39.9352   7
  -4  -4   2 1131.43 40.1933   3
  -4  -4   2 1138.43 45.5339   4
   4  -4  -2 1144.01 38.7684   6
  -4  -4   2 1127.19 40.1491   6
   4   4  -2 1135.76 39.6467   7
  -4   4   2 1122.70 39.5277   6
  -4   4   2 1180.41 39.6002   7
   4   4  -2 1094.95 37.5972   5
   4   4  -2 1142.72 40.0229   6
  -3  -4   2 121.085 14.3547   4
   3  -4  -2 108.145 11.0734   7
  -3  -4   2 104.259 9.04319   3
   3  -4  -2 114.531 10.0036   6
   3  -4  -2 115.015 7.83272   3
  -3  -4   2 94.8014 8.91266   6
  -3   4   2 119.203 9.98877   6
   3   4  -2 102.723 9.09619   7
   3   4  -2 112.220 11.1300   6
   3   4  -2 108.650 9.33490   5
  -3   4   2 107.955 9.01764   7
  -2  -4   2 3266.58 100.585   3
  -2  -4   2 3296.04 101.260   6
   2  -4  -2 3224.72 101.206   7
   2  -4  -2 3293.87 100.016   3
   2  -4  -2 3280.41 101.087   6
  -2  -4   2 3330.38 103.059   4
   2   4  -2 3347.38 100.460   5
  -2   4   2 3389.20 101.746   6
   2   4  -2 3308.24 101.462   7
  -2   4   2 3390.12 101.472   7
   2   4  -2 3361.40 101.796   6
   1  -4  -2 1335.20 44.0961   7
   1  -4  -2 1329.66 43.5304   6
   1  -4  -2 1286.15 42.3732   4
  -1  -4   2 1316.86 42.4592   3
  -1  -4   2 1313.84 43.3175   6
   1  -4  -2 1312.19 42.8546   3
  -1  -4   2 1319.56 44.3489   4
  -1   4   2 1306.82 43.5069   7
  -1   4   2 1333.74 43.5656   6
   1   4  -2 1317.13 43.0201   5
   1   4  -2 1297.40 44.2617   6
   1   4  -2 1336.93 43.6740   7
   0  -4   2 1532.73 48.4074   6
   0  -4   2 1526.48 47.2083   3
   0  -4  -2 1480.46 48.7439   6
   0  -4  -2 1506.50 48.4833   4
   0  -4   2 1502.24 47.4224   4
   0  -4  -2 1419.88 47.9084   7
   0  -4  -2 1477.40 47.8945   3
   0   4  -2 1500.62 49.1447   6
   0   4  -2 1435.50 48.1289   5
   0   4   2 1517.17 48.4892   7
   0   4   2 1504.05 48.5863   6
   0   4  -2 1497.76 47.9421   7
   1  -4   2 108.064 7.76840   4
   1  -4   2 113.123 10.3267   7
  -1  -4  -2 134.629 10.5228   6
   1  -4   2 108.137 7.73959   6
  -1  -4  -2 111.716 8.62576   7
   1  -4   2 130.302 7.92384   3
  -1  -4  -2 113.128 8.99050   3
  -1  -4  -2 103.475 10.4408   4
   1   4   2 103.622 8.22562   6
  -1   4  -2 116.252 10.2542   6
  -1   4  -2 114.016 9.15913   5
   1   4   2 114.756 9.13406   7
  -1   4  -2 109.595 7.94679   7
  -2  -4  -2 441.588 19.0127   6
  -2  -4  -2 406.672 20.3784   4
   2  -4   2 434.928 17.1870   6
   2  -4   2 405.797 18.2716   7
  -2  -4  -2 481.402 18.3216   7
   2  -4   2 417.582 15.6783   3
  -2  -4  -2 422.113 18.4558   3
   2   4   2 477.831 18.1679   6
  -2   4  -2 418.827 18.6020   5
  -2   4  -2 428.598 17.3366   7
  -2   4  -2 414.616 18.1343   6
   2   4   2 458.980 19.3716   7
  -3  -4  -2 173.755 11.5609   3
   3  -4   2 176.679 11.4453   7
  -3  -4  -2 176.194 12.1519   6
  -3  -4  -2 161.709 10.2176   7
   3  -4   2 170.326 9.35250   6
   3  -4   2 174.989 7.31060   3
  -3  -4  -2 162.218 15.3858   4
   3   4   2 176.081 10.2079   6
  -3   4  -2 173.926 11.0251   6
  -3   4  -2 174.811 11.7441   5
   3   4   2 167.886 12.6339   7
  -3   4  -2 168.372 9.72794   7
  -4  -4  -2 813.114 35.2345   4
  -4  -4  -2 838.089 30.7207   6
  -4  -4  -2 837.442 30.9517   3
   4  -4   2 838.463 30.1195   7
  -4   4  -2 819.130 30.5982   6
   4   4   2 836.771 30.1390   7
  -5  -4  -2 37.7641 8.96912   3
  -5  -4  -2 27.5189 7.28897   6
   5  -4   2 37.9215 8.51031   7
  -5  -4  -2 37.7316 10.2324   4
   5   4   2 7.22342 7.07548   7
  -5   4  -2 23.5112 5.88149   6
  -5   4  -2 43.7398 5.73432   2
  -6  -4  -2 130.952 10.5956   6
  -6  -4  -2 144.127 13.3337   3
   6  -4   2 150.350 12.2163   7
  -6  -4  -2 143.623 16.3079   4
  -6   4  -2 138.445 11.0022   2
  -6   4  -2 169.319 13.1266   6
   6   4   2 133.392 11.8046   7
   7  -4   2 97.0580 10.9858   7
  -7  -4  -2 78.4725 17.6678   4
  -7  -4  -2 87.0655 10.3871   6
  -7  -4  -2 75.0246 9.55755   3
   7   4   2 103.837 11.1193   7
  -7   4  -2 98.1940 10.6652   6
  -7   4  -2 92.1137 10.1369   2
  -8  -4  -2 113.962 12.2026   6
  -8  -4  -2 125.779 13.6628   3
  -8  -4  -2 98.7315 20.3863   4
   8  -4   2 128.632 12.6656   7
  -8   4  -2 119.160 11.7517   2
   8   4   2 117.959 12.3990   7
  -8   4  -2 99.9058 11.6650   6
  -8  -5   2 -27.476 10.1761   3
  -8  -5   2 12.2224 18.1210   4
  -8  -5   2 3.83863 7.25804   6
   8  -5  -2 20.6478 11.1716   7
  -8   5   2 17.0462 7.77935   2
   8   5  -2 14.0341 7.86640   7
  -8   5   2 22.5524 10.6940   6
  -7  -5   2 505.241 37.3665   4
   7  -5  -2 532.125 25.4779   7
  -7  -5   2 541.527 25.6292   6
  -7  -5   2 537.528 25.6051   3
   7   5  -2 517.558 25.4258   7
   7   5  -2 526.987 22.0919   5
  -7   5   2 531.670 25.3086   6
  -7   5   2 526.248 26.2206   2
  -6  -5   2 137.005 14.0567   6
   6  -5  -2 180.392 14.6081   7
  -6  -5   2 158.931 15.1138   3
  -6  -5   2 162.759 18.1470   4
   6   5  -2 137.357 14.4537   7
   6   5  -2 171.760 12.5686   5
  -6   5   2 155.901 14.8339   6
  -5  -5   2 373.443 28.5099   4
  -5  -5   2 337.961 18.2890   6
   5  -5  -2 311.827 18.4948   7
   5  -5  -2 379.527 25.5008   6
  -5  -5   2 328.546 19.2787   7
  -5  -5   2 328.073 20.1569   3
  -5   5   2 342.841 20.3681   6
  -5   5   2 342.686 18.5163   7
   5   5  -2 358.778 20.8258   7
   5   5  -2 307.982 15.4138   5
   5   5  -2 282.384 16.7868   6
  -4  -5   2 94.5497 9.85525   3
  -4  -5   2 77.0948 10.8285   6
  -4  -5   2 79.6915 15.0141   4
   4  -5  -2 89.2189 8.52001   3
   4  -5  -2 92.7964 10.4355   7
  -4  -5   2 80.4743 9.63960   7
   4  -5  -2 89.9792 9.09921   6
  -4   5   2 96.1023 10.8981   7
   4   5  -2 92.3303 11.7749   7
  -4   5   2 95.3001 10.1523   6
   4   5  -2 90.9098 11.3579   6
   4   5  -2 105.694 9.00905   5
  -3  -5   2 957.078 35.8268   6
  -3  -5   2 982.522 36.4604   7
   3  -5  -2 960.345 33.3088   3
  -3  -5   2 958.690 37.2815   4
  -3  -5   2 940.323 35.2949   3
   3  -5  -2 967.902 36.7166   7
   3  -5  -2 940.207 34.3551   6
   3   5  -2 898.429 34.7591   6
   3   5  -2 932.500 35.9703   7
   3   5  -2 942.811 33.4793   5
  -3   5   2 988.000 36.4527   6
  -3   5   2 930.079 35.3909   7
  -2  -5   2 594.009 25.1285   6
   2  -5  -2 636.679 25.5378   6
   2  -5  -2 587.160 22.6936   3
   2  -5  -2 598.929 26.3717   7
  -2  -5   2 565.030 24.4370   3
  -2  -5   2 572.828 26.4850   7
  -2  -5   2 607.382 27.1863   4
  -2   5   2 598.915 24.6177   6
   2   5  -2 566.888 24.1258   7
   2   5  -2 620.784 26.3484   6
  -2   5   2 586.222 24.3130   7
   2   5  -2 591.998 24.6893   5
   1  -5  -2 4.94243 7.99182   7
   1  -5  -2 2.04300 6.32498   3
   1  -5  -2 1.89750 4.69916   4
   1  -5  -2 -0.9449 4.86132   6
  -1  -5   2 -1.3505 6.21322   7
  -1  -5   2 2.65122 4.81779   6
  -1  -5   2 12.5957 6.58544   3
  -1  -5   2 7.58445 7.15141   4
   1   5  -2 6.18241 6.05056   6
   1   5  -2 19.6718 7.70828   5
  -1   5   2 3.05256 5.49543   6
   1   5  -2 -2.4854 6.98603   7
  -1   5   2 -1.2033 7.61025   7
   0  -5   2 875.022 31.9403   3
   0  -5  -2 958.117 33.5495   3
   0  -5  -2 907.874 33.4421   6
   0  -5   2 935.090 31.7424   4
   0  -5   2 930.824 33.6212   6
   0  -5  -2 928.423 33.6105   4
   0  -5   2 949.450 34.1505   7
   0  -5  -2 921.120 33.2407   7
   0   5   2 907.115 33.5394   7
   0   5   2 929.185 34.1256   6
   0   5  -2 895.102 34.1838   5
   0   5  -2 923.188 32.8524   7
   0   5  -2 906.651 33.8135   6
  -1  -5  -2 480.115 22.5396   6
   1  -5   2 520.427 19.2320   4
   1  -5   2 671.564 26.2689   7
  -1  -5  -2 544.517 22.6990   3
  -1  -5  -2 566.608 25.2128   4
   1  -5   2 572.026 22.8848   6
   1  -5   2 532.576 20.4349   3
  -1  -5  -2 587.563 23.9896   7
  -1   5  -2 610.300 23.3770   7
   1   5   2 547.750 23.2514   7
   1   5   2 546.751 22.4788   6
  -1   5  -2 529.852 23.1439   5
  -1   5  -2 636.228 25.5429   6
  -2  -5  -2 386.279 21.7603   4
   2  -5   2 401.287 20.8972   7
   2  -5   2 363.981 16.9968   6
  -2  -5  -2 378.795 19.1348   6
  -2  -5  -2 376.626 19.4042   3
  -2   5  -2 361.787 19.7203   6
  -2   5  -2 349.183 17.0590   7
   2   5   2 361.475 19.4591   7
  -2   5  -2 371.075 20.0763   5
   3  -5   2 75.6962 10.9526   7
  -3  -5  -2 75.7212 10.7712   4
  -3  -5  -2 76.2592 10.0859   6
   3  -5   2 74.0088 5.71059   3
  -3  -5  -2 80.3898 9.00783   3
  -3  -5  -2 58.3609 7.00338   7
   3   5   2 59.0891 9.90334   7
  -3   5  -2 83.3981 9.67660   5
  -3   5  -2 69.5421 10.5407   6
  -4  -5  -2 677.454 35.0417   4
  -4  -5  -2 782.785 29.7161   6
  -4  -5  -2 725.239 30.0960   3
   4  -5   2 677.683 29.5866   7
  -4   5  -2 708.871 29.1781   6
   4   5   2 702.079 29.2894   7
   5  -5   2 224.660 17.2791   7
  -5  -5  -2 243.577 15.5271   3
  -5  -5  -2 205.745 15.6875   6
  -5  -5  -2 221.593 20.5370   4
  -5   5  -2 226.905 16.2801   6
   5   5   2 198.613 16.4038   7
  -6  -5  -2 113.794 12.0100   6
   6  -5   2 99.8005 12.2845   7
  -6  -5  -2 112.558 11.7172   3
  -6  -5  -2 126.957 16.5434   4
  -6   5  -2 124.794 11.3864   2
  -6   5  -2 101.877 12.1683   6
   6   5   2 122.542 12.6243   7
  -7  -5  -2 9.13512 15.3939   4
   7  -5   2 8.30819 9.33082   7
  -7  -5  -2 16.1840 8.42733   6
  -7  -5  -2 4.63654 6.97507   3
   7   5   2 -1.7550 8.58729   7
  -7   5  -2 11.6417 7.28965   2
  -7   5  -2 3.42425 6.20587   6
  -7  -6   2 74.1376 13.6074   6
  -7  -6   2 117.715 21.3281   4
  -7  -6   2 79.9492 14.3419   3
   7  -6  -2 88.6625 14.6253   7
  -7   6   2 90.0448 11.4434   2
   7   6  -2 104.508 15.2124   7
  -7   6   2 95.9855 14.4478   6
   6  -6  -2 63.6839 12.9655   7
  -6  -6   2 62.3836 17.4258   4
  -6  -6   2 65.4878 12.6620   6
  -6  -6   2 56.3268 12.7653   3
   6   6  -2 73.0122 8.41950   5
   6   6  -2 53.7547 12.3745   7
  -6   6   2 50.7555 12.3124   6
   5  -6  -2 168.127 16.6848   7
  -5  -6   2 198.680 17.6214   6
  -5  -6   2 212.827 20.9272   4
  -5  -6   2 192.246 17.2771   7
  -5  -6   2 184.609 16.4465   3
   5   6  -2 170.169 16.3399   7
   5   6  -2 164.468 14.0940   5
  -5   6   2 168.340 16.3241   6
   4  -6  -2 233.180 14.5026   6
  -4  -6   2 203.314 19.4735   4
   4  -6  -2 205.814 16.0665   7
  -4  -6   2 191.151 14.8744   3
  -4  -6   2 220.013 17.4451   6
  -4  -6   2 222.621 15.4909   7
   4  -6  -2 214.047 13.7347   3
   4   6  -2 195.275 17.3588   6
   4   6  -2 205.371 13.4849   5
   4   6  -2 214.439 17.1974   7
  -4   6   2 202.344 15.5372   6
  -4   6   2 196.422 17.0593   7
  -3  -6   2 331.140 19.9724   3
  -3  -6   2 360.785 23.8186   4
   3  -6  -2 322.458 19.3806   7
  -3  -6   2 315.890 18.3091   6
  -3  -6   2 367.058 21.7892   7
   3  -6  -2 350.924 17.6398   3
   3  -6  -2 342.222 19.8428   6
  -3   6   2 337.573 21.1555   6
   3   6  -2 331.539 18.8356   6
   3   6  -2 336.069 17.4425   5
   3   6  -2 385.909 21.6595   7
  -3   6   2 333.811 20.3166   7
  -2  -6   2 -2.5620 5.61508   3
   2  -6  -2 12.7619 8.46029   6
   2  -6  -2 13.7913 9.99652   7
  -2  -6   2 8.43635 7.08491   7
   2  -6  -2 -0.3108 4.73402   3
  -2  -6   2 0.98353 5.67001   6
  -2  -6   2 -2.8692 8.20643   4
   2   6  -2 4.41483 9.24334   6
   2   6  -2 -2.5101 5.48058   5
  -2   6   2 -1.7716 5.72987   7
   2   6  -2 10.2506 8.47154   7
  -2   6   2 -2.7972 8.91682   6
   1  -6  -2 39.5429 6.76578   4
   1  -6  -2 24.2173 7.85459   3
  -1  -6   2 35.8899 9.19804   6
   1  -6  -2 34.3952 8.08367   7
  -1  -6   2 23.6048 8.22674   7
  -1  -6   2 43.7545 8.80606   3
  -1  -6   2 28.3372 7.87902   4
   1  -6  -2 36.9620 7.59510   6
   1   6  -2 24.3402 7.82724   6
   1   6  -2 32.4300 9.49637   5
   1   6  -2 35.3756 7.47900   7
  -1   6   2 36.5758 7.86716   7
   0  -6   2 161.163 13.5313   6
   0  -6  -2 146.978 12.8188   4
   0  -6  -2 141.563 12.3432   3
   0  -6   2 130.973 10.3754   4
   0  -6  -2 154.898 13.7096   7
   0  -6  -2 141.141 13.2018   6
   0  -6   2 155.252 10.4123   3
   0  -6   2 132.568 12.3169   7
   0   6  -2 121.715 11.9287   6
   0   6   2 120.897 12.9799   6
   0   6  -2 112.122 11.1237   5
   0   6  -2 124.008 11.3002   7
   0   6   2 145.025 13.9601   7
   1  -6   2 1194.19 43.0946   6
   1  -6   2 1318.70 46.3316   7
  -1  -6  -2 1149.84 44.1396   6
  -1  -6  -2 1104.41 43.9115   4
   1  -6   2 1300.07 42.0885   3
  -1  -6  -2 1277.33 44.7030   7
  -1  -6  -2 1329.24 44.9217   3
  -1   6  -2 1158.60 44.2986   6
  -1   6  -2 1312.28 44.2503   7
   1   6   2 1329.60 44.9378   7
   1   6   2 1321.27 44.9778   6
  -1   6  -2 1202.25 44.2689   5
   2  -6   2 195.844 15.3763   7
  -2  -6  -2 233.682 17.0435   3
  -2  -6  -2 221.580 15.9818   7
  -2  -6  -2 227.456 15.0820   6
  -2  -6  -2 227.101 19.0733   4
   2  -6   2 229.196 12.4380   3
  -2   6  -2 226.175 15.1842   7
   2   6   2 202.704 14.8894   7
  -2   6  -2 242.350 18.2002   6
  -2   6  -2 220.783 15.6251   5
   3  -6   2 295.499 20.3786   7
  -3  -6  -2 280.057 21.6621   4
   3  -6   2 275.036 12.8068   3
  -3  -6  -2 269.637 18.8548   3
  -3  -6  -2 266.513 18.6992   6
  -3   6  -2 253.550 18.9169   6
   3   6   2 273.036 19.4265   7
   4  -6   2 17.2779 7.81307   7
  -4  -6  -2 24.0833 7.23608   6
  -4  -6  -2 7.01771 6.93586   3
  -4  -6  -2 12.0290 12.1598   4
  -4   6  -2 11.7856 7.22242   6
   4   6   2 12.6252 7.02503   7
  -5  -6  -2 365.458 21.4688   6
  -5  -6  -2 360.963 29.3117   4
  -5  -6  -2 353.572 22.5327   3
   5  -6   2 347.173 22.4499   7
   5   6   2 327.425 21.7290   7
  -5   6  -2 346.167 21.4175   6
  -6  -6  -2 32.7902 10.7374   6
  -6  -6  -2 55.2516 17.2067   4
   6  -6   2 48.4489 9.46637   7
  -6  -6  -2 37.1289 12.0564   3
  -6   6  -2 44.5877 9.57006   2
   6   6   2 58.3971 12.0883   7
  -6   6  -2 43.1311 9.16510   6
   6  -7  -2 17.5701 12.8588   7
  -6  -7   2 6.55387 11.0837   4
  -6  -7   2 16.7502 9.25263   3
  -6  -7   2 10.2148 11.5704   6
   6   7  -2 15.9125 12.2063   7
  -6   7   2 21.7693 12.2528   6
   6   7  -2 14.8528 6.09583   5
  -5  -7   2 44.6387 12.1520   3
  -5  -7   2 52.8636 15.5058   4
   5  -7  -2 22.0059 9.62309   7
  -5  -7   2 13.1840 8.47932   6
   5   7  -2 26.9366 9.03632   7
  -5   7   2 14.8787 11.8918   6
   5   7  -2 29.3518 7.58934   5
   4  -7  -2 613.506 31.8315   7
  -4  -7   2 613.836 34.1843   4
  -4  -7   2 596.625 29.9137   3
  -4  -7   2 594.916 30.4489   7
   4  -7  -2 665.857 26.7451   3
  -4  -7   2 608.959 29.0324   6
  -4   7   2 639.827 29.9308   7
   4   7  -2 615.103 28.1794   5
  -4   7   2 641.341 29.4685   6
   4   7  -2 641.504 29.2969   7
  -3  -7   2 654.656 29.0166   6
  -3  -7   2 654.391 32.2471   4
  -3  -7   2 578.662 28.9888   3
  -3  -7   2 605.095 30.7163   7
   3  -7  -2 686.538 31.9273   7
   3  -7  -2 645.972 27.1367   3
   3  -7  -2 661.412 28.5372   6
   3   7  -2 579.353 28.1829   6
   3   7  -2 610.635 27.1292   5
  -3   7   2 657.125 30.4973   7
  -3   7   2 629.357 29.2261   6
   3   7  -2 633.141 30.5453   7
  -2  -7   2 75.9922 11.6509   4
   2  -7  -2 84.0879 13.6207   7
   2  -7  -2 81.0191 10.6558   3
  -2  -7   2 74.1304 13.6391   7
  -2  -7   2 68.4217 10.1825   6
  -2  -7   2 75.2924 11.2625   3
   2  -7  -2 93.7117 12.7488   6
  -2   7   2 81.9997 10.6920   7
   2   7  -2 74.6967 12.5687   7
  -2   7   2 79.4218 11.3565   6
   2   7  -2 71.3578 10.1756   5
   2   7  -2 79.8090 11.2279   6
   1  -7  -2 179.681 15.0079   3
  -1  -7   2 201.125 15.9531   3
   1  -7  -2 217.404 15.7691   6
  -1  -7   2 221.831 15.4218   6
   1  -7  -2 221.528 19.6870   7
  -1  -7   2 205.342 16.9679   7
  -1   7   2 252.705 19.5884   7
   1   7  -2 202.000 15.6555   5
   1   7  -2 195.582 17.7632   7
   1   7  -2 218.828 19.4124   6
  -1   7   2 223.212 16.2527   6
   0  -7  -2 380.016 21.1733   3
   0  -7   2 348.283 21.0099   6
   0  -7  -2 347.475 19.6321   4
   0  -7  -2 368.947 20.4904   6
   0  -7   2 365.203 19.3714   3
   0  -7   2 375.358 24.5602   7
   0  -7  -2 364.308 23.2134   7
   0   7  -2 369.554 23.3115   6
   0   7  -2 387.911 20.0688   7
   0   7   2 371.984 22.4264   6
   0   7  -2 346.131 22.8967   5
   0   7   2 393.468 21.2097   7
  -1  -7  -2 356.174 21.9812   7
   1  -7   2 379.792 24.0478   7
   1  -7   2 351.092 17.8289   3
  -1  -7  -2 308.139 18.6826   4
  -1  -7  -2 320.841 19.3623   6
  -1  -7  -2 298.375 20.4917   3
  -1   7  -2 368.043 20.3796   5
   1   7   2 374.012 23.0265   7
  -1   7  -2 298.158 17.7636   7
  -1   7  -2 354.464 22.9420   6
  -2  -7  -2 40.1209 8.95672   3
  -2  -7  -2 45.6716 11.4129   4
   2  -7   2 41.0940 9.77043   7
  -2  -7  -2 57.1852 12.1849   6
   2  -7   2 73.9747 8.20752   3
  -2   7  -2 81.2877 13.3907   6
   2   7   2 36.5829 11.3828   7
  -2   7  -2 61.9913 12.8978   5
  -3  -7  -2 123.596 12.9344   3
  -3  -7  -2 125.841 13.1761   6
   3  -7   2 140.875 16.2017   7
  -3  -7  -2 142.959 16.8169   4
   3   7   2 143.685 15.1708   7
  -3   7  -2 140.296 15.9474   6
  -4  -7  -2 80.4456 11.4566   6
   4   7   2 93.9917 13.6728   7
  -5  -7  -2 37.9919 10.0939   3
   5  -7   2 22.8903 12.2937   7
  -5  -7  -2 43.2696 12.2981   4
  -5  -7  -2 45.0042 12.2069   6
  -5   7  -2 46.5590 12.8276   6
   5   7   2 40.5448 12.1029   7
  -3  -8   2 24.2953 9.78296   7
  -3  -8   2 22.1404 11.0784   4
  -3  -8   2 -3.9823 7.66388   6
   3  -8  -2 6.81775 8.87145   3
   3  -8  -2 9.17444 9.41276   7
  -3  -8   2 27.2384 11.4608   3
   3   8  -2 14.7254 8.01978   5
   3   8  -2 44.6259 12.8871   7
  -3   8   2 14.8979 9.37683   6
  -3   8   2 13.4331 8.44927   7
  -2  -8   2 331.108 22.0529   7
   2  -8  -2 321.847 20.5373   3
  -2  -8   2 329.049 23.0397   6
   2  -8  -2 327.836 25.2622   7
   2  -8  -2 349.231 23.5248   6
  -2  -8   2 317.337 21.4761   3
   2   8  -2 294.386 23.6947   6
  -2   8   2 304.689 23.8792   7
  -2   8   2 342.235 21.9714   6
   2   8  -2 334.355 21.0419   7
   2   8  -2 354.454 23.2296   5
  -1  -8   2 1312.42 50.5323   7
   1  -8  -2 1216.08 47.7823   7
   1  -8  -2 1142.40 45.2168   3
   1  -8  -2 1323.90 49.7783   6
  -1  -8   2 1249.51 45.4979   3
  -1   8   2 1245.96 49.3454   7
   1   8  -2 1247.33 48.3647   5
  -1   8   2 1239.07 49.4259   6
   1   8  -2 1282.15 47.5271   7
   1   8  -2 1228.12 48.3267   6
   0  -8  -2 4.97569 9.71580   3
   0  -8  -2 -6.5925 10.9500   7
   0  -8  -2 19.4134 11.2208   6
   0  -8   2 4.74674 8.32228   3
   0  -8   2 2.79709 8.89060   7
   0   8  -2 3.77651 12.3651   6
   0   8   2 -4.6591 7.92955   7
   0   8  -2 0.91632 11.6078   5
   0   8  -2 8.90000 7.34309   7
  -1  -8  -2 11.1060 7.35988   3
   1  -8   2 1.46821 5.15356   3
   1  -8   2 -2.7442 8.78680   7
  -1  -8  -2 5.03131 7.53599   6
  -1   8  -2 -8.1288 11.6342   6
   1   8   2 12.4645 11.3324   7
  -2  -8  -2 174.014 16.7466   3
  -2  -8  -2 174.096 17.5209   6
   2  -8   2 149.302 15.7164   7
  -2  -8  -2 136.075 15.9768   4
   2   8   2 143.915 14.9818   7
  -2   8  -2 118.945 14.5994   6
  11   0  -3 377.152 25.9196   1
  11   0  -3 396.331 22.7986   7
 -11   0   3 412.308 25.8915   2
 -11   0   3 400.456 34.0766   4
 -11   0   3 463.218 23.4778   6
 -10   0   3 9.46079 9.93521   2
  10   0  -3 2.35315 7.54630   5
 -10   0   3 0.45018 7.59406   3
  10   0  -3 17.7086 9.99688   7
  10   0  -3 -5.8686 11.6040   1
 -10   0   3 -3.1249 10.0759   4
 -10   0   3 3.23068 9.06114   6
   9   0  -3 142.029 12.3291   5
  -9   0   3 149.773 12.9269   6
  -9   0   3 167.438 20.8363   4
  -9   0   3 129.311 12.5749   2
   9   0  -3 153.508 13.4177   7
   9   0  -3 171.507 18.4339   1
  -8   0   3 10.6023 8.54680   2
  -8   0   3 14.4326 14.9640   4
   8   0  -3 13.0979 6.14444   7
   8   0  -3 20.4065 11.6156   1
  -8   0   3 6.18439 5.29330   6
  -7   0   3 1152.00 38.7062   7
  -7   0   3 1091.89 39.4512   6
   7   0  -3 1222.21 43.7165   1
  -7   0   3 1132.56 47.7044   4
  -7   0   3 1162.84 40.9146   2
   7   0  -3 1114.18 39.5414   7
   7   0  -3 1085.91 38.4346   6
   6   0  -3 4.85104 4.93944   7
   6   0  -3 -0.3100 5.65236   6
  -6   0   3 -3.4876 6.45486   7
  -6   0   3 -4.9343 4.81381   2
   6   0  -3 -3.2426 9.64822   1
  -6   0   3 29.1130 15.2312   4
   5   0  -3 928.673 31.5356   6
  -5   0   3 948.009 31.9114   2
  -5   0   3 928.310 31.5734   7
   5   0  -3 921.352 34.6124   1
   5   0  -3 906.993 31.8061   7
  -4   0   3 2.09023 3.99334   7
   4   0  -3 11.1799 5.48012   6
  -4   0   3 2.27537 5.25715   2
   4   0  -3 1.56292 7.38216   1
   4   0  -3 1.89617 3.86363   7
   3   0  -3 500.851 21.9040   1
   3   0  -3 527.949 19.5538   6
  -3   0   3 491.909 18.7503   7
  -3   0   3 524.825 19.2209   6
  -3   0   3 515.153 18.8650   2
   3   0  -3 496.111 19.3560   7
  -2   0   3 0.75432 3.62227   7
  -2   0   3 -2.6481 3.02570   6
   2   0  -3 -0.9204 3.31055   6
   2   0  -3 5.25396 4.72909   7
  -2   0   3 -5.0504 3.89115   2
   2   0  -3 -2.4029 6.28198   1
   1   0  -3 931.114 28.8106   7
   1   0  -3 908.572 29.2561   6
  -1   0   3 912.079 29.2991   7
  -1   0   3 913.202 28.4012   2
   1   0  -3 900.775 29.1928   5
  -1   0   3 932.726 29.0087   6
   0   0   3 2.69987 1.99658   7
   0   0  -3 -0.4602 1.10865   7
   0   0   3 0.34318 2.16955   7
   0   0  -3 -1.0399 2.07551   6
   0   0  -3 0.83337 3.31882   5
   0   0  -3 0.93468 2.00891   6
  -1   0  -3 36.6379 6.65697   4
  -1   0  -3 45.9416 3.78960   5
  -1   0  -3 39.9892 3.95075   3
  -2   0  -3 -3.2319 2.19033   3
  -2   0  -3 -0.8651 1.87696   5
  -2   0  -3 -3.1743 5.31939   4
  -3   0  -3 61.2580 7.13442   4
  -3   0  -3 70.6306 5.06240   3
  -3   0  -3 72.7119 4.37045   5
  -4   0  -3 -4.9645 2.74921   3
  -4   0  -3 -1.2496 6.70891   4
  -5   0  -3 124.823 5.61550   6
  -5   0  -3 138.192 12.9266   4
   5   0   3 130.654 5.93018   7
  -5   0  -3 130.076 6.83091   3
   5   0   3 127.425 5.71764   7
  -6   0  -3 2.15029 3.51017   3
  -6   0  -3 0.63728 4.97660   6
   6   0   3 2.11757 2.62060   7
  -6   0  -3 12.1721 9.14658   4
  -7   0  -3 345.261 23.4120   4
  -8   0  -3 4.06503 7.47424   4
   8   0   3 -1.8766 4.35826   7
  -9   0  -3 456.653 20.3097   6
   9   0   3 469.561 20.7721   7
  -9   0  -3 458.461 29.6165   4
  11  -1  -3 -11.462 14.4706   1
  11  -1  -3 -15.017 10.1173   7
 -11  -1   3 -15.477 9.53268   6
 -11  -1   3 1.91299 8.93560   3
 -11  -1   3 5.43835 16.8198   4
  11   1  -3 -5.7455 11.1793   1
 -11   1   3 -1.4164 7.26355   2
 -11   1   3 1.31612 13.6512   4
 -11   1   3 -9.1236 9.88517   6
  11   1  -3 -1.0478 10.8690   7
 -10  -1   3 181.340 16.0692   6
  10  -1  -3 196.781 21.5525   1
 -10  -1   3 186.862 15.4296   3
  10  -1  -3 183.154 16.5198   7
 -10  -1   3 166.151 20.2768   4
 -10  -1   3 175.249 16.6535   2
  10   1  -3 190.430 18.7445   1
 -10   1   3 221.556 22.4045   4
  10   1  -3 167.772 14.0921   5
  10   1  -3 203.702 17.1061   7
 -10   1   3 141.120 13.8887   2
  -9  -1   3 31.0117 9.70386   6
  -9  -1   3 38.4978 8.59880   2
   9  -1  -3 29.9880 8.00702   7
  -9  -1   3 23.8515 16.5332   4
  -9  -1   3 31.9885 7.24674   3
   9  -1  -3 42.3892 14.5696   1
   9   1  -3 42.2553 8.00633   5
  -9   1   3 46.0397 8.71522   2
   9   1  -3 46.6025 11.6996   1
   9   1  -3 57.6809 10.7486   7
  -9   1   3 43.9613 14.6297   4
  -8  -1   3 524.171 22.7018   6
  -8  -1   3 547.971 23.5882   2
   8  -1  -3 500.040 24.4286   7
  -8  -1   3 428.992 33.7024   4
   8  -1  -3 503.121 27.4350   1
  -8   1   3 436.001 29.7144   4
   8   1  -3 522.124 21.7035   5
   8   1  -3 525.605 22.8639   7
  -8   1   3 518.564 23.0861   2
   8   1  -3 498.031 24.8491   1
  -7  -1   3 428.272 19.9379   2
   7  -1  -3 463.459 21.6891   7
  -7  -1   3 421.670 26.9292   4
  -7  -1   3 461.538 20.9736   6
   7  -1  -3 407.240 20.4393   6
  -7   1   3 427.756 21.4750   2
   7   1  -3 424.233 18.9520   6
   7   1  -3 437.216 21.1480   7
  -7   1   3 431.955 19.2776   7
  -7   1   3 409.339 27.8127   4
   7   1  -3 443.754 22.0254   1
   7   1  -3 428.109 19.0483   5
  -6  -1   3 426.017 19.7543   7
  -6  -1   3 470.595 19.5733   2
  -6  -1   3 470.824 26.6158   4
   6  -1  -3 427.213 20.4214   7
   6  -1  -3 424.307 18.9579   6
  -6  -1   3 396.178 19.7115   6
   6   1  -3 480.991 23.4446   1
  -6   1   3 441.905 27.8863   4
  -6   1   3 462.715 19.6639   7
  -6   1   3 465.051 19.5780   2
   6   1  -3 467.340 19.1496   5
   6   1  -3 433.865 19.3027   6
   6   1  -3 484.192 20.7912   7
   5  -1  -3 534.879 21.1746   6
  -5  -1   3 558.848 21.8864   7
  -5  -1   3 558.748 21.8986   2
  -5  -1   3 554.465 21.0349   6
   5  -1  -3 526.927 20.8643   7
  -5  -1   3 498.633 31.2584   4
   5   1  -3 539.005 20.6099   6
  -5   1   3 554.130 21.9902   2
   5   1  -3 527.614 20.6049   5
   5   1  -3 529.228 21.8507   7
   5   1  -3 520.864 24.1131   1
  -5   1   3 524.730 20.4582   7
   4  -1  -3 811.465 27.8786   7
  -4  -1   3 780.751 27.2338   7
  -4  -1   3 785.696 26.8292   2
  -4  -1   3 792.270 27.7906   6
   4  -1  -3 775.538 27.4491   6
   4   1  -3 754.659 26.3842   5
  -4   1   3 790.166 26.9221   2
   4   1  -3 761.805 29.5936   1
  -4   1   3 771.781 26.9139   7
   4   1  -3 786.686 27.3046   7
   4   1  -3 800.567 27.7861   6
   3  -1  -3 255.684 11.5032   6
  -3  -1   3 263.467 12.4522   6
  -3  -1   3 249.417 13.7486   7
   3  -1  -3 252.855 11.7105   7
  -3  -1   3 260.030 12.0970   2
   3   1  -3 254.498 11.6422   7
  -3   1   3 257.564 11.2988   2
   3   1  -3 265.138 12.9577   6
   3   1  -3 253.719 11.2298   5
  -3   1   3 249.301 12.9134   7
   2  -1  -3 11.8427 5.66809   1
  -2  -1   3 16.8743 4.77623   6
   2  -1  -3 5.88411 4.73112   6
  -2  -1   3 12.5589 6.13463   7
  -2  -1   3 12.7471 3.11481   2
   2  -1  -3 17.3409 4.01840   7
   2   1  -3 4.16503 3.95289   6
  -2   1   3 13.0803 4.05687   7
   2   1  -3 12.0085 3.58102   7
   2   1  -3 8.44922 4.90574   5
   1  -1  -3 4074.23 118.138   3
   1  -1  -3 4003.51 117.892   6
  -1  -1   3 4174.24 117.754   6
  -1  -1   3 3946.58 118.000   7
   1  -1  -3 4100.16 117.888   7
   1  -1  -3 3839.63 118.942   1
  -1   1   3 4022.04 117.875   7
   1   1  -3 3921.40 118.031   5
   1   1  -3 4028.07 117.619   7
   1   1  -3 3982.64 118.160   6
   0  -1  -3 3611.63 93.0056   1
   0  -1  -3 2943.00 93.9928   4
   0  -1  -3 3054.91 92.6604   3
   0  -1   3 3342.83 92.2464   7
   0  -1   3 3022.91 91.7841   7
   0  -1   3 3077.47 91.3972   6
   0  -1  -3 2992.51 91.8969   6
   0  -1  -3 3419.49 91.7666   7
   0   1  -3 3120.44 91.9079   6
   0   1  -3 3003.85 91.2853   7
   0   1  -3 2945.73 92.3734   5
   0   1  -3 3257.10 92.2482   6
   0   1   3 2993.64 92.6496   7
   0   1   3 3021.37 91.8872   7
   1  -1   3 65.6703 3.57721   7
  -1  -1  -3 67.4222 7.87622   4
  -1  -1  -3 71.4448 5.18405   3
  -1  -1  -3 75.1354 4.30519   6
  -1   1  -3 74.2992 6.27141   5
  -1   1  -3 87.2040 4.58983   6
  -1   1  -3 69.4936 3.64477   6
   1   1   3 74.4459 4.02242   7
  -1   1  -3 69.5325 2.72501   2
  -2  -1  -3 46.7198 2.81773   6
   2  -1   3 40.9276 2.49900   7
  -2  -1  -3 41.1790 2.18005   5
  -2  -1  -3 40.3101 4.63182   3
   2  -1   3 38.9446 2.10538   7
  -2  -1  -3 38.5945 7.64222   4
  -2  -1  -3 40.5013 2.69084   6
  -2   1  -3 42.7652 3.84611   5
  -2   1  -3 38.9756 2.55826   6
  -2   1  -3 41.9347 5.79981   4
  -2   1  -3 42.3265 2.80960   2
   2   1   3 40.3691 2.56283   7
  -2   1  -3 44.9986 2.42442   6
   2   1   3 45.8428 2.75678   7
  -3  -1  -3 1439.66 49.2311   4
  -3  -1  -3 1478.57 45.0631   3
   3  -1   3 1410.43 42.3228   7
  -3  -1  -3 1465.26 42.9544   6
   3  -1   3 1465.49 42.3348   7
  -3  -1  -3 1472.29 42.8837   6
   3   1   3 1421.44 42.7545   7
  -3   1  -3 1451.59 42.5647   6
  -3   1  -3 1420.00 43.6796   2
   3   1   3 1494.13 42.7649   7
  -3   1  -3 1475.87 44.6586   5
  -3   1  -3 1427.73 46.6402   4
  -3   1  -3 1465.43 42.6114   6
   4  -1   3 1660.51 49.4111   7
  -4  -1  -3 1654.79 56.2915   4
  -4  -1  -3 1675.57 49.6968   6
  -4  -1  -3 1687.82 51.7849   3
   4   1   3 1702.05 49.7542   7
   4   1   3 1661.51 49.5498   7
  -4   1  -3 1634.55 54.3084   4
  -4   1  -3 1697.65 49.4767   6
  -4   1  -3 1667.37 49.5795   6
  -4   1  -3 1692.32 51.0046   2
  -5  -1  -3 514.232 17.5092   6
   5  -1   3 513.233 17.1572   7
  -5  -1  -3 520.333 19.1483   3
   5  -1   3 514.167 17.0358   7
  -5  -1  -3 534.005 17.3668   6
  -5  -1  -3 484.146 26.0456   4
  -5   1  -3 473.272 18.6525   2
  -5   1  -3 533.737 23.1033   4
  -5   1  -3 524.049 15.7556   3
  -5   1  -3 515.591 17.0602   6
  -5   1  -3 494.454 17.1482   6
   5   1   3 530.414 17.3414   7
  -6  -1  -3 5.14718 3.86074   6
  -6  -1  -3 1.84648 4.21858   3
  -6  -1  -3 9.88495 10.2737   4
   6  -1   3 11.9837 3.50548   7
   6   1   3 1.97709 3.26012   7
  -6   1  -3 3.62935 5.36090   4
  -6   1  -3 6.61816 4.62359   2
  -6   1  -3 9.94428 3.73687   6
   7  -1   3 89.0637 7.42273   7
  -7  -1  -3 83.3956 12.6176   4
  -7  -1  -3 72.5104 7.24891   3
  -7  -1  -3 84.9962 7.43478   6
  -7   1  -3 99.0055 10.8655   4
   7   1   3 79.0786 6.90071   7
  -7   1  -3 82.8935 8.26001   2
  -8  -1  -3 414.882 27.9594   4
  -8  -1  -3 284.372 15.4850   6
   8  -1   3 339.972 15.3729   7
  -8   1  -3 346.559 22.7243   4
   8   1   3 328.164 15.5653   7
  -9  -1  -3 103.354 17.7646   4
   9  -1   3 103.066 9.31861   7
  -9  -1  -3 73.0115 9.44562   6
   9   1   3 99.0646 9.67598   7
  -9   1  -3 95.1536 12.6354   4
 -10  -2   3 50.2062 11.5869   6
 -10  -2   3 83.6131 12.4133   3
 -10  -2   3 86.7866 21.2569   4
  10  -2  -3 84.2486 13.3276   7
  10  -2  -3 100.517 20.1974   1
 -10   2   3 58.8708 11.9706   2
  10   2  -3 85.0104 13.1065   7
   9  -2  -3 44.1079 11.3138   7
  -9  -2   3 35.5409 10.7864   3
  -9  -2   3 40.0758 18.7150   4
  -9  -2   3 46.5992 8.78079   6
   9   2  -3 47.7948 9.06519   7
  -9   2   3 49.2915 11.2011   2
  -9   2   3 44.2084 12.5437   4
   9   2  -3 41.1894 7.82284   5
   8  -2  -3 325.580 19.5759   7
  -8  -2   3 283.705 26.4461   4
  -8  -2   3 295.684 16.8446   3
  -8  -2   3 316.104 17.2166   6
  -8   2   3 268.126 16.8544   2
  -8   2   3 276.818 21.9092   4
   8   2  -3 293.672 15.6989   5
   8   2  -3 301.209 17.1069   7
  -7  -2   3 832.002 31.2012   6
  -7  -2   3 803.556 38.5597   4
   7  -2  -3 788.246 30.7673   7
   7   2  -3 810.048 31.0013   7
  -7   2   3 791.969 34.6293   4
  -7   2   3 792.737 30.8105   2
  -7   2   3 827.101 29.9395   7
   7   2  -3 826.566 29.4480   5
  -6  -2   3 624.164 32.1795   4
   6  -2  -3 609.116 24.6836   7
   6  -2  -3 632.732 24.5174   6
  -6  -2   3 644.566 25.0082   6
  -6   2   3 624.712 23.7738   7
   6   2  -3 638.436 24.9512   6
  -6   2   3 555.729 29.2077   4
   6   2  -3 651.752 23.9290   5
   6   2  -3 657.826 25.1599   7
  -6   2   3 613.921 24.5491   2
  -5  -2   3 205.410 17.9718   4
  -5  -2   3 200.042 11.9368   6
   5  -2  -3 203.505 13.7642   7
   5  -2  -3 206.910 12.6087   6
   5   2  -3 203.245 13.1397   6
  -5   2   3 201.476 13.7544   2
   5   2  -3 205.936 12.0799   5
   5   2  -3 200.492 13.9613   7
  -5   2   3 210.261 11.7825   7
  -4  -2   3 1918.67 66.6160   4
   4  -2  -3 1937.15 59.9689   7
   4  -2  -3 1923.34 59.7486   6
  -4  -2   3 1926.11 60.4960   6
  -4   2   3 1888.52 59.9256   7
   4   2  -3 1871.68 60.2372   7
   4   2  -3 1904.97 59.2452   5
   4   2  -3 1925.93 60.0645   6
  -4   2   3 1886.05 59.8151   2
  -3  -2   3 5573.06 164.868   6
   3  -2  -3 5544.35 164.744   7
  -3  -2   3 5556.30 165.036   7
   3  -2  -3 5677.37 164.802   6
   3   2  -3 5520.10 164.125   5
   3   2  -3 5535.70 164.810   7
  -3   2   3 5556.32 164.611   7
   3   2  -3 5640.60 165.082   6
  -2  -2   3 662.328 22.3511   6
   2  -2  -3 650.653 22.3296   6
   2  -2  -3 634.511 22.4393   7
   2  -2  -3 658.448 22.3831   3
  -2  -2   3 651.370 22.9317   7
   2   2  -3 622.447 22.0596   5
  -2   2   3 607.325 22.5981   6
   2   2  -3 662.506 23.3495   6
   2   2  -3 626.099 22.6103   7
  -2   2   3 633.835 22.3901   7
   1  -2  -3 -6.0349 4.14887   6
  -1  -2   3 -2.9126 3.61962   6
   1  -2  -3 -0.7588 3.11426   7
  -1  -2   3 3.96434 4.12534   7
   1  -2  -3 -0.7723 4.73841   4
   1  -2  -3 3.71759 3.23745   3
   1   2  -3 -4.7337 4.45355   5
  -1   2   3 1.62290 4.57617   7
  -1   2   3 -1.5175 4.10567   6
   1   2  -3 3.54925 4.74700   6
   1   2  -3 -1.3811 2.63744   7
   0  -2  -3 541.157 19.2330   3
   0  -2   3 541.681 18.4021   6
   0  -2   3 546.343 19.7570   7
   0  -2  -3 546.177 18.4965   7
   0  -2  -3 554.259 19.1199   6
   0  -2  -3 531.535 20.5210   4
   0   2  -3 536.032 19.2557   5
   0   2  -3 559.211 18.2089   7
   0   2   3 549.377 19.2393   7
   0   2  -3 552.079 18.9804   6
  -1  -2  -3 4485.78 132.893   6
  -1  -2  -3 4394.90 133.569   3
  -1  -2  -3 4374.07 135.599   4
  -1  -2  -3 5013.99 132.016   1
  -1   2  -3 4415.97 131.619   7
   1   2   3 4524.09 132.849   7
  -1   2  -3 4532.50 132.933   6
  -1   2  -3 4423.54 133.628   5
   2  -2   3 2159.84 65.5152   7
   2  -2   3 2200.74 63.8313   3
  -2  -2  -3 2154.99 69.8585   4
  -2  -2  -3 2155.73 65.8821   6
  -2  -2  -3 2168.33 67.0219   3
  -2  -2  -3 2238.11 65.9190   6
   2   2   3 2207.69 66.9745   7
  -2   2  -3 2192.30 65.8673   6
   2   2   3 2206.18 65.8830   7
  -2   2  -3 2196.57 66.8534   5
  -2   2  -3 2269.30 65.7623   6
  -3  -2  -3 1516.88 47.2453   3
  -3  -2  -3 1497.05 45.7504   6
   3  -2   3 1478.98 45.3197   7
  -3  -2  -3 1496.74 45.6883   6
  -3  -2  -3 1429.58 50.6401   4
  -3   2  -3 1475.77 45.3387   2
   3   2   3 1523.03 45.6867   7
  -3   2  -3 1510.96 45.4985   6
  -3   2  -3 1528.81 45.6317   6
  -3   2  -3 1474.83 47.0706   5
   3   2   3 1499.78 45.6883   7
  -3   2  -3 1458.39 47.0742   4
  -4  -2  -3 636.512 21.8242   6
  -4  -2  -3 651.114 28.0632   4
   4  -2   3 604.479 21.2667   7
   4  -2   3 655.942 21.6569   7
  -4  -2  -3 671.031 23.9234   3
  -4  -2  -3 671.311 22.1171   6
  -4   2  -3 649.336 21.6735   6
   4   2   3 657.295 21.8522   7
  -4   2  -3 622.992 21.5419   6
  -4   2  -3 647.945 22.0644   2
   4   2   3 642.865 21.8225   7
  -4   2  -3 626.844 23.3352   5
  -4   2  -3 656.765 23.9530   4
  -5  -2  -3 947.658 38.4063   4
   5  -2   3 945.719 30.8781   7
  -5  -2  -3 959.864 32.6770   3
  -5  -2  -3 970.612 31.3589   6
  -5   2  -3 956.320 30.9512   6
  -5   2  -3 944.655 31.6716   2
  -5   2  -3 944.816 33.6742   4
   5   2   3 966.730 31.2686   7
  -6  -2  -3 524.980 27.7107   4
  -6  -2  -3 537.268 20.5442   6
  -6  -2  -3 528.134 21.1248   3
   6  -2   3 558.401 20.1019   7
  -6   2  -3 548.891 19.8807   6
   6   2   3 537.283 20.1647   7
  -6   2  -3 546.117 23.3034   4
  -6   2  -3 544.581 20.3467   2
   7  -2   3 1189.51 38.3698   7
  -7  -2  -3 1173.66 47.3312   4
  -7  -2  -3 1103.23 38.4365   6
  -7   2  -3 1157.28 42.0213   4
  -7   2  -3 1198.28 38.3514   6
   7   2   3 1122.15 38.4110   7
  -7   2  -3 1132.79 39.2204   2
  -8  -2  -3 19.5153 6.59826   3
  -8  -2  -3 31.0466 14.3232   4
  -8  -2  -3 19.6787 6.11857   6
   8  -2   3 22.3977 7.17104   7
   8   2   3 15.4652 5.79975   7
  -9  -2  -3 47.6566 8.79797   6
  -9  -2  -3 40.9642 16.8138   4
   9  -2   3 48.3028 8.35239   7
   9   2   3 48.2359 7.89717   7
 -10  -3   3 515.591 27.2763   6
 -10  -3   3 493.056 25.3047   3
 -10  -3   3 438.918 41.7510   4
  10  -3  -3 501.458 27.9119   7
  10   3  -3 479.988 27.4074   7
 -10   3   3 500.421 27.1568   2
  -9  -3   3 1373.88 48.7846   6
   9  -3  -3 1247.55 47.9539   7
  -9  -3   3 1236.02 47.9134   3
  -9  -3   3 1237.21 59.4608   4
  -9   3   3 1271.73 46.7016   2
   9   3  -3 1290.27 48.1461   7
  -8  -3   3 303.111 19.0615   6
   8  -3  -3 269.861 17.0223   7
  -8  -3   3 271.234 27.1298   4
  -8  -3   3 268.034 17.0230   3
  -8   3   3 267.049 19.2458   2
   8   3  -3 270.318 15.0999   5
   8   3  -3 264.479 19.1561   7
   7  -3  -3 88.1510 9.73715   7
  -6  -3   3 1639.65 54.0806   6
  -6  -3   3 1632.10 59.8079   4
   6  -3  -3 1566.99 52.1192   6
  -6  -3   3 1642.29 54.1369   3
   6  -3  -3 1432.49 52.3148   7
   6   3  -3 1609.66 53.8393   7
   6   3  -3 1540.41 52.6621   6
  -6   3   3 1610.08 51.8222   7
   6   3  -3 1654.02 51.4214   5
  -6   3   3 1667.07 52.8750   2
  -6   3   3 1450.35 52.4918   4
  -5  -3   3 1093.89 37.5992   3
  -5  -3   3 1045.91 43.4129   4
   5  -3  -3 1086.39 38.3188   7
   5  -3  -3 1056.59 36.5545   6
  -5  -3   3 1026.49 37.3407   6
  -5   3   3 1150.12 38.3820   6
   5   3  -3 1042.80 36.1160   5
   5   3  -3 1054.56 37.8138   6
  -5   3   3 1059.26 36.7894   2
  -5   3   3 1074.48 36.6938   7
   5   3  -3 1034.39 38.0691   7
   4  -3  -3 766.204 28.8696   7
  -4  -3   3 795.465 29.6435   3
   4  -3  -3 788.480 28.3022   6
  -4  -3   3 800.376 37.5654   4
  -4  -3   3 751.443 29.5025   6
   4   3  -3 823.310 29.9935   6
   4   3  -3 791.331 28.9250   7
  -4   3   3 814.468 29.7069   6
   4   3  -3 828.958 28.4580   5
  -4   3   3 787.549 29.3859   7
  -3  -3   3 485.071 20.2337   3
  -3  -3   3 499.439 19.4248   6
   3  -3  -3 486.735 18.7620   3
   3  -3  -3 487.219 19.9172   6
   3  -3  -3 488.252 20.7454   7
  -3  -3   3 474.831 28.2568   4
   3   3  -3 466.597 19.5017   6
  -3   3   3 501.290 19.4044   7
   3   3  -3 465.258 19.3417   5
   3   3  -3 494.335 20.3580   7
  -3   3   3 466.546 19.3151   6
  -2  -3   3 1187.57 39.2409   6
   2  -3  -3 1209.48 39.9143   7
  -2  -3   3 1203.86 39.2936   3
   2  -3  -3 1220.65 38.7864   3
   2  -3  -3 1180.15 39.3327   6
  -2   3   3 1232.38 39.5298   7
   2   3  -3 1210.44 39.8069   6
   2   3  -3 1197.68 39.0199   5
   2   3  -3 1194.17 39.2243   7
  -2   3   3 1173.13 39.3924   6
   1  -3  -3 268.955 12.9190   3
   1  -3  -3 260.405 13.4402   4
  -1  -3   3 256.572 12.2781   3
  -1  -3   3 253.743 11.7038   6
   1  -3  -3 278.671 12.4936   7
   1  -3  -3 261.456 12.2047   6
   1   3  -3 279.774 13.9581   6
   1   3  -3 244.920 12.5052   7
   1   3  -3 274.166 13.7603   5
  -1   3   3 266.490 12.1279   6
  -1   3   3 277.595 12.5773   7
   0  -3  -3 3908.42 120.231   7
   0  -3  -3 4200.17 121.000   6
   0  -3   3 4121.88 120.268   6
   0  -3  -3 4120.93 120.993   3
   0  -3   3 4084.14 119.482   3
   0  -3  -3 3898.48 121.855   4
   0   3  -3 4013.83 120.920   6
   0   3  -3 3951.18 120.899   5
   0   3   3 4016.49 120.411   6
   0   3  -3 4215.45 120.303   7
   0   3   3 4009.14 120.674   7
   1  -3   3 75.9369 5.95867   3
  -1  -3  -3 63.0793 6.53522   6
  -1  -3  -3 83.1625 7.30740   7
  -1  -3  -3 74.8923 8.10775   4
   1  -3   3 66.3113 4.99499   6
  -1   3  -3 65.8760 5.93384   7
   1   3   3 98.1821 7.06987   6
  -1   3  -3 69.9961 7.14179   6
  -1   3  -3 80.1461 6.87187   5
   1   3   3 60.1976 6.74708   7
  -2  -3  -3 1059.59 33.3894   7
   2  -3   3 1085.42 32.1186   3
  -2  -3  -3 1051.62 34.9552   6
  -2  -3  -3 1062.45 36.0513   3
  -2  -3  -3 1084.53 39.3519   4
  -2  -3  -3 1045.70 31.3667   1
  -2   3  -3 1075.17 35.0924   6
   2   3   3 1069.37 34.6980   7
  -2   3  -3 1035.18 35.4268   5
  -2   3  -3 1056.93 32.8158   7
  -3  -3  -3 515.427 24.8494   4
  -3  -3  -3 556.626 20.7813   6
  -3  -3  -3 547.689 22.4185   3
   3   3   3 584.333 20.4966   7
  -3   3  -3 578.275 21.5286   5
  -3   3  -3 557.371 20.8459   6
  -4  -3  -3 1613.13 51.1701   6
   4  -3   3 1641.23 50.7419   7
  -4  -3  -3 1592.50 56.9032   4
  -4  -3  -3 1586.75 52.6363   3
   4   3   3 1661.54 51.2256   7
  -4   3  -3 1616.35 51.9639   5
  -4   3  -3 1631.72 51.0160   6
  -4   3  -3 1544.30 50.1360   2
  -5  -3  -3 37.4114 12.8159   4
   5  -3   3 37.6292 6.57065   7
  -5  -3  -3 43.4134 6.31609   6
  -5  -3  -3 44.0168 6.71252   3
   5   3   3 45.8662 6.75418   7
  -5   3  -3 39.0396 6.35594   6
  -5   3  -3 53.1516 6.47542   2
   6  -3   3 16.7078 6.30587   7
  -6  -3  -3 20.8743 5.70320   3
  -6  -3  -3 17.5274 12.6695   4
  -6  -3  -3 13.9993 5.65957   6
   6   3   3 16.4106 5.91628   7
  -6   3  -3 19.3026 4.51042   2
  -6   3  -3 25.2239 5.97602   6
  -7  -3  -3 634.650 33.1937   4
  -7  -3  -3 591.129 25.9619   3
  -7  -3  -3 628.321 24.6759   6
   7  -3   3 594.886 23.6037   7
   7   3   3 621.485 24.7616   7
  -7   3  -3 596.171 24.3689   2
  -7   3  -3 631.901 24.1950   6
  -8  -3  -3 645.581 27.7049   3
  -8  -3  -3 659.559 39.5845   4
  -8  -3  -3 629.241 26.3180   6
   8  -3   3 620.091 25.2159   7
   8   3   3 666.380 25.9626   7
  -8   3  -3 682.929 26.3438   6
  -9  -4   3 2.66167 14.0211   4
   9  -4  -3 -13.853 6.68043   7
  -9  -4   3 1.09645 7.31509   3
  -9  -4   3 -2.7801 9.56071   6
  -9   4   3 -4.9965 9.66983   2
   9   4  -3 -0.9183 9.79496   7
  -8  -4   3 85.8088 11.1554   3
  -8  -4   3 85.7937 21.8404   4
   8  -4  -3 80.9812 12.7730   7
  -8  -4   3 75.9140 10.8778   6
   8   4  -3 74.4184 10.7475   7
  -8   4   3 85.6634 12.4503   2
   8   4  -3 111.356 9.81492   5
  -7  -4   3 1785.85 68.0064   4
  -7  -4   3 1536.58 57.7401   6
  -7  -4   3 1626.38 57.2306   3
   7  -4  -3 1707.50 58.1977   7
  -7   4   3 1604.41 57.0188   2
   7   4  -3 1732.67 54.6480   5
   7   4  -3 1679.05 57.5751   7
  -6  -4   3 835.808 32.8004   6
  -6  -4   3 836.408 39.3077   4
   6  -4  -3 851.124 34.1108   7
   6  -4  -3 749.774 31.7305   6
  -6  -4   3 848.319 33.8913   3
  -6   4   3 860.199 32.0950   2
   6   4  -3 825.058 30.7135   5
   6   4  -3 822.262 32.5911   6
   6   4  -3 824.975 32.7345   7
  -6   4   3 888.607 31.5493   7
  -6   4   3 874.233 33.8233   6
  -5  -4   3 273.047 15.6765   3
  -5  -4   3 330.805 28.5305   4
  -5  -4   3 270.960 15.6275   6
   5  -4  -3 275.803 15.9815   6
   5  -4  -3 253.130 15.7940   7
   5   4  -3 282.013 15.9106   7
  -5   4   3 280.504 17.0075   7
   5   4  -3 221.364 16.7444   6
  -5   4   3 274.644 17.7621   6
   5   4  -3 279.456 13.9648   5
   4  -4  -3 103.229 11.3543   7
  -4  -4   3 99.2313 10.4566   6
  -4  -4   3 87.6867 9.08856   3
  -4  -4   3 93.7528 13.3568   4
   4  -4  -3 85.8543 9.88583   6
   4   4  -3 107.171 9.84769   5
   4   4  -3 97.6124 9.55782   6
   4   4  -3 76.4580 10.2540   7
  -4   4   3 79.2128 8.91796   6
  -4   4   3 97.9314 10.4493   7
  -3  -4   3 1504.37 49.8798   3
   3  -4  -3 1517.63 50.5782   7
   3  -4  -3 1550.33 49.3339   3
   3  -4  -3 1537.09 50.2417   6
  -3  -4   3 1551.91 55.4471   4
  -3  -4   3 1551.55 50.8844   6
   3   4  -3 1531.58 50.4251   7
   3   4  -3 1493.11 50.5917   6
   3   4  -3 1510.92 49.4088   5
  -3   4   3 1496.43 50.7265   7
  -3   4   3 1535.24 51.0681   6
   2  -4  -3 536.061 21.9238   7
  -2  -4   3 534.543 22.0959   6
   2  -4  -3 562.516 21.8082   6
  -2  -4   3 564.914 27.2015   4
  -2  -4   3 552.867 21.0368   3
   2  -4  -3 533.023 21.3010   3
  -2   4   3 511.933 21.5997   7
   2   4  -3 531.303 21.4938   7
  -2   4   3 532.667 22.5755   6
   2   4  -3 539.253 22.1209   6
   2   4  -3 531.300 22.3313   5
  -1  -4   3 35.2343 6.63912   3
   1  -4  -3 45.5938 7.90850   7
   1  -4  -3 30.0889 5.41365   3
   1  -4  -3 26.7568 6.49362   4
   1  -4  -3 34.1463 5.92474   6
  -1  -4   3 34.9414 10.3215   4
  -1  -4   3 38.5275 6.60455   6
  -1   4   3 33.1727 5.99552   7
  -1   4   3 34.6856 7.37771   6
   1   4  -3 34.1147 6.89480   7
   1   4  -3 41.5028 6.64781   6
   1   4  -3 29.2909 5.81200   5
   0  -4   3 29.9634 8.38158   4
   0  -4  -3 9.20324 4.72736   7
   0  -4  -3 4.08051 4.31558   6
   0  -4   3 12.9105 5.38415   6
   0  -4  -3 11.5790 6.63694   4
   0  -4  -3 15.8376 6.41075   3
   0  -4   3 19.0129 4.99108   3
   0   4  -3 17.7872 5.71577   7
   0   4  -3 13.8719 7.29484   6
   0   4   3 14.6479 6.02718   6
   0   4  -3 13.6742 7.06957   5
   0   4   3 17.8401 7.01456   7
  -1  -4  -3 328.942 17.9158   4
   1  -4   3 408.632 15.9702   6
  -1  -4  -3 337.013 17.0867   6
  -1  -4  -3 445.523 17.1366   7
  -1  -4  -3 413.455 18.1607   3
   1  -4   3 352.551 14.4474   3
  -1   4  -3 331.956 16.3434   6
   1   4   3 335.342 17.3950   7
   1   4   3 403.867 16.5705   6
  -1   4  -3 382.388 15.8610   7
  -1   4  -3 416.749 18.9315   5
   2  -4   3 344.427 14.0466   6
   2  -4   3 336.154 12.8283   3
  -2  -4  -3 368.130 16.7146   6
  -2  -4  -3 305.628 20.1910   4
  -2  -4  -3 359.859 17.5443   3
   2  -4   3 359.923 17.7968   7
  -2  -4  -3 324.060 14.8323   7
  -2   4  -3 352.254 16.6095   5
  -2   4  -3 300.511 16.5004   6
  -2   4  -3 349.122 13.5982   7
   2   4   3 359.536 17.0170   7
   2   4   3 339.801 14.7178   6
  -3  -4  -3 5.98517 7.01351   4
  -3  -4  -3 6.06653 5.33858   3
   3  -4   3 7.13947 7.24940   7
  -3  -4  -3 -3.8329 5.57279   6
   3  -4   3 2.79898 1.85088   3
   3   4   3 3.59569 6.24577   7
  -3   4  -3 7.03580 6.72786   6
  -3   4  -3 1.56216 5.16593   5
  -4  -4  -3 93.9741 14.5273   4
  -4  -4  -3 104.443 9.75287   3
  -4  -4  -3 83.9046 8.98896   6
   4  -4   3 86.4289 8.36135   7
  -4   4  -3 95.6951 9.54022   6
   4   4   3 105.341 9.72891   7
  -4   4  -3 75.0914 10.3882   5
   5  -4   3 873.436 31.0640   7
  -5  -4  -3 833.017 37.8622   4
  -5  -4  -3 889.901 31.3298   6
  -5  -4  -3 836.018 33.1940   3
  -5   4  -3 830.811 30.1244   2
   5   4   3 834.204 31.7300   7
  -5   4  -3 873.309 31.6458   6
  -6  -4  -3 226.974 16.6898   3
   6  -4   3 244.149 15.7239   7
  -6  -4  -3 223.707 14.5136   6
  -6  -4  -3 244.566 21.6273   4
  -6   4  -3 200.103 13.2292   2
   6   4   3 241.265 15.2754   7
  -6   4  -3 216.708 14.4212   6
   7  -4   3 27.0967 8.49534   7
  -7  -4  -3 25.1477 6.02074   6
  -7  -4  -3 32.3392 7.51202   3
  -7  -4  -3 25.2229 15.1344   4
  -7   4  -3 10.9525 7.13983   6
   7   4   3 18.4218 7.63919   7
  -8  -4  -3 26.1097 8.08519   6
  -8  -4  -3 10.8871 9.32796   3
   8  -4   3 21.5336 8.76545   7
  -8  -4  -3 34.5924 13.6104   4
  -8   4  -3 28.7210 8.53175   6
   8   4   3 23.3504 8.74512   7
  -9  -5   3 3.53017 8.70561   6
  -9  -5   3 -4.1427 11.9780   3
   9   5  -3 0.16092 8.31637   7
  -8  -5   3 278.894 21.4301   6
  -8  -5   3 290.780 28.4384   4
   8  -5  -3 292.523 19.3876   7
  -8  -5   3 267.591 21.9868   3
   8   5  -3 263.169 21.7970   7
  -8   5   3 260.204 20.8439   2
  -7  -5   3 32.4850 8.71512   3
   7  -5  -3 20.4433 8.49152   7
  -7  -5   3 11.0888 9.97349   6
  -7  -5   3 5.13075 16.9435   4
   7   5  -3 8.79504 10.4603   7
   7   5  -3 13.8721 7.24471   5
  -7   5   3 19.5888 7.92590   6
  -7   5   3 18.9366 7.62664   2
   6  -5  -3 227.327 18.8737   7
  -6  -5   3 157.080 20.8827   4
  -6  -5   3 141.627 14.9007   3
  -6  -5   3 192.792 14.5792   6
  -6   5   3 126.770 12.9337   6
   6   5  -3 190.520 14.4064   5
   6   5  -3 200.741 15.3506   7
  -6   5   3 210.744 15.9208   7
  -5  -5   3 562.306 34.5421   4
  -5  -5   3 518.438 25.7687   3
   5  -5  -3 532.761 26.7036   7
   5  -5  -3 525.257 24.0108   6
  -5  -5   3 524.573 25.7507   6
  -5   5   3 588.118 26.7576   6
   5   5  -3 533.053 23.4584   5
   5   5  -3 531.214 24.5183   7
   5   5  -3 558.661 26.0464   6
  -5   5   3 520.212 23.3267   7
   4  -5  -3 233.989 12.6827   3
   4  -5  -3 225.614 15.6653   7
  -4  -5   3 226.103 14.7016   6
  -4  -5   3 227.745 23.1085   4
   4  -5  -3 234.160 14.1984   6
  -4  -5   3 230.021 16.9976   3
  -4   5   3 228.911 15.1092   6
   4   5  -3 231.692 15.2790   6
   4   5  -3 250.084 17.9850   7
   4   5  -3 229.267 15.6317   5
  -4   5   3 224.646 16.9129   7
   3  -5  -3 72.7902 9.45487   7
   3  -5  -3 73.8494 8.95826   3
  -3  -5   3 91.1592 14.0792   4
  -3  -5   3 68.9350 8.64031   6
   3  -5  -3 75.0605 10.5104   6
  -3  -5   3 73.3847 8.80455   3
   3   5  -3 69.1612 10.3687   7
  -3   5   3 81.5002 9.54698   7
   3   5  -3 74.0015 9.57020   6
  -3   5   3 110.660 11.8607   6
   3   5  -3 84.8331 8.77873   5
   2  -5  -3 -5.3858 6.21666   3
   2  -5  -3 5.48336 6.22420   7
  -2  -5   3 -1.8538 7.03220   3
   2  -5  -3 1.86623 7.54400   6
  -2  -5   3 3.80182 7.10554   6
  -2  -5   3 -12.479 9.47387   4
  -2   5   3 -1.0198 7.82040   6
  -2   5   3 6.76359 8.31991   7
   2   5  -3 3.15274 5.28334   7
   2   5  -3 -0.2278 8.91967   6
   2   5  -3 10.3639 7.92799   5
   1  -5  -3 704.275 28.4395   7
  -1  -5   3 685.233 28.4170   4
   1  -5  -3 659.819 26.8335   6
   1  -5  -3 667.818 26.9607   3
  -1  -5   3 696.499 25.5872   3
  -1  -5   3 720.649 27.4767   6
   1  -5  -3 706.088 26.8874   4
   1   5  -3 667.038 27.4796   6
  -1   5   3 693.963 28.5959   7
   1   5  -3 697.259 28.1544   5
   1   5  -3 656.785 27.1635   7
  -1   5   3 696.840 27.9465   6
   0  -5  -3 195.143 13.4773   7
   0  -5   3 277.347 18.2368   7
   0  -5   3 233.824 14.3489   4
   0  -5  -3 191.721 13.4760   6
   0  -5   3 269.822 14.8338   6
   0  -5  -3 258.074 16.3727   4
   0  -5  -3 294.186 15.9665   3
   0  -5   3 252.593 13.3710   3
   0   5  -3 291.907 15.2521   7
   0   5  -3 263.734 17.1184   5
   0   5   3 267.903 15.7743   6
   0   5   3 272.211 16.9647   7
   1  -5   3 726.904 25.8690   3
  -1  -5  -3 774.785 29.6141   6
   1  -5   3 758.649 29.0536   7
  -1  -5  -3 768.700 29.3736   3
  -1  -5  -3 740.996 28.3579   7
   1  -5   3 716.638 27.2893   6
   1  -5   3 705.457 25.2357   4
  -1  -5  -3 744.684 31.1772   4
  -1   5  -3 705.952 26.7064   7
  -1   5  -3 751.416 29.8839   6
   1   5   3 750.800 28.2523   6
  -1   5  -3 717.119 28.6584   5
   1   5   3 749.885 29.5750   7
  -2  -5  -3 112.590 9.29426   7
   2  -5   3 124.492 7.85737   3
   2  -5   3 113.522 10.6259   7
  -2  -5  -3 131.377 10.8623   6
  -2  -5  -3 115.359 10.2719   3
  -2  -5  -3 123.059 13.8359   4
  -2   5  -3 109.324 12.1480   5
  -2   5  -3 124.482 9.89894   7
   2   5   3 109.709 10.0397   7
  -2   5  -3 106.221 10.2271   6
  -3  -5  -3 1052.18 37.4663   3
   3  -5   3 1055.87 38.0381   7
  -3  -5  -3 986.861 40.4775   4
  -3  -5  -3 1038.96 36.9160   6
  -3   5  -3 967.672 37.0508   5
   3   5   3 1009.00 36.6993   7
  -3   5  -3 1006.30 37.4584   6
  -4  -5  -3 71.1296 9.99530   6
  -4  -5  -3 99.3897 13.2634   4
   4  -5   3 72.7839 8.95847   7
  -4  -5  -3 87.8236 10.0147   3
  -4   5  -3 80.8793 10.6954   6
   4   5   3 71.0080 10.1648   7
  -5  -5  -3 333.370 28.5524   4
   5  -5   3 382.337 19.2024   7
  -5  -5  -3 374.996 19.7694   6
  -5  -5  -3 377.207 21.7420   3
   5   5   3 371.601 18.9087   7
  -5   5  -3 380.076 18.0305   2
  -5   5  -3 383.859 20.3243   6
  -6  -5  -3 171.527 20.9950   4
  -6  -5  -3 119.845 12.5275   6
   6  -5   3 157.405 14.2186   7
  -6  -5  -3 157.590 15.2128   3
  -6   5  -3 154.862 12.7902   2
   6   5   3 152.072 13.7348   7
  -6   5  -3 118.537 12.8084   6
  -7  -5  -3 43.2154 9.64495   6
  -7  -5  -3 37.7106 11.0292   3
  -7  -5  -3 61.1963 14.7224   4
   7  -5   3 60.7434 11.1290   7
   7   5   3 52.8528 10.3579   7
  -7   5  -3 44.3572 10.2686   6
  -7  -6   3 25.0353 12.2614   3
  -7  -6   3 21.9457 13.1399   4
   7  -6  -3 13.9651 12.1245   7
  -7  -6   3 37.1118 11.8793   6
   7   6  -3 25.2117 9.46057   7
  -7   6   3 18.7750 8.59633   6
   7   6  -3 20.1604 8.16326   5
  -7   6   3 23.8402 10.9333   2
  -6  -6   3 25.3656 11.6782   3
  -6  -6   3 34.6557 9.13503   6
  -6  -6   3 50.9488 13.4295   4
   6  -6  -3 49.7610 12.9518   7
   6   6  -3 23.1805 8.62081   5
   6   6  -3 42.8787 12.0658   7
  -6   6   3 44.8718 12.7131   6
  -5  -6   3 103.546 13.7888   7
  -5  -6   3 92.8496 14.4405   4
  -5  -6   3 103.557 13.8787   3
  -5  -6   3 86.7023 11.2531   6
   5  -6  -3 123.156 12.8914   7
   5   6  -3 93.6450 11.2599   5
  -5   6   3 119.380 13.1477   7
   5   6  -3 97.0181 11.9417   7
  -5   6   3 85.2871 13.5707   6
   5   6  -3 92.1967 13.7188   6
  -4  -6   3 405.080 27.3416   4
  -4  -6   3 376.166 20.2932   3
   4  -6  -3 395.639 19.6509   3
   4  -6  -3 388.258 20.1584   6
  -4  -6   3 395.347 20.9509   6
  -4  -6   3 415.833 21.7375   7
  -4   6   3 370.720 23.0442   6
  -4   6   3 369.857 22.5797   7
   4   6  -3 475.755 24.2619   6
  -3  -6   3 135.698 13.5678   3
   3  -6  -3 143.911 14.9432   7
   3  -6  -3 135.319 12.0878   6
   3  -6  -3 135.367 10.8414   3
  -3  -6   3 122.517 12.6674   7
  -3  -6   3 117.626 12.9100   6
  -3  -6   3 129.088 13.5015   4
  -3   6   3 139.358 12.8883   6
   3   6  -3 118.368 11.8350   7
   3   6  -3 147.717 15.1006   6
   3   6  -3 95.1849 12.0711   5
  -3   6   3 126.766 13.6249   7
   2  -6  -3 508.838 25.8552   7
  -2  -6   3 504.318 22.3771   3
   2  -6  -3 518.905 25.1012   6
  -2  -6   3 560.548 25.1236   6
  -2  -6   3 532.117 24.7585   7
   2  -6  -3 507.839 23.3136   3
  -2  -6   3 516.719 25.7388   4
   2   6  -3 516.942 26.1185   6
   2   6  -3 486.322 24.5057   7
  -2   6   3 521.876 25.8058   7
  -2   6   3 535.943 25.5413   6
   2   6  -3 506.856 23.2000   5
  -1  -6   3 12.6781 10.2677   7
  -1  -6   3 8.40515 7.78498   6
  -1  -6   3 14.6286 7.52439   4
   1  -6  -3 6.40880 6.33805   4
   1  -6  -3 19.6228 7.12910   7
   1  -6  -3 15.4244 8.09112   3
  -1  -6   3 17.7636 7.33413   3
   1  -6  -3 12.5375 8.84349   6
  -1   6   3 15.2822 9.03545   6
  -1   6   3 4.59663 6.45373   7
   1   6  -3 11.3039 5.85580   7
   1   6  -3 6.66722 9.90432   6
   1   6  -3 9.49451 8.96304   5
   0  -6   3 365.399 22.1272   7
   0  -6  -3 362.857 20.2128   6
   0  -6  -3 360.373 19.3751   3
   0  -6   3 330.506 16.8568   3
   0  -6   3 341.338 18.2440   6
   0   6   3 335.218 20.8688   7
   0   6  -3 307.988 20.4840   5
   0   6  -3 299.077 20.3705   6
   0   6   3 320.040 19.1344   6
   0   6  -3 340.830 18.4918   7
  -1  -6  -3 168.938 13.9417   3
  -1  -6  -3 139.091 14.1446   4
   1  -6   3 169.167 11.3444   3
  -1  -6  -3 125.278 11.8850   6
   1  -6   3 130.949 12.7539   7
  -1  -6  -3 127.437 11.7549   7
  -1   6  -3 141.274 10.8927   7
  -1   6  -3 154.016 13.2135   5
  -1   6  -3 157.617 14.6785   6
   1   6   3 157.901 14.5458   7
   2  -6   3 991.709 33.3711   3
   2  -6   3 999.159 39.0363   7
  -2  -6  -3 977.993 38.4756   6
  -2  -6  -3 969.942 37.2199   3
  -2  -6  -3 1009.18 41.0889   4
  -2   6  -3 1014.02 39.0741   5
  -2   6  -3 979.726 38.5048   6
   2   6   3 964.458 38.3438   7
  -3  -6  -3 133.783 14.6927   4
  -3  -6  -3 144.324 12.7809   3
   3  -6   3 120.601 13.9700   7
  -3  -6  -3 136.255 12.3031   6
  -3   6  -3 137.530 14.1312   6
   3   6   3 136.522 12.2964   7
  -3   6  -3 134.712 14.6033   5
   4  -6   3 51.2523 9.51671   7
  -4  -6  -3 76.0719 11.4961   6
  -4  -6  -3 71.6305 10.3862   3
  -4  -6  -3 83.0022 15.7707   4
   4   6   3 54.6110 10.7750   7
  -4   6  -3 71.4822 9.92915   6
  -5  -6  -3 -0.2260 5.84026   6
   5  -6   3 -11.791 9.67207   7
  -5  -6  -3 7.03650 10.1689   3
  -5  -6  -3 1.06628 9.73618   4
   5   6   3 -2.8597 8.98533   7
  -5   6  -3 3.10702 9.59718   6
  -6  -6  -3 430.303 26.5270   3
  -6  -6  -3 475.963 25.2361   6
  -6  -6  -3 488.841 37.0025   4
   6  -6   3 508.234 26.3066   7
  -6   6  -3 436.743 24.8774   6
   6   6   3 446.982 25.4452   7
  -6  -7   3 28.6803 12.5801   3
  -6  -7   3 2.09658 15.3093   4
  -6  -7   3 18.5960 9.08848   6
   6  -7  -3 29.3518 13.4383   7
   6   7  -3 20.7689 9.34205   7
   6   7  -3 3.15618 8.80576   5
  -6   7   3 1.61439 8.46808   6
  -5  -7   3 458.331 28.4701   4
   5  -7  -3 418.101 24.5029   7
  -5  -7   3 459.166 31.3231   7
  -5  -7   3 396.095 25.5450   3
  -5  -7   3 396.999 25.7842   6
   5   7  -3 451.475 23.8268   5
  -5   7   3 402.995 26.6509   6
   5   7  -3 452.338 24.2415   7
   4  -7  -3 109.126 12.0877   3
   4  -7  -3 140.634 14.3967   7
  -4  -7   3 110.815 14.7859   6
  -4  -7   3 109.918 12.3377   3
  -4  -7   3 126.279 13.7616   7
  -4  -7   3 110.317 16.4096   4
   4   7  -3 103.801 11.6119   5
  -4   7   3 113.500 14.3211   7
   4   7  -3 111.082 14.9432   6
  -4   7   3 126.476 16.0243   6
   4   7  -3 92.3183 11.9291   7
  -3  -7   3 121.877 12.9099   6
   3  -7  -3 126.290 13.7317   7
  -3  -7   3 129.736 13.8506   7
  -3  -7   3 117.680 13.3693   4
   3  -7  -3 137.454 13.3128   6
   3  -7  -3 108.629 10.8610   3
  -3  -7   3 130.326 13.8983   3
  -3   7   3 125.648 14.8279   7
   3   7  -3 121.235 15.2544   6
  -3   7   3 101.582 14.5617   6
   3   7  -3 137.004 14.7880   7
   3   7  -3 116.661 11.9607   5
  -2  -7   3 37.5839 7.96886   3
   2  -7  -3 33.4596 7.72746   3
   2  -7  -3 27.2610 8.82444   7
   2  -7  -3 44.7536 9.07914   6
  -2  -7   3 29.1046 9.43358   7
  -2  -7   3 37.2449 10.3887   4
  -2   7   3 33.3796 8.70835   7
  -2   7   3 51.8609 11.6197   6
   2   7  -3 38.1760 10.8216   7
   2   7  -3 33.1422 8.38526   5
   2   7  -3 24.2634 8.82026   6
   1  -7  -3 99.3040 13.3653   6
   1  -7  -3 89.2651 11.9134   3
  -1  -7   3 72.1120 10.0043   6
  -1  -7   3 79.9476 10.6775   3
   1  -7  -3 73.9631 13.1349   7
  -1  -7   3 70.8386 14.1636   7
   1   7  -3 88.3029 12.2064   7
  -1   7   3 83.7413 11.2504   7
   1   7  -3 76.6978 13.8564   6
   1   7  -3 68.8567 12.9927   5
  -1   7   3 80.9759 10.8753   6
   0  -7  -3 5.62659 8.93356   3
   0  -7  -3 36.6362 9.16253   4
   0  -7  -3 30.0373 10.5483   7
   0  -7   3 5.45543 11.5568   7
   0  -7   3 31.0816 8.10777   3
   0  -7  -3 48.1049 11.6109   6
   0   7  -3 13.3511 11.0153   6
   0   7   3 12.0226 7.62186   7
   0   7  -3 38.1391 11.4715   5
   0   7  -3 28.1412 9.45499   7
  -1  -7  -3 196.825 15.7557   6
  -1  -7  -3 201.229 18.4754   4
   1  -7   3 221.463 14.1302   3
   1  -7   3 220.974 18.8961   7
  -1  -7  -3 222.423 17.8909   3
  -1   7  -3 244.840 19.9581   6
   1   7   3 188.742 16.3944   7
  -1   7  -3 238.209 20.0904   5
   2  -7   3 28.5012 9.25398   7
  -2  -7  -3 49.9286 12.3484   4
  -2  -7  -3 42.0835 11.5382   6
  -2  -7  -3 32.5628 8.73207   3
  -2   7  -3 40.1148 9.56800   5
   2   7   3 33.1572 11.2312   7
  -2   7  -3 38.5203 9.55445   6
  -3  -7  -3 475.001 29.1172   4
  -3  -7  -3 322.340 20.3496   3
   3  -7   3 333.987 24.1512   7
  -3  -7  -3 368.404 23.5589   6
   3   7   3 433.666 24.5516   7
  -3   7  -3 304.995 23.0122   6
   4  -7   3 51.9450 13.4832   7
  -4  -7  -3 46.9171 13.4209   3
  -4  -7  -3 54.2908 15.6163   4
  -4  -7  -3 83.1799 13.5565   6
  -4   7  -3 56.8814 12.8113   6
   4   7   3 65.0906 12.8082   7
  -3  -8   3 238.915 18.3961   6
   3  -8  -3 271.512 22.4757   7
  -3  -8   3 220.612 18.8647   3
  -3  -8   3 226.269 20.0436   7
   3  -8  -3 268.689 19.1275   3
   3   8  -3 270.380 18.6943   5
   3   8  -3 252.138 21.5615   6
  -3   8   3 231.629 19.1009   7
   3   8  -3 287.920 22.6694   7
  -3   8   3 269.507 19.8682   6
   2  -8  -3 218.866 18.8314   7
   2  -8  -3 208.889 17.0527   3
  -2  -8   3 214.567 16.0218   3
  -2  -8   3 227.789 19.4732   7
   2  -8  -3 222.397 19.6500   6
  -2   8   3 245.040 18.6429   7
   2   8  -3 252.476 22.3050   6
   2   8  -3 218.759 17.4174   7
  -2   8   3 224.025 19.6525   6
   2   8  -3 200.802 17.3934   5
   1  -8  -3 10.6520 10.0724   3
   1  -8  -3 23.7853 11.9466   7
  -1  -8   3 -11.137 12.1860   7
  -1  -8   3 -2.1320 8.98408   3
   1  -8  -3 2.58142 7.75128   6
   1   8  -3 -8.6538 8.18093   6
  -1   8   3 5.91170 8.28498   7
   1   8  -3 -25.985 6.75025   5
   1   8  -3 -3.3363 6.72045   7
   0  -8   3 -0.2083 9.02304   7
   0  -8  -3 20.1658 10.8475   3
   0  -8   3 -1.0010 5.54409   3
   0  -8  -3 9.10365 11.4342   6
   0   8  -3 7.97484 8.79390   6
   0   8   3 1.52027 11.4211   7
   0   8  -3 -0.5113 7.92563   5
  -1  -8  -3 271.086 18.9932   6
  -1  -8  -3 321.778 21.7680   3
   1  -8   3 252.742 16.5989   3
   1  -8   3 272.241 20.5179   7
  -1   8  -3 292.183 23.7990   5
   1   8   3 241.468 19.2429   7
  -1   8  -3 223.812 19.0654   6
 -11   0   4 20.3483 17.5575   4
 -11   0   4 7.01217 10.8923   2
  11   0  -4 1.32720 8.67034   5
 -11   0   4 2.89691 10.3462   6
  11   0  -4 -3.9722 10.6115   7
 -11   0   4 -5.2810 8.89875   3
  11   0  -4 8.08061 9.55933   1
  10   0  -4 627.852 27.3235   5
  10   0  -4 627.071 28.0296   7
 -10   0   4 677.963 28.4637   6
 -10   0   4 467.579 32.0183   4
  10   0  -4 577.059 31.1716   1
 -10   0   4 592.846 29.5648   2
  -9   0   4 -18.628 15.3922   4
   9   0  -4 -0.2103 6.09706   7
   9   0  -4 -0.3068 8.48152   1
  -9   0   4 7.89308 6.65255   6
  -9   0   4 -1.2447 6.40955   2
   9   0  -4 11.4509 8.35898   5
  -8   0   4 1143.23 40.6004   6
  -8   0   4 986.513 48.7902   4
   8   0  -4 1097.80 45.8161   1
  -8   0   4 1182.97 41.8080   2
   8   0  -4 1111.48 40.4152   7
  -7   0   4 1.11453 7.47168   7
   7   0  -4 3.69080 7.58822   1
  -7   0   4 5.14264 12.0014   4
  -7   0   4 -5.1479 7.42380   6
   7   0  -4 3.84400 7.74543   7
   7   0  -4 -2.4688 4.54809   6
  -7   0   4 -3.5352 5.20019   2
   6   0  -4 2046.31 69.5051   1
  -6   0   4 2086.21 66.2949   2
  -6   0   4 2188.95 66.7698   7
   6   0  -4 2062.45 66.5388   7
  -6   0   4 2112.39 66.7208   6
   6   0  -4 2022.59 66.2981   6
   5   0  -4 7.24766 9.07234   1
  -5   0   4 -8.4240 6.04102   2
  -5   0   4 5.12217 5.04511   7
   5   0  -4 3.38989 4.56550   7
   5   0  -4 -6.4597 5.97334   6
  -5   0   4 2.89792 4.50346   6
  -4   0   4 992.799 35.2841   7
   4   0  -4 1065.86 34.9418   6
  -4   0   4 1047.35 35.1972   6
   4   0  -4 1040.17 34.8160   7
   4   0  -4 1032.70 37.1574   1
  -4   0   4 1030.19 34.5748   2
  -3   0   4 2.56583 5.92025   7
   3   0  -4 -1.0718 6.92090   1
  -3   0   4 -0.5318 4.34032   2
   3   0  -4 0.44686 3.73900   7
  -3   0   4 -3.0946 4.77440   6
   3   0  -4 -3.8784 5.34643   6
   3   0  -4 5.25235 5.54093   5
   2   0  -4 2359.43 75.4439   1
  -2   0   4 2447.22 73.4369   7
  -2   0   4 2413.54 72.5046   2
   2   0  -4 2431.95 73.4776   6
   2   0  -4 2405.06 73.5502   5
  -2   0   4 2515.45 73.3968   6
   2   0  -4 2429.24 73.2579   7
  -1   0   4 -0.5537 2.83677   7
  -1   0   4 0.22660 2.98581   6
   1   0  -4 -4.6402 4.26421   5
  -1   0   4 2.61157 2.67686   2
   1   0  -4 -1.8128 2.96756   7
   1   0  -4 -0.2751 2.72604   6
   0   0  -4 537.174 17.7521   6
   0   0  -4 551.318 17.7830   6
   0   0   4 529.219 17.5573   7
   0   0   4 570.071 16.8511   2
   0   0   4 546.094 17.5373   7
  -1   0  -4 -2.9490 2.80967   5
   1   0   4 -0.3562 1.22978   7
  -1   0  -4 0.02651 1.42086   6
  -1   0  -4 0.47153 5.84493   4
  -1   0  -4 -0.3925 1.15736   6
   1   0   4 -1.8246 0.99538   7
  -2   0  -4 1341.47 40.0376   5
  -2   0  -4 1295.01 43.9966   4
  -2   0  -4 1328.86 40.5053   3
  -3   0  -4 0.44174 2.45418   5
  -3   0  -4 0.88987 4.77010   4
  -3   0  -4 -3.0718 3.05384   3
  -4   0  -4 1407.36 43.2984   3
  -4   0  -4 1421.91 49.4007   4
  -5   0  -4 -0.8244 1.45781   6
  -5   0  -4 6.45149 8.43907   4
  -5   0  -4 0.54897 1.58663   6
  -5   0  -4 0.77429 2.74487   3
   5   0   4 -0.1726 1.11825   7
   6   0   4 926.965 29.4311   7
  -6   0  -4 980.058 39.4386   4
   7   0   4 -0.3949 3.55029   7
  -7   0  -4 5.65767 10.2580   4
  -8   0  -4 258.459 12.4021   6
   8   0   4 236.120 11.9165   7
  -8   0  -4 229.035 19.4048   4
   9   0   4 -7.9628 4.42074   7
  -9   0  -4 -2.2312 11.6263   4
  -9   0  -4 2.62034 5.65299   6
  11  -1  -4 208.245 24.1960   1
  11  -1  -4 186.853 18.1992   7
 -11  -1   4 187.625 25.8216   4
 -11  -1   4 199.429 17.1165   3
 -11  -1   4 192.062 18.4377   2
 -11  -1   4 215.684 17.3542   6
  11   1  -4 183.863 20.1794   1
  11   1  -4 213.927 17.7146   7
 -11   1   4 196.003 18.3258   6
 -11   1   4 187.935 16.3220   2
 -11   1   4 195.989 20.3723   4
 -10  -1   4 -11.909 9.96159   2
 -10  -1   4 10.8442 7.49963   6
  10  -1  -4 17.6289 11.3983   1
  10  -1  -4 8.54213 10.2305   7
 -10  -1   4 16.6248 17.3033   4
 -10   1   4 13.7651 7.96368   2
  10   1  -4 6.95774 7.24171   7
 -10   1   4 22.9981 10.4336   6
 -10   1   4 6.50532 14.4743   4
  10   1  -4 4.95157 7.77705   5
  10   1  -4 20.1230 11.9566   1
   9  -1  -4 942.174 41.5431   1
  -9  -1   4 831.880 47.2478   4
  -9  -1   4 944.268 36.5596   2
   9  -1  -4 950.349 37.8862   7
  -9  -1   4 1008.86 37.0474   6
   9   1  -4 977.377 35.2516   5
   9   1  -4 907.628 36.1777   7
  -9   1   4 778.956 39.9762   4
   9   1  -4 934.817 41.0896   1
  -9   1   4 1002.61 36.9131   2
   8  -1  -4 870.794 34.3186   7
   8  -1  -4 954.893 39.4284   1
  -8  -1   4 912.867 35.2979   6
  -8  -1   4 856.552 41.4510   4
  -8  -1   4 880.396 34.3007   2
  -8   1   4 915.241 34.4017   2
   8   1  -4 894.403 38.8055   1
   8   1  -4 951.946 33.6636   5
   8   1  -4 919.131 35.5535   7
  -8   1   4 740.017 40.9867   4
   7  -1  -4 286.154 24.1639   1
  -7  -1   4 236.319 16.3290   6
  -7   1   4 235.613 21.8796   4
  -6  -1   4 358.332 26.8628   4
   6  -1  -4 398.453 18.7451   6
  -6  -1   4 388.674 17.8380   2
  -6  -1   4 367.482 18.9970   6
  -6  -1   4 394.962 19.7419   7
   6  -1  -4 380.600 18.2750   7
   6  -1  -4 403.935 22.5066   1
   6   1  -4 406.728 18.2944   7
   6   1  -4 394.777 17.1685   5
  -6   1   4 394.864 17.6679   7
   6   1  -4 401.313 17.7591   6
   6   1  -4 349.894 22.3305   1
  -6   1   4 379.190 19.5887   2
   5  -1  -4 2851.40 88.2709   7
  -5  -1   4 2918.24 87.9959   2
  -5  -1   4 2892.39 88.1637   7
   5  -1  -4 2813.41 88.2021   6
  -5  -1   4 2917.27 88.6948   6
   5  -1  -4 2772.72 91.1238   1
   5   1  -4 2821.57 88.2018   7
   5   1  -4 2918.69 88.5994   6
  -5   1   4 2866.02 87.7685   2
   5   1  -4 2767.50 90.6589   1
  -5   1   4 2929.83 88.0030   7
   5   1  -4 2889.22 87.7138   5
  -4  -1   4 422.337 19.7972   7
   4  -1  -4 462.186 18.5763   7
   4  -1  -4 452.402 18.1118   6
  -4  -1   4 431.008 17.4102   2
   4  -1  -4 424.587 23.0177   1
  -4  -1   4 451.449 18.8256   6
   4   1  -4 461.271 19.3349   7
   4   1  -4 472.872 18.4681   6
  -4   1   4 473.326 17.9284   2
   4   1  -4 422.908 21.7992   1
   4   1  -4 468.782 18.7960   5
  -4   1   4 460.097 19.4301   7
  -3  -1   4 39.5568 6.01388   7
   3  -1  -4 49.0921 5.63369   6
   3  -1  -4 34.3676 7.31101   1
  -3  -1   4 41.8459 5.62515   2
  -3  -1   4 48.2605 5.51432   6
   3  -1  -4 46.0758 7.06888   7
  -3   1   4 58.8451 7.26599   7
   3   1  -4 40.3824 6.48965   5
   3   1  -4 54.0445 6.05638   6
   3   1  -4 34.6064 6.32348   7
  -3   1   4 47.8402 5.12404   2
   2  -1  -4 2687.22 85.2393   1
   2  -1  -4 2789.25 83.2491   6
  -2  -1   4 2755.95 83.3019   7
  -2  -1   4 2756.18 81.9470   2
  -2  -1   4 2785.41 82.8849   6
   2  -1  -4 2778.11 83.1107   7
   2   1  -4 2751.47 82.8617   7
   2   1  -4 2787.99 83.4428   6
   2   1  -4 2736.72 83.2106   5
  -2   1   4 2784.15 83.0743   7
   1  -1  -4 5606.36 155.679   7
  -1  -1   4 5563.22 155.386   6
  -1  -1   4 5676.36 154.509   2
   1  -1  -4 5220.58 157.060   1
   1  -1  -4 4958.00 155.547   6
  -1  -1   4 5515.50 156.068   7
   1   1  -4 5488.22 156.159   6
   1   1  -4 4897.43 155.792   5
   1   1  -4 5067.77 155.075   7
  -1   1   4 5106.24 155.591   7
   0  -1   4 109.890 7.08945   7
   0  -1  -4 103.973 6.14127   6
   0  -1  -4 105.372 4.89139   7
   0  -1  -4 111.478 9.01851   4
   0  -1   4 111.441 5.97693   7
   0  -1  -4 101.435 7.95154   3
   0   1  -4 104.615 7.90810   5
   0   1  -4 108.434 5.35582   6
   0   1  -4 100.279 6.62743   6
   0   1   4 106.692 5.64185   7
   0   1  -4 105.633 4.66319   7
   1  -1   4 2.25730 2.07188   7
  -1  -1  -4 0.02834 1.89714   6
  -1  -1  -4 4.29510 3.97590   3
   1  -1   4 0.87563 2.58708   7
  -1  -1  -4 -0.5499 2.24765   5
  -1  -1  -4 1.57395 4.56560   4
  -1   1  -4 3.89455 2.11458   6
  -1   1  -4 -1.9053 2.15299   6
   1   1   4 1.49550 2.00754   7
   1   1   4 1.27340 1.95272   7
  -1   1  -4 3.03989 3.76564   5
  -2  -1  -4 117.310 12.6716   4
   2  -1   4 117.656 4.83628   7
   2  -1   4 127.851 4.67122   7
  -2  -1  -4 133.400 5.28176   5
  -2  -1  -4 130.655 5.15176   6
  -2  -1  -4 122.900 7.05678   3
   2   1   4 126.815 5.11324   7
  -2   1  -4 123.960 5.13019   6
  -2   1  -4 128.473 10.7229   4
  -2   1  -4 132.347 4.85691   6
   2   1   4 130.853 5.05006   7
  -2   1  -4 118.076 7.68001   5
  -3  -1  -4 2601.64 83.6951   4
  -3  -1  -4 2683.55 76.4243   6
  -3  -1  -4 2606.40 76.3849   6
  -3  -1  -4 2604.91 78.9126   3
  -3   1  -4 2626.69 81.7811   4
  -3   1  -4 2605.66 78.4518   5
  -3   1  -4 2631.57 75.9328   6
   3   1   4 2699.35 76.2332   7
   3   1   4 2509.24 76.1403   7
  -4  -1  -4 90.7852 7.54672   3
   4  -1   4 87.1287 3.65382   7
  -4  -1  -4 92.7117 4.53298   6
  -4  -1  -4 97.1212 4.56396   6
  -4  -1  -4 80.8295 10.1684   4
  -4   1  -4 98.2406 9.51013   4
  -4   1  -4 97.1245 4.14457   6
  -4   1  -4 103.378 7.10290   5
   4   1   4 88.4362 4.38106   7
   4   1   4 96.2812 4.40110   7
  -4   1  -4 96.9938 4.14082   6
   5  -1   4 200.229 8.02265   7
  -5  -1  -4 205.995 8.57072   6
  -5  -1  -4 189.158 10.6402   3
  -5  -1  -4 212.879 8.25143   6
  -5  -1  -4 214.132 16.3812   4
   5  -1   4 210.592 7.82859   7
  -5   1  -4 203.310 8.12220   6
   5   1   4 208.754 8.36628   7
  -5   1  -4 205.821 7.84479   6
  -5   1  -4 213.576 15.6432   4
   6  -1   4 8.94922 2.79008   7
   7  -1   4 1326.66 42.5636   7
  -7  -1  -4 1394.79 52.7977   4
  -7  -1  -4 1301.67 42.9687   6
  -7   1  -4 1446.56 50.9976   4
   7   1   4 1333.28 42.8258   7
   8  -1   4 120.391 8.98542   7
  -8  -1  -4 140.078 18.8419   4
  -8  -1  -4 114.379 9.54265   6
  -8   1  -4 132.368 15.7047   4
   8   1   4 106.078 9.16863   7
 -10  -2   4 167.631 22.3911   4
 -10  -2   4 165.926 14.9838   3
  10  -2  -4 153.302 19.8528   1
  10  -2  -4 170.290 15.3882   7
 -10  -2   4 169.390 16.3883   6
  10   2  -4 174.939 13.7597   5
  10   2  -4 140.306 16.3515   7
 -10   2   4 173.458 15.0245   2
 -10   2   4 157.567 18.4341   4
  -9  -2   4 365.077 21.9455   6
   9  -2  -4 336.440 30.9214   1
  -9  -2   4 337.476 35.6878   4
  -9  -2   4 356.962 19.7806   3
   9  -2  -4 365.554 20.4680   7
   9   2  -4 358.593 18.9186   5
  -9   2   4 335.506 26.3573   4
  -9   2   4 369.176 22.7149   2
   9   2  -4 347.726 22.0868   7
  -8  -2   4 1180.35 55.3025   4
  -8  -2   4 1243.06 44.8535   6
   8  -2  -4 1241.38 45.0540   7
  -8   2   4 1056.76 47.1508   4
   8   2  -4 1244.63 41.4921   5
  -8   2   4 1233.43 43.6182   2
   8   2  -4 1238.85 45.0239   7
   7  -2  -4 40.0160 7.64312   7
  -7  -2   4 25.3714 8.93328   6
  -7  -2   4 40.7835 14.2621   4
   7  -2  -4 53.3409 7.29731   6
  -7   2   4 41.1546 9.36719   2
   7   2  -4 35.1245 9.51049   7
   7   2  -4 35.4053 6.32066   5
  -7   2   4 36.8287 8.52554   7
  -7   2   4 23.4325 14.5806   4
   7   2  -4 28.7655 6.43972   6
  -6  -2   4 188.409 14.4163   6
  -6  -2   4 208.484 23.7462   4
   6  -2  -4 194.986 13.9098   6
   6  -2  -4 167.155 15.0750   7
   6   2  -4 175.330 15.1233   7
  -6   2   4 163.919 14.4005   7
  -6   2   4 198.513 15.1113   2
   6   2  -4 193.129 12.3585   6
   6   2  -4 182.100 12.9968   5
  -5  -2   4 989.350 47.4387   4
  -5  -2   4 1025.87 36.2124   6
   5  -2  -4 1057.96 37.0021   7
   5  -2  -4 1012.46 35.5289   6
  -5  -2   4 1038.36 37.2434   7
   5   2  -4 1040.06 36.1683   7
   5   2  -4 1055.58 36.2219   6
  -5   2   4 1054.79 36.6345   7
  -5   2   4 1040.96 36.3456   2
   5   2  -4 999.334 34.8808   5
  -4  -2   4 4183.34 126.734   7
   4  -2  -4 4144.32 126.529   7
   4  -2  -4 4313.99 126.783   6
  -4  -2   4 4162.75 126.656   6
   4   2  -4 4207.79 127.052   6
   4   2  -4 4227.11 125.907   5
  -4   2   4 4252.77 126.199   2
   4   2  -4 4217.36 126.751   7
  -4   2   4 4154.21 126.316   7
  -3  -2   4 4.36881 5.09956   7
   3  -2  -4 -6.4345 5.52221   7
  -3  -2   4 1.79621 5.37697   6
   3  -2  -4 5.55319 5.51286   6
   3   2  -4 1.70516 3.92020   5
   3   2  -4 0.11202 3.61553   7
   3   2  -4 2.92922 6.34979   6
  -3   2   4 2.99706 5.87773   7
   2  -2  -4 1010.09 33.8170   7
  -2  -2   4 1006.66 33.3470   6
  -2  -2   4 989.611 33.7293   7
   2  -2  -4 985.121 33.1290   3
   2  -2  -4 1018.60 33.3775   6
   2   2  -4 1017.47 33.3635   7
   2   2  -4 1016.06 33.7782   6
   2   2  -4 994.117 33.2793   5
  -2   2   4 1021.88 33.4668   7
   1  -2  -4 1093.57 35.9993   6
   1  -2  -4 1075.06 36.9138   1
  -1  -2   4 1147.98 35.2530   6
   1  -2  -4 1111.91 36.3207   3
  -1  -2   4 1090.31 36.5269   7
   1  -2  -4 1085.49 35.7912   7
   1   2  -4 1106.83 36.3947   6
  -1   2   4 1144.74 36.1818   7
   1   2  -4 1109.06 36.0686   5
   1   2  -4 1131.09 35.1950   7
   0  -2  -4 4083.40 115.078   3
   0  -2  -4 3731.20 116.595   4
   0  -2  -4 3637.88 113.980   6
   0  -2  -4 3986.58 114.649   1
   0  -2   4 3830.87 114.188   7
   0  -2   4 3639.62 113.015   6
   0  -2  -4 3951.57 113.622   7
   0   2   4 3781.46 114.053   7
   0   2  -4 3842.06 113.104   7
   0   2  -4 4087.57 114.572   6
   0   2  -4 3789.98 114.754   5
  -1  -2  -4 290.410 11.8432   6
  -1  -2  -4 286.759 16.8024   4
  -1  -2  -4 287.683 12.6491   3
   1  -2   4 300.618 11.8659   7
  -1   2  -4 299.835 11.5722   6
   1   2   4 288.491 11.9475   7
  -1   2  -4 292.865 12.0917   6
  -1   2  -4 286.288 13.4887   5
  -2  -2  -4 1834.45 61.9134   4
  -2  -2  -4 1895.69 56.6268   6
  -2  -2  -4 1860.82 58.2540   3
   2  -2   4 1881.50 56.2477   7
  -2  -2  -4 1843.09 56.6298   6
   2   2   4 1883.98 56.5941   7
  -2   2  -4 1812.84 55.1863   2
  -2   2  -4 1912.14 56.3703   6
  -2   2  -4 1906.86 58.1041   5
   2   2   4 1871.90 56.5469   7
  -2   2  -4 1855.24 56.5172   6
  -3  -2  -4 627.233 27.1221   4
  -3  -2  -4 625.846 23.3350   3
  -3  -2  -4 629.764 21.2595   6
   3  -2   4 636.060 20.7117   7
  -3  -2  -4 641.290 21.1574   6
  -3   2  -4 627.481 20.4109   2
  -3   2  -4 634.172 20.7600   6
   3   2   4 628.156 21.1612   7
  -3   2  -4 640.265 22.5594   5
   3   2   4 640.782 21.1073   7
  -3   2  -4 627.149 21.0177   6
  -4  -2  -4 497.243 17.3056   6
  -4  -2  -4 480.720 19.4487   3
  -4  -2  -4 488.549 26.2318   4
   4  -2   4 471.432 16.4415   7
  -4  -2  -4 462.282 16.8586   6
  -4   2  -4 483.706 19.0130   5
  -4   2  -4 499.118 16.6126   6
  -4   2  -4 470.449 20.4485   4
  -4   2  -4 457.000 16.5492   2
   4   2   4 484.830 16.9752   7
  -4   2  -4 497.376 16.8092   6
   4   2   4 456.226 16.8772   7
  -5  -2  -4 63.9966 5.95242   6
  -5  -2  -4 68.3341 11.0836   4
  -5  -2  -4 71.9529 8.10101   3
   5  -2   4 70.0304 6.33231   7
  -5   2  -4 77.8204 9.29029   4
  -5   2  -4 74.8026 6.74586   6
   5   2   4 70.6334 5.76773   7
  -5   2  -4 72.2634 5.97235   2
  -6  -2  -4 492.219 18.5996   6
   6  -2   4 453.522 18.0521   7
  -6  -2  -4 537.238 27.7938   4
  -6  -2  -4 549.171 21.2185   3
   6   2   4 529.343 18.7677   7
  -6   2  -4 442.749 17.9283   6
  -6   2  -4 498.931 23.1422   4
  -6   2  -4 527.620 19.1544   2
  -7  -2  -4 151.455 9.81862   6
   7  -2   4 140.197 10.9787   7
  -7  -2  -4 135.748 11.5690   3
  -7  -2  -4 183.783 19.1176   4
  -7   2  -4 154.252 14.7450   4
  -7   2  -4 172.282 9.64891   6
   7   2   4 160.341 10.0701   7
  -8  -2  -4 10.4104 13.9434   4
  -8  -2  -4 4.74243 4.77846   6
   8  -2   4 9.90638 5.38976   7
   8   2   4 -1.1689 4.58385   7
  -8   2  -4 7.86633 5.58983   6
 -10  -3   4 258.268 21.1080   6
 -10  -3   4 279.967 28.8610   4
  10  -3  -4 272.406 19.4626   7
 -10  -3   4 250.058 21.4291   3
  10   3  -4 256.691 21.8511   7
 -10   3   4 268.307 18.7550   2
   9  -3  -4 35.3651 8.82761   7
  -9  -3   4 57.2800 11.9973   6
  -9  -3   4 30.9550 15.0004   4
  -9  -3   4 44.4474 9.70165   3
  -9   3   4 32.6504 11.0476   2
   9   3  -4 36.4793 11.4261   7
   9   3  -4 27.8776 6.30065   5
  -8  -3   4 12.5913 9.75235   6
  -8  -3   4 30.4607 10.8625   3
   7  -3  -4 812.693 32.6796   7
  -7  -3   4 763.970 32.3725   3
  -7  -3   4 804.417 39.7785   4
  -7  -3   4 759.396 32.1734   6
   7   3  -4 706.529 31.6868   6
   7   3  -4 831.878 30.0550   5
  -7   3   4 700.713 33.3269   4
  -7   3   4 794.474 30.7523   7
   7   3  -4 799.012 32.6335   7
  -7   3   4 804.285 32.2026   2
   6  -3  -4 6.89985 6.30285   7
  -6  -3   4 17.2075 8.69152   6
  -6  -3   4 22.0566 18.3989   4
   6  -3  -4 9.41406 5.34701   6
   6   3  -4 18.3661 6.68335   6
   6   3  -4 3.58006 6.78599   5
  -6   3   4 15.9387 8.65871   2
   6   3  -4 1.81528 8.32193   7
  -6   3   4 19.5710 8.30895   7
   5  -3  -4 511.130 22.0559   6
  -5  -3   4 499.383 35.4394   4
   5  -3  -4 492.785 23.0360   7
  -5  -3   4 506.856 22.7385   6
   5   3  -4 508.436 21.4454   5
  -5   3   4 489.268 21.0475   7
   5   3  -4 473.617 21.4848   6
   5   3  -4 484.554 22.8772   7
   4  -3  -4 24.0872 8.11353   7
   4  -3  -4 35.9388 6.25664   6
  -4  -3   4 37.1612 6.39975   6
  -4  -3   4 36.0117 13.1780   4
  -4   3   4 36.0262 8.03613   7
   4   3  -4 38.3460 6.47225   7
   4   3  -4 31.7929 6.71477   6
   4   3  -4 38.5750 5.97587   5
   3  -3  -4 2187.63 66.9677   3
   3  -3  -4 2192.64 67.9768   7
   3  -3  -4 2089.08 67.3330   6
  -3  -3   4 2173.55 67.7375   6
  -3   3   4 2154.40 67.8198   7
   3   3  -4 2143.36 68.3146   6
   3   3  -4 2114.70 66.9321   5
   3   3  -4 2124.03 67.2476   7
   2  -3  -4 471.866 18.6877   6
  -2  -3   4 452.209 18.1015   6
   2  -3  -4 459.059 18.6614   7
   2  -3  -4 456.523 18.1281   3
  -2   3   4 474.310 18.8198   7
  -2   3   4 468.151 19.2053   6
   2   3  -4 434.912 18.6664   7
   2   3  -4 459.009 19.5835   5
   2   3  -4 484.571 20.2704   6
   1  -3  -4 677.070 25.9865   4
   1  -3  -4 667.401 25.2052   7
   1  -3  -4 709.949 25.1113   3
   1  -3  -4 699.636 25.5966   6
  -1  -3   4 715.082 24.7297   6
   1   3  -4 722.635 26.1250   5
   1   3  -4 704.468 24.3343   7
   1   3  -4 707.947 25.4663   6
  -1   3   4 706.974 25.7585   7
  -1   3   4 693.302 25.0353   6
   0  -3  -4 1185.11 33.9722   7
   0  -3  -4 989.894 33.6632   6
   0  -3  -4 966.951 34.3914   3
   0  -3   4 992.375 32.3079   3
   0  -3   4 1001.47 32.8895   6
   0  -3  -4 983.593 35.7994   4
   0   3  -4 984.424 32.8004   7
   0   3   4 949.078 33.5264   7
   0   3  -4 964.796 34.1029   5
   0   3  -4 1150.56 35.0076   6
  -1  -3  -4 528.412 20.3429   6
   1  -3   4 610.727 20.1188   6
  -1  -3  -4 546.941 19.1435   7
   1  -3   4 547.564 18.3693   3
  -1  -3  -4 531.156 20.6601   3
  -1  -3  -4 516.839 19.1978   1
  -1  -3  -4 526.631 24.3464   4
  -1   3  -4 528.242 20.7156   6
   1   3   4 526.613 20.4188   7
  -1   3  -4 554.139 20.9122   5
  -1   3  -4 529.410 18.2139   7
  -2  -3  -4 468.694 21.8951   4
   2  -3   4 460.866 14.6872   3
  -2  -3  -4 435.054 17.6265   6
  -2  -3  -4 444.580 18.4399   3
   2   3   4 440.928 17.1730   7
  -2   3  -4 444.220 17.9251   6
  -2   3  -4 447.389 18.3908   5
  -3  -3  -4 836.630 30.4411   3
  -3  -3  -4 816.250 33.9780   4
  -3  -3  -4 818.997 28.5067   6
   3   3   4 842.561 28.3095   7
  -3   3  -4 837.914 29.6189   5
  -3   3  -4 837.786 28.2047   6
  -4  -3  -4 19.7125 6.98632   3
  -4  -3  -4 14.9338 4.86196   6
   4  -3   4 9.78577 5.32644   7
  -4  -3  -4 2.66966 7.41513   4
  -4   3  -4 14.7822 5.27593   6
  -4   3  -4 14.2811 4.04451   2
   4   3   4 10.2668 3.71006   7
  -4   3  -4 11.2554 6.69075   5
  -5  -3  -4 78.7265 9.13898   3
  -5  -3  -4 68.3595 7.10352   6
  -5  -3  -4 68.9914 14.2282   4
   5  -3   4 72.3107 7.33735   7
   5   3   4 79.1625 7.44635   7
  -5   3  -4 80.0478 6.84695   2
  -5   3  -4 60.8903 6.91140   6
  -6  -3  -4 1435.14 46.7454   6
  -6  -3  -4 1383.32 57.3108   4
  -6  -3  -4 1457.37 48.8498   3
   6  -3   4 1428.70 46.4197   7
  -6   3  -4 1434.44 46.4277   6
   6   3   4 1416.37 46.7212   7
  -7  -3  -4 326.971 15.6511   6
  -7  -3  -4 330.891 29.3042   4
  -7  -3  -4 277.209 15.8433   3
   7  -3   4 281.449 15.5374   7
   7   3   4 342.097 16.0672   7
  -7   3  -4 286.441 15.0370   6
  -8  -3  -4 31.2739 12.8005   4
  -8  -3  -4 12.2334 7.87144   3
   8  -3   4 25.4265 7.29393   7
  -8  -3  -4 21.6991 6.61349   6
   8   3   4 14.4637 6.61604   7
  -8   3  -4 14.1647 6.38633   6
   9  -4  -4 65.4422 13.3905   7
  -9  -4   4 68.8110 13.1717   6
  -9  -4   4 56.1068 10.8948   3
  -9  -4   4 72.8680 24.4700   4
   9   4  -4 52.5902 11.5976   5
  -9   4   4 71.6315 13.0815   2
   9   4  -4 55.0279 13.0227   7
  -8  -4   4 235.518 20.0281   6
  -8  -4   4 262.085 20.6184   3
  -8  -4   4 308.470 28.7615   4
   8  -4  -4 267.954 20.9298   7
   8   4  -4 284.766 16.8963   5
  -8   4   4 263.217 17.4414   2
   8   4  -4 257.071 17.9831   7
  -7  -4   4 506.362 24.9555   6
  -7  -4   4 464.318 23.0693   3
   7  -4  -4 474.803 23.0719   7
  -7  -4   4 420.595 31.1536   4
  -7   4   4 425.553 21.8414   2
  -7   4   4 454.826 22.8902   7
   7   4  -4 469.696 23.1193   7
   7   4  -4 446.367 20.1802   5
   6  -4  -4 160.473 14.3725   7
  -6  -4   4 138.771 12.8472   6
  -6  -4   4 141.168 12.5955   3
   6  -4  -4 170.478 14.2703   6
  -6  -4   4 158.608 22.0696   4
  -6   4   4 144.388 13.5066   2
  -6   4   4 170.679 15.3551   7
   6   4  -4 155.824 12.4716   5
   6   4  -4 142.451 13.7330   6
   6   4  -4 148.238 13.5604   7
  -5  -4   4 0.41472 8.90666   3
   5  -4  -4 8.47280 6.79637   7
  -5  -4   4 10.9955 16.6629   4
  -5  -4   4 -0.7768 5.88431   6
   5  -4  -4 5.37648 7.43807   6
  -5   4   4 9.34934 6.05205   7
   5   4  -4 3.45225 6.95498   5
   5   4  -4 0.82035 5.76184   7
   5   4  -4 -9.4186 8.39008   6
  -5   4   4 7.07890 8.54648   6
  -4  -4   4 -6.3298 15.5349   4
   4  -4  -4 -0.2577 8.07059   7
  -4  -4   4 -2.6260 7.02453   6
   4  -4  -4 1.22777 5.34589   6
  -4  -4   4 2.72866 8.23165   3
  -4   4   4 12.3585 7.80386   7
   4   4  -4 -1.8696 6.86866   5
   4   4  -4 -2.0473 5.32824   7
   4   4  -4 1.96746 6.25561   6
  -4   4   4 1.63347 7.92939   6
  -3  -4   4 647.528 34.8328   4
   3  -4  -4 596.071 25.0041   7
   3  -4  -4 657.818 26.0194   6
   3  -4  -4 673.917 24.9492   3
  -3  -4   4 626.126 25.5965   6
  -3  -4   4 595.132 25.3950   3
   3   4  -4 633.058 25.8149   6
   3   4  -4 630.813 25.6705   5
  -3   4   4 647.258 25.3552   7
  -3   4   4 638.114 26.1542   6
   3   4  -4 620.164 24.7947   7
  -2  -4   4 264.297 14.8713   3
  -2  -4   4 282.137 13.8530   6
   2  -4  -4 287.441 15.1110   3
   2  -4  -4 269.894 14.4432   7
   2  -4  -4 261.583 14.2627   6
  -2  -4   4 267.917 24.8967   4
  -2   4   4 260.274 15.5471   6
   2   4  -4 295.507 15.6461   7
   2   4  -4 271.140 15.0702   6
   2   4  -4 261.780 16.0660   5
  -2   4   4 260.533 14.5218   7
   1  -4  -4 40.8369 6.70234   4
   1  -4  -4 57.7451 7.04145   7
  -1  -4   4 57.2992 6.33160   6
   1   4  -4 45.4982 6.81044   5
   0  -4  -4 584.090 22.5469   7
   0  -4  -4 573.871 22.3551   6
   0  -4   4 558.026 20.8588   3
   0  -4  -4 562.689 23.2519   3
   0  -4  -4 594.807 25.2853   4
   0  -4   4 553.154 21.4977   6
   0   4   4 590.700 22.3905   6
   0   4  -4 540.897 20.8388   7
   0   4  -4 576.059 22.8318   5
   0   4   4 556.092 22.5016   7
   0   4  -4 571.301 23.7075   6
  -1  -4  -4 455.985 21.9956   4
   1  -4   4 501.377 17.3928   3
  -1  -4  -4 484.914 20.3444   6
  -1  -4  -4 450.558 18.9278   7
   1  -4   4 465.694 18.0004   6
  -1  -4  -4 473.028 19.9991   3
  -1   4  -4 463.449 20.1960   5
   1   4   4 489.999 18.9346   6
  -1   4  -4 466.494 17.5382   7
  -1   4  -4 478.723 20.9317   6
   1   4   4 501.181 20.7654   7
  -2  -4  -4 614.035 24.0926   6
  -2  -4  -4 613.172 29.1172   4
  -2  -4  -4 616.885 25.3024   3
   2  -4   4 592.235 19.9684   3
  -2  -4  -4 628.717 21.4878   1
  -2   4  -4 618.016 24.4722   5
   2   4   4 604.852 24.3260   7
  -2   4  -4 609.887 24.3847   6
   3  -4   4 68.1332 9.18259   7
  -3  -4  -4 74.9674 11.2479   4
  -3  -4  -4 77.6379 8.51930   6
  -3  -4  -4 79.5575 8.60981   3
   3   4   4 72.3639 7.53965   7
  -3   4  -4 88.2882 10.4746   5
  -3   4  -4 66.5585 7.37555   6
  -4  -4  -4 1134.12 40.9246   3
   4  -4   4 1158.68 39.4512   7
  -4  -4  -4 1149.74 39.3408   6
  -4  -4  -4 1146.83 47.2549   4
  -4   4  -4 1094.58 39.0186   6
   4   4   4 1161.91 39.4391   7
  -4   4  -4 1136.16 37.2374   2
  -4   4  -4 1112.48 39.8605   5
   5  -4   4 820.503 30.0387   7
  -5  -4  -4 821.777 37.4585   4
  -5  -4  -4 803.379 29.8388   6
  -5  -4  -4 748.805 30.5371   3
   5   4   4 804.964 30.0560   7
  -5   4  -4 756.833 29.3777   6
  -5   4  -4 774.638 28.1730   2
  -6  -4  -4 49.3868 15.8068   4
   6  -4   4 44.4672 8.44221   7
  -6  -4  -4 42.8475 7.84353   6
  -6  -4  -4 48.3083 9.84957   3
  -6   4  -4 47.5778 8.14515   6
   6   4   4 54.6972 8.36854   7
  -7  -4  -4 38.7753 8.04473   6
  -7  -4  -4 18.8947 7.01018   3
   7  -4   4 35.2356 8.36602   7
  -7  -4  -4 38.2798 13.3910   4
   7   4   4 17.7834 5.87308   7
  -7   4  -4 15.7272 7.30303   6
  -9  -5   4 6.89208 12.4454   3
  -9  -5   4 10.4807 11.9900   6
   9  -5  -4 18.1560 12.7027   7
   9   5  -4 16.9652 9.46275   7
  -8  -5   4 15.0683 11.8161   3
   8  -5  -4 12.9722 8.42194   7
  -8  -5   4 8.20591 19.7736   4
  -8  -5   4 10.5231 11.0674   6
  -8   5   4 13.8257 7.77538   2
   8   5  -4 9.51564 7.70939   5
   8   5  -4 -17.069 10.0928   7
  -7  -5   4 40.5982 17.9956   4
   7  -5  -4 12.4980 8.01829   7
   7   5  -4 8.68988 10.4534   7
   6  -5  -4 1073.70 42.3357   7
  -6  -5   4 1077.95 47.5163   4
  -6  -5   4 1091.13 42.0378   3
  -6  -5   4 1086.67 41.9567   6
   6   5  -4 1030.75 39.0699   5
   6   5  -4 1055.06 40.8742   7
  -6   5   4 1063.88 39.5178   7
   6   5  -4 1046.93 41.3908   6
  -6   5   4 1099.13 42.0793   6
   5  -5  -4 14.9243 6.50369   6
   5  -5  -4 14.2849 10.2222   7
  -5  -5   4 22.9830 9.32397   6
  -5  -5   4 15.3472 15.8907   4
  -5  -5   4 11.0062 9.80364   3
   5   5  -4 13.6660 9.97906   6
  -5   5   4 19.0818 7.24388   6
   5   5  -4 13.5306 7.14388   7
  -5   5   4 4.50261 8.76710   7
   5   5  -4 14.8040 8.30099   5
   4  -5  -4 966.788 35.4653   3
  -4  -5   4 947.651 36.5428   6
   4  -5  -4 990.753 37.1518   7
  -4  -5   4 992.583 41.1132   4
  -4  -5   4 998.364 37.4112   3
   4  -5  -4 958.368 36.3567   6
   4   5  -4 973.765 38.2872   6
   4   5  -4 945.154 37.6677   7
   4   5  -4 980.047 36.6924   5
  -4   5   4 985.009 38.0685   6
  -4   5   4 1047.02 38.1532   7
  -3  -5   4 75.5412 9.02489   3
   3  -5  -4 85.5651 8.66367   3
   3  -5  -4 86.7819 9.62026   6
   3  -5  -4 70.4632 9.44984   7
  -3  -5   4 57.5194 14.7934   4
  -3  -5   4 84.0490 9.40662   6
  -3   5   4 83.4360 11.5382   7
   3   5  -4 99.4613 12.2807   6
   3   5  -4 90.6668 9.55752   5
  -3   5   4 92.6716 11.6716   6
   3   5  -4 84.2011 10.9428   7
   2  -5  -4 2051.92 66.2224   6
  -2  -5   4 2066.65 68.8775   4
   2  -5  -4 1989.10 65.3493   3
  -2  -5   4 2038.12 64.7663   3
   2  -5  -4 2088.41 66.6406   7
  -2  -5   4 1960.53 65.6645   6
   2   5  -4 2039.43 67.2021   6
   2   5  -4 1982.84 65.2868   7
   2   5  -4 1971.88 65.4925   5
  -2   5   4 2030.79 66.0410   6
  -2   5   4 2033.62 66.7104   7
  -1  -5   4 51.1081 11.2956   4
   1  -5  -4 59.2709 9.31894   3
   1  -5  -4 57.2118 9.29137   4
   1  -5  -4 67.0340 9.89746   7
  -1  -5   4 48.1147 7.67171   3
  -1  -5   4 42.0306 6.60773   6
   1  -5  -4 61.5771 9.49531   6
  -1   5   4 69.0781 10.3700   7
  -1   5   4 78.8854 9.72909   6
   1   5  -4 68.1431 8.45924   5
   1   5  -4 54.6137 10.4976   6
   1   5  -4 56.0743 8.64652   7
   0  -5  -4 1636.02 53.9748   7
   0  -5   4 1619.02 52.0782   3
   0  -5  -4 1673.53 55.0735   6
   0  -5  -4 1594.81 53.9958   3
   0  -5   4 1597.88 53.7643   4
   0  -5  -4 1666.25 56.2007   4
   0  -5   4 1565.69 52.7321   6
   0   5   4 1692.03 54.1761   6
   0   5  -4 1605.01 54.4020   5
   0   5   4 1660.26 55.1365   7
   0   5  -4 1652.46 55.4098   6
   0   5  -4 1594.01 52.7176   7
   1  -5   4 315.794 15.3776   4
  -1  -5  -4 278.341 15.4268   6
   1  -5   4 303.090 13.3751   3
  -1  -5  -4 277.351 15.6303   3
  -1  -5  -4 277.397 19.6789   4
  -1  -5  -4 281.741 15.8858   7
  -1   5  -4 282.061 14.3251   7
  -1   5  -4 301.174 18.1576   6
   1   5   4 293.808 15.9839   7
  -1   5  -4 251.588 18.2039   5
   2  -5   4 176.276 9.04992   3
  -2  -5  -4 187.019 12.4593   6
   2  -5   4 181.041 16.1336   7
  -2  -5  -4 193.575 15.3633   3
  -2  -5  -4 196.485 16.0976   4
   2   5   4 176.286 12.8474   7
  -2   5  -4 175.716 13.5670   5
  -2   5  -4 198.907 15.0454   6
   3  -5   4 51.2371 8.23592   7
  -3  -5  -4 70.2655 8.37957   6
  -3  -5  -4 75.8645 14.0246   4
  -3  -5  -4 75.8385 11.0859   3
   3   5   4 60.4440 8.01871   7
  -3   5  -4 82.1619 9.76988   5
  -3   5  -4 59.9924 8.24341   6
  -4  -5  -4 1738.58 59.3259   3
   4  -5   4 1678.40 57.1228   7
  -4  -5  -4 1757.76 64.1273   4
  -4  -5  -4 1745.00 58.0462   6
  -4   5  -4 1721.80 59.1769   5
  -4   5  -4 1697.57 57.6722   6
   4   5   4 1725.05 57.8856   7
  -5  -5  -4 249.583 16.5133   6
   5  -5   4 266.318 17.8121   7
  -5  -5  -4 256.810 18.6936   3
  -5  -5  -4 282.734 27.8629   4
  -5   5  -4 240.265 16.7323   6
   5   5   4 256.397 17.3203   7
   6  -5   4 16.4514 6.94198   7
  -6  -5  -4 12.3764 5.90275   6
  -6  -5  -4 27.1464 12.0046   4
  -6  -5  -4 31.0576 10.3415   3
   6   5   4 25.1602 8.76040   7
  -6   5  -4 17.3579 8.28869   6
  -7  -6   4 524.322 28.8588   6
  -7  -6   4 476.333 26.2431   3
  -7  -6   4 535.658 40.0107   4
   7  -6  -4 522.986 29.6118   7
  -7   6   4 542.603 28.4853   2
   7   6  -4 479.572 28.9398   7
   7   6  -4 517.261 23.6829   5
  -6  -6   4 4.10307 15.5626   4
  -6  -6   4 -6.1070 10.5551   7
  -6  -6   4 2.65552 10.8850   3
   6  -6  -4 3.37465 7.85257   7
  -6  -6   4 -1.0613 7.07969   6
   6   6  -4 11.1791 8.72566   5
   6   6  -4 -2.5183 7.68654   7
  -6   6   4 -6.8271 10.4736   6
   5  -6  -4 139.007 13.2659   6
  -5  -6   4 150.890 20.3821   4
   5  -6  -4 159.158 16.5247   7
  -5  -6   4 161.125 15.8523   3
   5   6  -4 139.310 14.0299   7
   5   6  -4 145.900 15.8674   6
  -5   6   4 147.636 14.0142   6
   5   6  -4 138.646 12.5102   5
  -5   6   4 165.960 15.5017   7
   4  -6  -4 266.017 16.9905   6
  -4  -6   4 277.511 17.4682   6
   4  -6  -4 268.803 21.1013   7
  -4  -6   4 262.483 17.1391   3
   4  -6  -4 282.388 17.1914   3
  -4  -6   4 245.682 24.8794   4
   4   6  -4 266.907 18.9994   5
  -4   6   4 259.573 17.7762   6
   4   6  -4 262.522 18.0164   6
  -4   6   4 267.580 20.3200   7
   4   6  -4 276.407 20.2291   7
   3  -6  -4 2560.94 81.7109   6
  -3  -6   4 2542.69 81.3561   6
   3  -6  -4 2485.28 81.7200   7
  -3  -6   4 2467.67 82.5385   4
   3  -6  -4 2450.28 79.1996   3
  -3  -6   4 2360.13 79.8657   3
   3   6  -4 2429.12 80.3624   7
   3   6  -4 2463.42 81.4593   6
  -3   6   4 2551.77 81.1359   7
  -3   6   4 2473.13 81.2013   6
   3   6  -4 2467.52 79.9236   5
   2  -6  -4 167.607 13.7743   6
  -2  -6   4 170.216 15.8480   4
   2  -6  -4 155.786 14.0489   7
  -2  -6   4 156.862 12.7360   6
  -2  -6   4 166.463 12.4448   3
   2  -6  -4 177.558 13.0831   3
   2   6  -4 195.968 16.7390   6
   2   6  -4 187.632 15.4499   7
  -2   6   4 187.733 16.0140   7
   2   6  -4 181.391 14.9704   5
  -2   6   4 174.998 15.1750   6
   1  -6  -4 165.003 14.5112   6
   1  -6  -4 185.941 15.0066   3
  -1   6   4 106.502 11.0781   6
   0  -6  -4 86.8829 12.1129   6
   0  -6  -4 91.9336 11.8069   4
   0  -6  -4 85.7733 10.9264   7
   0  -6   4 73.5864 12.5898   7
   0  -6  -4 93.4688 11.8176   3
   0  -6   4 66.8330 8.57008   3
   0   6  -4 63.8148 9.73716   5
   0   6  -4 66.2249 8.33402   7
   0   6  -4 86.6773 12.4053   6
   0   6   4 72.5198 11.6796   7
  -1  -6  -4 1794.12 63.0953   4
   1  -6   4 1694.61 56.6253   3
  -1  -6  -4 1830.73 61.0617   3
   1  -6   4 1810.67 60.8483   7
  -1  -6  -4 1788.93 61.2221   6
   1   6   4 1805.22 61.4066   7
  -1   6  -4 1773.93 60.7765   5
  -1   6  -4 1809.73 61.5570   6
  -2  -6  -4 457.997 22.2473   6
   2  -6   4 483.934 25.2538   7
  -2  -6  -4 461.179 24.1178   3
  -2  -6  -4 458.562 25.3600   4
  -2   6  -4 489.163 23.5775   5
  -2   6  -4 470.092 24.5547   6
   2   6   4 449.876 22.2699   7
  -3  -6  -4 587.557 33.3936   4
   3  -6   4 575.400 28.0842   7
  -3  -6  -4 599.783 27.5373   6
  -3  -6  -4 611.635 28.3995   3
   3   6   4 577.449 27.6704   7
  -3   6  -4 583.863 27.5088   6
  -3   6  -4 629.760 29.1691   5
   4  -6   4 15.0253 7.43040   7
  -4  -6  -4 6.59725 13.4440   4
  -4  -6  -4 12.3278 8.70486   6
  -4  -6  -4 26.0760 10.4123   3
  -4   6  -4 17.6844 9.42182   6
   4   6   4 1.78502 8.94339   7
  -5  -6  -4 770.310 42.3786   4
  -5  -6  -4 720.592 31.9870   3
  -5  -6  -4 723.492 32.0219   6
   5  -6   4 726.326 31.0558   7
   5   6   4 742.719 32.4365   7
  -5   6  -4 715.676 30.6177   6
  -6  -7   4 178.199 19.2439   6
  -6  -7   4 197.875 19.5802   3
   6  -7  -4 235.037 21.1984   7
  -6  -7   4 235.239 25.3538   4
   6   7  -4 185.191 17.4720   7
  -6   7   4 204.210 18.3919   6
   6   7  -4 209.525 17.2824   5
  -5  -7   4 149.622 14.7174   3
  -5  -7   4 122.347 15.7825   6
  -5  -7   4 143.803 19.6966   4
   5  -7  -4 139.156 16.9882   7
  -5  -7   4 143.207 17.3267   7
   5   7  -4 158.108 17.0175   7
  -5   7   4 155.053 14.6933   7
   5   7  -4 129.528 14.7254   5
  -5   7   4 163.908 15.9512   6
   4  -7  -4 335.108 19.9871   6
  -4  -7   4 335.769 26.2280   4
   4  -7  -4 350.865 24.4386   7
  -4  -7   4 307.506 22.0751   6
  -4  -7   4 314.877 21.1300   7
   4  -7  -4 308.544 19.4386   3
  -4  -7   4 305.026 21.6559   3
  -4   7   4 300.760 22.9166   7
   4   7  -4 330.509 20.3283   7
   4   7  -4 313.810 21.8392   5
   4   7  -4 348.152 24.0675   6
  -4   7   4 314.137 20.6053   6
   3  -7  -4 35.9338 11.4412   6
  -3  -7   4 4.32852 9.89966   3
  -3  -7   4 11.7126 8.74229   7
  -3  -7   4 20.3570 7.84820   6
   3  -7  -4 29.0215 7.70549   3
  -3  -7   4 27.7454 11.3211   4
   3  -7  -4 28.1540 11.7663   7
   3   7  -4 31.7255 10.8038   7
  -3   7   4 26.5364 8.85456   6
   3   7  -4 13.1961 11.9664   6
  -3   7   4 24.2487 8.86812   7
   3   7  -4 19.7468 10.6622   5
  -2  -7   4 468.942 23.9120   3
   2  -7  -4 446.113 24.0302   7
  -2  -7   4 444.836 24.4679   6
  -2  -7   4 516.625 25.7581   7
   2  -7  -4 509.181 26.3947   6
  -2  -7   4 471.037 25.1543   4
   2  -7  -4 474.755 24.4650   3
   2   7  -4 460.989 25.1989   7
  -2   7   4 472.291 25.8657   6
   2   7  -4 468.011 27.1285   6
  -2   7   4 466.927 24.4943   7
   2   7  -4 443.905 25.9342   5
  -1  -7   4 501.140 23.8727   3
   1  -7  -4 467.020 23.6395   3
  -1  -7   4 533.577 28.8400   7
   1  -7  -4 518.411 25.5743   4
   1  -7  -4 518.883 26.9406   7
   1  -7  -4 486.923 26.7313   6
  -1   7   4 519.385 25.8011   7
   1   7  -4 504.080 23.7004   7
   1   7  -4 524.869 28.0751   6
   1   7  -4 542.199 25.7014   5
   0  -7  -4 49.4303 12.0849   6
   0  -7   4 25.9545 7.63611   3
   0  -7  -4 40.0260 10.5592   4
   0  -7   4 35.9964 12.4387   7
   0  -7  -4 27.4798 8.24613   3
   0   7  -4 18.8963 11.8369   6
   0   7   4 24.9166 8.57693   7
   0   7  -4 33.1507 12.1351   5
  -1  -7  -4 303.187 20.6331   3
  -1  -7  -4 305.731 22.6589   4
   1  -7   4 318.887 15.9870   3
   1  -7   4 280.647 19.5757   7
  -1  -7  -4 282.075 18.5978   6
  -1   7  -4 302.045 19.7293   5
   1   7   4 269.659 21.6126   7
  -1   7  -4 298.399 21.7843   6
  -2  -7  -4 188.859 15.8345   3
   2  -7   4 242.319 20.9255   7
  -2  -7  -4 181.051 15.4349   6
  -2  -7  -4 197.712 19.3613   4
  -2   7  -4 205.939 18.0066   6
   2   7   4 198.832 16.1879   7
  -2   7  -4 176.552 15.8941   5
   3  -7   4 47.0122 10.2845   7
  -3  -7  -4 43.7930 11.7274   4
  -3  -7  -4 48.0230 9.84488   3
  -3  -7  -4 47.5916 11.6826   6
   3   7   4 31.5181 8.96567   7
  -3   7  -4 43.6086 10.4337   5
  -3   7  -4 43.2765 9.88134   6
  -4  -7  -4 220.318 17.1478   6
  -2  -8   4 20.3946 10.4858   7
   2  -8  -4 26.3203 12.6725   6
  -2  -8   4 21.0776 10.2029   3
   2  -8  -4 23.6769 12.5196   7
   2  -8  -4 36.3599 11.3175   3
  -2   8   4 15.0371 12.7678   7
   2   8  -4 24.0118 13.8443   6
   2   8  -4 28.5669 8.70541   7
   2   8  -4 3.13957 11.9762   5
  -1  -8   4 164.353 14.5421   3
   1  -8  -4 192.680 18.5195   6
   1  -8  -4 148.168 15.9276   3
  -1  -8   4 141.280 18.3070   7
   1   8  -4 156.212 18.2609   6
  -1   8   4 121.459 14.2836   7
   1   8  -4 135.418 17.2625   5
   0  -8  -4 136.817 14.7245   6
   0  -8   4 151.544 17.8638   7
   0  -8   4 126.127 12.5407   3
   0  -8  -4 123.905 13.7346   3
   0   8  -4 119.384 14.3470   5
   0   8  -4 104.030 16.4782   6
   0   8   4 135.895 17.0359   7
  11   0  -5 204.809 18.0916   7
  11   0  -5 247.008 22.7878   1
 -11   0   5 230.569 17.8813   6
  11   0  -5 225.753 19.1829   5
 -11   0   5 260.735 20.4431   2
 -11   0   5 214.244 23.5748   4
 -10   0   5 2.35879 12.5453   4
 -10   0   5 0.85113 7.23046   2
  10   0  -5 -4.5974 9.05764   5
 -10   0   5 10.6005 7.54724   6
  10   0  -5 7.02770 7.56519   7
  10   0  -5 2.76259 13.0042   1
   9   0  -5 606.990 25.8068   5
   9   0  -5 619.254 34.4610   1
  -9   0   5 576.068 26.8333   6
   9   0  -5 572.597 26.9738   7
  -9   0   5 574.299 34.4151   4
  -9   0   5 618.407 28.8960   2
  -8   0   5 -6.7022 6.21626   2
  -8   0   5 8.06741 8.50393   7
  -8   0   5 -1.1238 12.4919   4
   8   0  -5 5.11323 8.94682   7
   8   0  -5 3.17423 8.33168   1
  -8   0   5 8.53940 8.61099   6
   8   0  -5 7.06816 8.28110   5
   7   0  -5 464.727 25.8919   1
  -7   0   5 499.400 22.2909   2
  -7   0   5 540.169 22.6142   7
   7   0  -5 510.477 23.6352   5
   7   0  -5 514.965 23.2465   6
   7   0  -5 479.390 22.5486   7
  -7   0   5 508.245 22.5649   6
   6   0  -5 5.21401 7.57951   5
   6   0  -5 -6.2380 5.27488   7
   6   0  -5 -0.6152 9.98626   1
  -6   0   5 -4.3758 7.15477   2
  -6   0   5 -0.9025 5.60758   7
   6   0  -5 3.78483 7.38068   6
  -6   0   5 -4.5225 7.14480   6
   5   0  -5 2231.13 70.5432   5
   5   0  -5 2243.72 74.1860   1
  -5   0   5 2214.39 70.5340   6
   5   0  -5 2295.79 71.0037   6
  -5   0   5 2177.60 69.5979   2
  -5   0   5 2167.44 70.1952   7
   5   0  -5 2307.21 71.0618   7
   4   0  -5 -0.9168 5.88397   1
  -4   0   5 -5.3046 6.77953   7
   4   0  -5 -3.1652 5.93042   7
   4   0  -5 -5.2291 6.33420   6
   4   0  -5 -2.6971 4.54448   5
  -4   0   5 3.91508 5.95942   6
  -4   0   5 -9.7527 5.21785   2
  -3   0   5 120.538 9.12204   7
   3   0  -5 98.4699 8.23772   6
   3   0  -5 122.300 8.34027   7
  -3   0   5 119.944 9.36488   6
   3   0  -5 93.8545 11.0161   1
  -3   0   5 103.690 8.68042   2
   3   0  -5 126.742 10.8564   5
   2   0  -5 -4.0376 2.93247   7
   2   0  -5 0.65237 5.05883   6
  -2   0   5 10.2017 5.77339   7
  -2   0   5 6.39535 3.25800   6
   2   0  -5 -0.3429 3.87981   5
  -2   0   5 6.32113 3.77594   2
  -1   0   5 4026.11 125.547   7
   1   0  -5 4682.97 126.514   5
   1   0  -5 4071.94 124.727   7
  -1   0   5 4428.31 124.492   2
   1   0  -5 4279.85 125.922   6
  -1   0   5 4072.69 124.874   6
   0   0  -5 -1.8485 2.78779   6
   0   0   5 1.67299 2.57590   7
   0   0  -5 -3.2212 2.47523   6
   0   0   5 1.12477 2.98724   7
   0   0   5 0.30899 1.43718   2
   0   0  -5 2.51272 2.97127   5
   1   0   5 964.042 29.1538   7
  -1   0  -5 941.305 30.4918   5
   1   0   5 970.700 29.1173   7
  -1   0  -5 971.638 29.2872   6
  -1   0  -5 992.259 29.2668   6
  -1   0  -5 906.094 34.6361   4
  -2   0  -5 -2.4443 4.85567   4
  -2   0  -5 0.24899 0.76998   6
  -2   0  -5 -1.1444 0.67469   6
  -2   0  -5 -2.9297 2.72400   5
  -3   0  -5 4830.56 140.959   5
  -3   0  -5 4811.98 147.187   4
  -3   0  -5 4820.22 141.740   3
  -4   0  -5 -6.4989 8.01923   4
  -4   0  -5 1.19192 3.73181   3
  -5   0  -5 1829.79 63.7512   4
  -6   0  -5 3.83553 7.51241   4
   6   0   5 0.24166 2.16805   7
   7   0   5 781.527 25.4203   7
  -7   0  -5 783.037 37.5512   4
  -8   0  -5 -4.3861 8.14800   4
  -8   0  -5 -0.4117 4.40419   6
   8   0   5 -0.0508 3.20741   7
 -11  -1   5 2.98996 13.5853   4
  11  -1  -5 -4.7712 10.0746   5
  11  -1  -5 -2.9029 11.1100   7
  11  -1  -5 3.55554 15.5334   1
 -11  -1   5 5.44033 8.10056   2
 -11  -1   5 -4.3789 10.5971   6
  11   1  -5 17.0338 13.4715   1
  11   1  -5 -2.7040 8.20013   5
 -11   1   5 -5.5548 10.8027   6
 -11   1   5 -7.0482 10.9794   4
 -11   1   5 20.0132 11.8644   2
  11   1  -5 -0.5412 11.2868   7
 -10  -1   5 914.899 37.9916   6
  10  -1  -5 798.259 43.7645   1
 -10  -1   5 816.758 48.9106   4
  10  -1  -5 903.204 36.4616   7
 -10  -1   5 895.564 37.9117   2
 -10   1   5 795.925 40.8157   4
  10   1  -5 831.748 41.4827   1
  10   1  -5 871.423 37.7493   7
  10   1  -5 887.861 34.8894   5
 -10   1   5 860.593 37.4041   2
 -10   1   5 944.025 38.3553   6
  -9  -1   5 89.3823 17.5814   4
   9  -1  -5 106.434 18.4996   1
   9  -1  -5 101.991 13.4919   7
  -9  -1   5 100.993 13.3822   2
  -9  -1   5 83.9884 12.8768   6
  -9   1   5 100.754 13.5115   6
   9   1  -5 112.722 13.6700   1
  -9   1   5 104.002 20.1141   4
   9   1  -5 112.067 12.2130   7
   9   1  -5 132.856 12.8328   5
  -9   1   5 99.6489 13.2473   2
  -8  -1   5 468.273 24.7489   6
  -8  -1   5 503.017 25.2315   2
  -8  -1   5 522.530 24.6676   7
   8  -1  -5 522.679 25.8037   7
   8  -1  -5 555.032 29.4875   1
  -8  -1   5 466.241 32.6293   4
   8   1  -5 553.426 27.5035   1
  -8   1   5 520.539 24.1645   7
   8   1  -5 517.747 25.7001   7
  -8   1   5 479.145 30.2455   4
  -8   1   5 516.086 25.4234   2
  -7  -1   5 400.550 21.1021   2
  -7  -1   5 393.474 21.0230   6
  -7  -1   5 422.980 30.4419   4
  -7  -1   5 416.975 21.8260   7
   7  -1  -5 392.265 27.8997   1
   7  -1  -5 418.510 20.2561   7
   7  -1  -5 388.166 18.7854   6
  -7   1   5 396.407 21.4583   2
   7   1  -5 398.392 25.4100   1
   7   1  -5 401.922 19.2826   6
   7   1  -5 421.121 22.0691   7
   7   1  -5 380.167 20.1703   5
  -7   1   5 404.494 19.2288   7
   6  -1  -5 1968.88 69.9520   1
   6  -1  -5 2009.53 65.2200   7
  -6  -1   5 1986.69 64.8641   7
  -6  -1   5 1984.44 64.7684   2
  -6  -1   5 2039.48 65.3111   6
   6  -1  -5 1967.23 65.0622   6
  -6   1   5 2065.04 64.6887   2
   6   1  -5 2034.92 65.5999   6
  -6   1   5 2047.38 64.7223   7
   6   1  -5 1999.56 65.1116   7
   6   1  -5 1990.01 67.8783   1
   6   1  -5 2020.43 64.6279   5
  -5  -1   5 7.28781 8.04040   7
   5  -1  -5 2.46658 7.15728   1
   5  -1  -5 8.36863 5.44793   7
  -5  -1   5 1.53855 4.50241   2
   5  -1  -5 0.28878 4.85993   6
  -5  -1   5 5.72595 4.95151   6
   5   1  -5 5.47936 5.45823   6
  -5   1   5 1.96988 7.31405   7
   5   1  -5 -1.0507 9.10095   1
   5   1  -5 -5.6114 6.71894   7
   5   1  -5 -3.4306 6.37245   5
  -5   1   5 -3.6864 6.49191   2
  -4  -1   5 469.430 19.6771   7
   4  -1  -5 465.282 19.0534   6
  -4  -1   5 462.044 18.9009   2
  -4  -1   5 431.313 18.6210   6
   4  -1  -5 487.902 22.6643   1
   4  -1  -5 446.784 20.3297   7
   4   1  -5 465.438 20.0738   7
   4   1  -5 438.960 19.8215   5
  -4   1   5 468.435 18.3277   2
   4   1  -5 457.579 19.3388   6
  -4   1   5 482.495 20.8087   7
  -3  -1   5 3.04100 4.71978   7
  -3  -1   5 4.17440 3.25496   2
  -3  -1   5 -1.6271 3.36916   6
   3  -1  -5 2.17117 5.79458   1
   3  -1  -5 2.28784 4.05464   6
   3  -1  -5 2.79646 5.50183   7
   3   1  -5 -4.5529 5.90938   6
   3   1  -5 -2.5671 4.96217   7
   3   1  -5 -3.6929 5.72179   5
  -3   1   5 -0.1860 4.26138   7
  -3   1   5 -2.5997 4.89717   2
   2  -1  -5 3112.86 95.7945   6
   2  -1  -5 3288.10 95.5843   7
  -2  -1   5 3042.68 95.1006   6
  -2  -1   5 3246.46 94.3001   2
   2  -1  -5 3153.15 97.8010   1
  -2  -1   5 3168.04 95.8823   7
  -2   1   5 3136.10 95.4825   6
   2   1  -5 3223.54 96.2816   6
   2   1  -5 3301.59 96.1809   5
   2   1  -5 3209.34 95.2300   7
  -2   1   5 3131.47 95.7991   7
  -1  -1   5 926.065 30.4952   6
  -1  -1   5 984.627 32.2015   7
   1  -1  -5 929.288 31.5886   6
   1  -1  -5 996.952 31.0138   7
   1  -1  -5 1017.30 33.4453   1
  -1  -1   5 990.917 29.6939   2
  -1   1   5 919.391 30.9007   6
   1   1  -5 937.133 31.9775   6
   1   1  -5 953.743 30.4799   7
   1   1  -5 1078.71 32.3054   5
  -1   1   5 935.903 31.6143   7
   0  -1  -5 60.3778 4.96839   5
   0  -1   5 58.8876 5.50722   7
   0  -1  -5 51.7438 7.20378   4
   0  -1  -5 54.2691 4.94401   6
   0  -1  -5 54.9908 6.30161   3
   0   1   5 54.1619 5.01864   7
   0   1  -5 54.4881 4.88148   6
   0   1  -5 59.6063 5.49671   5
   0   1  -5 51.9494 5.30632   6
  -1  -1  -5 224.514 9.33500   5
   1  -1   5 226.251 8.58248   7
  -1  -1  -5 225.797 8.85105   6
  -1  -1  -5 232.103 13.9971   4
  -1  -1  -5 234.311 10.4981   3
   1  -1   5 225.450 9.13088   7
  -1   1  -5 217.645 10.0816   5
   1   1   5 222.956 8.84284   7
  -1   1  -5 221.091 9.15446   6
  -1   1  -5 230.904 8.68084   6
   1   1   5 207.415 8.90972   7
   2  -1   5 4235.48 126.508   7
  -2  -1  -5 4387.21 126.777   6
  -2  -1  -5 4309.81 126.863   5
  -2  -1  -5 4424.97 129.174   3
   2  -1   5 4373.47 126.383   7
  -2  -1  -5 4242.04 133.073   4
  -2   1  -5 4410.37 128.697   5
   2   1   5 4402.75 126.658   7
  -2   1  -5 4369.80 126.755   6
   2   1   5 4263.17 126.740   7
  -2   1  -5 4414.02 126.552   6
   3  -1   5 3.48818 1.02741   7
  -3  -1  -5 0.88151 8.58179   4
  -3  -1  -5 -1.0636 2.76835   3
   3  -1   5 0.63049 1.10346   7
  -3  -1  -5 0.02508 1.35650   5
  -3  -1  -5 1.13057 1.61971   6
  -3   1  -5 2.03468 2.68522   5
   3   1   5 1.69300 1.57147   7
  -3   1  -5 0.30155 1.62169   6
  -3   1  -5 2.94600 6.95307   4
   3   1   5 3.21758 1.57538   7
  -3   1  -5 -0.5094 1.16231   6
  -4  -1  -5 18.6680 2.23476   6
  -4  -1  -5 18.1769 10.0352   4
  -4  -1  -5 19.6393 4.92244   3
  -4  -1  -5 19.8975 2.30181   6
  -4   1  -5 19.5316 4.41346   5
  -4   1  -5 19.7120 1.89817   6
  -4   1  -5 20.9597 1.81723   6
   4   1   5 23.7328 2.16528   7
  -4   1  -5 25.5319 8.24992   4
   4   1   5 20.8289 1.99821   7
  -5  -1  -5 432.172 14.4466   6
  -5   1  -5 389.476 13.9450   6
  -5   1  -5 560.729 24.4397   4
   6  -1   5 1576.62 47.5290   7
  -6  -1  -5 1586.16 50.4275   3
  -6  -1  -5 1545.38 58.1653   4
  -6  -1  -5 1592.21 48.0835   6
  -6   1  -5 1540.96 47.5768   6
  -6   1  -5 1637.72 56.8685   4
   6   1   5 1588.66 48.0597   7
   7  -1   5 190.871 9.41289   7
  -7  -1  -5 187.260 9.82386   6
  -7  -1  -5 186.851 19.1545   4
  -7   1  -5 175.734 18.8656   4
   7   1   5 187.009 9.16560   7
  -7   1  -5 192.470 9.28210   6
  -8  -1  -5 34.8418 14.5939   4
  -8  -1  -5 39.5000 5.74342   6
   8  -1   5 31.9927 5.61284   7
  -8   1  -5 34.8853 12.4196   4
   8   1   5 41.4177 6.08294   7
 -10  -2   5 84.7625 11.9605   6
  10  -2  -5 101.791 20.1820   1
 -10  -2   5 49.2306 12.8534   3
 -10  -2   5 92.4314 24.1278   4
  10  -2  -5 75.9055 14.0893   7
  10   2  -5 81.6440 9.93297   5
 -10   2   5 99.7817 12.1933   2
 -10   2   5 73.6775 17.8852   4
  10   2  -5 69.7327 11.5131   7
   9  -2  -5 1291.90 53.8638   1
  -9  -2   5 1150.44 45.1473   6
  -9  -2   5 1102.88 52.7840   4
   9  -2  -5 1050.28 43.5894   7
   9   2  -5 1162.25 44.2254   7
  -9   2   5 1238.34 44.1780   2
   9   2  -5 1239.49 42.6422   5
  -9   2   5 1110.45 49.4341   4
   8  -2  -5 27.0316 10.2141   7
   8  -2  -5 23.7150 14.8817   1
  -8  -2   5 6.73147 19.8773   4
  -8  -2   5 16.1830 9.47798   6
   8   2  -5 17.0591 6.01328   5
  -8   2   5 36.9962 16.1193   4
   8   2  -5 4.14939 6.64258   7
  -8   2   5 29.0930 6.90380   7
  -8   2   5 18.3923 9.76795   2
  -7  -2   5 67.4265 17.3466   4
  -7  -2   5 61.6319 10.7452   2
  -7  -2   5 75.3421 11.0966   6
   7  -2  -5 68.0025 10.3433   6
   7  -2  -5 74.1486 13.0422   1
   7  -2  -5 70.0598 11.8834   7
  -7   2   5 74.6867 9.00706   7
   7   2  -5 65.6155 11.3166   7
   7   2  -5 63.0478 8.96621   6
   7   2  -5 67.9540 8.29939   5
  -7   2   5 64.6537 8.97310   2
  -6  -2   5 20.6720 8.23091   2
   6  -2  -5 40.8219 13.8941   1
  -6  -2   5 32.5128 7.24624   6
   6  -2  -5 22.6725 8.44612   6
  -6  -2   5 44.1686 10.6953   7
   6  -2  -5 20.9264 9.00146   7
   6   2  -5 23.3363 7.06465   6
  -6   2   5 32.9908 8.91153   2
  -6   2   5 28.7287 7.04159   7
   6   2  -5 23.4544 9.27088   7
   6   2  -5 24.4546 8.13098   5
  -5  -2   5 3489.25 107.642   7
   5  -2  -5 3376.38 111.635   1
   5  -2  -5 3491.10 107.886   7
  -5  -2   5 3503.98 106.568   2
   5  -2  -5 3551.83 107.678   6
  -5  -2   5 3530.50 107.755   6
   5   2  -5 3476.38 107.445   7
  -5   2   5 3515.60 107.288   7
   5   2  -5 3465.55 106.651   5
  -5   2   5 3535.66 107.184   2
   5   2  -5 3578.76 108.256   6
   4  -2  -5 116.183 10.5859   7
   4  -2  -5 105.398 10.1517   6
  -4  -2   5 116.208 9.37680   6
  -4  -2   5 102.509 11.6204   7
   4  -2  -5 125.603 12.6690   1
  -4   2   5 113.364 9.09960   2
   4   2  -5 106.189 9.63319   6
   4   2  -5 92.9254 9.57290   5
  -4   2   5 110.040 10.4822   7
   4   2  -5 88.1451 9.71968   7
   3  -2  -5 1516.16 49.8176   7
  -3  -2   5 1535.92 49.9407   7
   3  -2  -5 1473.71 51.9511   1
  -3  -2   5 1510.11 49.4099   6
   3  -2  -5 1556.78 49.5408   6
   3   2  -5 1510.08 49.2533   5
   3   2  -5 1568.71 50.0804   6
   3   2  -5 1564.46 49.4580   7
  -3   2   5 1559.73 49.5582   7
   2  -2  -5 16.8392 8.20812   1
  -2  -2   5 27.9509 5.83267   7
   2  -2  -5 10.0166 4.39818   6
  -2  -2   5 11.3241 4.65395   6
   2  -2  -5 23.7420 5.99349   7
   2   2  -5 9.85484 6.02153   5
  -2   2   5 21.2376 4.81720   7
   2   2  -5 24.8421 5.08998   7
   2   2  -5 19.4848 5.10074   6
   1  -2  -5 1306.16 42.4931   3
   1  -2  -5 1308.09 43.1279   1
  -1  -2   5 1308.48 40.8838   6
   1  -2  -5 1285.90 41.4647   7
   1  -2  -5 1322.01 42.0082   6
  -1  -2   5 1315.00 42.1432   7
  -1   2   5 1304.46 41.9368   7
   1   2  -5 1308.33 42.1603   5
   1   2  -5 1274.76 41.9982   6
   1   2  -5 1294.04 40.8033   7
   0  -2   5 40.8592 5.20504   7
   0  -2  -5 41.3695 4.17335   7
   0  -2  -5 30.2363 6.31307   3
   0  -2  -5 39.0710 8.59950   4
   0  -2  -5 46.5440 6.06611   1
   0  -2  -5 33.3363 5.18557   6
   0   2   5 41.0270 5.47335   7
   0   2  -5 41.9071 5.97720   6
   0   2  -5 38.0929 5.41342   5
   0   2  -5 43.8992 3.58272   7
  -1  -2  -5 1195.19 44.2241   4
  -1  -2  -5 1236.17 40.7372   3
  -1  -2  -5 1243.27 39.1068   6
   1  -2   5 1228.78 39.3745   7
  -1  -2  -5 1228.98 39.2309   6
   1   2   5 1273.11 39.1717   7
  -1   2  -5 1244.60 39.3585   6
  -1   2  -5 1259.99 38.9098   6
  -1   2  -5 1256.18 40.2993   5
   2  -2   5 134.882 8.50542   7
  -2  -2  -5 132.747 7.44680   6
  -2  -2  -5 141.782 10.3032   3
  -2  -2  -5 132.957 7.61335   6
   2  -2   5 120.518 6.93612   7
  -2  -2  -5 116.264 12.2573   4
  -2  -2  -5 136.491 5.89892   5
  -2   2  -5 173.891 8.84957   6
  -2   2  -5 132.001 7.43940   6
   2   2   5 117.876 7.87253   7
   2   2   5 134.711 7.68578   7
  -2   2  -5 131.868 8.78571   5
  -2   2  -5 143.450 4.59164   2
  -3  -2  -5 37.6911 4.28829   6
   3  -2   5 32.0212 3.53664   7
  -3  -2  -5 20.1482 7.73563   4
  -3  -2  -5 22.4418 6.18472   3
  -3  -2  -5 27.5172 3.85531   6
  -3   2  -5 35.5305 2.45580   2
  -3   2  -5 39.6829 6.40104   5
  -3   2  -5 31.8081 3.86754   6
   3   2   5 38.6826 4.42065   7
  -3   2  -5 28.9496 3.93310   6
   3   2   5 27.5259 3.89878   7
  -4  -2  -5 6.61063 5.57011   3
  -4  -2  -5 13.9545 3.82261   6
  -4  -2  -5 13.1270 7.73222   4
  -4   2  -5 15.3588 7.11901   4
  -4   2  -5 16.3830 3.42626   6
  -4   2  -5 10.6215 3.70238   6
   4   2   5 10.7619 3.26118   7
  -4   2  -5 8.86165 5.47420   5
  -5  -2  -5 326.192 21.3174   4
  -5  -2  -5 307.387 15.1336   3
  -5  -2  -5 315.389 12.2770   6
   5  -2   5 231.947 11.7049   7
  -5   2  -5 289.276 11.8861   6
   5   2   5 257.345 11.5474   7
  -5   2  -5 328.522 18.0550   4
  -6  -2  -5 22.0885 9.72374   4
  -6  -2  -5 6.97154 4.22227   6
  -6  -2  -5 21.2380 6.30871   3
   6  -2   5 -3.1328 4.13106   7
  -6   2  -5 3.58772 7.48753   4
   6   2   5 13.3631 3.87890   7
  -6   2  -5 4.06442 4.12523   6
  -7  -2  -5 19.9226 5.48385   6
  -7  -2  -5 24.9306 6.73447   3
   7  -2   5 22.9302 5.50587   7
  -7  -2  -5 16.7177 10.5893   4
  -7   2  -5 11.0062 8.87432   4
   7   2   5 24.5572 4.86444   7
  -7   2  -5 16.4552 4.43040   6
  -8  -2  -5 17.7536 5.11527   6
   8  -2   5 18.8089 6.15264   7
  -8  -2  -5 16.4182 15.5158   4
   8   2   5 12.0702 4.89371   7
  -8   2  -5 15.4548 5.58787   6
 -10  -3   5 8.90065 21.9905   4
  10  -3  -5 17.1435 12.1992   7
 -10  -3   5 22.2456 11.8121   6
  10  -3  -5 -2.2015 18.2418   1
 -10  -3   5 19.5469 12.0298   3
  10   3  -5 18.0065 8.84434   5
 -10   3   5 1.84968 10.6199   2
  10   3  -5 23.9218 11.3542   7
  -9  -3   5 169.485 26.7709   4
  -9  -3   5 148.534 16.3185   6
   9  -3  -5 169.060 16.9422   7
  -9  -3   5 150.461 14.4580   3
  -9   3   5 152.991 14.3210   2
   9   3  -5 197.850 13.2132   5
   9   3  -5 139.425 15.7524   7
  -8  -3   5 338.318 22.4790   3
  -8  -3   5 356.506 32.4589   4
  -8  -3   5 339.912 19.6077   6
   8  -3  -5 345.637 19.9874   7
   8   3  -5 358.401 19.4060   5
  -8   3   5 340.627 26.0506   4
   8   3  -5 323.252 19.6631   7
  -8   3   5 341.330 21.5851   2
  -7  -3   5 6.05395 13.9407   4
  -7  -3   5 -1.8970 8.69360   6
   7  -3  -5 18.8925 8.68690   6
   7  -3  -5 0.06079 9.32301   7
  -7   3   5 15.6185 9.41859   2
   7   3  -5 16.9417 6.98796   6
   7   3  -5 2.15625 5.34164   5
   7   3  -5 -1.9587 6.35014   7
  -7   3   5 7.02350 6.19581   7
   6  -3  -5 430.403 23.4456   7
  -6  -3   5 463.773 31.7689   4
  -6  -3   5 458.468 21.4721   6
   6  -3  -5 501.176 22.4496   6
   6   3  -5 447.571 21.5756   7
  -6   3   5 442.416 20.9796   7
   6   3  -5 414.949 23.0527   6
  -6   3   5 465.621 22.8953   2
   6   3  -5 465.654 21.6392   5
  -5  -3   5 237.523 14.3304   6
   5  -3  -5 237.370 17.3944   7
   5  -3  -5 246.921 16.0974   6
   5   3  -5 269.044 15.4813   6
   5   3  -5 254.556 16.0349   5
  -5   3   5 245.750 16.2997   2
  -5   3   5 251.332 17.1768   7
   5   3  -5 234.335 14.6291   7
   4  -3  -5 299.533 15.9140   7
  -4  -3   5 285.175 16.5838   6
   4  -3  -5 312.896 15.4168   6
  -4   3   5 293.052 17.7124   7
   4   3  -5 314.365 18.1923   6
   4   3  -5 291.931 15.2600   7
   4   3  -5 278.660 14.9791   5
   3  -3  -5 14.2788 7.20943   7
   3  -3  -5 11.2128 6.99261   6
  -3  -3   5 10.4964 4.60508   6
  -3   3   5 3.37518 5.21469   7
   3   3  -5 -5.4109 7.52943   6
   3   3  -5 7.40387 5.00528   5
   3   3  -5 10.5780 6.40215   7
   2  -3  -5 386.361 17.8194   3
   2  -3  -5 378.087 16.8881   6
   2  -3  -5 387.660 16.8590   7
  -2  -3   5 421.552 17.1290   6
   2   3  -5 374.855 16.9562   7
   2   3  -5 387.754 18.8679   6
   2   3  -5 399.463 18.6481   5
  -2   3   5 379.719 18.3978   7
  -1  -3   5 12.4458 3.41266   6
   1  -3  -5 19.3062 7.42500   1
   1  -3  -5 9.66197 5.62530   4
   1   3  -5 12.0829 3.60528   7
   1   3  -5 30.3776 6.98838   5
   0  -3  -5 90.2416 11.3186   4
   0  -3  -5 109.523 9.39276   6
   0  -3   5 112.186 6.96999   6
   0  -3  -5 93.9899 9.16431   3
   0  -3  -5 113.896 9.41054   1
   0  -3  -5 84.2538 6.89629   7
   0   3   5 88.9880 8.48328   7
   0   3  -5 104.955 6.99771   7
   0   3  -5 112.398 10.1717   6
   0   3  -5 89.4839 8.14467   5
  -1  -3  -5 1170.15 42.3522   4
  -1  -3  -5 1152.14 36.7313   1
  -1  -3  -5 1102.74 38.9691   3
  -1  -3  -5 1149.61 38.3297   6
  -1  -3  -5 1184.54 36.3567   7
  -1   3  -5 1170.43 38.7069   6
   1   3   5 1194.59 38.5280   7
  -1   3  -5 1179.23 39.7589   5
  -2  -3  -5 807.638 28.9879   3
  -2  -3  -5 798.783 32.7537   4
   2  -3   5 786.762 24.7228   3
  -2  -3  -5 799.583 27.8147   6
  -2   3  -5 752.075 29.2235   5
   2   3   5 821.277 27.9290   7
  -2   3  -5 800.954 27.9415   6
  -3  -3  -5 16.6320 7.98166   4
  -3  -3  -5 9.97704 6.68402   3
  -3  -3  -5 7.55028 4.69396   6
  -3   3  -5 16.4079 6.98824   5
  -3   3  -5 15.0486 3.34534   2
   3   3   5 17.2974 5.05708   7
  -3   3  -5 14.9086 5.20729   6
  -4  -3  -5 3.03009 7.84816   4
  -4  -3  -5 5.25113 6.71182   3
  -4  -3  -5 -0.5215 4.22136   6
  -4   3  -5 2.15498 4.58627   5
  -4   3  -5 0.72364 5.58468   6
   4   3   5 8.69454 4.84063   7
  -5  -3  -5 379.911 28.3053   4
  -5  -3  -5 404.204 16.5545   6
  -5  -3  -5 360.192 18.8429   3
   5  -3   5 376.801 16.3596   7
  -5   3  -5 377.615 16.1357   6
   5   3   5 391.193 16.6616   7
  -6  -3  -5 45.5332 14.9367   4
   6  -3   5 7.43261 5.31257   7
  -6   3  -5 0.08552 4.72968   6
  -7  -3  -5 316.936 15.6377   6
  -7  -3  -5 366.573 31.5485   4
   7  -3   5 322.413 15.8962   7
  -7  -3  -5 336.497 18.5103   3
  -7   3  -5 339.205 15.5465   6
   7   3   5 310.896 16.7329   7
  -9  -4   5 51.1816 23.9529   4
  -9  -4   5 51.8171 12.6282   6
  -9  -4   5 32.9306 9.72987   3
   9  -4  -5 24.8820 9.53631   7
  -9   4   5 44.9483 12.2772   2
   9   4  -5 73.6122 10.5680   5
   9   4  -5 38.3610 12.7534   7
   8  -4  -5 324.213 23.4427   7
  -8  -4   5 388.117 34.1482   4
  -8  -4   5 363.245 23.1627   6
  -8  -4   5 385.258 21.5307   3
   8   4  -5 354.898 21.1892   7
  -8   4   5 338.417 22.8044   2
   8   4  -5 352.518 20.2368   5
  -7  -4   5 19.0647 10.5144   6
   7  -4  -5 20.3603 7.65683   7
  -7  -4   5 17.7052 8.25671   3
  -7  -4   5 11.3310 19.8496   4
   7   4  -5 23.7728 8.88450   5
  -7   4   5 25.7996 7.45621   7
   7   4  -5 12.4793 7.74694   7
  -7   4   5 18.8107 7.53131   2
   7   4  -5 30.3556 12.2667   6
  -6  -4   5 32.5937 8.34904   6
  -6  -4   5 49.1954 9.11905   3
   6  -4  -5 53.2599 8.58231   6
  -6  -4   5 59.8307 20.5318   4
   6  -4  -5 54.5003 9.41555   7
  -6   4   5 44.4595 10.6489   2
   6   4  -5 52.3888 9.63830   5
   6   4  -5 58.7012 9.73813   6
  -6   4   5 56.5107 10.9992   7
   6   4  -5 50.2479 11.1399   7
   5  -4  -5 18.5950 7.05426   7
  -5  -4   5 10.8526 9.61806   3
  -5  -4   5 16.1230 6.54108   6
   5  -4  -5 7.93690 8.34625   6
  -5  -4   5 3.96512 18.2524   4
  -5   4   5 25.0187 9.74925   7
   5   4  -5 17.2355 7.31530   6
   5   4  -5 21.4072 6.48666   5
   5   4  -5 24.1049 9.21016   7
  -4  -4   5 357.233 18.6873   6
  -4  -4   5 342.771 17.4556   3
  -4  -4   5 364.648 33.4414   4
   4  -4  -5 330.452 17.7696   7
   4  -4  -5 361.352 17.6779   6
   4   4  -5 328.567 17.3814   7
  -4   4   5 324.979 19.9019   7
   4   4  -5 349.485 19.1690   5
   4   4  -5 309.634 20.2114   6
   3  -4  -5 134.926 12.2150   7
  -3  -4   5 152.817 12.4824   3
   3  -4  -5 144.342 11.5991   3
  -3  -4   5 144.791 10.7363   6
   3  -4  -5 142.296 11.3237   6
   3   4  -5 141.483 12.3193   5
   3   4  -5 131.864 13.3560   6
   3   4  -5 146.744 13.3222   7
  -3   4   5 179.922 15.1605   7
   2  -4  -5 296.844 16.5601   7
   2  -4  -5 290.161 15.9102   3
  -2  -4   5 216.691 14.8318   3
   2   4  -5 312.486 17.1725   5
  -2   4   5 230.191 16.6240   7
   2   4  -5 267.135 17.3742   6
  -1  -4   5 389.884 17.0563   6
  -1  -4   5 368.291 16.1035   3
   1  -4  -5 397.672 18.3605   7
   1  -4  -5 362.399 18.6115   3
   1  -4  -5 381.672 20.4566   4
   1  -4  -5 381.569 17.6346   6
  -1   4   5 376.892 17.7791   7
   1   4  -5 408.086 20.0219   6
   1   4  -5 407.434 17.3475   7
   1   4  -5 376.279 18.0961   5
   0  -4  -5 1212.54 41.7348   6
   0  -4   5 1261.61 39.9960   3
   0  -4  -5 1222.25 45.0952   4
   0  -4  -5 1181.76 41.9405   3
   0  -4   5 1227.19 40.2179   6
   0  -4  -5 1207.34 40.9255   7
   0   4  -5 1263.13 40.2488   7
   0   4  -5 1267.65 43.2375   5
   0   4  -5 1248.22 42.8393   6
   0   4   5 1244.91 41.9244   7
  -1  -4  -5 130.751 14.0492   4
  -1  -4  -5 152.284 11.1862   3
   1  -4   5 147.630 9.13174   3
  -1  -4  -5 123.715 10.8851   7
  -1  -4  -5 135.258 10.5631   1
  -1  -4  -5 137.243 9.80941   6
  -1   4  -5 135.139 11.5028   6
  -1   4  -5 134.495 11.8976   5
   1   4   5 149.723 10.5940   7
  -2  -4  -5 285.899 16.7869   3
  -2  -4  -5 270.647 21.1743   4
  -2  -4  -5 277.155 15.0281   6
   2  -4   5 273.121 10.6516   3
   2   4   5 272.158 14.0319   7
  -2   4  -5 284.849 15.6015   6
  -2   4  -5 249.209 14.8842   5
  -3  -4  -5 220.705 13.7785   3
  -3  -4  -5 215.007 12.1704   6
  -3  -4  -5 221.490 18.2946   4
  -3   4  -5 210.729 13.8517   6
   3   4   5 241.725 14.2230   7
  -3   4  -5 243.095 14.3821   5
  -4  -4  -5 827.745 30.8152   6
  -4  -4  -5 848.638 32.9900   3
   4  -4   5 847.060 30.1989   7
  -4  -4  -5 814.071 37.6976   4
   4   4   5 835.709 30.8742   7
  -4   4  -5 844.187 30.7400   6
  -4   4  -5 815.340 32.5463   5
   5  -4   5 400.936 19.0363   7
  -5  -4  -5 384.984 18.5043   6
  -5  -4  -5 396.384 30.6866   4
  -5   4  -5 415.939 18.6936   6
   5   4   5 378.656 18.7404   7
  -6  -4  -5 28.0637 15.6235   4
  -6  -4  -5 16.9825 6.66521   6
   6  -4   5 31.3515 7.65964   7
  -6  -4  -5 30.6715 9.44794   3
  -6   4  -5 17.6353 8.21077   6
   6   4   5 13.9224 6.93198   7
   7  -4   5 94.9237 10.3755   7
  -7  -4  -5 67.8922 9.10185   6
  -7  -4  -5 120.871 21.3648   4
  -7  -4  -5 99.3686 12.5086   3
  -7   4  -5 77.3311 9.51075   6
   7   4   5 59.4966 9.39674   7
  -8  -5   5 28.9470 9.62522   3
  -8  -5   5 33.8965 12.5907   6
   8  -5  -5 30.1946 9.75431   7
  -8  -5   5 31.0026 21.0115   4
   8   5  -5 26.4454 12.2861   7
   8   5  -5 32.1394 9.79168   5
  -8   5   5 29.3418 11.7591   2
  -7  -5   5 1943.20 68.3440   6
   7  -5  -5 2012.46 68.6791   7
  -7  -5   5 1917.12 67.9904   3
  -7  -5   5 1944.95 75.0693   4
  -7   5   5 1974.20 71.9629   7
   7   5  -5 1909.85 68.1612   7
   7   5  -5 1908.28 65.1976   5
  -7   5   5 1968.05 66.5393   2
  -6  -5   5 11.7529 17.9493   4
   6  -5  -5 26.3552 8.75851   7
  -6  -5   5 17.7815 9.87473   6
  -6  -5   5 2.60642 10.3610   3
   6  -5  -5 20.4708 7.26296   6
  -6   5   5 21.8818 10.1764   7
   6   5  -5 17.2637 9.12498   5
   6   5  -5 1.66089 6.99848   6
   6   5  -5 7.92965 6.97924   7
   5  -5  -5 540.670 25.5862   7
  -5  -5   5 531.651 36.4485   4
   5  -5  -5 554.688 26.3513   6
  -5  -5   5 523.829 26.4892   3
  -5  -5   5 546.461 26.5059   6
   5   5  -5 546.871 24.2582   5
   5   5  -5 581.367 28.0252   6
  -5   5   5 543.323 26.9314   7
   5   5  -5 597.944 25.8604   7
  -4  -5   5 51.5228 8.32675   6
   4  -5  -5 58.7052 9.71316   3
  -4  -5   5 69.5263 11.0728   3
   4  -5  -5 71.3953 11.2559   6
   4  -5  -5 62.4393 9.35712   7
  -4  -5   5 36.5029 16.8460   4
   4   5  -5 57.3219 8.70605   5
  -4   5   5 43.2258 8.70978   7
  -4   5   5 55.4255 10.9865   6
   4   5  -5 60.1883 10.4657   7
   4   5  -5 55.4272 9.55719   6
   3  -5  -5 1245.68 44.4054   3
  -3  -5   5 1322.38 45.9117   6
  -3  -5   5 1342.21 52.2983   4
  -3  -5   5 1299.96 44.6780   3
   3  -5  -5 1273.11 46.3058   6
   3  -5  -5 1295.61 46.5901   7
   3   5  -5 1264.98 44.9826   7
   3   5  -5 1318.45 46.2481   5
  -3   5   5 1220.47 45.1584   6
  -3   5   5 1301.68 45.8662   7
   3   5  -5 1324.40 46.5220   6
  -2  -5   5 26.1310 6.01257   6
   2  -5  -5 21.9501 7.02718   6
   2  -5  -5 31.0445 9.02118   7
  -2  -5   5 35.9633 6.39704   3
   2  -5  -5 32.3723 6.81504   3
  -2  -5   5 22.7599 10.5459   4
   2   5  -5 26.1565 9.18563   5
  -2   5   5 27.9828 9.72205   7
   2   5  -5 27.4791 10.0366   6
   2   5  -5 25.1653 7.94516   7
  -2   5   5 40.6719 8.91475   6
   1  -5  -5 1570.50 56.1274   4
   1  -5  -5 1649.88 54.7454   7
   1  -5  -5 1593.24 55.0090   3
  -1  -5   5 1607.08 53.8591   6
  -1  -5   5 1636.63 57.8315   4
   1  -5  -5 1633.91 55.6330   6
  -1  -5   5 1653.58 53.3296   3
   1   5  -5 1683.35 55.9784   5
  -1   5   5 1642.44 54.6020   6
  -1   5   5 1598.33 55.6169   7
   1   5  -5 1692.88 56.3664   6
   1   5  -5 1647.89 53.9716   7
   0  -5  -5 94.6543 9.03195   7
   0  -5  -5 95.2049 11.2067   6
   0  -5  -5 97.8654 12.8562   4
   0  -5  -5 98.3860 11.3063   3
   0  -5   5 89.9157 7.75648   3
   0   5  -5 95.6109 10.1173   5
   0   5  -5 116.016 12.2620   6
   0   5   5 96.0419 9.81450   7
   0   5  -5 96.4381 8.28946   7
  -1  -5  -5 540.154 24.0065   6
   1  -5   5 551.301 21.5623   3
  -1  -5  -5 630.338 29.6439   4
  -1  -5  -5 552.277 25.7906   3
  -1   5  -5 639.900 26.4045   6
   1   5   5 537.997 24.0623   7
  -1   5  -5 671.761 27.4621   5
  -2  -5  -5 239.881 14.8991   3
  -2  -5  -5 229.588 13.9840   6
  -2  -5  -5 224.523 21.6452   4
   2   5   5 219.069 14.1602   7
  -2   5  -5 249.112 16.5091   6
  -2   5  -5 217.425 15.0137   5
  -3  -5  -5 637.708 27.0763   6
   3  -5   5 645.200 26.4314   7
  -3  -5  -5 635.400 27.2396   3
  -3  -5  -5 713.141 35.2049   4
   3   5   5 631.240 26.1137   7
  -3   5  -5 618.628 27.2815   5
  -3   5  -5 638.010 27.1482   6
  -4  -5  -5 71.8970 8.89877   6
  -4  -5  -5 86.9281 16.7894   4
   4  -5   5 96.2965 10.0165   7
  -4  -5  -5 94.8918 12.5359   3
   4   5   5 93.5077 11.1824   7
  -4   5  -5 84.6731 12.2961   5
  -4   5  -5 75.5390 10.5936   6
  -5  -5  -5 135.142 11.3891   6
   5  -5   5 136.779 13.2358   7
  -5  -5  -5 159.166 18.7725   4
  -5  -5  -5 156.749 13.4581   3
  -5   5  -5 123.184 11.4222   6
   5   5   5 149.450 13.1659   7
  -6  -5  -5 129.966 13.0959   3
   6  -5   5 128.453 13.2841   7
  -6  -5  -5 112.518 12.3053   6
  -6  -5  -5 163.365 23.9357   4
   6   5   5 122.645 12.8444   7
  -6   5  -5 132.396 12.8343   6
  -7  -6   5 32.6055 12.1498   6
  -7  -6   5 13.0892 13.0120   3
   7  -6  -5 51.5609 13.7712   7
  -7  -6   5 32.0915 19.6045   4
  -7   6   5 9.57031 11.5421   2
   7   6  -5 38.2556 13.2359   7
   7   6  -5 36.9348 10.6663   5
  -6  -6   5 415.534 23.2776   3
  -6  -6   5 424.545 23.4144   6
  -6  -6   5 362.269 34.4228   4
   6  -6  -5 413.897 23.6463   7
  -6   6   5 417.136 22.7755   7
   6   6  -5 389.456 23.2664   7
   6   6  -5 448.175 23.9042   5
  -5  -6   5 253.039 17.9784   3
   5  -6  -5 309.548 18.4458   6
   5  -6  -5 282.829 19.4675   7
  -5  -6   5 298.426 20.8962   6
  -5  -6   5 304.321 24.5100   4
   5   6  -5 263.460 18.7391   7
  -5   6   5 279.601 21.1711   6
   5   6  -5 300.308 22.3312   6
   5   6  -5 279.177 20.5298   5
  -5   6   5 259.509 21.2874   7
   4  -6  -5 2023.11 67.5948   6
  -4  -6   5 1961.61 66.5999   3
  -4  -6   5 1962.27 66.6188   6
  -4  -6   5 1886.42 69.8575   4
   4  -6  -5 1936.63 65.3547   3
   4  -6  -5 1965.51 66.8747   7
   4   6  -5 1977.38 66.6771   5
   4   6  -5 1921.09 67.2628   6
  -4   6   5 1923.52 67.3650   6
  -4   6   5 1952.89 66.7472   7
   4   6  -5 2018.43 67.4208   7
  -3  -6   5 245.507 15.4995   3
  -3  -6   5 240.340 15.6698   6
  -3  -6   5 236.599 23.1868   4
   3  -6  -5 237.641 17.2223   3
   3  -6  -5 239.982 18.7378   6
   3  -6  -5 243.691 19.8774   7
   3   6  -5 209.435 17.2383   7
   3   6  -5 241.590 17.3739   6
   3   6  -5 261.190 19.2670   5
  -3   6   5 220.249 15.7825   6
  -3   6   5 244.908 19.8991   7
   2  -6  -5 16.3843 9.30621   7
  -2  -6   5 16.7321 8.07601   3
  -2  -6   5 27.7264 8.47527   6
   2  -6  -5 16.0864 7.55386   6
  -2  -6   5 18.1588 11.0779   4
   2  -6  -5 33.5204 9.47613   3
  -2   6   5 32.8475 9.59015   6
   2   6  -5 4.09701 10.5450   6
   2   6  -5 24.5945 6.67772   7
  -2   6   5 24.8701 7.79695   7
   2   6  -5 32.1908 7.98951   5
   1  -6  -5 27.0275 9.37432   7
   1  -6  -5 28.4854 7.88877   6
   1  -6  -5 45.6982 10.1393   3
  -1  -6   5 29.9850 6.26562   3
  -1  -6   5 32.1057 10.4482   4
   1  -6  -5 25.8322 9.49128   4
   1   6  -5 31.2885 11.3945   6
   1   6  -5 22.1863 6.41131   7
  -1   6   5 23.0156 7.93358   7
   1   6  -5 31.6653 10.4738   5
   0  -6   5 2013.69 64.6304   3
   0  -6  -5 2021.40 69.9237   4
   0  -6  -5 2042.11 67.9175   6
   0  -6  -5 2041.26 68.2295   3
   0   6  -5 2013.05 68.5629   5
   0   6   5 2094.36 68.0790   7
   0   6  -5 1962.30 68.5158   6
   1  -6   5 184.821 10.8587   3
  -1  -6  -5 142.202 12.9982   6
   1  -6   5 126.514 12.9860   7
  -1  -6  -5 175.580 15.2533   3
  -1  -6  -5 145.129 16.3765   4
  -1   6  -5 156.276 13.8741   6
  -1   6  -5 148.294 15.2701   5
   1   6   5 135.505 12.6460   7
  -2  -6  -5 108.142 13.6559   3
  -2  -6  -5 120.306 16.7073   4
   2  -6   5 93.7194 13.4191   7
  -2  -6  -5 118.650 12.9160   6
   2   6   5 115.863 13.2949   7
  -2   6  -5 133.395 13.0402   5
  -2   6  -5 109.687 13.3356   6
   3  -6   5 15.0927 7.57579   7
  -3  -6  -5 16.9163 10.1912   3
  -3  -6  -5 30.1813 10.5288   4
  -3  -6  -5 4.35237 8.57799   6
  -3   6  -5 21.0881 7.48747   6
  -3   6  -5 5.64111 10.4223   5
   3   6   5 8.64259 9.42575   7
  -4  -6  -5 309.582 19.8903   6
   4  -6   5 279.333 20.6753   7
  -4  -6  -5 316.781 25.3167   4
  -4  -6  -5 264.088 18.4712   3
   4   6   5 313.983 20.6554   7
  -4   6  -5 328.551 20.0301   5
  -4   6  -5 300.837 20.0189   6
  -5  -6  -5 -0.8101 8.86635   6
  -5  -6  -5 9.06116 15.9257   4
   5  -6   5 13.3537 10.5222   7
  -5  -6  -5 13.2809 11.1685   3
  -5   6  -5 5.40076 9.71948   6
   5   6   5 5.56438 9.32853   7
   5  -7  -5 27.9263 12.9587   7
  -5  -7   5 11.8755 9.93294   7
  -5  -7   5 -1.1888 14.3268   4
  -5  -7   5 1.95119 11.1075   3
  -5  -7   5 5.22879 10.8172   6
  -5   7   5 -5.2919 7.97397   6
  -5   7   5 12.4648 8.59135   7
   5   7  -5 -5.2316 12.2679   6
   5   7  -5 4.08074 7.88152   7
   5   7  -5 8.59971 7.66504   5
  -4  -7   5 -1.0665 9.08792   7
   4  -7  -5 12.0000 8.56773   7
  -4  -7   5 1.89048 9.17487   4
  -4  -7   5 15.9764 8.31982   3
   4  -7  -5 -2.6255 10.2558   6
   4  -7  -5 7.05693 6.91608   3
  -4  -7   5 1.72443 10.2789   6
  -4   7   5 -0.9489 11.4276   7
   4   7  -5 10.0467 7.74537   5
   4   7  -5 14.0118 7.91862   7
  -4   7   5 22.0199 11.3815   6
   4   7  -5 17.7989 12.4303   6
  -3  -7   5 381.674 25.7279   4
  -3  -7   5 317.304 22.2071   7
   3  -7  -5 385.877 23.7531   6
   3  -7  -5 332.977 21.0334   7
   3  -7  -5 346.916 19.6699   3
  -3  -7   5 350.569 21.7985   3
  -3   7   5 392.941 25.4251   7
  -3   7   5 343.850 22.9746   6
   3   7  -5 346.727 21.0798   5
   3   7  -5 302.569 24.6298   6
   3   7  -5 376.846 22.5465   7
  -2  -7   5 336.256 25.8110   4
  -2  -7   5 374.132 26.0925   7
   2  -7  -5 356.379 23.4570   6
   2  -7  -5 374.739 21.2277   7
  -2  -7   5 338.930 18.7800   3
   2  -7  -5 370.317 22.3871   3
   2   7  -5 383.946 20.0174   7
   2   7  -5 359.586 21.3557   5
   2   7  -5 362.117 22.1216   6
  -2   7   5 364.501 24.7558   7
  -1  -7   5 108.362 13.2768   7
  -1  -7   5 102.120 11.5562   3
   1  -7  -5 120.818 13.6578   4
   1  -7  -5 156.285 15.0818   3
   1  -7  -5 118.332 15.1044   6
   1   7  -5 141.990 15.8475   5
  -1   7   5 97.5787 14.7586   7
   1   7  -5 127.402 15.8292   6
   0  -7  -5 109.678 14.1124   3
   0  -7   5 80.2521 12.2914   7
   0  -7  -5 108.230 12.5529   6
   0  -7   5 112.282 10.7245   3
   0  -7  -5 104.781 14.1046   4
   0   7   5 86.9511 11.9331   7
   0   7  -5 107.218 14.7659   5
   0   7  -5 95.5967 14.7318   6
  -1  -7  -5 827.331 38.8744   4
  -1  -7  -5 805.194 35.8637   3
  -1  -7  -5 864.300 36.7961   6
   1  -7   5 813.558 35.2736   7
  -1   7  -5 831.554 35.2336   6
  -1   7  -5 823.971 35.4437   5
   1   7   5 863.832 36.9923   7
  -2  -7  -5 21.7247 10.6082   6
  -2  -7  -5 15.7525 12.7832   4
   2  -7   5 14.4761 11.8516   7
  -2  -7  -5 13.5991 8.15340   3
   2   7   5 1.42394 10.4102   7
  -2   7  -5 18.2360 11.2959   6
  -2   7  -5 6.94535 8.38610   5
  -3  -7  -5 235.009 19.5692   3
  -3  -7  -5 225.787 22.8613   4
   3  -7   5 217.585 19.0626   7
  -3  -7  -5 238.001 19.9801   6
  -3   7  -5 213.133 18.2830   5
  -3   7  -5 222.447 19.9392   6
   3   7   5 227.083 20.6446   7
 -11   0   6 0.37328 11.0452   6
 -11   0   6 15.1769 8.52366   2
  11   0  -6 -2.8038 8.02238   7
 -11   0   6 -13.160 19.7993   4
  11   0  -6 -6.5868 10.0461   5
  11   0  -6 -17.319 13.8576   1
 -10   0   6 532.601 28.1882   2
 -10   0   6 521.999 40.5858   4
  10   0  -6 547.836 34.4705   1
  10   0  -6 496.809 24.3231   5
  10   0  -6 466.540 25.4726   7
 -10   0   6 487.031 25.5011   6
  -9   0   6 11.7647 7.43869   6
  -9   0   6 -20.296 19.0226   4
   9   0  -6 -4.3103 6.29147   5
   9   0  -6 0.65863 9.21814   1
   9   0  -6 18.4103 10.4533   7
  -9   0   6 -1.6395 6.92926   2
   8   0  -6 373.472 20.6343   6
   8   0  -6 361.477 23.9208   1
  -8   0   6 342.693 21.0977   7
  -8   0   6 366.348 21.5203   6
  -8   0   6 336.964 21.1143   2
   8   0  -6 347.730 21.1352   5
   8   0  -6 350.955 19.7714   7
   7   0  -6 0.60582 5.93934   5
   7   0  -6 10.6611 8.71658   6
   7   0  -6 1.52901 8.60676   1
  -7   0   6 7.82644 6.18910   2
  -7   0   6 16.5200 9.61744   7
  -7   0   6 4.41280 8.54082   6
   7   0  -6 10.9981 9.24772   7
   6   0  -6 2497.74 77.7580   6
  -6   0   6 2394.34 77.9337   6
  -6   0   6 2412.28 77.0620   2
   6   0  -6 2464.15 77.7255   7
   6   0  -6 2421.41 82.0455   1
  -6   0   6 2359.52 77.7848   7
   6   0  -6 2470.86 77.2635   5
  -5   0   6 6.65351 6.86539   6
   5   0  -6 -2.3987 5.41716   6
   5   0  -6 0.28898 6.89289   1
  -5   0   6 -1.6226 4.68614   2
   5   0  -6 -1.0564 4.98700   7
  -5   0   6 2.09395 8.25357   7
   5   0  -6 5.53931 5.25485   5
  -4   0   6 165.768 14.4246   7
  -4   0   6 148.232 11.6508   6
   4   0  -6 163.654 11.1870   5
   4   0  -6 153.279 13.0290   6
   4   0  -6 156.732 12.5211   7
   4   0  -6 137.346 14.3625   1
  -4   0   6 154.285 11.2331   2
   3   0  -6 -0.0339 6.42610   6
  -3   0   6 -5.9014 6.44382   7
  -3   0   6 4.05142 4.92898   6
  -3   0   6 -8.3832 2.88803   2
   3   0  -6 -3.5827 3.66881   7
   3   0  -6 -1.2399 6.24525   5
   2   0  -6 9612.93 264.997   5
  -2   0   6 8549.03 264.277   7
   2   0  -6 9061.57 263.734   7
  -2   0   6 8880.68 263.750   6
  -2   0   6 9306.29 262.990   2
   2   0  -6 8791.12 264.620   6
  -1   0   6 2.82805 3.75471   6
   1   0  -6 3.58903 5.00688   5
  -1   0   6 2.78639 2.53981   2
  -1   0   6 -1.8679 4.59525   7
   1   0  -6 -0.6891 2.31083   7
   1   0  -6 3.32989 3.33173   6
   0   0   6 275.809 9.42165   2
   0   0  -6 275.866 11.3240   6
   0   0   6 270.620 11.6690   7
   0   0  -6 253.697 12.5013   5
   0   0  -6 274.315 11.5606   6
  -1   0  -6 -2.5454 3.61419   5
  -1   0  -6 2.53419 2.17490   6
   1   0   6 0.70968 2.17241   7
   1   0   6 2.76775 2.54488   7
  -1   0  -6 -2.4513 2.92506   6
   1   0   6 1.01835 0.94628   2
   2   0   6 4663.61 135.212   7
  -2   0  -6 4675.86 135.417   6
  -2   0  -6 4525.18 142.741   4
  -2   0  -6 4773.91 137.078   5
   2   0   6 4543.85 135.176   7
  -2   0  -6 4745.12 135.429   6
  -3   0  -6 -0.6870 3.47381   5
  -3   0  -6 -6.9185 5.75297   4
  -4   0  -6 2431.32 71.1421   5
  -4   0  -6 2206.99 77.6013   4
  -5   0  -6 -0.0216 9.86076   4
  -6   0  -6 1223.36 49.4815   4
  -7   0  -6 -2.6345 11.5481   4
  -7   0  -6 -0.3943 2.76694   6
  11  -1  -6 187.018 21.3194   1
  11  -1  -6 200.617 18.3947   5
 -11  -1   6 173.866 18.4222   6
  11  -1  -6 173.400 18.7513   7
  11   1  -6 173.531 19.6340   1
  11   1  -6 199.834 16.7367   5
 -11   1   6 201.333 17.3388   6
  11   1  -6 172.756 16.7681   7
  10  -1  -6 152.692 18.9791   1
  10  -1  -6 164.720 15.5551   7
 -10  -1   6 168.136 15.5972   6
 -10  -1   6 170.052 22.8554   4
 -10  -1   6 152.943 14.7220   2
  10   1  -6 182.985 21.5306   1
 -10   1   6 171.836 15.7514   6
  10   1  -6 166.715 15.5055   5
  10   1  -6 176.433 17.4011   7
 -10   1   6 167.478 14.8751   2
 -10   1   6 175.788 21.1483   4
  -9  -1   6 705.198 31.6666   2
  -9  -1   6 746.343 33.9516   6
   9  -1  -6 877.592 42.3118   1
   9  -1  -6 724.869 32.4288   7
  -9  -1   6 831.749 48.6369   4
  -9   1   6 770.935 32.3501   2
   9   1  -6 812.278 31.4633   5
   9   1  -6 773.611 32.9144   7
   9   1  -6 820.838 39.4796   1
  -9   1   6 736.550 43.6833   4
  -9   1   6 702.133 32.1599   6
  -8  -1   6 108.422 13.2719   6
   8  -1  -6 97.0360 14.9298   1
   8  -1  -6 98.0058 10.4750   6
   8  -1  -6 114.566 13.4481   7
  -8  -1   6 125.917 25.2899   4
  -8  -1   6 115.350 11.2300   2
  -8  -1   6 128.365 11.9447   7
   8   1  -6 103.737 16.0346   1
   8   1  -6 84.2029 12.6273   7
  -8   1   6 106.319 11.3668   2
   8   1  -6 110.970 12.6605   5
  -8   1   6 85.9910 10.7152   6
  -8   1   6 103.791 12.5960   7
   8   1  -6 116.215 12.7361   6
  -7  -1   6 636.091 27.8017   6
   7  -1  -6 618.844 31.1100   1
  -7  -1   6 600.942 28.2929   7
   7  -1  -6 619.682 26.7648   7
   7  -1  -6 630.270 27.3160   6
  -7  -1   6 639.935 25.8989   2
   7   1  -6 623.504 26.9530   5
   7   1  -6 597.045 29.8682   1
   7   1  -6 594.626 26.4742   7
  -7   1   6 630.664 26.1400   2
  -7   1   6 549.379 27.2351   7
   7   1  -6 648.187 27.9284   6
  -7   1   6 617.073 27.4922   6
  -6  -1   6 1373.81 48.1252   6
  -6  -1   6 1386.05 47.7099   7
   6  -1  -6 1442.17 48.4249   6
  -6  -1   6 1369.43 46.4777   2
   6  -1  -6 1324.33 51.1855   1
   6  -1  -6 1389.15 48.4241   7
   6   1  -6 1389.92 47.6669   7
  -6   1   6 1312.85 47.0418   7
  -6   1   6 1327.12 46.6406   2
   6   1  -6 1405.66 47.7367   5
   6   1  -6 1484.79 48.7928   6
  -5  -1   6 651.440 25.3894   2
   5  -1  -6 616.791 29.0290   1
   5  -1  -6 656.914 26.8885   6
  -5  -1   6 630.819 27.7302   7
   5  -1  -6 606.465 25.2899   7
  -5  -1   6 623.716 26.2069   6
   5   1  -6 647.498 25.5139   7
   5   1  -6 655.381 27.1060   6
   5   1  -6 582.144 25.9997   5
  -5   1   6 675.937 27.3483   7
  -5   1   6 672.971 25.8044   2
  -5   1   6 658.053 26.4712   6
  -4  -1   6 287.102 15.0835   6
   4  -1  -6 239.915 19.9873   1
  -4  -1   6 245.573 17.1030   7
   4  -1  -6 264.060 14.1634   6
  -4  -1   6 282.237 14.0699   2
   4  -1  -6 261.588 15.6308   7
  -4   1   6 274.997 13.8384   6
  -4   1   6 277.637 13.1549   2
   4   1  -6 278.529 16.0459   5
   4   1  -6 251.088 15.2873   7
   4   1  -6 282.401 16.3421   6
  -4   1   6 260.756 14.6294   7
  -3  -1   6 3226.02 98.9610   7
   3  -1  -6 3240.45 98.4244   7
   3  -1  -6 3280.22 98.7726   6
   3  -1  -6 3126.95 101.515   1
  -3  -1   6 3241.38 98.0741   6
  -3  -1   6 3247.87 96.8135   2
  -3   1   6 3253.61 97.4401   2
   3   1  -6 3206.70 99.0748   6
   3   1  -6 3227.77 98.7647   5
  -3   1   6 3300.84 98.5255   6
   3   1  -6 3212.13 97.9973   7
  -3   1   6 3234.27 98.8145   7
  -2  -1   6 1314.53 40.5602   7
   2  -1  -6 1224.08 42.7101   1
  -2  -1   6 1228.33 37.4955   2
  -2  -1   6 1208.35 38.4267   6
   2  -1  -6 1212.70 39.7827   6
   2  -1  -6 1182.67 38.9435   7
  -2   1   6 1177.82 38.9746   6
   2   1  -6 1144.10 38.1283   7
   2   1  -6 1214.91 40.1729   6
  -2   1   6 1126.03 39.0974   7
   2   1  -6 1258.06 39.8462   5
  -2   1   6 1134.37 37.8153   2
  -1  -1   6 1349.35 41.0704   6
   1  -1  -6 1334.21 41.3280   7
   1  -1  -6 1328.13 42.6963   6
   1  -1  -6 1319.08 42.6633   5
  -1  -1   6 1314.54 42.9596   7
  -1  -1   6 1331.31 40.2251   2
  -1   1   6 1309.42 41.3920   6
   1   1  -6 1340.96 40.8657   7
   1   1  -6 1329.46 42.7995   6
  -1   1   6 1352.11 42.7612   7
   1   1  -6 1355.81 43.1017   5
   0  -1  -6 914.263 30.8548   5
   0  -1   6 931.161 30.8683   7
   0  -1  -6 940.846 30.5153   6
   0   1   6 939.316 30.2482   7
   0   1  -6 926.497 31.2037   5
   0   1  -6 951.004 30.3037   6
   0   1  -6 948.372 30.9538   6
   1  -1   6 2751.27 82.4670   7
  -1  -1  -6 2791.67 84.2285   3
  -1  -1  -6 2700.94 88.6239   4
  -1  -1  -6 2726.68 82.6528   5
  -1  -1  -6 2800.94 82.4971   6
   1  -1   6 2756.22 82.1497   7
   1   1   6 2673.46 82.4495   7
  -1   1  -6 2836.31 83.9929   5
   1   1   6 2776.01 82.3393   7
  -1   1  -6 2792.64 82.7013   6
  -1   1  -6 2867.04 82.3602   6
  -2  -1  -6 12.1761 5.17761   3
  -2  -1  -6 10.1850 2.78256   6
  -2  -1  -6 11.3626 2.86048   5
   2  -1   6 7.68855 2.07871   7
   2  -1   6 6.28949 2.99510   7
  -2  -1  -6 16.5201 9.27479   4
   2   1   6 9.81482 2.39686   7
  -2   1  -6 7.28445 2.30370   6
  -2   1  -6 7.32048 3.10231   6
   2   1   6 7.05155 2.49023   7
  -2   1  -6 12.8044 4.81620   5
   3  -1   6 53.1773 3.27632   7
  -3  -1  -6 52.1766 5.64533   3
  -3  -1  -6 55.9370 3.79263   6
  -3  -1  -6 53.4708 11.6384   4
   3  -1   6 50.2688 3.98320   7
  -3  -1  -6 44.7809 3.69306   5
  -3   1  -6 47.4108 3.77173   6
  -3   1  -6 55.8095 8.48508   4
   3   1   6 57.3641 4.12430   7
   3   1   6 44.0045 4.11994   7
  -3   1  -6 59.0805 3.49504   6
  -3   1  -6 63.4836 6.32058   5
   4  -1   6 406.046 12.7630   7
   4  -1   6 388.569 12.5698   7
  -4  -1  -6 408.562 22.7893   4
  -4  -1  -6 422.522 13.4736   6
  -4  -1  -6 409.289 17.0274   3
  -4  -1  -6 398.951 13.3160   6
   4   1   6 413.142 13.2102   7
  -4   1  -6 410.159 16.0307   5
  -4   1  -6 411.830 12.8971   6
  -4   1  -6 413.211 13.0398   6
  -4   1  -6 411.028 20.9585   4
  -5  -1  -6 1726.86 51.3091   6
  -5  -1  -6 1705.45 54.6564   3
  -5  -1  -6 1769.06 63.7983   4
  -5   1  -6 1687.41 60.6861   4
  -5   1  -6 1767.27 50.8857   6
   5   1   6 1687.49 51.1554   7
  -6  -1  -6 52.2495 14.1142   4
  -6  -1  -6 52.5705 4.50735   6
   6  -1   6 49.2775 3.90429   7
  -6   1  -6 51.2306 3.95867   6
   6   1   6 54.5982 4.82941   7
  -6   1  -6 48.8291 12.1025   4
  -7  -1  -6 15.3835 13.0717   4
  -7  -1  -6 0.02907 3.21359   6
   7   1   6 2.43426 3.49251   7
  -7   1  -6 3.18857 3.21405   6
  -7   1  -6 -3.5112 9.97243   4
  10  -2  -6 1137.28 47.8582   7
 -10  -2   6 1215.24 61.9613   4
  10  -2  -6 1229.52 56.8420   1
 -10  -2   6 1213.55 48.0877   6
 -10   2   6 1293.76 54.1761   4
  10   2  -6 1213.84 44.9452   5
  10   2  -6 1184.03 48.2524   7
 -10   2   6 1124.11 47.0603   2
   9  -2  -6 259.739 21.6115   7
   9  -2  -6 295.440 27.2244   1
  -9  -2   6 301.146 32.4188   4
  -9  -2   6 232.970 19.8505   6
   9   2  -6 237.935 15.9876   5
   9   2  -6 256.341 21.4381   7
  -9   2   6 272.395 26.2805   4
  -9   2   6 254.626 20.7193   2
   8  -2  -6 466.917 25.3370   7
  -8  -2   6 430.105 23.6992   2
  -8  -2   6 435.364 24.4172   7
   8  -2  -6 405.629 27.6039   1
  -8  -2   6 405.048 23.7976   6
  -8  -2   6 411.138 32.7129   4
   8   2  -6 426.757 20.5938   5
  -8   2   6 391.266 23.5883   2
  -8   2   6 409.298 22.9309   7
   8   2  -6 443.221 22.7127   7
   8   2  -6 404.624 22.9999   6
   7  -2  -6 291.981 26.9802   1
   7  -2  -6 285.908 20.4825   7
  -7  -2   6 337.984 32.0148   4
  -7  -2   6 288.898 17.1990   6
   7  -2  -6 277.470 18.6854   6
  -7  -2   6 243.958 20.3139   7
  -7  -2   6 266.432 16.5160   2
  -7   2   6 300.509 16.9091   2
   7   2  -6 285.436 19.2536   6
   7   2  -6 269.960 16.1022   5
   7   2  -6 305.436 20.1645   7
  -7   2   6 285.766 16.9727   7
  -6  -2   6 1211.25 42.7287   2
   6  -2  -6 1218.73 50.3387   1
   6  -2  -6 1304.08 44.0997   6
  -6  -2   6 1273.57 44.2202   6
   6  -2  -6 1237.06 44.1958   7
  -6  -2   6 1226.16 45.4233   7
   6   2  -6 1218.28 44.7048   7
  -6   2   6 1225.39 43.9873   2
  -6   2   6 1223.19 44.7445   7
   6   2  -6 1297.54 44.5421   6
   6   2  -6 1249.33 43.9153   5
  -5  -2   6 569.507 24.3349   2
  -5  -2   6 622.811 24.7889   6
  -5  -2   6 573.827 25.5364   7
   5  -2  -6 596.350 25.7686   6
   5  -2  -6 604.618 26.4810   7
   5  -2  -6 586.420 28.9306   1
   5   2  -6 627.185 25.8771   5
  -5   2   6 630.718 25.4806   2
   5   2  -6 638.476 26.2095   7
   5   2  -6 598.970 26.6878   6
  -5   2   6 599.229 26.8132   7
  -4  -2   6 1353.12 46.4555   7
   4  -2  -6 1333.73 45.4436   6
   4  -2  -6 1313.62 49.7215   1
  -4  -2   6 1348.88 44.9775   6
   4  -2  -6 1371.42 44.9942   7
   4   2  -6 1327.84 44.4033   7
  -4   2   6 1294.25 44.7341   7
   4   2  -6 1298.23 45.2365   6
   4   2  -6 1279.36 44.3159   5
  -4   2   6 1336.42 44.3054   2
  -3  -2   6 531.723 22.6441   7
   3  -2  -6 590.596 27.4568   1
  -3  -2   6 544.436 21.1259   6
   3  -2  -6 575.671 22.9652   7
   3  -2  -6 547.787 22.8256   6
   3   2  -6 570.775 22.0726   5
  -3   2   6 541.016 23.1555   7
   3   2  -6 554.289 21.8556   7
   3   2  -6 486.254 22.0204   6
  -2  -2   6 146.485 9.53604   6
   2   2  -6 141.483 8.53716   7
   2   2  -6 200.053 13.1845   6
   1  -2  -6 3.07709 4.46226   1
  -1  -2   6 -0.3630 3.00490   6
   1  -2  -6 -9.4235 5.68312   3
   1  -2  -6 6.06643 4.02142   7
   1  -2  -6 -1.3713 5.04852   6
  -1  -2   6 6.77822 6.46302   7
   1   2  -6 6.76616 4.45630   5
  -1   2   6 0.44898 5.29807   7
   1   2  -6 6.90095 2.62272   7
   1   2  -6 -5.8217 4.00543   6
   0  -2   6 752.974 25.6738   7
   0  -2  -6 688.805 22.8599   7
   0  -2  -6 736.088 25.4571   6
   0  -2  -6 703.338 29.2150   4
   0  -2  -6 743.164 26.3693   3
   0   2   6 735.574 25.5184   7
   0   2  -6 709.529 26.6383   5
   0   2  -6 725.107 25.9385   6
  -1  -2  -6 1179.90 37.6865   6
  -1  -2  -6 1168.33 39.5915   3
  -1  -2  -6 1158.85 43.0442   4
   1  -2   6 1167.68 37.7070   7
  -1  -2  -6 1155.41 37.0046   5
  -1  -2  -6 1155.11 37.7600   6
   1   2   6 1191.52 37.7464   7
  -1   2  -6 1148.55 38.7701   5
  -1   2  -6 1200.60 37.4865   6
  -1   2  -6 1203.85 38.0845   6
  -2  -2  -6 20.0854 4.11829   6
  -2  -2  -6 26.1230 3.54767   5
   2  -2   6 21.0617 3.71013   7
  -2  -2  -6 21.7367 6.57774   3
  -2  -2  -6 18.4563 3.95081   6
   2  -2   6 24.4714 4.90002   7
  -2  -2  -6 19.8165 10.2536   4
   2   2   6 21.4600 5.18843   7
   2   2   6 19.6703 4.15133   7
  -2   2  -6 21.1188 3.59985   6
  -2   2  -6 19.4927 4.37458   6
  -2   2  -6 28.6710 5.19462   5
  -3  -2  -6 25.3758 5.08310   3
  -3  -2  -6 20.4893 3.73232   6
   3  -2   6 18.1041 5.08037   7
  -3  -2  -6 17.9080 8.25647   4
  -3   2  -6 20.5406 4.57675   6
   3   2   6 24.5048 3.88609   7
  -3   2  -6 21.0621 4.88230   5
  -4  -2  -6 146.942 7.67646   6
  -4  -2  -6 142.042 11.1636   3
  -4  -2  -6 145.358 16.9718   4
   4   2   6 143.572 8.45019   7
  -4   2  -6 151.346 10.8384   5
  -4   2  -6 141.845 7.54689   6
  -5  -2  -6 59.5843 5.59951   6
  -5  -2  -6 73.8264 12.6600   4
  -5  -2  -6 60.2259 8.18395   3
  -5   2  -6 73.7605 5.85293   6
   5   2   6 64.7678 5.42724   7
  -6  -2  -6 303.188 12.8958   6
  -6  -2  -6 286.759 26.9331   4
  -6  -2  -6 272.742 15.5769   3
   6  -2   6 296.962 12.6501   7
  -6   2  -6 300.324 20.1071   4
   6   2   6 300.486 12.6001   7
  -6   2  -6 294.658 12.5032   6
   7  -2   6 58.1100 6.39281   7
  -7  -2  -6 52.0856 16.3273   4
  -7  -2  -6 58.2100 5.75863   6
  -7   2  -6 49.0824 5.87254   6
   7   2   6 66.4896 6.56589   7
  10  -3  -6 41.1812 15.4036   1
 -10  -3   6 23.9139 9.54894   6
 -10  -3   6 75.6236 26.4671   4
  10  -3  -6 53.3949 14.2808   7
 -10  -3   6 36.5746 13.1475   3
  10   3  -6 32.5669 7.99561   5
 -10   3   6 22.9367 9.16444   2
  10   3  -6 29.9667 9.68319   7
   9  -3  -6 42.0695 14.4779   1
  -9  -3   6 23.3593 8.65552   6
  -9  -3   6 18.9992 23.5412   4
   9  -3  -6 34.6484 12.3401   7
  -9   3   6 19.6442 15.7712   4
  -9   3   6 40.5460 12.2839   2
   9   3  -6 28.5825 9.04866   7
   9   3  -6 34.3056 10.1104   5
   8  -3  -6 3.71400 7.43142   7
   8  -3  -6 -13.590 15.7046   1
  -8  -3   6 7.64586 10.0680   6
  -8  -3   6 -10.328 15.5321   4
   8   3  -6 -10.518 9.70802   7
  -8   3   6 13.0527 7.30766   2
   8   3  -6 -7.2156 8.22552   5
  -8   3   6 -1.1741 6.40044   7
  -7  -3   6 536.813 26.5547   6
   7  -3  -6 525.048 34.7295   1
  -7  -3   6 549.440 42.9134   4
   7  -3  -6 536.238 25.3446   7
   7  -3  -6 532.588 25.6688   6
   7   3  -6 534.909 26.4975   6
   7   3  -6 497.742 24.8649   5
  -7   3   6 553.843 26.3942   2
  -7   3   6 522.634 24.2050   7
   7   3  -6 555.507 27.0149   7
   6  -3  -6 22.4652 14.6303   1
   6  -3  -6 22.8538 6.83191   6
  -6  -3   6 14.6923 8.92537   6
   6  -3  -6 15.5528 7.16480   7
  -6   3   6 13.8972 8.89575   2
   6   3  -6 19.0917 6.96861   7
   6   3  -6 20.5291 6.78363   5
  -6   3   6 9.08951 9.44744   7
   6   3  -6 22.4656 7.54483   6
   5  -3  -6 490.262 23.9214   7
  -5  -3   6 520.055 23.5753   6
   5  -3  -6 490.699 30.1315   1
  -5  -3   6 502.954 26.0019   7
   5  -3  -6 482.035 23.5516   6
   5   3  -6 508.819 22.2916   7
   5   3  -6 475.879 22.6978   6
   5   3  -6 467.678 21.5044   5
  -5   3   6 481.688 24.0555   7
  -5   3   6 480.694 23.0841   2
   4  -3  -6 427.092 20.7810   6
   4  -3  -6 416.842 23.4967   1
   4  -3  -6 456.493 21.3079   7
  -4  -3   6 392.639 23.1418   7
  -4  -3   6 411.896 20.0211   6
  -4   3   6 419.801 19.8566   7
   4   3  -6 425.328 20.9685   5
   4   3  -6 418.502 20.5051   7
   4   3  -6 398.118 19.9228   6
  -3  -3   6 1418.39 47.9422   6
   3  -3  -6 1525.39 49.0707   7
  -3  -3   6 1468.67 49.2751   7
   3  -3  -6 1504.07 49.3861   6
   3  -3  -6 1460.53 51.4588   1
   3   3  -6 1496.78 49.1941   5
  -3   3   6 1373.02 48.3044   7
   3   3  -6 1487.92 48.2291   7
   3   3  -6 1322.74 49.2745   6
  -2  -3   6 196.264 16.3099   7
   2  -3  -6 189.539 13.2404   7
  -2  -3   6 191.026 11.5274   6
   2  -3  -6 187.091 14.6479   1
   2  -3  -6 201.963 13.6376   6
   2  -3  -6 173.706 13.4485   3
   2   3  -6 183.779 11.6524   7
   2   3  -6 203.099 14.6655   6
  -2   3   6 203.476 14.4683   7
   2   3  -6 192.090 12.3621   5
  -1  -3   6 236.061 11.5236   6
   1  -3  -6 256.189 15.0208   3
   1  -3  -6 236.023 13.0825   7
   1  -3  -6 234.193 16.3725   1
   1  -3  -6 253.322 14.2298   6
  -1  -3   6 243.447 14.1388   7
   1   3  -6 242.775 11.6694   7
  -1   3   6 241.428 14.7428   7
   1   3  -6 221.389 13.4225   5
   1   3  -6 242.150 13.3089   6
   0  -3  -6 638.088 24.2318   6
   0  -3  -6 652.143 24.9663   1
   0  -3  -6 654.128 23.0963   7
   0  -3  -6 682.477 25.4563   3
   0  -3  -6 688.025 29.9524   4
   0  -3   6 672.687 25.0160   7
   0   3  -6 643.011 21.8948   7
   0   3  -6 647.309 25.4330   6
   0   3   6 649.544 24.3703   7
   0   3  -6 686.246 25.4709   5
  -1  -3  -6 395.786 17.9176   3
  -1  -3  -6 404.106 23.7657   4
  -1  -3  -6 421.866 17.3562   6
   1   3   6 384.510 17.5084   7
  -1   3  -6 387.348 17.6566   6
  -1   3  -6 414.295 19.3703   5
  -2  -3  -6 779.993 29.9301   3
  -2  -3  -6 781.398 27.7009   6
  -2  -3  -6 799.888 35.4960   4
  -2   3  -6 813.233 29.8003   5
   2   3   6 769.449 27.1849   7
  -2   3  -6 762.059 27.7854   6
  -3  -3  -6 354.550 15.5510   6
  -3  -3  -6 370.915 17.1535   3
  -3  -3  -6 346.640 22.4351   4
  -3   3  -6 367.093 15.7446   6
  -3   3  -6 360.360 18.1880   5
   3   3   6 346.431 15.6876   7
  -4  -3  -6 22.1989 12.6198   4
  -4  -3  -6 45.8753 8.61588   3
  -4  -3  -6 26.8194 5.37050   6
  -4   3  -6 29.7622 5.68060   6
   4   3   6 27.1344 5.51927   7
  -4   3  -6 27.8399 6.06926   5
   5  -3   6 61.8135 6.99589   7
  -5  -3  -6 70.0118 13.0527   4
  -5   3  -6 61.4877 9.00357   5
  -5   3  -6 66.1261 6.80622   6
  -6  -3  -6 763.658 38.2023   4
  -6  -3  -6 747.697 30.1652   3
  -6  -3  -6 727.611 26.9591   6
   6  -3   6 767.023 26.8592   7
   6   3   6 749.482 27.2056   7
  -6   3  -6 717.994 26.5586   6
  -7  -3  -6 51.1791 7.09459   6
  -7  -3  -6 72.3935 10.3492   3
   7  -3   6 53.0358 7.34937   7
  -7  -3  -6 57.5276 14.8218   4
  -7   3  -6 52.3059 7.67015   6
   7   3   6 53.0594 7.20952   7
  -9  -4   6 89.4548 15.3207   3
  -9  -4   6 106.559 27.2986   4
  -9  -4   6 85.9036 14.6845   6
   9  -4  -6 98.4219 12.8591   7
   9   4  -6 90.4016 14.7406   7
   9   4  -6 92.8121 12.2519   5
  -9   4   6 87.7775 11.5499   2
  -8  -4   6 134.057 26.5947   4
   8  -4  -6 96.6523 14.7550   7
  -8  -4   6 120.653 13.2576   6
  -8  -4   6 109.362 12.9261   3
   8   4  -6 104.447 14.8320   7
   8   4  -6 135.798 13.9385   5
  -8   4   6 97.1936 14.1463   2
  -7  -4   6 224.287 28.5203   4
  -7  -4   6 216.039 16.3902   6
   7  -4  -6 213.054 17.5335   6
  -7  -4   6 228.060 16.5430   3
   7  -4  -6 204.868 17.7051   7
  -7   4   6 215.017 18.6625   7
   7   4  -6 181.461 15.8798   6
   7   4  -6 186.355 17.4928   7
   7   4  -6 210.355 15.0432   5
  -7   4   6 177.200 14.7005   2
  -6  -4   6 78.1785 12.1269   6
   6  -4  -6 73.7685 12.2360   7
   6  -4  -6 64.0588 9.61061   6
  -6  -4   6 54.3605 17.0142   4
   6   4  -6 80.3643 10.7664   6
   6   4  -6 63.8315 10.0632   7
  -6   4   6 60.6141 9.12714   2
   6   4  -6 69.2618 11.2083   5
  -6   4   6 69.2349 11.8467   7
  -5  -4   6 461.813 23.5567   6
  -5  -4   6 501.985 33.0432   4
   5  -4  -6 482.416 23.8867   6
   5  -4  -6 508.225 25.0748   7
   5   4  -6 467.575 23.6255   5
  -5   4   6 478.545 22.8573   7
   5   4  -6 486.749 22.5732   7
   5   4  -6 461.505 23.1129   6
  -4  -4   6 37.1610 7.20384   6
   4  -4  -6 35.3631 7.78887   7
   4  -4  -6 32.3182 7.60827   6
   4   4  -6 31.4289 7.61094   5
  -4   4   6 29.8334 7.68259   7
   4   4  -6 42.1293 7.71780   7
   4   4  -6 26.4845 10.6167   6
   3  -4  -6 558.099 23.9679   3
   3  -4  -6 563.902 24.2815   7
  -3  -4   6 587.508 24.6422   6
   3  -4  -6 573.179 24.6366   6
   3   4  -6 602.258 25.0854   7
  -3   4   6 624.938 27.0598   7
   3   4  -6 645.741 26.5638   5
   3   4  -6 581.930 26.9578   6
  -2  -4   6 124.222 9.32977   6
   2  -4  -6 121.398 10.3745   3
   1  -4  -6 1063.96 36.9662   7
   1  -4  -6 1069.02 38.1761   6
   1  -4  -6 1044.84 40.5065   4
  -1  -4   6 1075.47 36.2006   3
   1  -4  -6 1032.47 38.1302   3
  -1  -4   6 1029.60 35.7405   6
   1  -4  -6 1048.26 39.3899   1
   1   4  -6 1073.43 35.9359   7
   1   4  -6 1050.32 38.7150   6
   1   4  -6 1052.99 37.8732   5
  -1   4   6 1051.63 38.0755   7
   0  -4  -6 712.566 31.8071   4
   0  -4  -6 679.843 26.5913   6
   0  -4  -6 714.422 28.8878   7
   0  -4  -6 670.403 28.1282   3
   0  -4   6 669.786 24.7695   3
   0  -4  -6 715.032 27.4137   1
   0   4  -6 681.233 28.7931   5
   0   4  -6 686.495 28.0826   6
   0   4   6 710.559 26.8215   7
  -1  -4  -6 50.4603 9.57266   3
  -1  -4  -6 71.2668 8.74024   6
   1  -4   6 72.5041 6.04666   3
  -1  -4  -6 62.7547 10.4438   4
  -1   4  -6 74.2140 10.3895   5
   1   4   6 62.5902 9.00998   7
  -1   4  -6 62.1607 9.31609   6
  -2  -4  -6 60.9932 10.9055   4
  -2  -4  -6 53.5961 8.12605   3
  -2  -4  -6 63.9045 8.48960   6
  -2   4  -6 71.5166 8.86489   5
  -2   4  -6 62.0663 8.80249   6
   2   4   6 59.7997 7.27411   7
  -3  -4  -6 1557.86 53.2295   3
  -3  -4  -6 1571.48 51.5498   6
  -3  -4  -6 1565.11 60.4046   4
  -3   4  -6 1564.18 51.7222   6
   3   4   6 1556.01 51.7907   7
  -3   4  -6 1584.62 53.7588   5
  -4  -4  -6 989.077 35.7136   6
  -4  -4  -6 1012.21 38.3164   3
  -4  -4  -6 990.617 46.0808   4
  -4   4  -6 964.010 35.5373   6
  -4   4  -6 1029.88 38.0454   5
   4   4   6 1042.13 36.0900   7
  -5  -4  -6 29.1313 7.47328   3
  -5  -4  -6 33.6315 11.3748   4
  -5  -4  -6 31.9259 7.05206   6
   5  -4   6 13.8093 6.93312   7
  -5   4  -6 28.4978 9.37944   5
   5   4   6 13.8880 6.52068   7
  -5   4  -6 14.9524 6.50593   6
  -6  -4  -6 55.4315 10.5858   3
  -6  -4  -6 36.4316 7.71455   6
   6  -4   6 51.0485 8.55322   7
  -6  -4  -6 48.3535 17.5725   4
  -6   4  -6 68.1476 8.66990   6
   6   4   6 54.9542 8.42346   7
  -8  -5   6 776.215 37.1254   6
  -8  -5   6 759.891 36.9670   3
   8  -5  -6 847.755 36.3872   7
  -8  -5   6 806.272 51.4695   4
   8   5  -6 833.123 38.0377   7
  -8   5   6 804.425 36.5230   2
   8   5  -6 792.784 34.1963   5
   7  -5  -6 7.43564 11.2660   7
  -7  -5   6 13.2287 14.4794   4
  -7  -5   6 -7.2878 11.1666   3
  -7  -5   6 -6.4632 10.1533   6
  -7   5   6 -0.0645 7.54525   2
   7   5  -6 5.15730 8.11127   7
  -7   5   6 11.8065 7.75783   7
   7   5  -6 -5.4551 9.23844   5
  -6  -5   6 351.327 20.4837   3
   6  -5  -6 338.219 19.6355   6
   6  -5  -6 382.143 24.1746   7
  -6  -5   6 387.883 30.2876   4
  -6  -5   6 351.245 20.3295   6
  -6   5   6 358.448 23.2171   7
   6   5  -6 328.449 22.9477   7
   6   5  -6 333.962 20.7685   6
   6   5  -6 329.294 19.1220   5
   5  -5  -6 -6.6517 9.06883   6
  -5  -5   6 11.1139 17.5975   4
  -5  -5   6 -3.8229 9.76012   3
  -5  -5   6 7.14557 6.60719   6
   5  -5  -6 -5.7783 9.82975   7
   5   5  -6 -1.2456 6.20314   5
   5   5  -6 4.99837 10.6086   6
  -5   5   6 -0.1708 6.98496   7
   5   5  -6 2.37379 9.20605   7
   4  -5  -6 1339.83 48.7908   7
  -4  -5   6 1378.90 57.9132   4
  -4  -5   6 1399.55 49.4674   6
  -4  -5   6 1385.03 49.1704   3
   4  -5  -6 1356.72 49.1208   6
   4   5  -6 1367.12 49.4693   5
   4   5  -6 1351.60 48.4793   7
   4   5  -6 1364.85 49.8889   6
  -4   5   6 1462.51 50.7563   7
  -3  -5   6 287.295 17.1803   6
   3  -5  -6 211.007 15.5249   7
  -3  -5   6 291.929 23.9575   4
   3  -5  -6 296.841 17.8911   3
  -3  -5   6 287.354 17.7589   3
   3  -5  -6 268.605 18.5638   6
   3   5  -6 260.204 17.3800   6
   3   5  -6 274.039 16.7595   5
   3   5  -6 292.142 17.5005   7
  -3   5   6 224.454 16.4104   7
   2  -5  -6 126.476 13.1281   6
   2  -5  -6 129.529 11.7574   7
  -2  -5   6 152.763 12.6691   6
  -2  -5   6 128.161 10.5722   3
   2  -5  -6 142.310 13.1081   3
   2   5  -6 114.794 13.9038   6
   2   5  -6 144.882 13.7106   5
   2   5  -6 137.414 11.9830   7
  -2   5   6 148.409 13.8922   7
   1  -5  -6 50.0517 8.32453   6
  -1  -5   6 44.1420 8.08805   3
   1  -5  -6 31.9961 8.21257   4
   1  -5  -6 38.8725 9.52906   3
   1  -5  -6 46.3777 8.68659   7
   1   5  -6 52.9992 10.6790   6
  -1   5   6 44.1375 8.17895   7
   1   5  -6 53.5475 8.23888   7
   1   5  -6 38.9987 10.3725   5
   0  -5  -6 465.190 22.4172   1
   0  -5  -6 470.216 26.5612   4
   0  -5  -6 471.199 23.3538   3
   0  -5  -6 449.183 21.2534   6
   0  -5   6 456.721 19.1970   3
   0   5  -6 442.794 21.9828   5
   0   5   6 483.505 21.8397   7
   0   5  -6 470.623 23.4127   6
  -1  -5  -6 272.611 20.3885   4
  -1  -5  -6 302.014 16.6850   6
  -1  -5  -6 313.684 17.5640   3
   1  -5   6 331.424 14.5707   3
   1   5   6 324.462 17.3921   7
  -1   5  -6 329.449 20.4987   5
  -1   5  -6 329.312 19.0409   6
  -2  -5  -6 110.833 11.6781   6
  -2  -5  -6 124.387 14.7407   4
  -2  -5  -6 135.373 13.6811   3
  -2   5  -6 105.547 11.2495   5
   2   5   6 100.809 10.2799   7
  -2   5  -6 111.331 12.2387   6
  -3  -5  -6 106.098 13.0098   3
  -3  -5  -6 113.554 11.4947   6
  -3  -5  -6 75.1719 16.3172   4
  -3   5  -6 91.3938 11.0958   6
   3   5   6 104.469 11.6784   7
  -3   5  -6 84.8990 10.4544   5
   4  -5   6 794.697 31.5059   7
  -4  -5  -6 770.832 31.1540   6
  -4  -5  -6 748.553 31.8298   3
  -4  -5  -6 817.594 42.4556   4
  -4   5  -6 731.337 31.4235   5
  -4   5  -6 762.545 30.9387   6
   4   5   6 773.730 31.3521   7
  -5  -5  -6 190.641 16.6448   3
   5  -5   6 150.863 13.4698   7
  -5  -5  -6 135.501 18.5821   4
  -5  -5  -6 167.888 14.2285   6
   5   5   6 166.107 14.0077   7
  -5   5  -6 151.419 13.4734   6
  -7  -6   6 362.280 37.5332   4
   7  -6  -6 349.436 26.0855   7
  -7  -6   6 333.752 22.1852   3
  -7  -6   6 362.145 24.8151   6
   7   6  -6 325.065 20.1532   5
  -7   6   6 323.530 24.2070   2
   7   6  -6 341.509 22.5532   7
  -6  -6   6 145.660 14.5509   6
   6  -6  -6 161.831 17.5634   7
  -6  -6   6 157.370 24.5212   4
   6  -6  -6 154.405 16.3096   6
  -6  -6   6 154.849 16.8085   3
   6   6  -6 179.051 16.7954   5
   6   6  -6 154.074 17.2110   7
  -6   6   6 148.266 14.8935   7
   6   6  -6 150.278 15.5221   6
  -5  -6   6 888.732 36.3053   6
  -5  -6   6 840.391 36.9805   3
   5  -6  -6 919.775 38.7108   7
   5  -6  -6 859.560 37.4995   6
  -5  -6   6 871.326 41.6538   4
   5   6  -6 897.975 39.0942   6
  -5   6   6 875.920 36.4316   7
   5   6  -6 866.487 37.0001   5
   5   6  -6 846.825 37.6438   7
   4  -6  -6 67.1266 11.4210   3
   4  -6  -6 66.1173 10.4844   7
  -4  -6   6 49.7814 11.1340   6
  -4  -6   6 37.7475 9.02314   3
   4  -6  -6 53.5729 10.0404   6
  -4  -6   6 65.0375 17.3666   4
   4   6  -6 53.0722 10.7112   6
  -4   6   6 46.9349 12.4147   7
   4   6  -6 45.1729 12.2143   5
   4   6  -6 62.4045 9.59888   7
  -3  -6   6 102.509 12.5395   3
   3  -6  -6 104.330 11.9818   6
   3  -6  -6 109.530 13.0424   3
   3  -6  -6 115.371 13.5389   7
  -3  -6   6 91.7871 17.3450   4
   3   6  -6 83.1797 14.3791   6
  -3   6   6 118.624 14.6194   7
   3   6  -6 117.431 14.0778   5
   3   6  -6 107.951 11.0383   7
  -2  -6   6 7.62144 8.18804   3
   2  -6  -6 -0.1295 8.59212   7
  -2  -6   6 20.4949 13.4472   4
   2  -6  -6 0.31909 6.98304   6
   2  -6  -6 6.72573 6.65683   3
   2   6  -6 1.10010 7.63644   7
  -2   6   6 1.20576 10.1696   7
   2   6  -6 11.1376 10.8404   6
   2   6  -6 -3.0268 6.82726   5
  -1  -6   6 548.397 23.5261   3
   1  -6  -6 545.143 25.5354   6
   1  -6  -6 566.274 28.3064   4
   1  -6  -6 507.982 24.6763   3
  -1  -6   6 489.796 28.2421   4
   1   6  -6 579.600 26.0299   5
   1   6  -6 517.080 27.7503   6
  -1   6   6 562.883 27.5397   7
   0  -6  -6 26.4686 10.1030   3
   0  -6  -6 7.83258 7.82923   4
   0  -6   6 14.8669 6.10559   3
   0  -6  -6 2.35330 8.87102   6
   0   6  -6 11.0990 10.2402   5
   0   6   6 10.9042 9.86898   7
   0   6  -6 2.86718 10.0144   6
  -1  -6  -6 68.2519 14.3275   4
  -1  -6  -6 60.5010 12.0898   3
  -1  -6  -6 74.2388 9.91128   6
  -1   6  -6 53.5229 9.76498   5
  -1   6  -6 42.4216 11.2101   6
   1   6   6 64.8209 9.72624   7
  -2  -6  -6 9.40990 10.3380   3
   2  -6   6 0.78233 10.1310   7
  -2  -6  -6 6.32604 12.3020   4
  -2  -6  -6 19.8063 9.04708   6
  -2   6  -6 9.28161 9.69342   6
  -2   6  -6 4.22232 7.38870   5
   2   6   6 5.92398 9.17145   7
  -3  -6  -6 448.843 25.5205   3
  -3  -6  -6 474.152 33.1279   4
   3  -6   6 448.192 24.8883   7
  -3  -6  -6 429.681 23.4877   6
   3   6   6 463.686 24.4411   7
  -3   6  -6 420.740 25.6818   5
  -3   6  -6 415.201 23.6153   6
  -4  -6  -6 10.7336 16.0416   4
  -4  -6  -6 21.0449 9.32288   6
   4  -6   6 12.8457 10.4898   7
  -4  -6  -6 38.9477 9.29145   3
  -4   6  -6 30.2836 11.6725   5
  -4   6  -6 15.8094 9.83947   6
   4   6   6 21.3000 10.0343   7
  -5  -7   6 51.2872 13.1363   6
   5  -7  -6 42.2207 10.5815   6
  -5  -7   6 33.2404 16.7578   4
   5  -7  -6 45.7566 10.7034   7
  -5  -7   6 38.0964 10.1312   3
  -5   7   6 57.5345 13.9526   7
   5   7  -6 32.2035 11.4547   6
   5   7  -6 44.9207 10.4902   5
   5   7  -6 30.1479 9.92134   7
   4  -7  -6 711.794 31.1056   3
   4  -7  -6 685.326 34.3571   7
  -4  -7   6 731.012 38.9039   4
  -4  -7   6 740.285 33.3960   3
   4  -7  -6 733.635 32.8785   6
   4   7  -6 678.406 33.4054   7
   4   7  -6 729.996 32.3685   5
   4   7  -6 736.563 33.9754   6
  -4   7   6 753.756 35.9158   7
   3  -7  -6 20.0781 8.73736   6
   3  -7  -6 9.65408 7.90194   7
  -3  -7   6 10.1633 12.4779   4
  -3  -7   6 3.97575 9.43946   3
   3  -7  -6 -4.4880 9.74873   3
   3   7  -6 4.07767 7.99824   5
  -3   7   6 7.74952 11.7814   7
   3   7  -6 19.8661 9.90342   6
   2  -7  -6 5.11806 7.68108   3
  -2  -7   6 26.7917 9.62003   3
   2  -7  -6 63.0658 12.9103   6
  -2   7   6 41.3510 12.7713   7
   2   7  -6 13.0684 12.8999   6
   2   7  -6 25.1301 9.33441   5
  -1  -7   6 4.32353 7.63108   3
   1  -7  -6 4.91677 10.8244   6
   1  -7  -6 11.5394 7.85096   3
  -1  -7   6 -7.2571 12.0372   7
   1   7  -6 22.0584 12.1198   5
   1   7  -6 4.09425 11.8506   6
  -1   7   6 -0.3224 7.56546   7
   0  -7  -6 696.711 33.2072   6
   0  -7   6 727.282 34.9889   7
   0  -7  -6 681.608 32.9295   3
   0  -7  -6 698.831 33.1523   4
   0   7  -6 692.522 34.3531   5
   0   7   6 768.616 34.3473   7
   0   7  -6 696.804 33.9488   6
  -1  -7  -6 14.7186 12.8872   4
  -1  -7  -6 16.5198 8.64051   3
  -1  -7  -6 12.5979 8.19975   6
   1  -7   6 33.9648 13.1095   7
  -1   7  -6 18.7587 9.30957   5
  -1   7  -6 26.8519 12.2736   6
   1   7   6 15.6613 8.38507   7
  -2  -7  -6 267.726 19.4940   3
  -2  -7  -6 310.960 28.5963   4
  -2  -7  -6 291.515 19.0912   6
   2  -7   6 290.524 22.9170   7
   2   7   6 297.358 19.7073   7
  -2   7  -6 264.164 21.9182   6
  -2   7  -6 296.310 20.8979   5
 -10   0   7 -2.2780 6.99507   6
 -10   0   7 -7.3087 7.25583   2
  10   0  -7 4.03741 10.6336   5
  10   0  -7 10.3225 10.6838   1
 -10   0   7 1.51976 14.9044   4
  10   0  -7 4.05688 8.18398   7
   9   0  -7 402.230 30.9279   1
   9   0  -7 410.384 21.6848   5
  -9   0   7 363.106 23.4154   7
  -9   0   7 388.596 23.7347   6
  -9   0   7 422.196 33.2849   4
   9   0  -7 408.532 25.0767   7
  -9   0   7 377.349 23.9712   2
  -8   0   7 6.41482 6.76156   6
   8   0  -7 4.50057 9.42309   7
   8   0  -7 0.73703 6.36312   6
   8   0  -7 -1.0034 9.39269   5
  -8   0   7 -2.5071 6.26106   2
  -8   0   7 -6.8671 9.56410   7
   8   0  -7 7.34342 12.6756   1
   7   0  -7 1708.31 57.2792   5
  -7   0   7 1630.90 56.4157   2
   7   0  -7 1705.36 58.5896   7
  -7   0   7 1644.06 57.3511   7
   7   0  -7 1734.97 58.5433   6
   7   0  -7 1694.64 62.0193   1
  -7   0   7 1711.44 57.8812   6
  -6   0   7 0.48664 6.65929   7
   6   0  -7 3.07400 5.72642   7
   6   0  -7 -2.4472 8.13692   1
  -6   0   7 -3.0123 7.78635   2
   6   0  -7 5.21586 8.65856   5
   6   0  -7 -7.0178 5.97746   6
  -6   0   7 6.67282 7.95563   6
  -5   0   7 4.97863 7.02637   6
   5   0  -7 10.9419 6.22942   5
   5   0  -7 -7.1698 5.06927   7
  -5   0   7 0.49030 4.70152   2
   5   0  -7 -9.2975 8.27239   6
   5   0  -7 -3.4687 7.47640   1
  -5   0   7 10.5155 9.45005   7
  -4   0   7 -0.3030 6.05880   6
  -4   0   7 -1.1062 3.95072   2
   4   0  -7 -0.2777 5.19771   5
   4   0  -7 -2.6697 5.41505   6
  -4   0   7 2.17142 6.06418   7
   4   0  -7 4.90219 4.86810   7
   3   0  -7 3477.80 103.952   5
   3   0  -7 3327.99 103.872   6
   3   0  -7 3446.54 102.690   7
  -3   0   7 3384.56 103.790   7
  -3   0   7 3409.45 101.632   2
  -3   0   7 3284.21 102.564   6
   2   0  -7 -3.0853 4.25798   5
   2   0  -7 2.37101 5.91245   6
  -2   0   7 -2.7714 6.44880   7
  -2   0   7 -0.9749 3.84199   6
   2   0  -7 -0.5934 3.83422   7
  -2   0   7 0.20598 3.59166   2
   1   0  -7 1049.17 36.4434   5
   1   0  -7 1109.04 35.8600   6
  -1   0   7 1100.36 36.3288   7
  -1   0   7 1068.14 33.5829   2
   0   0  -7 -1.3979 3.94351   6
   0   0  -7 -2.0680 3.37593   6
   0   0  -7 3.65345 5.02662   5
   0   0   7 -2.3824 2.07844   2
   0   0   7 -3.5407 4.22338   7
  -1   0  -7 1251.29 39.9090   5
   1   0   7 1243.40 38.7742   7
  -1   0  -7 1227.83 38.8059   6
  -1   0  -7 1270.99 38.9866   6
   1   0   7 1209.90 38.5386   7
  -2   0  -7 0.26953 2.70724   6
  -2   0  -7 -2.3182 2.39100   6
   2   0   7 -2.7080 2.27018   7
  -2   0  -7 -5.2236 9.39674   4
  -2   0  -7 -1.2584 3.62741   5
   2   0   7 3.08611 2.35164   7
   3   0   7 905.776 27.9657   7
  -3   0  -7 864.256 29.8285   5
  -3   0  -7 986.859 28.2857   6
   3   0   7 937.902 28.1292   7
  -4   0  -7 0.85991 1.10971   6
  -4   0  -7 -0.6567 1.21761   6
  -4   0  -7 1.04456 7.25267   4
  -5   0  -7 6.53507 7.74267   4
  -6   0  -7 7.06788 11.7505   4
  -7   0  -7 201.774 20.2715   4
  10  -1  -7 138.541 21.2798   1
 -10  -1   7 148.098 15.7478   2
  10  -1  -7 141.475 16.6768   7
 -10  -1   7 168.160 22.8106   4
 -10  -1   7 130.870 14.1507   6
 -10   1   7 90.1719 12.6777   6
 -10   1   7 116.625 23.7626   4
 -10   1   7 130.993 15.4249   2
  -9  -1   7 35.8088 17.8663   4
  -9  -1   7 26.3902 11.0548   6
  -9  -1   7 9.64916 11.1688   7
   9  -1  -7 26.1806 15.8991   1
  -9  -1   7 18.4112 10.6069   2
   9  -1  -7 21.1353 11.4225   7
   9   1  -7 26.1874 14.5822   1
  -9   1   7 23.1164 10.9142   6
  -9   1   7 12.8018 10.7592   7
   9   1  -7 18.3341 8.43490   7
   9   1  -7 29.7170 10.5809   5
  -9   1   7 27.3044 8.68987   2
   8  -1  -7 677.791 30.7418   6
   8  -1  -7 662.162 30.0367   7
  -8  -1   7 723.208 30.9584   2
  -8  -1   7 695.723 29.8453   7
  -8  -1   7 718.362 31.6545   6
   8  -1  -7 698.077 35.2802   1
   8   1  -7 650.184 29.9111   7
  -8   1   7 703.528 29.6135   2
   8   1  -7 738.987 29.6395   5
   8   1  -7 698.885 31.0778   6
  -8   1   7 758.032 31.7191   7
  -8   1   7 678.323 31.1932   6
  -7  -1   7 1179.30 41.4805   2
   7  -1  -7 1170.48 42.8090   7
   7  -1  -7 1208.44 43.6363   6
  -7  -1   7 1129.04 43.8049   7
  -7  -1   7 1160.50 42.6716   6
   7  -1  -7 1132.24 46.9794   1
  -7   1   7 1156.80 43.4042   6
  -7   1   7 1125.82 41.5151   2
   7   1  -7 1175.95 43.7783   7
   7   1  -7 1180.50 42.0508   5
  -7   1   7 1123.02 43.3279   7
   7   1  -7 1195.69 43.9449   6
  -6  -1   7 786.503 29.9793   6
  -6  -1   7 745.352 28.4448   2
  -6  -1   7 727.288 31.9753   7
   6  -1  -7 707.082 36.1882   1
   6  -1  -7 747.054 29.9390   6
   6  -1  -7 724.788 29.7072   7
   6   1  -7 712.877 30.4658   5
  -6   1   7 748.028 29.9743   7
   6   1  -7 753.055 30.1153   6
  -6   1   7 768.262 28.8808   2
  -6   1   7 709.049 30.4496   6
   6   1  -7 736.733 31.0548   7
  -5  -1   7 82.5865 10.2508   6
   5  -1  -7 64.1593 9.93195   7
   5  -1  -7 82.7408 14.1717   1
   5  -1  -7 72.8546 9.17560   6
  -5  -1   7 80.6904 9.29581   2
  -5  -1   7 79.3499 12.1608   7
  -5   1   7 79.2749 8.92068   6
  -5   1   7 73.0391 8.18834   2
   5   1  -7 92.8702 9.99074   6
   5   1  -7 92.5299 10.8546   5
  -5   1   7 72.9552 9.38119   7
   5   1  -7 79.6001 9.05106   7
   4  -1  -7 828.337 35.6619   1
   4  -1  -7 822.294 30.8637   7
   4  -1  -7 786.956 30.2408   6
  -4  -1   7 865.129 30.5474   6
  -4  -1   7 812.176 28.8990   2
  -4  -1   7 781.524 31.9810   7
  -4   1   7 783.138 28.7211   2
  -4   1   7 822.798 29.9000   6
   4   1  -7 837.987 31.8719   6
   4   1  -7 835.308 30.5689   7
   4   1  -7 798.769 30.1791   5
  -4   1   7 776.206 30.3297   7
   3  -1  -7 150.950 11.3658   5
  -3  -1   7 151.089 12.2824   7
   3  -1  -7 187.408 13.4614   6
   3  -1  -7 146.844 14.5911   1
  -3  -1   7 149.320 9.79591   2
   3  -1  -7 156.139 10.1791   7
  -3  -1   7 159.910 9.53544   6
  -3   1   7 140.834 9.58276   6
   3   1  -7 172.231 13.5622   5
  -3   1   7 140.546 11.8477   7
   3   1  -7 162.280 13.4523   6
  -3   1   7 135.129 9.73605   2
   3   1  -7 144.024 9.55025   7
  -2  -1   7 27.4147 4.94540   6
   2  -1  -7 27.6804 5.31661   7
  -2  -1   7 19.1484 5.87236   7
   2  -1  -7 27.5716 7.02340   6
   2  -1  -7 29.8732 5.96049   5
  -2  -1   7 31.0799 4.22446   2
  -2   1   7 23.8285 7.25781   7
  -2   1   7 22.8807 5.03138   6
  -2   1   7 31.2120 5.23589   2
   2   1  -7 28.7883 5.91390   6
   2   1  -7 22.5739 4.82392   7
   2   1  -7 28.9808 5.90404   5
   1  -1  -7 153.713 10.3273   6
   1  -1  -7 151.171 7.31880   7
  -1  -1   7 133.383 11.7167   7
   1  -1  -7 137.511 10.0952   5
   1   1  -7 142.353 11.7672   5
   1   1  -7 123.335 10.8157   6
   1   1  -7 146.089 6.80400   7
  -1   1   7 130.678 10.8166   7
   0  -1   7 2023.25 64.2361   7
   0  -1  -7 2085.96 64.1515   6
   0  -1  -7 2064.26 64.1168   5
   0   1  -7 2021.96 64.9946   5
   0   1  -7 2204.92 64.4142   6
   0   1   7 2124.99 63.9181   7
   0   1  -7 2053.87 64.3882   6
  -1  -1  -7 2.04425 2.76902   5
  -1  -1  -7 5.31523 9.60984   4
  -1  -1  -7 1.00315 4.12671   6
   1  -1   7 4.70771 2.97547   7
   1  -1   7 -7.6103 3.68478   7
  -1   1  -7 2.60213 2.82108   6
  -1   1  -7 1.15054 3.77336   6
   1   1   7 -2.3428 3.64646   7
   1   1   7 -1.8079 3.32555   7
  -1   1  -7 3.31358 5.01671   5
  -2  -1  -7 17.1763 5.95221   3
  -2  -1  -7 19.0140 3.40375   6
  -2  -1  -7 13.0684 7.75518   4
  -2  -1  -7 17.9408 3.59736   5
   2  -1   7 15.4619 3.58652   7
   2   1   7 16.4030 3.83609   7
  -2   1  -7 20.1905 4.26508   6
  -2   1  -7 19.4845 3.42622   6
  -2   1  -7 16.8336 5.45962   5
  -3  -1  -7 160.434 10.3547   3
  -3  -1  -7 101.374 6.08802   6
  -3  -1  -7 107.733 12.9809   4
   3  -1   7 127.405 6.59205   7
  -3   1  -7 152.042 9.55786   5
  -3   1  -7 123.108 6.01424   6
   3   1   7 99.2611 6.11555   7
  -4  -1  -7 523.455 17.1303   6
  -4  -1  -7 599.875 31.2327   4
   4  -1   7 524.393 16.7815   7
  -4   1  -7 497.668 16.9103   6
   4   1   7 511.614 16.8971   7
  -4   1  -7 550.678 27.5232   4
  -4   1  -7 506.696 19.6331   5
   5  -1   7 37.6292 3.32991   7
  -5  -1  -7 42.6933 10.8295   4
  -5  -1  -7 40.0566 7.73493   3
  -5  -1  -7 30.1538 3.35951   6
  -5   1  -7 37.6366 3.17066   6
  -5   1  -7 37.8265 9.25322   4
   5   1   7 39.1580 3.33330   7
  -6  -1  -7 42.5613 3.73013   6
  -6  -1  -7 51.5647 14.9841   4
  -6   1  -7 28.4961 11.7342   4
  -6   1  -7 38.9700 3.47089   6
  -7  -1  -7 248.578 10.2398   6
  -7  -1  -7 287.629 28.5740   4
  -7   1  -7 280.418 24.0480   4
 -10  -2   7 679.453 43.5954   4
  10  -2  -7 626.510 38.0135   1
 -10  -2   7 694.742 32.1472   6
  10  -2  -7 673.031 32.1682   7
  10   2  -7 666.330 31.2476   5
 -10   2   7 646.693 31.7274   6
 -10   2   7 695.103 33.4573   2
 -10   2   7 711.017 42.6051   4
  10   2  -7 682.497 34.1729   7
  -9  -2   7 675.611 48.4896   4
  -9  -2   7 573.531 29.2385   2
   9  -2  -7 574.017 28.4174   7
   9  -2  -7 559.862 39.1108   1
  -9  -2   7 581.825 28.1074   6
  -9   2   7 615.514 29.8704   2
   9   2  -7 564.085 28.1478   5
   9   2  -7 572.674 30.5128   7
   8  -2  -7 46.3278 13.2624   1
  -8  -2   7 54.4435 19.3255   4
   8  -2  -7 32.0411 11.4387   7
  -8  -2   7 37.3805 11.3531   6
   8  -2  -7 40.3007 8.70356   6
  -8  -2   7 31.4073 12.0024   7
  -8  -2   7 34.4164 8.42521   2
   8   2  -7 37.0615 8.35797   5
   8   2  -7 40.2589 11.9239   7
  -8   2   7 30.5544 11.1020   7
   8   2  -7 24.9450 8.40945   6
  -8   2   7 49.0373 12.1023   2
  -7  -2   7 319.743 22.2853   7
   7  -2  -7 313.678 24.3940   1
   7  -2  -7 377.471 22.3322   7
   7  -2  -7 360.221 21.1632   6
  -7  -2   7 329.259 18.7947   6
  -7  -2   7 339.808 17.9805   2
  -7   2   7 288.941 18.5783   7
   7   2  -7 340.495 20.6549   5
  -7   2   7 299.958 18.0253   2
   7   2  -7 342.874 19.1905   6
   7   2  -7 348.304 21.6174   7
  -6  -2   7 435.440 19.4321   2
  -6  -2   7 352.900 21.1533   6
   6  -2  -7 380.305 25.1435   1
   6  -2  -7 428.585 22.5857   6
  -6  -2   7 426.814 21.6528   7
   6  -2  -7 431.947 23.2804   7
   6   2  -7 388.472 20.3082   7
  -6   2   7 410.044 21.0005   7
   6   2  -7 364.441 22.6272   6
   6   2  -7 404.713 19.9501   5
  -6   2   7 440.176 21.8515   2
  -5  -2   7 658.273 28.0526   7
  -5  -2   7 642.824 26.1049   2
   5  -2  -7 588.344 27.6157   6
  -5  -2   7 697.671 26.8715   6
   5  -2  -7 646.271 28.3921   7
   5  -2  -7 671.539 34.3322   1
   5   2  -7 706.039 28.0138   6
  -5   2   7 687.838 29.1719   7
   5   2  -7 637.294 27.6816   7
   5   2  -7 670.475 27.0118   5
  -5   2   7 685.130 26.1745   2
   4  -2  -7 473.916 21.9104   6
  -4  -2   7 504.564 22.3092   6
   4  -2  -7 532.823 26.1839   1
   4  -2  -7 562.913 22.3213   7
  -4  -2   7 524.940 23.2697   7
   4   2  -7 521.822 23.6553   5
   4   2  -7 546.665 22.8190   7
  -4   2   7 527.089 22.5572   7
   4   2  -7 471.279 23.8635   6
  -4   2   7 477.916 21.9718   2
   3  -2  -7 44.2634 8.84167   1
  -3  -2   7 44.2637 9.76990   7
  -3  -2   7 43.3642 7.10141   6
   3  -2  -7 47.7561 8.76380   6
   3   2  -7 38.1492 9.19902   6
  -3   2   7 38.5822 8.71084   7
   3   2  -7 44.3321 7.13264   7
   3   2  -7 49.7652 8.82249   5
   2  -2  -7 839.077 30.3911   6
   2  -2  -7 800.698 28.4808   7
   2  -2  -7 798.578 31.8964   1
  -2  -2   7 835.636 28.2365   6
  -2  -2   7 835.161 30.3217   7
   2   2  -7 808.913 30.0188   6
   2   2  -7 842.411 30.0518   5
  -2   2   7 836.869 29.0400   6
   2   2  -7 805.928 27.7660   7
  -2   2   7 779.858 29.3910   7
  -1  -2   7 540.464 22.2529   7
   1  -2  -7 512.094 19.9574   6
   1  -2  -7 500.490 18.4350   7
   1   2  -7 467.295 20.4876   5
  -1   2   7 477.298 18.4457   6
   1   2  -7 498.747 21.2714   6
  -1   2   7 517.821 21.1553   7
   1   2  -7 526.963 17.7903   7
   0  -2  -7 63.5697 7.19571   6
   0  -2  -7 73.4515 6.43998   5
   0  -2  -7 58.9316 8.57151   3
   0  -2   7 64.6875 8.14295   7
   0   2  -7 60.1017 8.32670   5
   0   2  -7 58.6557 7.61429   6
   0   2   7 68.0909 7.59745   7
  -1  -2  -7 598.574 21.6484   6
  -1  -2  -7 600.905 24.0069   3
   1  -2   7 583.662 22.3372   7
  -1  -2  -7 570.838 27.3284   4
  -1  -2  -7 557.609 20.6811   5
  -1   2  -7 572.284 21.9252   6
  -1   2  -7 612.092 23.6112   5
   1   2   7 601.370 21.7671   7
  -2  -2  -7 346.166 13.1280   5
  -2  -2  -7 383.293 22.1345   4
   2  -2   7 352.957 15.2450   7
  -2  -2  -7 357.620 14.6230   6
  -2  -2  -7 352.532 17.5520   3
  -2   2  -7 375.033 17.4197   5
   2   2   7 371.658 14.9162   7
  -2   2  -7 366.676 14.9891   6
  -3  -2  -7 39.6496 7.46539   3
  -3  -2  -7 42.3182 12.9875   4
  -3  -2  -7 39.8238 5.11453   6
   3  -2   7 32.2747 4.94512   7
  -3   2  -7 57.9613 7.71024   5
  -3   2  -7 33.3494 5.18758   6
   3   2   7 38.1611 4.78796   7
  -4  -2  -7 81.1611 13.2997   4
  -4  -2  -7 84.1701 6.38171   6
  -4  -2  -7 87.7607 9.21951   3
  -4   2  -7 96.8027 9.16532   5
  -4   2  -7 82.4498 6.98440   6
   4   2   7 82.5113 7.25489   7
  -5  -2  -7 319.623 27.6878   4
  -5  -2  -7 310.344 12.7309   6
  -5  -2  -7 314.431 16.6592   3
   5   2   7 322.320 13.2916   7
  -5   2  -7 312.248 12.8013   6
  -6  -2  -7 349.857 14.4474   6
  -6  -2  -7 339.320 25.8260   4
   6  -2   7 339.388 13.7372   7
   6   2   7 336.644 14.1974   7
  -6   2  -7 347.599 13.9859   6
 -10  -3   7 54.2397 27.0844   4
 -10  -3   7 31.7603 12.5161   6
  10  -3  -7 28.6325 20.3495   1
  10  -3  -7 35.9102 13.5347   7
  10   3  -7 27.2470 10.8859   5
 -10   3   7 17.8770 9.41956   2
  10   3  -7 26.1169 12.7206   7
  -9  -3   7 258.496 34.1909   4
  -9  -3   7 241.385 20.6529   6
   9  -3  -7 246.858 24.6671   1
   9  -3  -7 217.435 18.6204   7
   9   3  -7 245.435 18.6654   7
  -9   3   7 235.278 19.7260   2
   9   3  -7 211.429 17.6769   5
  -8  -3   7 1088.42 43.0610   6
  -8  -3   7 1130.31 54.3832   4
   8  -3  -7 1118.10 43.4950   7
   8  -3  -7 1138.83 52.6482   1
   8  -3  -7 1227.55 58.5945   6
  -8   3   7 1094.51 42.0156   7
  -8   3   7 1118.70 42.2136   2
   8   3  -7 1007.85 43.2833   6
   8   3  -7 1114.39 41.5370   5
   8   3  -7 1141.19 44.7227   7
  -7  -3   7 48.7478 9.37497   6
   7  -3  -7 63.6151 12.3586   7
  -7  -3   7 73.5815 25.4583   4
   7  -3  -7 44.7365 11.0530   6
   7  -3  -7 47.9655 12.8992   1
   7   3  -7 51.2582 10.9231   5
  -7   3   7 41.9001 9.23832   7
  -7   3   7 62.0364 11.2907   2
   7   3  -7 50.0218 11.6844   7
   7   3  -7 54.5782 12.1971   6
  -6  -3   7 72.6194 11.2190   6
   6  -3  -7 44.2563 8.76511   6
   6  -3  -7 43.8971 8.79827   7
   6  -3  -7 28.9293 11.8787   1
  -6  -3   7 70.1980 11.1873   7
   6   3  -7 46.0197 11.7782   6
   6   3  -7 59.1569 8.93514   5
   6   3  -7 44.3381 8.72582   7
  -6   3   7 48.6456 11.5123   7
  -6   3   7 42.9638 8.49573   2
   5  -3  -7 1195.73 43.8556   7
  -5  -3   7 1188.91 43.1908   6
   5  -3  -7 1119.59 48.9899   1
   5  -3  -7 1209.56 43.9542   6
  -5  -3   7 1201.96 45.2831   7
  -5   3   7 1231.97 43.2331   7
   5   3  -7 1176.08 42.4624   7
  -5   3   7 1196.93 42.6743   2
   5   3  -7 1160.92 42.2126   5
   5   3  -7 1207.94 44.4881   6
   4  -3  -7 1058.61 39.3919   6
  -4  -3   7 1134.11 40.7309   7
   4  -3  -7 944.320 38.5171   7
   4  -3  -7 1137.72 45.8372   1
  -4  -3   7 1112.76 39.5449   6
  -4   3   7 1172.34 41.2948   7
   4   3  -7 1152.85 40.6943   5
   4   3  -7 1125.32 38.9434   7
   4   3  -7 1076.46 41.1133   6
   3  -3  -7 554.570 27.2010   1
   3  -3  -7 592.337 25.5754   6
  -3  -3   7 548.970 22.4862   6
   3  -3  -7 609.626 25.2281   7
  -3  -3   7 602.333 25.3930   7
  -3   3   7 587.801 24.4622   7
   3   3  -7 585.938 24.8093   6
   3   3  -7 562.346 25.4607   5
   3   3  -7 583.375 23.7512   7
   2  -3  -7 104.646 13.0446   1
  -2  -3   7 89.0844 9.84503   7
   2  -3  -7 92.5142 9.07494   6
  -2  -3   7 79.9162 7.14542   6
   2  -3  -7 101.136 8.66421   7
   2   3  -7 83.5376 9.15604   5
   2   3  -7 75.7372 7.10958   7
  -2   3   7 82.3279 8.78106   7
   2   3  -7 83.9575 9.23763   6
   1  -3  -7 685.555 25.8466   7
  -1  -3   7 709.120 28.9720   7
   1  -3  -7 710.466 29.3422   1
   1  -3  -7 718.795 27.6825   6
   1  -3  -7 722.139 28.6087   3
  -1   3   7 760.543 28.2071   7
   1   3  -7 734.714 24.8336   7
   1   3  -7 701.219 28.2714   6
   1   3  -7 703.447 28.7110   5
   0  -3  -7 1217.45 46.6606   4
   0  -3  -7 1197.41 42.3737   3
   0  -3  -7 1184.94 40.9914   6
   0  -3   7 1161.79 41.6984   7
   0   3  -7 1274.94 41.7305   6
   0   3   7 1193.77 41.0575   7
   0   3  -7 1227.30 42.4002   5
  -1  -3  -7 1775.06 62.4462   4
   1  -3   7 1744.18 56.3965   7
  -1  -3  -7 1814.55 58.4875   3
  -1  -3  -7 1725.92 55.0314   5
  -1  -3  -7 1741.37 56.1873   6
  -1   3  -7 1776.31 56.7602   6
  -1   3  -7 1753.99 57.5701   5
   1   3   7 1782.07 56.5591   7
  -2  -3  -7 99.2059 9.61026   3
  -2  -3  -7 104.557 9.00676   6
  -2  -3  -7 91.3559 12.4633   4
  -2   3  -7 100.179 9.45948   5
  -2   3  -7 100.562 8.87656   6
   2   3   7 99.1361 8.78472   7
  -3  -3  -7 39.2470 13.3633   4
  -3  -3  -7 38.9635 7.12215   3
  -3  -3  -7 41.9922 6.11700   6
  -3   3  -7 33.2792 6.18620   6
  -3   3  -7 38.2243 6.81784   5
   3   3   7 35.2776 5.16462   7
  -4  -3  -7 1073.35 45.4438   4
  -4  -3  -7 877.325 31.5747   6
  -4  -3  -7 963.012 35.0364   3
  -4   3  -7 901.197 31.4283   6
  -4   3  -7 872.552 33.9464   5
   4   3   7 871.255 31.5142   7
  -5  -3  -7 810.742 30.7447   3
  -5  -3  -7 784.614 42.0908   4
  -5  -3  -7 800.606 28.5830   6
  -5   3  -7 806.906 28.3353   6
   5   3   7 752.725 28.0250   7
  -5   3  -7 781.514 30.6234   5
  -6  -3  -7 21.6750 6.67621   3
  -6  -3  -7 45.8611 17.3049   4
   6  -3   7 25.4499 6.63518   7
  -6  -3  -7 30.0179 6.50813   6
  -6   3  -7 21.6184 6.35327   6
   6   3   7 29.5583 5.84124   7
  -9  -4   7 52.6096 26.4972   4
   9  -4  -7 18.5173 15.5034   1
  -9  -4   7 45.9877 13.1507   6
   9  -4  -7 37.9995 13.8356   7
  -9  -4   7 17.0085 13.1203   3
   9   4  -7 26.3938 8.41193   5
   9   4  -7 49.4141 10.8724   7
  -9   4   7 53.6149 10.4837   2
  -8  -4   7 333.295 24.0752   3
   8  -4  -7 344.377 34.2043   1
  -8  -4   7 341.391 23.7388   6
   8  -4  -7 341.875 24.9727   7
  -8  -4   7 331.445 36.0611   4
  -8   4   7 362.087 23.7977   7
  -8   4   7 302.548 23.2248   2
   8   4  -7 317.045 21.3716   7
   8   4  -7 341.328 19.8563   5
  -7  -4   7 639.006 31.2066   6
  -7  -4   7 631.101 41.2704   4
   7  -4  -7 696.899 31.0334   6
   7  -4  -7 640.682 36.0593   1
   7  -4  -7 677.289 32.2102   7
   7   4  -7 666.964 30.3892   6
   7   4  -7 715.275 30.8810   5
   7   4  -7 658.954 30.1046   7
  -7   4   7 627.882 28.8815   2
  -7   4   7 665.976 29.6145   7
   6  -4  -7 421.709 27.7486   1
   6  -4  -7 389.449 21.0632   6
  -6  -4   7 320.269 32.1687   4
  -6  -4   7 402.190 21.3733   6
   6  -4  -7 377.115 21.1407   7
   6   4  -7 427.193 21.3919   5
  -6   4   7 416.770 23.2421   2
   6   4  -7 413.212 23.7809   7
  -6   4   7 426.033 24.3307   7
   6   4  -7 381.711 21.9206   6
  -5  -4   7 211.267 16.5953   6
   5  -4  -7 231.553 15.6811   6
   5  -4  -7 222.082 20.8992   1
   5  -4  -7 249.140 18.6305   7
   5   4  -7 203.604 15.1614   5
   5   4  -7 216.220 15.1720   7
   5   4  -7 206.535 18.8183   6
  -5   4   7 189.772 15.7279   7
   4  -4  -7 248.682 25.0019   1
   4  -4  -7 262.334 18.2452   6
   3  -4  -7 979.228 38.1653   1
   3  -4  -7 925.612 34.0265   7
   3   4  -7 950.253 34.9864   5
   3   4  -7 934.647 34.1963   7
  -3   4   7 883.438 35.9400   7
   3   4  -7 799.752 35.7389   6
   2  -4  -7 1498.62 50.6247   6
   2  -4  -7 1420.45 52.2920   1
   2  -4  -7 1468.83 50.0222   7
   2  -4  -7 1495.95 50.5832   3
   2   4  -7 1480.03 51.1680   6
   2   4  -7 1476.53 48.5527   7
   2   4  -7 1516.12 50.9359   5
  -2   4   7 1486.35 50.5603   7
   1  -4  -7 1855.34 60.4542   6
   1  -4  -7 1830.01 60.7271   3
   1  -4  -7 1699.11 60.7951   1
  -1   4   7 1798.39 60.1853   7
   1   4  -7 1855.57 61.0852   5
   1   4  -7 1851.62 60.9269   6
   0  -4  -7 5.67620 7.03235   6
   0  -4  -7 13.7876 6.11597   1
   0  -4   7 4.29345 5.23986   3
   0  -4  -7 11.3728 8.44403   3
   0  -4  -7 15.9193 10.8351   4
   0   4  -7 4.57951 5.83157   6
   0   4  -7 7.14491 6.12225   5
   0   4   7 11.9011 5.73717   7
  -1  -4  -7 447.650 25.4434   4
  -1  -4  -7 442.279 21.3009   3
   1  -4   7 461.149 17.8687   3
  -1  -4  -7 477.263 21.1317   6
  -1   4  -7 471.807 21.5464   5
   1   4   7 463.869 20.2818   7
  -1   4  -7 469.972 20.4642   6
  -2  -4  -7 631.567 25.8502   6
  -2  -4  -7 583.941 27.7847   3
  -2  -4  -7 652.911 35.1770   4
  -2   4  -7 685.918 26.5907   6
   2   4   7 655.985 26.2935   7
  -2   4  -7 668.945 27.1461   5
  -3  -4  -7 864.484 41.7687   4
  -3  -4  -7 1008.66 37.7073   3
  -3  -4  -7 989.035 34.9959   6
   3   4   7 906.726 33.9545   7
  -3   4  -7 1039.57 37.6034   5
  -3   4  -7 973.955 34.9435   6
  -4  -4  -7 170.466 18.5444   4
  -4  -4  -7 138.361 12.4916   3
  -4  -4  -7 142.123 11.7897   6
  -4   4  -7 153.262 12.7183   5
  -4   4  -7 131.222 11.8903   6
   4   4   7 164.175 12.6404   7
  -5  -4  -7 88.6197 9.69931   6
  -5  -4  -7 101.227 12.6289   3
   5  -4   7 103.123 10.3088   7
  -5  -4  -7 124.595 20.3938   4
  -5   4  -7 105.555 10.7885   5
  -5   4  -7 96.3889 9.92303   6
   5   4   7 95.8533 9.96539   7
  -8  -5   7 94.8260 15.6504   6
  -8  -5   7 105.408 14.2403   3
   8  -5  -7 131.475 15.0454   7
  -8  -5   7 141.769 28.5698   4
   8   5  -7 112.122 14.5141   5
   8   5  -7 109.254 14.2181   7
  -8   5   7 107.413 15.4630   2
  -7  -5   7 69.8439 19.4214   4
  -7  -5   7 47.7825 10.0563   6
   7  -5  -7 48.9421 12.2152   6
  -7  -5   7 62.4950 11.2600   3
   7  -5  -7 57.1528 11.1250   7
   7   5  -7 75.4338 11.8897   6
  -7   5   7 67.6896 11.1571   2
  -7   5   7 64.9037 10.9780   7
   7   5  -7 79.9516 14.1736   7
   7   5  -7 55.6753 9.93150   5
  -6  -5   7 178.958 16.6215   6
  -6  -5   7 133.880 15.7781   3
  -6  -5   7 152.931 20.7524   4
   6  -5  -7 143.730 14.1909   7
   6  -5  -7 145.185 15.7985   6
   6   5  -7 128.566 13.7097   7
   6   5  -7 139.014 16.9029   6
   6   5  -7 153.183 15.4562   5
  -6   5   7 165.666 16.5805   7
  -5  -5   7 116.381 14.4952   3
   5  -5  -7 125.289 12.9434   6
  -5  -5   7 137.187 14.4965   6
  -5  -5   7 153.731 25.0882   4
   5  -5  -7 142.444 15.1657   7
   5   5  -7 126.031 16.1206   6
  -5   5   7 125.549 15.2908   7
   5   5  -7 115.502 12.4401   7
   5   5  -7 122.285 14.4079   5
  -4  -5   7 586.422 40.4339   4
   4  -5  -7 544.244 27.0301   7
  -4  -5   7 553.586 26.0061   6
  -4  -5   7 556.223 26.6115   3
   4  -5  -7 545.630 25.8647   6
  -4   5   7 535.482 26.0864   7
   4   5  -7 581.120 27.9193   5
   4   5  -7 543.030 24.8232   7
   4   5  -7 560.119 28.8663   6
   3  -5  -7 24.0917 7.43307   3
  -3  -5   7 19.5292 9.45060   3
   3  -5  -7 7.82305 8.55331   7
   3  -5  -7 29.1607 13.1922   1
   3  -5  -7 31.7698 10.2156   6
   3   5  -7 34.9489 8.58984   7
  -3   5   7 25.7792 8.18890   7
   3   5  -7 24.5573 11.2902   6
   3   5  -7 34.5187 8.12361   5
   2  -5  -7 -7.7521 8.45384   3
   2  -5  -7 3.02997 5.60305   7
   2  -5  -7 8.46418 10.9230   1
  -2  -5   7 -4.9185 7.19128   3
   2  -5  -7 -0.8814 8.88831   6
  -2   5   7 4.17902 6.53945   7
   2   5  -7 4.76617 7.05206   5
   2   5  -7 2.38779 7.31632   6
   1  -5  -7 145.499 14.2961   3
   1  -5  -7 228.544 16.7632   6
  -1  -5   7 151.282 10.7242   3
   1   5  -7 145.870 13.1430   5
  -1   5   7 167.322 13.5341   7
   1   5  -7 118.729 12.3080   6
   0  -5  -7 629.026 27.0356   6
   0  -5   7 657.055 24.5949   3
   0  -5  -7 629.089 32.9752   4
   0  -5  -7 645.378 29.1212   3
   0   5   7 677.952 27.5019   7
   0   5  -7 642.820 28.9065   6
   0   5  -7 634.188 27.7977   5
  -1  -5  -7 8.85647 7.97794   6
  -1  -5  -7 3.35692 6.50482   3
  -1  -5  -7 -1.6623 7.98895   4
  -1   5  -7 -7.5302 5.47592   6
  -1   5  -7 3.26861 9.03765   5
   1   5   7 6.38216 6.09532   7
  -2  -5  -7 230.879 16.2327   3
  -2  -5  -7 246.551 16.6094   6
  -2  -5  -7 268.736 26.3108   4
  -2   5  -7 253.035 19.3941   5
   2   5   7 255.426 17.6960   7
  -2   5  -7 249.019 17.3582   6
  -3  -5  -7 418.151 21.7588   3
  -3  -5  -7 372.362 27.5028   4
  -3  -5  -7 417.989 21.0411   6
   3   5   7 376.620 19.5645   7
  -3   5  -7 425.727 21.5277   6
  -3   5  -7 433.788 23.8752   5
  -4  -5  -7 329.217 26.4902   4
  -4  -5  -7 327.030 21.3936   3
   4  -5   7 262.204 16.4611   7
  -4  -5  -7 334.827 18.2522   6
  -4   5  -7 301.986 21.2235   5
  -4   5  -7 314.432 18.5848   6
   4   5   7 252.085 16.0595   7
  -6  -6   7 158.076 17.1151   6
   6  -6  -7 183.197 18.8373   7
   6  -6  -7 174.656 16.1874   6
  -6  -6   7 162.914 17.8918   3
  -6  -6   7 168.105 25.0690   4
   6   6  -7 157.971 15.2291   7
   6   6  -7 181.532 19.5035   6
  -6   6   7 188.560 18.6649   7
   6   6  -7 166.309 17.0908   5
  -5  -6   7 -7.2853 17.6147   4
   5  -6  -7 20.7467 8.76389   6
  -5  -6   7 26.2406 10.8720   6
   5  -6  -7 12.7741 8.43287   7
  -5  -6   7 27.8023 11.5319   3
  -5   6   7 29.6184 12.7234   7
   5   6  -7 10.9325 7.74756   7
   5   6  -7 21.5730 11.2881   5
   5   6  -7 27.1091 12.8303   6
   4  -6  -7 -3.9630 7.28838   6
  -4  -6   7 -3.9268 16.1850   4
  -4  -6   7 -5.6176 9.57685   3
   4  -6  -7 -0.5893 7.07096   7
   4   6  -7 2.03264 12.0113   6
  -4   6   7 16.7378 11.6060   7
   4   6  -7 -10.042 10.4311   5
   4   6  -7 7.61091 9.40628   7
  -3  -6   7 12.7928 9.21952   3
   3  -6  -7 4.42776 7.43440   6
   3  -6  -7 -7.4623 6.79085   3
  -3  -6   7 -9.6353 15.3850   4
   3  -6  -7 21.7322 7.43162   7
   3   6  -7 -5.9526 7.25931   5
   3   6  -7 -4.1968 7.73618   6
  -3   6   7 5.74501 10.7917   7
  -2  -6   7 106.663 15.0850   4
   2  -6  -7 110.725 16.6082   1
  -2  -6   7 113.531 12.2616   3
   2  -6  -7 95.7244 13.6097   6
   2  -6  -7 92.8590 13.4672   3
   2   6  -7 122.002 15.4855   6
   2   6  -7 109.234 14.6723   5
  -2   6   7 121.255 14.5496   7
   1  -6  -7 35.4374 11.2022   6
   1  -6  -7 39.7272 11.3541   3
  -1  -6   7 49.3511 8.80079   3
  -1  -6   7 40.1338 15.4599   4
  -1   6   7 52.1076 11.6804   7
   1   6  -7 45.4625 9.58248   5
   1   6  -7 27.4654 11.7635   6
   0  -6  -7 187.261 15.3022   6
   0  -6  -7 178.882 15.3254   3
   0  -6  -7 196.948 19.3740   4
   0  -6   7 226.289 15.7014   3
   0   6  -7 171.396 16.8657   6
   0   6   7 220.313 16.0450   7
   0   6  -7 190.140 16.2891   5
  -1  -6  -7 9.96797 9.36297   6
  -1  -6  -7 20.3651 13.2384   4
  -1  -6  -7 9.02966 10.0957   3
   1   6   7 -12.197 9.38669   7
  -1   6  -7 5.58806 7.49146   6
  -1   6  -7 14.9181 8.17097   5
  -2  -6  -7 48.3971 15.9217   4
  -2  -6  -7 58.5100 11.2643   6
  -2  -6  -7 96.0487 14.0392   3
   2   6   7 65.4248 12.5073   7
  -2   6  -7 78.7585 13.6996   5
  -2   6  -7 65.8243 10.2387   6
  -3  -6  -7 43.7081 10.6271   6
   3  -6   7 56.2395 12.1552   7
  -3  -6  -7 34.1909 9.42380   3
  -3  -6  -7 45.3839 17.0856   4
  -3   6  -7 40.0539 11.1210   6
  -3   6  -7 27.5920 9.25305   5
   3   6   7 52.8776 11.6143   7
  -4  -7   7 185.857 17.5180   3
  -4  -7   7 196.875 22.4768   4
   4  -7  -7 178.856 19.2656   6
   4  -7  -7 171.708 19.7368   7
  -4   7   7 191.011 17.5999   7
   4   7  -7 171.618 20.0183   6
   4   7  -7 186.229 16.9414   5
  -3  -7   7 97.1559 13.1892   3
  -3  -7   7 102.931 17.2622   4
   3  -7  -7 103.826 13.2287   6
   3  -7  -7 91.4416 14.7084   3
   3   7  -7 101.434 17.2799   6
   3   7  -7 91.9360 12.7200   5
  -3   7   7 110.413 14.0053   7
  -2  -7   7 7.70966 8.80297   3
   2  -7  -7 18.5856 11.4462   6
   2  -7  -7 -3.9435 10.6090   3
  -2   7   7 -3.7584 11.5588   7
   2   7  -7 9.36415 12.0659   5
   2   7  -7 -16.268 8.19835   6
   1  -7  -7 314.817 20.8527   6
  -1  -7   7 322.525 18.8919   3
   1  -7  -7 377.856 23.9975   3
   1   7  -7 331.724 21.9265   5
  -1   7   7 290.500 20.8211   7
   1   7  -7 315.624 21.3263   6
   0  -7  -7 139.586 17.1426   3
   0  -7  -7 152.068 17.2173   6
   0  -7  -7 229.475 21.6927   4
   0   7   7 200.909 17.1899   7
   0   7  -7 198.620 17.3357   6
   0   7  -7 183.679 19.2014   5
  10   0  -8 0.26777 11.3974   7
  10   0  -8 6.06812 11.0771   5
 -10   0   8 16.7750 8.85331   6
 -10   0   8 -1.4581 7.73804   2
  10   0  -8 -4.9903 15.5200   1
 -10   0   8 -0.3371 16.7560   4
  -9   0   8 21.1695 10.8035   6
   9   0  -8 -26.599 13.9171   1
   9   0  -8 3.73443 7.63772   7
  -9   0   8 5.63863 10.0430   2
  -9   0   8 4.99207 7.99788   7
   9   0  -8 -1.6250 7.63306   5
  -8   0   8 639.287 27.4090   2
   8   0  -8 652.387 28.5967   7
   8   0  -8 555.339 29.3242   5
   8   0  -8 644.917 36.8547   1
   8   0  -8 610.526 27.9350   6
  -8   0   8 611.323 29.3963   6
  -8   0   8 619.595 30.2102   7
  -7   0   8 3.32013 6.03991   2
   7   0  -8 -0.5975 9.07998   1
  -7   0   8 6.96239 7.47711   7
   7   0  -8 13.6578 9.94018   5
  -7   0   8 -2.6503 6.05242   6
   7   0  -8 -4.9520 9.37029   6
   7   0  -8 -3.1874 8.70494   7
   6   0  -8 723.066 30.5240   5
  -6   0   8 795.601 30.6795   2
  -6   0   8 802.864 31.7638   6
   6   0  -8 779.077 35.6008   1
   6   0  -8 746.355 30.9627   6
   6   0  -8 774.411 30.7973   7
  -6   0   8 734.987 32.7241   7
   5   0  -8 -0.7920 6.32375   6
   5   0  -8 6.91336 8.64849   5
  -5   0   8 -5.0826 6.84174   7
  -5   0   8 -3.0433 7.00865   6
   5   0  -8 -8.2611 7.18410   7
  -5   0   8 -6.3253 6.37939   2
   4   0  -8 788.543 28.3943   7
  -4   0   8 673.018 28.1581   7
  -4   0   8 657.049 27.1994   6
   4   0  -8 711.441 27.9670   5
   4   0  -8 672.930 29.3951   6
  -4   0   8 743.054 26.5062   2
   3   0  -8 2.90732 7.38809   5
   3   0  -8 -0.8765 7.50006   6
  -3   0   8 9.25559 8.29355   7
  -3   0   8 4.27395 3.69451   6
  -3   0   8 -4.6070 4.72584   2
   3   0  -8 -4.5715 3.44368   7
   2   0  -8 1117.86 38.8760   5
  -2   0   8 1150.40 36.1506   2
   2   0  -8 1153.96 36.5975   7
  -2   0   8 1133.85 38.7632   7
  -2   0   8 1109.78 36.6451   6
   2   0  -8 1126.16 39.3124   6
   1   0  -8 4.17054 4.27566   6
  -1   0   8 1.33839 2.49108   2
  -1   0   8 -5.1103 6.02475   7
   1   0  -8 -1.6776 4.33570   5
   0   0   8 205.529 12.0715   7
   0   0  -8 212.739 11.2168   5
   0   0  -8 187.903 11.2956   6
   0   0   8 191.853 7.29091   2
  -1   0  -8 -3.2960 3.71817   6
   1   0   8 -1.6241 3.92476   7
  -1   0  -8 6.51234 4.94937   5
  -2   0  -8 1086.51 37.3816   5
  -2   0  -8 1125.91 36.2845   6
   2   0   8 1239.74 36.6010   7
  -3   0  -8 6.73367 10.6755   4
  -3   0  -8 0.00387 2.54510   6
   3   0   8 2.43262 2.74639   7
   4   0   8 146.273 6.34295   7
  -4   0  -8 145.908 6.48069   6
  -4   0  -8 139.472 17.1259   4
  -5   0  -8 2.03409 1.74801   6
  -5   0  -8 -3.4442 11.7070   4
  -6   0  -8 158.179 19.4858   4
  10  -1  -8 -13.127 17.1948   1
 -10  -1   8 30.0032 11.9547   2
  10  -1  -8 18.9579 9.02386   5
 -10  -1   8 20.5660 9.20718   6
  10  -1  -8 11.8810 9.06102   7
 -10  -1   8 0.74379 18.2355   4
 -10   1   8 27.3748 12.0241   2
  10   1  -8 16.9396 11.5684   5
 -10   1   8 15.4408 16.3150   4
  10   1  -8 15.7020 9.38074   7
 -10   1   8 24.9116 12.4293   6
  -9  -1   8 192.071 17.1078   7
   9  -1  -8 201.003 21.4386   1
   9  -1  -8 187.105 16.1852   5
  -9  -1   8 234.801 19.8389   6
  -9  -1   8 224.624 17.8650   2
   9  -1  -8 180.981 16.3915   7
   9   1  -8 202.241 16.2473   5
   9   1  -8 159.446 15.5031   7
  -9   1   8 175.968 15.4978   2
  -9   1   8 176.124 16.1671   6
  -9   1   8 197.302 17.9210   7
   8  -1  -8 95.8980 14.0162   5
   8  -1  -8 116.403 12.9991   7
  -8  -1   8 102.759 12.7180   2
  -8  -1   8 122.080 12.7452   6
  -8  -1   8 103.883 14.7283   7
   8  -1  -8 121.136 16.5174   1
   8  -1  -8 142.663 13.1852   6
   8   1  -8 119.725 14.5778   6
  -8   1   8 124.827 14.9442   7
   8   1  -8 109.422 12.1784   5
  -8   1   8 118.323 12.1440   2
  -8   1   8 104.796 13.8450   6
   8   1  -8 116.638 14.3423   7
   7  -1  -8 35.4177 11.3292   5
   7  -1  -8 26.2968 10.6528   6
  -7  -1   8 16.4039 6.87217   2
   7  -1  -8 19.9667 14.5479   1
  -7  -1   8 15.7661 11.7522   7
   7  -1  -8 29.3443 8.29258   7
  -7  -1   8 13.0753 9.68331   6
  -7   1   8 31.7565 11.2364   7
  -7   1   8 30.4657 10.0668   6
  -7   1   8 14.5170 9.50001   2
   7   1  -8 31.2092 8.46593   7
   7   1  -8 29.2858 8.29448   5
   7   1  -8 24.3358 8.47527   6
  -6  -1   8 18.4789 11.1267   7
   6  -1  -8 35.9117 10.7075   5
  -6  -1   8 20.7738 8.27213   2
   6  -1  -8 28.3813 10.4267   6
   6  -1  -8 22.4375 10.1344   1
  -6  -1   8 42.7975 9.42841   6
   6  -1  -8 24.6721 10.0835   7
   6   1  -8 28.3473 8.33666   6
  -6   1   8 26.2048 8.48375   7
  -6   1   8 38.8456 9.36268   2
   6   1  -8 31.0070 7.76944   7
   6   1  -8 39.6050 10.0922   5
  -6   1   8 40.2022 9.74913   6
   5  -1  -8 935.572 35.4946   5
   5  -1  -8 943.340 35.6888   6
  -5  -1   8 960.175 33.2865   2
   5  -1  -8 936.139 34.9368   7
  -5  -1   8 924.413 35.3225   6
  -5  -1   8 984.713 37.8020   7
   5  -1  -8 922.957 41.2653   1
  -5   1   8 981.435 35.8826   6
   5   1  -8 911.065 36.8725   6
   5   1  -8 900.489 34.4653   7
  -5   1   8 958.601 35.8578   7
  -5   1   8 941.015 34.5581   2
   5   1  -8 918.300 36.2816   5
   4  -1  -8 66.1253 8.53728   5
  -4  -1   8 65.4576 8.75434   6
   4  -1  -8 50.9524 8.20274   6
   4  -1  -8 48.9510 10.0042   1
  -4  -1   8 47.5914 8.43104   7
   4   1  -8 57.8204 10.5865   6
  -4   1   8 60.1487 10.6159   7
   4   1  -8 64.6041 8.45973   5
   4   1  -8 69.5458 8.95433   7
   3  -1  -8 57.9184 9.60484   6
  -3  -1   8 68.5193 8.61673   7
   3  -1  -8 63.9524 8.10132   5
  -3  -1   8 69.1436 7.66726   6
  -3  -1   8 81.1575 6.91088   2
   3  -1  -8 53.4524 7.70562   7
   3   1  -8 58.9752 8.01946   5
   3   1  -8 61.8353 8.30907   6
  -3   1   8 78.0198 7.88996   2
  -3   1   8 68.0794 10.1290   7
   3   1  -8 66.0485 7.59801   7
  -3   1   8 75.4599 8.20227   6
  -2  -1   8 297.230 13.1174   6
   2  -1  -8 306.226 13.6601   7
   2  -1  -8 317.302 16.9521   5
  -2  -1   8 306.570 17.7217   7
   2  -1  -8 334.755 16.8066   6
  -2  -1   8 291.926 12.1420   2
   2   1  -8 293.109 12.9398   7
  -2   1   8 285.614 13.5989   2
   2   1  -8 297.556 16.9108   6
   2   1  -8 324.213 17.3265   5
  -2   1   8 296.640 13.5518   6
  -2   1   8 343.285 17.3852   7
   1  -1  -8 660.177 26.1360   5
   1  -1  -8 688.048 26.0913   6
  -1  -1   8 722.896 27.0721   7
  -1   1   8 719.858 26.4978   7
   1   1  -8 713.172 27.1159   5
  -1   1   8 687.130 23.2762   2
   1   1  -8 684.227 26.4860   6
   0  -1  -8 9.91525 5.15148   6
   0  -1   8 -1.2085 5.82298   7
   0  -1  -8 2.07192 5.27297   5
   0   1  -8 12.5818 6.37076   5
   0   1  -8 3.46388 5.62118   6
   0   1   8 14.5867 4.26912   7
  -1  -1  -8 187.488 9.69041   5
   1  -1   8 170.739 11.0670   7
  -1  -1  -8 189.215 11.1703   6
  -1   1  -8 200.772 10.9486   6
  -1   1  -8 212.112 12.5745   5
   1   1   8 190.716 10.8155   7
  -2  -1  -8 1208.79 38.2500   5
  -2  -1  -8 1183.13 46.7036   4
   2  -1   8 1239.97 38.6660   7
  -2  -1  -8 1161.74 38.1538   6
  -2   1  -8 1254.92 38.6235   6
  -2   1  -8 1163.15 39.6578   5
   2   1   8 1215.78 38.3471   7
  -3  -1  -8 256.337 11.1488   6
   3   1   8 281.661 10.9666   7
  -3   1  -8 271.183 13.5835   5
  -4  -1  -8 212.947 19.8106   4
  -4  -1  -8 228.642 9.40671   6
   4  -1   8 211.611 9.06903   7
  -4   1  -8 217.050 8.95139   6
   4   1   8 209.867 9.07398   7
  -5  -1  -8 93.7102 16.6831   4
  -5  -1  -8 63.4454 4.97230   6
  -5   1  -8 69.7065 4.81732   6
  -6  -1  -8 272.231 10.1693   6
  -6  -1  -8 259.432 27.3386   4
  -6   1  -8 246.098 24.1426   4
 -10  -2   8 273.647 20.4636   6
  10  -2  -8 281.819 23.3504   7
  10  -2  -8 330.725 31.3422   1
 -10  -2   8 385.930 39.7840   4
 -10   2   8 399.619 33.5507   4
 -10   2   8 267.133 21.8260   2
 -10   2   8 254.679 22.3516   6
  10   2  -8 291.543 21.3628   7
  10   2  -8 260.734 18.9981   5
   9  -2  -8 105.799 17.8418   1
   9  -2  -8 95.7992 12.8735   7
  -9  -2   8 94.2457 12.9951   7
  -9  -2   8 100.651 14.0638   2
  -9  -2   8 122.241 30.3472   4
  -9  -2   8 95.4602 12.7498   6
  -9   2   8 99.6345 14.8848   6
  -9   2   8 104.615 14.7909   2
  -9   2   8 101.703 12.2127   7
   9   2  -8 78.2690 14.4138   7
   9   2  -8 120.618 14.3365   5
  -8  -2   8 68.0945 11.2331   7
  -8  -2   8 45.2626 8.87148   2
   8  -2  -8 61.6372 14.3488   1
   8  -2  -8 54.3843 12.0595   6
  -8  -2   8 50.7857 12.1363   6
   8  -2  -8 67.0867 13.0962   7
  -8   2   8 48.1236 9.91290   7
  -8   2   8 34.9149 9.22401   6
   8   2  -8 53.4535 9.81588   7
  -8   2   8 42.7377 11.9125   2
   8   2  -8 46.7410 12.3828   6
   8   2  -8 47.6490 11.6425   5
   7  -2  -8 401.385 24.0623   6
  -7  -2   8 419.415 20.7396   2
  -7  -2   8 414.431 23.7453   6
   7  -2  -8 399.163 27.6853   1
   7  -2  -8 411.426 22.4337   7
  -7  -2   8 439.474 23.3326   7
  -7   2   8 424.598 22.5445   7
  -7   2   8 439.573 24.0978   6
   7   2  -8 435.040 21.9581   5
  -7   2   8 448.338 23.6733   2
   7   2  -8 436.043 24.7771   6
   7   2  -8 477.319 24.8484   7
  -6  -2   8 400.611 21.0479   6
   6  -2  -8 347.264 19.2833   7
   6  -2  -8 343.324 28.5226   1
   6  -2  -8 373.900 21.6444   6
  -6  -2   8 404.041 24.0986   7
  -6  -2   8 360.819 17.7619   2
  -6   2   8 364.151 20.8617   6
  -6   2   8 315.341 19.6652   7
   6   2  -8 352.928 19.1751   7
  -6   2   8 341.685 18.3223   2
   6   2  -8 358.519 22.2099   6
   6   2  -8 334.608 21.2070   5
  -5  -2   8 112.840 10.4573   2
  -5  -2   8 124.949 12.1323   6
   5  -2  -8 108.612 12.8881   6
   5  -2  -8 123.126 16.8010   1
   5  -2  -8 132.622 13.0281   7
  -5  -2   8 96.0751 11.7249   7
  -5   2   8 107.087 9.90850   2
   5   2  -8 98.7462 10.1452   7
   5   2  -8 103.902 11.3689   6
   5   2  -8 113.027 12.8362   5
  -5   2   8 104.133 10.3987   6
  -5   2   8 110.217 11.4814   7
   4  -2  -8 564.460 25.9697   6
  -4  -2   8 548.047 23.9469   6
  -4  -2   8 539.069 25.0830   7
   4  -2  -8 594.751 25.2533   7
   4  -2  -8 572.815 28.1987   1
   4   2  -8 636.033 25.0676   5
  -4   2   8 564.787 26.5796   7
   4   2  -8 549.258 22.9853   7
  -4   2   8 558.378 24.3079   6
   4   2  -8 520.055 26.1127   6
  -4   2   8 599.528 24.2604   2
   3  -2  -8 1123.48 45.5002   1
   3  -2  -8 1211.04 42.2754   6
   3  -2  -8 1160.65 40.8285   7
  -3  -2   8 1203.72 42.1312   7
  -3  -2   8 1173.85 40.0469   6
  -3   2   8 1209.74 42.4464   7
  -3   2   8 1175.62 40.6861   6
  -3   2   8 1120.81 39.8401   2
   3   2  -8 1187.91 40.0148   7
   3   2  -8 1279.15 42.3996   6
   3   2  -8 1160.07 41.4173   5
  -2  -2   8 11.6177 6.52337   7
   2  -2  -8 6.73984 7.11269   6
   2  -2  -8 16.7457 9.19662   1
   2  -2  -8 11.4047 5.27041   7
   2   2  -8 16.4813 8.17610   5
   2   2  -8 10.0729 8.11223   6
   2   2  -8 10.6696 4.44448   7
  -2   2   8 16.5978 7.81638   7
   1  -2  -8 236.850 14.3072   5
  -1  -2   8 232.358 16.0775   7
   1  -2  -8 207.399 13.9451   6
   1   2  -8 225.214 13.5583   5
   1   2  -8 251.553 13.5200   6
  -1   2   8 230.950 13.1443   7
   0  -2  -8 575.484 22.5101   6
   0  -2   8 531.358 22.2619   7
   0  -2  -8 557.372 22.0656   5
   0   2  -8 587.039 24.2212   5
   0   2  -8 583.765 23.1045   6
   0   2   8 587.045 22.8105   7
  -1  -2  -8 967.228 35.3140   3
  -1  -2  -8 942.312 32.8852   6
  -1  -2  -8 960.557 32.0192   5
  -1  -2  -8 944.640 39.8595   4
   1  -2   8 969.738 32.9631   7
  -1   2  -8 1004.15 33.4950   6
   1   2   8 979.828 33.1142   7
  -1   2  -8 943.067 34.6382   5
  -2  -2  -8 668.581 26.7207   3
  -2  -2  -8 682.310 32.3274   4
  -2  -2  -8 633.775 23.6453   6
   2  -2   8 683.396 24.2956   7
  -2   2  -8 658.827 24.3394   6
  -2   2  -8 615.131 25.0230   5
   2   2   8 682.704 23.8952   7
  -3  -2  -8 16.0653 7.22491   3
  -3  -2  -8 6.61582 4.63168   6
  -3  -2  -8 3.56505 12.3436   4
   3  -2   8 6.96194 4.49407   7
  -3   2  -8 10.8171 4.99109   6
   3   2   8 11.0420 4.31647   7
  -3   2  -8 18.0625 6.90160   5
  -4  -2  -8 884.534 29.3393   6
  -4  -2  -8 909.458 43.3673   4
  -4  -2  -8 811.873 32.6925   3
  -4   2  -8 869.889 31.3322   5
  -4   2  -8 873.541 29.2743   6
   4   2   8 926.239 29.7238   7
  -5  -2  -8 1186.35 38.4870   6
  -5  -2  -8 1265.07 54.2185   4
   5   2   8 1202.71 38.3549   7
  -5   2  -8 1171.52 38.0432   6
  -6  -2  -8 867.931 46.0771   4
  -6  -2  -8 855.338 28.6071   6
  -6   2  -8 824.311 27.9590   6
   9  -3  -8 445.583 26.2735   7
  -9  -3   8 507.799 28.2445   6
  -9  -3   8 464.531 47.6934   4
   9  -3  -8 493.911 33.8507   1
   9   3  -8 483.303 24.8043   5
  -9   3   8 489.705 28.1270   2
   9   3  -8 483.709 28.9129   7
   8  -3  -8 27.4319 9.44989   7
   8  -3  -8 42.5058 12.0422   6
  -8  -3   8 57.6041 20.9087   4
  -8  -3   8 44.9193 9.64302   6
   8  -3  -8 52.0298 19.5667   1
   8   3  -8 57.7812 12.8735   6
  -8   3   8 30.2953 11.4650   2
  -8   3   8 50.1200 12.1928   7
   8   3  -8 31.9258 9.26316   7
   8   3  -8 34.7316 11.8934   5
   7  -3  -8 63.5297 10.2860   6
   7  -3  -8 69.0289 13.3453   7
  -7  -3   8 63.3269 10.2195   6
  -7  -3   8 75.3304 12.1978   7
   7  -3  -8 66.1500 18.4874   1
   7   3  -8 82.6833 12.8450   7
   7   3  -8 58.3689 13.0207   6
  -7   3   8 61.6331 9.84489   2
   7   3  -8 76.5353 12.8017   5
  -7   3   8 68.5506 13.4429   7
   6  -3  -8 1491.56 52.9269   6
   6  -3  -8 1441.27 57.7486   1
  -6  -3   8 1510.04 53.3858   6
   6  -3  -8 1435.63 53.5801   7
  -6  -3   8 1530.71 55.0688   7
   6   3  -8 1478.51 53.0972   5
  -6   3   8 1505.44 54.1690   7
   6   3  -8 1565.19 52.8127   7
   6   3  -8 1481.73 53.4067   6
  -6   3   8 1455.21 52.4517   2
  -5  -3   8 1036.94 39.3180   6
   5  -3  -8 1078.50 40.5101   7
  -5  -3   8 1057.79 42.0282   7
   5  -3  -8 1107.53 46.7527   1
   5  -3  -8 994.829 39.2321   6
  -5   3   8 1030.78 40.8272   7
   5   3  -8 1025.25 39.9030   6
   5   3  -8 1061.41 38.8301   7
  -5   3   8 1023.89 38.0079   2
   5   3  -8 1082.44 40.4313   5
   4  -3  -8 804.932 31.9804   6
   4  -3  -8 789.911 31.2236   7
  -4  -3   8 834.258 31.5215   6
   4  -3  -8 753.334 37.3966   1
  -4  -3   8 856.912 34.9759   7
  -4   3   8 797.878 32.1843   7
   4   3  -8 801.276 31.8838   5
   4   3  -8 794.355 33.7962   6
   4   3  -8 842.795 31.7739   7
   3  -3  -8 73.5353 9.36800   6
  -3  -3   8 96.4140 10.9573   7
   3  -3  -8 94.6569 10.6174   7
   3  -3  -8 65.1889 13.0132   1
  -3  -3   8 72.0319 8.57340   6
   3   3  -8 74.2521 9.92643   6
   3   3  -8 80.0557 11.4584   5
  -3   3   8 84.3783 9.74641   7
   3   3  -8 85.5736 9.14510   7
   2  -3  -8 753.014 28.0580   7
   2  -3  -8 676.302 31.9640   1
  -2  -3   8 746.749 29.2212   7
   2  -3  -8 734.080 29.5393   6
  -2   3   8 720.111 28.4081   7
   2   3  -8 726.412 28.7957   5
   2   3  -8 702.380 28.8142   6
   1  -3  -8 1897.58 61.8426   3
  -1  -3   8 1840.05 61.3728   7
   1  -3  -8 1837.41 60.6104   6
   1   3  -8 1833.31 61.5376   5
   1   3  -8 1858.51 61.2458   6
  -1   3   8 1862.85 60.8022   7
   0  -3  -8 1430.83 47.3591   6
   0  -3  -8 1439.99 48.8735   3
   0  -3   8 1413.64 47.2814   7
   0  -3  -8 1326.43 45.6991   5
   0   3   8 1431.54 46.8273   7
   0   3  -8 1373.95 48.3957   5
   0   3  -8 1395.59 47.6812   6
  -1  -3  -8 32.6404 6.83943   6
  -1  -3  -8 36.7234 5.72670   5
  -1  -3  -8 32.0926 10.0248   4
  -1  -3  -8 26.0164 6.76494   3
   1  -3   8 34.5628 8.30682   7
   1   3   8 35.7243 7.25313   7
  -1   3  -8 28.4653 6.83653   5
  -1   3  -8 30.9090 7.37915   6
  -2  -3  -8 62.2549 7.86707   6
  -2  -3  -8 99.3897 11.1984   3
  -2  -3  -8 79.5689 12.9846   4
  -2   3  -8 100.842 10.9319   5
   2   3   8 118.141 10.6720   7
  -2   3  -8 114.692 10.1542   6
  -3  -3  -8 1691.87 65.3884   4
  -3  -3  -8 1621.14 56.0820   3
  -3  -3  -8 1669.59 53.8306   6
  -3   3  -8 1660.81 53.7153   6
   3   3   8 1699.15 53.9499   7
  -3   3  -8 1676.20 56.0963   5
  -4  -3  -8 281.576 13.8302   6
  -4  -3  -8 266.936 28.5662   4
  -4  -3  -8 275.681 17.5885   3
  -4   3  -8 286.476 17.2947   5
   4   3   8 272.735 14.0804   7
  -4   3  -8 247.031 14.4432   6
  -5  -3  -8 41.7076 13.2458   4
  -5  -3  -8 20.5274 6.28343   6
  -5  -3  -8 4.23631 7.94206   3
   5   3   8 25.0474 5.79557   7
  -5   3  -8 23.9210 5.51607   6
   9  -4  -8 68.5901 18.2995   1
  -9  -4   8 55.4280 30.4039   4
   9  -4  -8 54.7951 14.8325   7
  -9  -4   8 51.9797 15.1367   3
  -9  -4   8 43.2294 14.2034   6
   9   4  -8 42.5888 14.2538   7
  -9   4   8 37.4878 10.7580   2
   9   4  -8 34.3504 12.6366   5
  -8  -4   8 1351.32 68.8546   4
   8  -4  -8 1331.93 51.7806   7
  -8  -4   8 1390.91 52.1409   6
   8  -4  -8 1413.27 62.1412   1
   8   4  -8 1370.48 53.7806   6
   8   4  -8 1370.47 53.3695   7
  -8   4   8 1386.06 52.6856   7
  -8   4   8 1323.33 50.5579   2
   8   4  -8 1358.55 51.4879   5
  -7  -4   8 597.036 30.0701   6
   7  -4  -8 608.192 30.0203   6
   7  -4  -8 575.271 39.0649   1
  -7  -4   8 530.123 48.4370   4
   7  -4  -8 601.655 28.8399   7
   7   4  -8 584.039 27.6867   5
   7   4  -8 540.007 30.7947   6
  -7   4   8 615.238 28.7799   7
  -7   4   8 603.518 29.7182   2
   7   4  -8 646.977 29.0890   7
   6  -4  -8 370.081 23.5195   7
   6  -4  -8 346.281 22.6637   6
   6  -4  -8 351.593 31.5145   1
  -6  -4   8 347.607 20.0779   6
   6   4  -8 384.038 24.3382   6
   6   4  -8 347.189 22.5846   7
   6   4  -8 356.981 20.6639   5
  -6   4   8 344.195 20.0065   2
  -6   4   8 383.645 21.6738   7
   5  -4  -8 55.9287 15.6625   1
   5  -4  -8 63.9495 11.9340   6
   5  -4  -8 52.4246 10.9906   7
   5   4  -8 57.0341 9.13964   5
  -5   4   8 20.6563 8.35493   7
   4  -4  -8 2147.10 69.1620   7
   4  -4  -8 1947.48 72.7280   1
   4  -4  -8 2161.79 70.6129   6
  -4  -4   8 2011.31 68.1165   6
   4   4  -8 2067.10 70.9544   6
   4   4  -8 2058.90 68.7055   7
   4   4  -8 2186.51 69.8798   5
  -4   4   8 2127.95 70.6137   7
   3  -4  -8 668.258 28.1653   7
   3  -4  -8 683.179 29.6450   6
   3  -4  -8 594.408 32.8830   1
   3   4  -8 664.188 30.0084   6
   3   4  -8 675.808 26.9516   7
  -3   4   8 663.503 29.7865   7
   3   4  -8 622.481 27.6327   5
   2  -4  -8 924.965 36.3039   3
   2  -4  -8 890.783 38.1661   1
   2  -4  -8 933.999 36.0268   6
  -2   4   8 936.351 36.5715   7
   2   4  -8 932.320 35.8458   6
   2   4  -8 936.249 35.8371   5
   1  -4  -8 148.360 14.0134   1
   1  -4  -8 173.304 14.5755   6
   1  -4  -8 161.612 14.1712   3
   1   4  -8 159.434 13.0413   5
   1   4  -8 166.397 14.3533   6
  -1   4   8 151.207 13.6436   7
   0  -4  -8 303.488 24.4685   4
   0  -4  -8 283.869 17.1563   6
   0  -4  -8 281.721 18.6373   3
   0   4  -8 271.961 16.6912   5
   0   4  -8 248.762 17.5875   6
   0   4   8 286.211 17.7323   7
  -1  -4  -8 257.670 18.5264   3
  -1  -4  -8 277.070 16.5508   6
  -1  -4  -8 271.609 21.7180   4
  -1   4  -8 285.739 18.8687   5
   1   4   8 260.610 16.8953   7
  -1   4  -8 261.052 16.8352   6
  -2  -4  -8 1144.75 42.8723   3
  -2  -4  -8 1160.89 41.4585   6
  -2  -4  -8 1203.42 51.5630   4
  -2   4  -8 1196.44 42.7674   5
   2   4   8 1170.37 41.6807   7
  -2   4  -8 1177.58 41.8213   6
  -3  -4  -8 160.952 12.7882   6
  -3  -4  -8 173.973 19.1941   4
  -3  -4  -8 176.099 15.2805   3
  -3   4  -8 207.065 15.9883   5
   3   4   8 180.165 14.0609   7
  -3   4  -8 169.399 13.4259   6
  -4  -4  -8 56.9879 8.29216   6
  -4  -4  -8 58.2018 11.5615   3
  -4  -4  -8 82.8062 15.4271   4
  -4   4  -8 50.5882 8.53369   6
  -4   4  -8 62.6893 11.2372   5
   4   4   8 57.8631 8.65281   7
  -7  -5   8 211.326 19.2325   6
  -7  -5   8 206.558 17.4513   3
   7  -5  -8 241.070 24.7960   1
   7  -5  -8 218.851 19.5822   6
  -7  -5   8 262.416 27.5368   4
   7  -5  -8 192.847 17.9513   7
   7   5  -8 260.006 21.6056   5
   7   5  -8 176.676 16.7335   7
  -7   5   8 205.936 18.5377   2
   7   5  -8 227.694 20.7400   6
  -7   5   8 210.082 18.5020   7
   6  -5  -8 106.757 17.7977   1
   6  -5  -8 121.579 15.5002   6
  -6  -5   8 92.1218 25.9471   4
  -6  -5   8 129.832 15.8393   3
  -6  -5   8 121.803 13.2009   6
   6  -5  -8 122.223 15.6333   7
   6   5  -8 110.998 13.0903   5
  -6   5   8 111.253 13.1915   7
   6   5  -8 92.7450 14.1298   7
   6   5  -8 107.723 14.1271   6
  -5  -5   8 594.518 45.2964   4
  -5  -5   8 587.073 27.4247   3
   5  -5  -8 590.332 29.7673   6
   5  -5  -8 613.545 37.4639   1
   5  -5  -8 624.113 29.8214   7
   5   5  -8 605.009 27.4126   7
   5   5  -8 608.012 31.4411   6
   5   5  -8 591.689 28.0213   5
  -5   5   8 586.492 28.5984   7
  -4  -5   8 73.4347 10.2537   3
   4  -5  -8 75.4589 12.0213   7
   4  -5  -8 98.7475 17.6957   1
   4  -5  -8 84.8066 11.1592   6
   4   5  -8 71.0241 14.1791   6
   4   5  -8 67.2608 10.6399   5
  -4   5   8 69.1662 11.1683   7
   4   5  -8 78.6761 11.4471   7
   3  -5  -8 -9.0649 12.0669   1
  -3  -5   8 2.77041 8.82025   3
   3  -5  -8 -3.1952 6.47604   6
   3   5  -8 -8.8891 9.94169   5
  -3   5   8 6.69381 7.47694   7
   3   5  -8 -19.587 10.1116   6
   2  -5  -8 25.3926 8.19780   3
   2  -5  -8 31.6159 10.5183   6
   2  -5  -8 51.2774 12.3238   1
  -2  -5   8 29.8530 8.90054   3
   2   5  -8 43.9292 9.53166   6
  -2   5   8 29.5252 10.7990   7
   1  -5  -8 652.267 29.4657   6
  -1  -5   8 676.696 26.4259   3
   1  -5  -8 648.609 28.6156   3
  -1   5   8 638.673 29.7943   7
   1   5  -8 635.121 30.2256   6
   1   5  -8 673.891 31.1430   5
   0  -5   8 7.43472 5.95930   3
   0  -5  -8 17.2399 9.30198   4
   0  -5  -8 17.3113 10.3087   3
   0  -5  -8 8.84773 6.36932   6
   0   5  -8 -5.6472 6.86796   5
   0   5   8 7.18056 6.52381   7
   0   5  -8 11.1323 7.19549   6
  -1  -5  -8 71.3326 12.2513   3
  -1  -5  -8 63.9269 13.0676   4
  -1  -5  -8 73.5890 10.8642   6
   1   5   8 60.3563 10.9089   7
  -1   5  -8 69.5708 11.4006   6
  -1   5  -8 52.1053 11.6571   5
  -2  -5  -8 61.1014 10.1434   6
  -2  -5  -8 68.8627 17.2121   4
  -2  -5  -8 64.0233 12.3756   3
  -2   5  -8 59.2062 9.84628   5
   2   5   8 49.1134 8.57557   7
  -2   5  -8 68.1328 10.8249   6
  -3  -5  -8 127.383 17.7944   4
  -3  -5  -8 114.520 14.7731   3
  -3  -5  -8 135.283 12.4649   6
  -3   5  -8 99.8023 12.1257   5
   3   5   8 84.8419 10.1510   7
  -3   5  -8 100.478 12.2010   6
   6  -6  -8 12.4185 8.87128   7
  -6  -6   8 19.1227 21.0746   4
   6  -6  -8 11.5614 12.4395   6
   6  -6  -8 29.7551 14.2717   1
  -6  -6   8 24.4609 12.4584   3
   6   6  -8 10.4396 8.96787   5
  -6   6   8 4.57901 9.44008   7
   6   6  -8 10.1751 13.6206   6
   6   6  -8 4.63829 11.2970   7
   5  -6  -8 66.4976 13.5483   6
  -5  -6   8 37.3230 14.9241   4
   5  -6  -8 77.6180 18.7845   1
  -5  -6   8 26.9327 11.8330   3
   5  -6  -8 38.9384 9.47396   7
   5   6  -8 19.4255 13.4913   6
  -5   6   8 18.4830 9.69322   7
   5   6  -8 60.4309 10.3809   5
   4  -6  -8 55.2440 13.7652   1
  -4  -6   8 36.3318 11.4926   3
   4  -6  -8 32.6053 9.44741   6
  -4  -6   8 44.7282 19.9498   4
  -4   6   8 37.1390 9.97959   7
   4   6  -8 28.5595 9.52963   5
   4   6  -8 39.7601 13.8842   6
  -3  -6   8 19.9229 10.0245   3
   3  -6  -8 15.5941 8.40778   6
   3  -6  -8 9.94634 9.73340   1
   3  -6  -8 16.9083 10.4937   3
  -3  -6   8 -16.700 17.6753   4
  -3   6   8 12.4832 11.6837   7
   3   6  -8 7.03515 11.6539   5
   3   6  -8 6.75337 12.1616   6
   2  -6  -8 110.048 14.8542   6
   2  -6  -8 86.2351 13.5414   3
  -2  -6   8 86.4078 11.3691   3
   2  -6  -8 105.507 17.1250   1
   2   6  -8 96.3545 12.9940   6
   2   6  -8 99.9117 12.6759   5
  -2   6   8 78.9975 11.5356   7
  -1  -6   8 213.016 14.7900   3
   1  -6  -8 227.356 18.5161   3
   1  -6  -8 206.806 18.7819   6
  -1   6   8 193.574 17.4216   7
   1   6  -8 203.178 16.8333   6
   1   6  -8 212.030 18.6630   5
   0  -6  -8 4.64308 7.80869   3
   0  -6  -8 -3.5349 6.61194   6
   0  -6  -8 8.69393 13.2299   4
   0   6  -8 4.82449 11.4468   5
   0   6  -8 -10.234 10.4502   6
   0   6   8 1.81051 7.15329   7
  -1  -6  -8 91.7340 13.3242   6
  -1  -6  -8 113.803 18.6213   4
  -1  -6  -8 88.8724 12.0984   3
  -1   6  -8 99.6857 12.7566   5
   1   6   8 98.0690 13.5062   7
  -1   6  -8 110.536 12.4659   6
  -2  -6  -8 -3.9664 8.90489   6
  10   0  -9 -1.0583 12.3140   7
  10   0  -9 14.4119 12.8654   1
 -10   0   9 18.0966 11.8910   6
  10   0  -9 -1.7421 11.7010   5
 -10   0   9 -10.107 7.42868   2
   9   0  -9 1145.10 45.7859   7
  -9   0   9 1076.81 42.9071   7
  -9   0   9 1060.35 43.1621   6
   9   0  -9 1074.43 49.2947   1
  -9   0   9 1069.67 43.3516   2
   9   0  -9 1100.77 43.0233   5
   9   0  -9 1108.32 44.6875   6
   8   0  -9 22.6403 11.3310   6
   8   0  -9 -8.7694 14.6405   1
   8   0  -9 -7.1114 10.2933   7
   8   0  -9 -3.8806 7.66492   5
  -8   0   9 -6.6660 6.64879   6
  -8   0   9 -6.3983 11.0766   7
  -8   0   9 -4.5643 9.35325   2
  -7   0   9 1140.99 44.3339   7
  -7   0   9 1119.28 43.1130   6
   7   0  -9 1068.45 41.9144   7
  -7   0   9 1127.49 41.8000   2
   7   0  -9 1105.64 42.1815   5
   7   0  -9 1131.26 42.8339   6
  -6   0   9 0.20902 7.73369   2
   6   0  -9 -16.873 9.02090   5
  -6   0   9 -11.070 7.61279   6
  -6   0   9 -8.4420 7.04209   7
   6   0  -9 -2.3660 5.76783   7
   6   0  -9 -3.1461 6.60359   6
   5   0  -9 20.0919 7.67917   6
  -4   0   9 6.74602 6.09421   6
  -4   0   9 1.80467 5.88044   2
   4   0  -9 -3.7608 6.47823   7
   4   0  -9 -2.9010 6.29457   6
   4   0  -9 -4.2318 8.73539   5
  -4   0   9 -1.7866 6.61332   7
  -3   0   9 3893.57 114.380   2
   3   0  -9 3837.87 117.693   6
  -3   0   9 3816.70 117.241   7
   3   0  -9 3759.83 115.016   7
   3   0  -9 3764.54 117.285   5
  -2   0   9 -6.3366 3.40446   2
   2   0  -9 8.43453 7.39503   5
  -2   0   9 3.33265 5.42220   7
   2   0  -9 3.06774 5.18490   6
   1   0  -9 3.16244 6.63486   5
   1   0  -9 4.24032 6.43630   6
  -1   0   9 -7.0919 4.55945   7
  -1   0   9 2.78175 3.05593   2
   0   0  -9 -2.0319 5.31719   6
   0   0  -9 0.33602 5.82232   5
   0   0   9 -3.2418 5.64491   7
  -1   0  -9 742.772 27.1334   5
   1   0   9 736.084 26.4020   7
  -1   0  -9 744.766 26.3603   6
  -2   0  -9 0.08684 4.66611   5
   2   0   9 -2.4813 4.56033   7
  -2   0  -9 1.29627 3.66060   6
   3   0   9 224.625 10.8177   7
  -3   0  -9 239.791 10.7593   6
   4   0   9 4.48931 2.87116   7
  -4   0  -9 0.58299 3.07354   6
  -5   0  -9 354.321 12.6680   6
  -5   0  -9 389.837 29.1978   4
 -10  -1   9 486.896 26.8539   6
 -10  -1   9 539.987 29.1847   2
  10  -1  -9 506.814 27.3585   5
  10  -1  -9 526.998 30.4280   7
 -10  -1   9 522.841 41.2966   4
  10  -1  -9 497.899 33.5233   1
 -10   1   9 507.622 27.3605   6
  10   1  -9 489.180 28.8555   5
 -10   1   9 488.686 29.2057   2
  10   1  -9 457.704 29.8124   7
   9  -1  -9 100.003 13.3615   7
   9  -1  -9 87.8234 16.6244   1
   9  -1  -9 149.338 16.8069   5
  -9  -1   9 135.676 14.3814   7
  -9  -1   9 90.7026 12.3828   6
  -9  -1   9 86.6533 13.8511   2
   9  -1  -9 111.773 15.9121   6
  -9   1   9 135.640 13.3296   2
  -9   1   9 126.895 15.8132   6
   9   1  -9 104.942 15.7868   7
  -9   1   9 102.017 15.5257   7
   9   1  -9 97.3795 18.5108   6
   9   1  -9 126.658 13.6094   5
   8  -1  -9 52.1046 14.0966   1
   8  -1  -9 48.2736 12.5985   6
   8  -1  -9 32.7462 9.49540   7
  -8  -1   9 51.9055 12.0034   6
   8  -1  -9 62.2529 10.7301   5
  -8  -1   9 59.1251 11.0770   7
  -8  -1   9 48.8308 8.85397   2
  -8   1   9 48.7962 10.2953   7
  -8   1   9 51.9311 12.0482   2
   8   1  -9 49.0984 12.7731   6
   8   1  -9 55.7157 10.3203   5
  -8   1   9 56.7713 12.6215   6
   8   1  -9 50.1766 10.1229   7
   7  -1  -9 25.1728 8.26470   7
   7  -1  -9 34.9924 9.05826   5
  -7  -1   9 16.5505 6.85289   2
   7  -1  -9 33.0384 8.85825   6
  -7  -1   9 28.7760 8.04140   6
  -7  -1   9 22.6746 12.0798   7
   7  -1  -9 30.7980 15.0886   1
  -7   1   9 51.7118 12.4021   7
  -7   1   9 31.2556 10.3397   6
   7   1  -9 32.2840 10.9335   7
   7   1  -9 36.6542 11.7640   6
  -7   1   9 21.0321 7.48288   2
   7   1  -9 20.8747 8.39014   5
   6  -1  -9 1240.33 45.5902   7
  -6  -1   9 1234.44 45.1671   6
   6  -1  -9 1232.23 52.1712   1
   6  -1  -9 1214.38 46.1778   5
   6  -1  -9 1244.41 46.6739   6
  -6  -1   9 1240.81 45.5533   7
  -6  -1   9 1241.26 43.4090   2
   6   1  -9 1270.33 44.6492   7
   6   1  -9 1247.63 46.8222   6
  -6   1   9 1203.46 44.3459   6
  -6   1   9 1239.20 43.2568   2
   6   1  -9 1216.93 44.8175   5
  -6   1   9 1150.53 44.8773   7
  -5  -1   9 297.645 19.1571   7
   5  -1  -9 397.198 18.6211   7
   5  -1  -9 384.381 19.5213   5
  -5  -1   9 303.364 18.3749   6
   5  -1  -9 396.178 27.8128   1
  -5  -1   9 321.814 17.2688   2
   5  -1  -9 263.766 17.6954   6
  -5   1   9 354.642 22.1355   7
   5   1  -9 285.833 18.4339   6
  -5   1   9 326.883 17.3407   6
  -5   1   9 356.005 18.6033   2
   5   1  -9 345.974 18.7207   5
   5   1  -9 344.953 17.6106   7
   4  -1  -9 160.384 12.6655   7
   4  -1  -9 151.168 13.8126   6
   4  -1  -9 132.647 11.9578   5
  -4  -1   9 139.995 10.4843   6
  -4  -1   9 145.940 14.5403   7
  -4  -1   9 137.461 10.9568   2
  -4   1   9 142.460 12.3874   7
  -4   1   9 118.408 9.99424   2
   4   1  -9 137.173 12.0455   5
  -4   1   9 143.990 10.7643   6
   4   1  -9 137.226 13.9253   6
   4   1  -9 141.609 12.7469   7
  -3  -1   9 636.153 26.9571   7
   3  -1  -9 697.901 28.2963   6
   3  -1  -9 651.734 24.7991   7
  -3  -1   9 668.868 23.7711   2
   3  -1  -9 662.724 28.2646   5
   3   1  -9 644.328 27.0721   5
   3   1  -9 666.503 24.4517   7
   3   1  -9 661.900 27.2670   6
  -3   1   9 691.701 28.9159   7
  -3   1   9 674.153 24.9074   2
  -2  -1   9 1316.91 46.8155   7
  -2  -1   9 1382.61 42.9458   2
   2  -1  -9 1425.74 47.1502   6
   2  -1  -9 1377.29 47.4638   5
   2   1  -9 1374.63 47.8473   5
   2   1  -9 1478.39 47.6209   6
  -2   1   9 1370.63 44.3335   2
  -2   1   9 1374.17 46.8443   7
  -1  -1   9 15.2209 7.66712   7
   1  -1  -9 13.4270 6.73677   6
   1  -1  -9 12.0600 6.60980   5
  -1   1   9 16.9943 7.41918   7
   1   1  -9 21.7821 7.76670   5
   1   1  -9 8.70032 7.09258   6
  -1   1   9 13.4440 4.83866   2
   0  -1   9 419.490 18.7087   7
   0  -1  -9 381.217 17.6662   5
   0  -1  -9 378.106 17.3401   6
   0   1  -9 403.002 17.7167   5
   0   1  -9 367.584 17.7572   6
   0   1   9 393.149 17.9502   7
   0   1   9 377.387 14.1249   2
   1  -1   9 815.948 28.9045   7
  -1  -1  -9 822.825 28.5603   6
  -1  -1  -9 803.039 27.9812   5
   1   1   9 803.846 28.5511   7
  -1   1  -9 805.674 29.9497   5
  -1   1  -9 811.063 28.8766   6
   2  -1   9 599.139 21.9291   7
  -2  -1  -9 552.841 21.4203   6
   2   1   9 589.015 21.6170   7
  -2   1  -9 593.664 22.2696   6
  -2   1  -9 638.948 23.9017   5
   3  -1   9 165.414 9.17823   7
  -3  -1  -9 161.239 9.35407   6
  -3  -1  -9 164.666 19.3305   4
   3   1   9 156.990 8.94562   7
  -3   1  -9 160.127 9.49565   6
  -4  -1  -9 384.724 14.8631   6
   4  -1   9 378.770 14.6061   7
  -4  -1  -9 388.849 26.2336   4
  -4   1  -9 365.363 14.6376   6
   4   1   9 399.362 14.7140   7
  -5  -1  -9 92.3975 18.3577   4
  -5  -1  -9 85.4731 6.24355   6
  -5   1  -9 86.4606 5.78832   6
   9  -2  -9 189.171 18.9160   7
  -9  -2   9 168.879 16.6451   2
  -9  -2   9 190.523 16.9020   6
   9  -2  -9 185.380 22.2245   1
  -9  -2   9 163.359 16.4805   7
  -9   2   9 169.135 17.5971   2
  -9   2   9 164.166 17.7615   7
   9   2  -9 179.007 18.4517   7
   9   2  -9 158.128 15.0648   5
  -9   2   9 179.222 18.2353   6
   8  -2  -9 142.199 16.3039   7
  -8  -2   9 113.163 14.0396   7
  -8  -2   9 106.689 13.3565   2
   8  -2  -9 124.470 13.5388   6
  -8  -2   9 103.689 14.5510   6
   8  -2  -9 102.473 17.2892   1
   8   2  -9 121.082 15.7047   6
  -8   2   9 114.806 15.5948   7
  -8   2   9 94.7082 11.9520   2
   8   2  -9 96.7023 12.2634   5
  -8   2   9 96.4020 12.4820   6
   8   2  -9 100.423 12.6805   7
   7  -2  -9 -1.7217 9.98238   7
   7  -2  -9 12.2227 15.2153   1
  -7  -2   9 -2.6341 9.01751   6
   7  -2  -9 1.38084 10.4741   6
  -7  -2   9 0.95620 8.44213   7
  -7  -2   9 14.3816 6.68273   2
   7   2  -9 4.18661 7.03372   7
  -7   2   9 -6.0380 11.1503   7
  -7   2   9 6.36155 9.60340   6
   7   2  -9 -0.8951 10.1768   5
   7   2  -9 -0.5577 7.69669   6
  -7   2   9 -8.9078 6.28178   2
  -6  -2   9 304.276 23.4100   7
  -6  -2   9 294.208 17.7147   6
   6  -2  -9 319.339 20.8973   7
   6  -2  -9 325.170 28.5044   1
   6  -2  -9 315.850 21.4323   6
  -6  -2   9 301.554 18.2367   2
   6   2  -9 303.260 20.3861   7
  -6   2   9 338.937 20.0250   7
   6   2  -9 287.872 18.6272   5
   6   2  -9 347.748 22.5482   6
  -6   2   9 324.918 18.2436   6
  -6   2   9 317.759 17.5819   2
   5  -2  -9 512.318 23.7478   7
  -5  -2   9 402.970 21.6224   6
   5  -2  -9 384.677 21.5080   6
   5  -2  -9 507.331 30.8096   1
  -5  -2   9 421.482 25.5544   7
   5   2  -9 448.741 21.0080   7
   5   2  -9 378.551 21.8436   6
  -5   2   9 456.654 24.9515   7
  -5   2   9 430.572 22.3294   6
   5   2  -9 511.246 24.7921   5
  -4  -2   9 153.434 13.6172   7
   4  -2  -9 147.835 14.5545   6
  -4  -2   9 177.335 17.2676   6
   4  -2  -9 142.130 15.4166   1
   4  -2  -9 145.432 12.1203   7
   4   2  -9 175.895 13.9341   6
  -4   2   9 168.396 15.4198   7
   4   2  -9 168.970 13.9580   5
  -4   2   9 146.698 11.5421   6
  -4   2   9 179.547 13.8828   2
   4   2  -9 159.832 11.5148   7
   3  -2  -9 211.695 21.6168   1
  -3  -2   9 239.664 18.9995   7
   3  -2  -9 225.744 15.0983   5
   3  -2  -9 234.589 16.9431   6
   3  -2  -9 219.151 16.7338   7
  -3   2   9 237.607 14.4858   2
   3   2  -9 218.011 17.4894   6
  -3   2   9 210.203 17.6078   7
   3   2  -9 263.076 18.1260   5
  -2  -2   9 121.285 13.1402   7
   2  -2  -9 132.412 11.2890   5
   2  -2  -9 148.970 11.5122   6
   2   2  -9 135.438 11.6810   6
   2   2  -9 145.547 11.7351   5
  -2   2   9 118.105 10.6030   7
   1  -2  -9 1417.49 47.6513   6
   1  -2  -9 1381.93 47.3829   5
  -1  -2   9 1417.72 48.4175   7
   1   2  -9 1412.10 48.1417   6
  -1   2   9 1403.89 47.0789   7
   1   2  -9 1375.80 48.4022   5
   0  -2  -9 528.512 21.2568   5
   0  -2   9 472.284 22.5558   7
   0  -2  -9 513.441 21.8082   6
   0   2  -9 516.232 22.2635   6
   0   2   9 529.139 22.1687   7
   0   2  -9 529.009 22.1590   5
  -1  -2  -9 718.531 27.4167   5
  -1  -2  -9 810.682 28.9206   6
   1  -2   9 805.618 29.5422   7
  -1   2  -9 804.402 30.7021   5
   1   2   9 817.169 29.0622   7
  -1   2  -9 802.497 29.2422   6
   2  -2   9 96.3803 8.87973   7
  -2  -2  -9 100.057 8.84710   6
  -2  -2  -9 84.1060 13.8070   4
  -2   2  -9 87.9977 8.22031   6
   2   2   9 90.3169 8.27814   7
  -2   2  -9 89.7676 8.94998   5
   3  -2   9 315.513 14.9148   7
  -3  -2  -9 341.020 18.5948   3
  -3  -2  -9 327.365 28.7295   4
  -3  -2  -9 329.403 14.6627   6
  -3   2  -9 333.103 17.3916   5
  -3   2  -9 318.568 14.4976   6
   3   2   9 337.565 14.8187   7
  -4  -2  -9 230.399 14.1517   3
  -4  -2  -9 370.827 30.4292   4
  -4  -2  -9 237.312 12.2047   6
   4   2   9 219.128 11.5875   7
  -4   2  -9 220.704 11.8096   6
  -5  -2  -9 1154.47 50.9989   4
  -5  -2  -9 1108.73 36.7690   6
   5   2   9 1125.43 36.9239   7
  -5   2  -9 1128.12 36.3964   6
   9  -3  -9 117.415 20.1715   1
   9  -3  -9 114.706 14.6376   7
  -9  -3   9 122.172 14.5642   6
  -9  -3   9 122.280 26.2502   4
  -9   3   9 110.399 16.2466   7
  -9   3   9 90.7847 12.9888   2
   9   3  -9 97.4074 14.8978   5
  -9   3   9 111.065 16.5863   6
   9   3  -9 116.585 16.5199   7
   8  -3  -9 207.108 17.4173   6
   8  -3  -9 221.678 23.7435   1
  -8  -3   9 203.120 17.1680   6
  -8  -3   9 208.357 18.4711   7
   8  -3  -9 193.885 19.1961   7
  -8   3   9 247.688 22.1255   7
   8   3  -9 216.528 19.2003   5
  -8   3   9 219.980 17.2073   2
   8   3  -9 181.979 18.5821   7
   8   3  -9 202.344 19.7361   6
  -7  -3   9 566.103 26.8537   6
   7  -3  -9 506.762 26.4794   7
   7  -3  -9 563.329 33.5541   1
  -7  -3   9 577.536 31.4670   7
   7  -3  -9 560.499 29.1686   6
  -7   3   9 520.543 27.9447   2
   7   3  -9 567.648 28.7090   7
   7   3  -9 558.200 26.8396   5
   7   3  -9 572.164 30.1149   6
  -7   3   9 568.149 30.4557   7
   6  -3  -9 358.165 20.4749   7
  -6  -3   9 356.310 25.6300   7
   6  -3  -9 353.896 30.6085   1
  -6  -3   9 351.507 21.5983   6
   6  -3  -9 386.195 23.3709   6
   6   3  -9 355.632 22.3506   7
   6   3  -9 366.345 23.2631   5
  -6   3   9 360.980 21.9414   2
   6   3  -9 370.120 21.6874   6
  -6   3   9 319.559 20.8093   7
  -5  -3   9 563.339 29.7599   7
   5  -3  -9 533.962 27.7506   6
   5  -3  -9 571.582 27.1658   7
  -5  -3   9 554.972 24.6602   6
   5  -3  -9 604.312 34.4942   1
   5   3  -9 603.069 28.9985   6
  -5   3   9 529.081 24.1812   2
  -5   3   9 553.964 26.4985   7
   5   3  -9 570.526 26.3047   7
   5   3  -9 540.298 27.8185   5
   4  -3  -9 181.300 14.5446   7
  -4  -3   9 201.125 17.5308   7
   4  -3  -9 149.401 13.5954   6
   4  -3  -9 196.108 17.9956   1
  -4   3   9 173.577 13.8479   2
   4   3  -9 164.793 16.0342   6
  -4   3   9 188.706 15.0730   7
   4   3  -9 153.714 13.6846   5
   4   3  -9 173.164 12.3513   7
  -3  -3   9 66.9845 12.8220   7
   3  -3  -9 75.6045 11.3025   6
   3  -3  -9 60.5588 13.2286   1
  -3   3   9 58.6753 11.0061   7
   3   3  -9 59.3801 12.1497   6
   3   3  -9 82.2953 10.3125   5
  -2  -3   9 1085.80 39.9325   7
   2  -3  -9 1062.23 42.9052   1
   2  -3  -9 1103.12 40.1990   6
  -2   3   9 1077.69 40.2867   7
   2   3  -9 1108.32 40.9161   6
   2   3  -9 1055.75 39.6552   5
  -1  -3   9 264.750 18.8612   7
   1  -3  -9 285.636 17.2162   6
   1  -3  -9 259.803 16.7336   5
   1   3  -9 285.807 18.8292   5
  -1   3   9 325.136 18.4509   7
   1   3  -9 266.667 17.9186   6
   0  -3  -9 164.505 11.2102   6
   0  -3   9 139.685 13.1160   7
   0  -3  -9 122.791 13.1972   3
   0  -3  -9 145.305 11.9786   5
   0   3   9 160.444 12.8001   7
   0   3  -9 158.378 13.9350   6
   0   3  -9 159.989 13.9443   5
  -1  -3  -9 252.748 25.9492   4
  -2  -3  -9 521.264 25.1075   3
   2  -3   9 525.647 22.9746   7
  -2  -3  -9 521.444 22.1534   6
  -2  -3  -9 562.182 31.1113   4
  -2   3  -9 523.833 22.2870   6
   2   3   9 536.700 22.5464   7
  -2   3  -9 543.776 24.8031   5
  -3  -3  -9 8.63662 14.5598   4
  -3  -3  -9 5.11255 5.39302   6
  -3  -3  -9 15.0154 8.72270   3
  -3   3  -9 7.44640 7.01433   6
  -3   3  -9 4.44754 7.89793   5
   3   3   9 0.80134 5.72190   7
  -4  -3  -9 58.6649 17.9324   4
  -4  -3  -9 62.3221 10.7260   3
  -4  -3  -9 72.8777 7.98658   6
  -4   3  -9 64.2194 8.44699   6
   4   3   9 97.3711 8.99206   7
  -4   3  -9 64.0015 10.2504   5
  -8  -4   9 488.381 40.9868   4
  -8  -4   9 488.396 26.5797   6
   8  -4  -9 480.560 26.8284   7
   8  -4  -9 479.208 34.5855   1
   8  -4  -9 522.883 29.3482   6
   8   4  -9 472.721 29.2814   7
   8   4  -9 483.507 28.6774   5
  -8   4   9 479.928 26.7511   7
   8   4  -9 524.292 30.2147   6
  -8   4   9 534.291 28.9492   2
  -7  -4   9 154.902 16.5304   6
   7  -4  -9 128.516 16.6492   7
   7  -4  -9 137.415 14.5646   6
   7  -4  -9 135.925 19.8790   1
   7   4  -9 193.657 19.1928   6
  -7   4   9 168.048 17.7910   7
  -7   4   9 154.383 14.3800   2
   7   4  -9 111.660 15.6505   7
   7   4  -9 129.430 13.9921   5
   6  -4  -9 44.3790 9.91649   6
   6  -4  -9 70.6033 18.4690   1
  -6  -4   9 55.1310 9.54280   6
   6  -4  -9 57.3145 12.4037   7
   6   4  -9 70.3860 12.0608   7
   6   4  -9 63.3487 10.4305   5
  -6   4   9 75.6173 14.0467   7
  -6   4   9 29.5997 8.48136   2
   6   4  -9 50.6089 13.3806   6
   5  -4  -9 438.920 24.7239   7
   5  -4  -9 404.177 27.4485   1
   5  -4  -9 432.990 25.0586   6
   5   4  -9 432.270 23.8263   6
   5   4  -9 436.443 21.6547   7
   5   4  -9 400.694 22.6794   5
  -5   4   9 445.886 23.8884   2
  -5   4   9 433.314 26.3746   7
   4  -4  -9 461.184 24.2202   6
   4  -4  -9 382.182 29.3939   1
   4   4  -9 409.008 24.5127   5
  -4   4   9 384.567 24.5903   7
   4   4  -9 394.732 24.5561   6
  -3  -4   9 326.660 23.5406   7
   3  -4  -9 302.216 18.1327   6
   3  -4  -9 308.955 24.4318   1
   3   4  -9 301.581 18.7934   5
   3   4  -9 297.480 21.2920   6
  -3   4   9 304.853 18.6463   7
   2  -4  -9 340.359 20.6671   6
   2  -4  -9 307.069 22.4787   1
   2   4  -9 340.247 19.1931   6
  -2   4   9 346.430 21.3581   7
   2   4  -9 328.487 19.4876   5
   1  -4  -9 38.8619 9.36688   6
   1  -4  -9 27.2730 10.3618   3
  -1   4   9 27.0252 9.59151   7
   1   4  -9 37.5893 8.35699   5
   1   4  -9 19.9282 9.81911   6
   0  -4  -9 256.825 19.3084   3
   0  -4  -9 268.504 16.4660   5
   0  -4  -9 260.778 15.7427   6
   0   4   9 272.332 16.2667   7
   0   4  -9 287.808 16.6466   6
   0   4  -9 334.194 20.5451   5
  -1  -4  -9 69.6121 12.2547   3
  -1  -4  -9 78.8168 10.1863   6
  -1  -4  -9 53.5883 12.9874   4
   1   4   9 86.1615 10.8078   7
  -1   4  -9 82.4863 9.31544   6
  -1   4  -9 66.7812 11.8410   5
  -2  -4  -9 40.5438 8.53259   6
  -2  -4  -9 40.6859 16.1556   4
  -2  -4  -9 60.8014 11.8040   3
   2   4   9 46.7586 7.55800   7
  -2   4  -9 53.1453 9.43464   6
  -2   4  -9 46.1305 10.8350   5
  -3  -4  -9 84.6281 10.8822   3
  -3  -4  -9 91.8459 16.3692   4
  -3  -4  -9 90.7751 10.2217   6
  -3   4  -9 89.0029 10.6765   5
   3   4   9 81.8789 10.2282   7
  -3   4  -9 66.3216 9.66619   6
   7  -5  -9 7.58127 8.60827   6
   7  -5  -9 -0.0506 12.0106   7
  -7  -5   9 2.50828 25.1761   4
  -7  -5   9 22.7200 10.3200   3
   7  -5  -9 26.6958 20.1126   1
   7   5  -9 8.86670 13.4915   6
   7   5  -9 16.5024 12.0030   7
  -7   5   9 8.78637 13.1166   7
  -7   5   9 7.57577 8.59209   2
   7   5  -9 13.8023 9.37269   5
  -6  -5   9 288.587 33.8523   4
   6  -5  -9 281.956 22.5882   7
  -6  -5   9 271.124 21.4251   3
   6  -5  -9 301.176 29.3363   1
   6  -5  -9 288.022 22.7735   6
   6   5  -9 262.730 22.5617   6
   6   5  -9 286.593 19.7983   5
  -6   5   9 270.757 19.0947   2
  -6   5   9 289.351 22.5934   7
   6   5  -9 242.191 21.3453   7
   5  -5  -9 74.7726 13.4361   7
   5  -5  -9 96.9456 19.8901   1
   5  -5  -9 90.3280 14.7148   6
   5   5  -9 51.2744 11.1121   5
  -5   5   9 59.8953 11.5097   7
   5   5  -9 76.8395 15.3015   6
   4  -5  -9 13.6171 8.01352   6
   4  -5  -9 -11.861 13.4076   1
  -4   5   9 20.9644 8.88447   7
   4   5  -9 -2.9403 7.89879   5
   4   5  -9 20.0646 12.4223   6
  -3  -5   9 144.425 14.2761   3
   3  -5  -9 138.348 17.8357   1
   3  -5  -9 132.853 15.4334   6
  -3   5   9 157.118 16.2773   7
   3   5  -9 119.119 15.3866   5
   3   5  -9 129.104 16.1513   6
   2  -5  -9 86.8777 13.4532   3
   2  -5  -9 120.006 14.0240   6
  -2  -5   9 120.951 12.5237   3
   2  -5  -9 107.972 14.4990   1
   2   5  -9 109.693 12.4299   6
   2   5  -9 115.582 15.1947   5
  -2   5   9 98.7129 12.0836   7
   1  -5  -9 324.174 21.4003   6
  -1  -5   9 371.178 18.7445   3
   1  -5  -9 335.123 20.3679   3
  -1   5   9 372.122 22.7124   7
   1   5  -9 381.767 24.0610   5
   1   5  -9 387.359 23.3066   6
   0  -5  -9 6.90327 6.55420   6
   0  -5  -9 -5.1010 9.84963   3
   0   5  -9 2.96063 10.4830   5
   0   5  -9 -12.046 9.26865   6
   0   5   9 6.58424 6.89831   7
  -1  -5  -9 117.406 11.7854   6
  -1  -5  -9 153.441 20.8059   4
  -1  -5  -9 106.102 14.4018   3
  -1   5  -9 105.747 12.4026   5
   1   5   9 116.787 13.3107   7
  -1   5  -9 125.372 12.1421   6
  -2  -5  -9 3.94071 10.7178   4
  -2  -5  -9 22.2228 10.7385   3
  -2  -5  -9 10.1177 6.14387   6
   2   5   9 21.0500 9.24643   7
  -2   5  -9 5.94375 8.89403   6
  -2   5  -9 -8.9984 6.80320   5
   5  -6  -9 -10.184 16.9496   1
   5  -6  -9 12.6861 12.1889   6
  -5  -6   9 -11.172 10.9388   3
   5   6  -9 5.06053 12.5490   5
  -5   6   9 16.8874 13.4132   7
   5   6  -9 2.95752 13.7234   6
  -4  -6   9 216.233 18.2219   3
   4  -6  -9 239.200 25.1400   1
   4  -6  -9 179.847 16.8610   6
  -4  -6   9 232.855 24.5893   4
   4   6  -9 211.254 20.2554   5
   4   6  -9 204.898 21.0133   6
  -4   6   9 205.012 17.8915   7
   3  -6  -9 13.5648 13.5377   1
  -3  -6   9 -8.4148 9.28604   3
   3  -6  -9 -4.5517 10.9338   6
  -3   6   9 -3.9186 11.2049   7
   3   6  -9 3.12679 8.41069   5
   3   6  -9 7.56458 12.9102   6
   2  -6  -9 109.016 15.4741   3
   2  -6  -9 95.4805 12.2338   6
  -2  -6   9 86.3880 11.5321   3
  -2   6   9 71.9531 14.1756   7
   2   6  -9 88.5344 15.3082   5
   2   6  -9 94.0333 15.5074   6
   1  -6  -9 66.8412 10.9469   6
   1  -6  -9 73.8185 13.7749   3
   1   6  -9 67.7849 14.2649   6
  -1   6   9 95.7976 12.2332   7
   1   6  -9 63.1081 14.3374   5
   0  -6  -9 786.836 35.6941   6
   0  -6  -9 788.987 35.1947   3
   0   6  -9 842.247 37.9663   5
   0   6  -9 801.673 36.6726   6
   0   6   9 819.826 34.7364   7
   9   0 -10 -2.5329 8.48766   6
  -9   0  10 12.8641 11.4403   6
   9   0 -10 -8.2950 7.77296   7
  -9   0  10 11.2711 12.6969   7
  -9   0  10 8.00847 7.68532   2
   9   0 -10 -7.4581 11.7278   5
  -8   0  10 2339.30 79.6554   6
   8   0 -10 2385.44 80.5384   7
  -8   0  10 2419.06 78.0365   2
   8   0 -10 2380.77 80.3344   6
   8   0 -10 2252.34 79.1347   5
  -8   0  10 2376.24 80.0795   7
   7   0 -10 -2.3568 10.9253   6
  -7   0  10 6.60667 8.58883   7
   7   0 -10 0.43627 6.85661   7
  -7   0  10 -7.1917 5.71684   2
   7   0 -10 0.01423 10.6224   5
  -7   0  10 -3.7127 9.03297   6
  -6   0  10 473.719 20.9917   2
   6   0 -10 444.896 23.5692   6
   6   0 -10 477.158 23.7634   5
   6   0 -10 454.087 24.2573   7
  -6   0  10 428.083 23.2832   6
  -6   0  10 433.607 23.8296   7
  -5   0  10 -2.1287 6.73747   2
   5   0 -10 -2.7775 7.48217   7
   5   0 -10 -4.8756 6.52015   5
   5   0 -10 2.02850 7.36135   6
  -5   0  10 7.03923 7.97975   7
   4   0 -10 1991.84 67.1627   6
  -4   0  10 1994.90 67.0028   7
   4   0 -10 1950.64 65.8996   5
  -4   0  10 1972.23 62.5017   2
  -3   0  10 0.49636 4.67712   2
  -3   0  10 0.13522 8.96785   7
   3   0 -10 0.90441 8.42466   6
   3   0 -10 3.73397 6.00843   5
   2   0 -10 24.6910 8.67239   5
  -2   0  10 24.0298 5.24736   2
  -2   0  10 28.0240 7.25667   7
   2   0 -10 42.9750 9.14966   6
   1   0 -10 -13.017 6.26065   6
  -1   0  10 1.55177 7.34361   7
   1   0 -10 3.38162 6.97736   5
   0   0  10 1043.52 37.2936   7
   0   0 -10 1057.93 36.9947   5
   0   0 -10 1084.74 37.4470   6
  -1   0 -10 -1.2170 6.04809   6
   1   0  10 1.11825 5.39218   7
  -1   0 -10 3.72871 5.57086   5
  -2   0 -10 53.4759 6.57780   6
   2   0  10 63.1736 6.98198   7
  -3   0 -10 -2.2408 4.33782   6
   3   0  10 6.54669 4.76409   7
  -4   0 -10 900.998 29.8830   6
  -9  -1  10 -6.6086 6.62905   2
   9  -1 -10 3.15413 17.4900   1
   9  -1 -10 -3.0141 11.1900   6
  -9  -1  10 -7.0690 10.5786   6
  -9  -1  10 17.0155 10.2421   7
   9  -1 -10 -16.158 8.29429   5
   9  -1 -10 1.92439 11.2232   7
   9   1 -10 1.93620 8.84482   7
   9   1 -10 4.07630 8.52604   5
  -9   1  10 -3.4421 7.42317   6
  -9   1  10 9.04150 11.4765   2
  -9   1  10 1.84353 8.81100   7
   9   1 -10 22.4951 13.0278   6
  -8  -1  10 5.33205 7.54753   6
   8  -1 -10 4.45639 8.23918   6
   8  -1 -10 -3.6897 11.1703   1
  -8  -1  10 3.41570 8.79181   7
   8  -1 -10 -6.3056 11.3868   5
   8  -1 -10 18.7624 11.0709   7
  -8  -1  10 6.45323 6.82460   2
  -8   1  10 -0.4549 10.0619   6
  -8   1  10 -0.2286 12.0059   7
  -8   1  10 -5.5074 7.16990   2
   8   1 -10 -17.463 6.89621   5
   8   1 -10 -7.5447 9.70345   7
   8   1 -10 15.0873 12.0101   6
  -7  -1  10 1449.69 51.0725   2
   7  -1 -10 1437.55 52.9236   5
   7  -1 -10 1485.81 53.6427   6
  -7  -1  10 1487.21 53.6992   7
   7  -1 -10 1529.14 61.6134   1
   7  -1 -10 1393.20 52.0384   7
  -7  -1  10 1492.71 53.3190   6
   7   1 -10 1453.65 53.9036   5
   7   1 -10 1419.76 53.0795   7
  -7   1  10 1462.34 51.8264   2
   7   1 -10 1453.94 53.4891   6
  -7   1  10 1393.00 52.7976   7
  -7   1  10 1407.34 52.8208   6
   6  -1 -10 177.519 14.9306   7
  -6  -1  10 200.621 18.2417   7
   6  -1 -10 189.749 21.8629   1
   6  -1 -10 196.290 17.9402   6
  -6  -1  10 203.410 16.6334   6
  -6  -1  10 186.705 14.9336   2
   6  -1 -10 213.178 16.7046   5
  -6   1  10 188.422 16.3772   6
  -6   1  10 202.229 17.1122   7
   6   1 -10 201.713 16.1438   5
  -6   1  10 189.213 13.8985   2
   6   1 -10 223.609 19.5386   6
   6   1 -10 196.230 14.6519   7
  -5  -1  10 78.7900 9.26873   2
   5  -1 -10 70.9164 10.7801   7
   5  -1 -10 62.5464 12.3165   6
  -5  -1  10 65.6561 10.9437   7
   5  -1 -10 73.3667 10.4226   5
  -5   1  10 62.4210 12.5623   7
   5   1 -10 65.2650 10.3976   6
  -5   1  10 82.7330 10.3035   2
   5   1 -10 70.6809 10.1834   5
   5   1 -10 80.3745 9.63126   7
   4  -1 -10 317.043 20.4010   6
  -4  -1  10 328.968 21.7362   7
   4  -1 -10 317.970 18.5791   5
  -4  -1  10 335.278 15.8015   2
   4   1 -10 317.827 20.8240   6
   4   1 -10 287.651 20.9169   5
  -4   1  10 328.675 17.0759   2
  -4   1  10 360.310 22.0011   7
  -3  -1  10 1714.41 58.1239   7
   3  -1 -10 1741.09 58.0786   6
   3  -1 -10 1589.19 57.3132   5
  -3  -1  10 1666.60 52.8637   2
   3   1 -10 1776.41 58.4129   6
  -3   1  10 1650.01 54.0046   2
   3   1 -10 1690.62 57.9129   5
  -3   1  10 1684.30 57.8468   7
   2  -1 -10 15.3910 8.31151   6
  -2  -1  10 21.0689 9.27045   7
   2  -1 -10 18.4684 6.45567   5
   2   1 -10 9.74599 8.65869   5
  -2   1  10 9.95744 8.68387   7
   2   1 -10 16.8020 8.82564   6
  -2   1  10 26.0468 5.44912   2
   1  -1 -10 506.719 22.2550   6
  -1  -1  10 480.676 22.8620   7
   1  -1 -10 473.455 20.7314   5
  -1   1  10 494.723 22.4589   7
   1   1 -10 448.681 22.5823   5
   1   1 -10 493.246 22.3404   6
   0  -1  10 37.8180 8.03122   7
   0  -1 -10 40.2904 7.37237   6
   0  -1 -10 32.2830 7.22468   5
   0   1  10 31.3689 7.41389   7
   0   1 -10 32.5333 7.47868   6
   0   1 -10 37.7120 6.61389   5
  -1  -1 -10 1476.93 49.8246   6
  -1  -1 -10 1548.12 49.4116   5
   1  -1  10 1555.92 49.9970   7
  -1   1 -10 1465.93 49.7841   6
   1   1  10 1517.10 49.6125   7
  -1   1 -10 1541.18 50.9140   5
   2  -1  10 101.126 8.78296   7
  -2  -1 -10 97.4106 8.72501   6
   2   1  10 109.040 9.57068   7
  -2   1 -10 97.1702 8.44801   6
  -2   1 -10 103.709 8.99113   5
  -3  -1 -10 184.006 10.2697   6
   3  -1  10 206.203 10.9859   7
  -3   1 -10 179.938 11.2455   6
   3   1  10 195.037 11.7124   7
  -4  -1 -10 39.9617 5.36132   6
   4   1  10 53.1061 6.04806   7
  -4   1 -10 60.0910 5.85666   6
  -9  -2  10 16.6964 10.3323   7
   9  -2 -10 14.9317 12.5493   7
   9  -2 -10 27.7934 15.2076   1
   9  -2 -10 2.30503 9.34267   5
  -9  -2  10 22.4388 12.2974   6
   9  -2 -10 21.5408 15.2672   6
  -9   2  10 26.0443 9.43910   2
   9   2 -10 30.1198 12.9504   5
  -9   2  10 14.8185 9.06490   6
  -9   2  10 17.9877 9.90951   7
   9   2 -10 22.6697 13.5126   6
   9   2 -10 13.7597 12.1244   7
  -8  -2  10 8.98932 9.53440   2
   8  -2 -10 17.7390 9.21860   6
   8  -2 -10 9.49347 17.5788   1
   8  -2 -10 22.2858 12.2850   7
  -8  -2  10 23.4690 8.70725   6
   8  -2 -10 8.15646 12.7343   5
  -8  -2  10 7.16864 9.82956   7
  -8   2  10 33.4815 13.4042   7
   8   2 -10 28.9818 12.2243   7
   8   2 -10 21.2045 9.06172   5
  -8   2  10 24.6516 8.66150   6
  -8   2  10 19.6348 11.1820   2
   8   2 -10 8.24281 12.0920   6
  -7  -2  10 37.7224 9.85854   2
  -7  -2  10 53.9117 14.3641   7
  -7  -2  10 50.6957 9.40255   6
   7  -2 -10 63.7030 13.3330   6
   7  -2 -10 47.3798 12.1324   7
   7  -2 -10 59.2426 13.5171   5
   7  -2 -10 37.0232 17.1935   1
  -7   2  10 37.8300 11.0799   2
  -7   2  10 38.2430 10.2890   7
   7   2 -10 50.9876 11.7604   7
  -7   2  10 38.8430 9.17659   6
   7   2 -10 50.3887 12.1906   5
   7   2 -10 48.5092 10.4762   6
  -6  -2  10 979.917 39.9239   7
   6  -2 -10 1023.16 38.3872   7
   6  -2 -10 1062.96 47.7031   1
   6  -2 -10 1006.28 39.3578   5
   6  -2 -10 892.137 38.5295   6
  -6   2  10 873.030 47.9552   6
  -6   2  10 987.368 41.2375   7
   6   2 -10 1017.38 39.2369   7
   6   2 -10 928.240 39.1842   6
  -6   2  10 967.714 36.9557   2
   6   2 -10 1013.28 39.1222   5
   5  -2 -10 12.6981 10.2946   5
   5  -2 -10 9.29750 10.1592   1
  -5  -2  10 6.56858 8.68879   7
   5  -2 -10 22.7365 10.9340   6
   5  -2 -10 10.3027 9.04084   7
   5   2 -10 10.4420 7.64146   5
  -5   2  10 8.42563 6.07895   2
   5   2 -10 4.31794 10.6813   6
  -5   2  10 16.4455 8.30881   7
   5   2 -10 9.38689 8.30414   7
   4  -2 -10 246.943 19.6404   5
  -4  -2  10 266.237 18.4283   7
   4  -2 -10 314.355 20.3380   6
   4   2 -10 286.375 17.8150   6
  -4   2  10 295.515 15.2838   2
   4   2 -10 246.131 19.9644   5
  -4   2  10 267.334 20.7736   7
  -3  -2  10 89.6145 11.1725   7
   3  -2 -10 127.404 13.0928   5
   3  -2 -10 121.247 11.7291   6
   3   2 -10 113.316 13.1423   5
  -3   2  10 110.635 11.4929   7
   3   2 -10 119.786 13.2103   6
  -3   2  10 136.785 10.7370   2
   2  -2 -10 717.132 30.2585   5
   2  -2 -10 777.912 30.8650   6
  -2  -2  10 716.771 31.4850   7
  -2   2  10 723.711 30.6647   7
   2   2 -10 769.609 31.4230   5
   2   2 -10 724.039 29.7551   6
  -2   2  10 735.228 27.2513   2
  -1  -2  10 3.37100 8.44168   7
   1  -2 -10 -10.026 6.74644   6
   1  -2 -10 0.69130 6.48024   5
  -1   2  10 14.1483 7.73403   7
   1   2 -10 2.48798 5.89336   6
   1   2 -10 -1.2814 8.18349   5
   0  -2 -10 1323.40 45.1638   6
   0  -2 -10 1385.65 44.5720   5
   0  -2  10 1314.71 44.9742   7
   0   2  10 1181.04 43.9787   7
   0   2 -10 1329.20 45.5309   6
   0   2 -10 1325.67 46.3677   5
  -1  -2 -10 30.7686 7.01228   6
   1  -2  10 28.1808 7.89442   7
  -1   2 -10 32.8053 7.51073   6
  -1   2 -10 29.9475 8.58477   5
   1   2  10 28.2833 7.31135   7
  -2  -2 -10 40.0668 6.74997   6
   2  -2  10 22.6357 7.02599   7
  -2   2 -10 35.8982 8.49395   5
  -2   2 -10 34.1826 6.86088   6
   2   2  10 31.4065 6.99713   7
  -3  -2 -10 39.1750 15.9217   4
   3  -2  10 3.05670 5.39157   7
  -3  -2 -10 0.67451 4.52469   6
   3   2  10 3.45387 5.03139   7
  -3   2 -10 6.92104 6.04864   6
  -4  -2 -10 894.348 31.2802   6
  -4  -2 -10 915.230 47.9042   4
   4   2  10 882.989 30.9117   7
  -4   2 -10 895.562 30.8909   6
  -8  -3  10 -0.3933 9.90070   7
   8  -3 -10 1.59313 8.57849   6
   8  -3 -10 6.74233 11.8113   7
   8  -3 -10 -7.9798 12.3401   1
  -8  -3  10 -1.0472 7.46865   6
   8   3 -10 11.4433 12.7307   6
  -8   3  10 -9.4489 10.4842   2
  -8   3  10 -5.3557 7.50478   6
   8   3 -10 2.88567 8.34879   5
  -8   3  10 1.63545 12.7030   7
   8   3 -10 12.5710 11.5453   7
   7  -3 -10 43.1060 12.5494   7
   7  -3 -10 52.2515 18.3876   1
   7  -3 -10 66.7972 14.0124   6
  -7  -3  10 54.7582 11.8947   7
  -7   3  10 42.3438 10.8897   7
   7   3 -10 45.2984 12.8373   5
   7   3 -10 49.9084 9.92615   7
  -7   3  10 42.4868 11.9576   2
  -7   3  10 50.6904 10.0026   6
   7   3 -10 65.8150 14.8151   6
   6  -3 -10 304.575 25.3998   1
   6  -3 -10 346.758 20.0705   7
  -6  -3  10 293.086 25.1439   7
   6  -3 -10 333.150 20.4795   6
  -6   3  10 327.713 24.3815   7
  -6   3  10 309.745 20.9078   2
   6   3 -10 314.062 21.3664   7
   6   3 -10 319.961 20.4052   5
   6   3 -10 309.173 23.6625   6
  -5  -3  10 91.7020 12.9240   7
   5  -3 -10 75.7823 16.5329   1
   5  -3 -10 87.3536 13.7763   6
  -5   3  10 75.1317 11.4994   2
   5   3 -10 83.3404 11.4694   5
   5   3 -10 62.5266 13.6992   6
  -5   3  10 66.3227 11.1550   7
   4  -3 -10 70.9765 12.3454   1
   4  -3 -10 56.0981 10.0364   6
  -4  -3  10 82.8238 11.9312   7
   4   3 -10 65.6696 12.4371   5
  -4   3  10 64.7705 10.3457   2
  -4   3  10 52.4684 12.2629   7
   4   3 -10 55.0342 10.5425   6
   3  -3 -10 143.517 14.5334   6
  -3  -3  10 130.732 13.4537   7
   3  -3 -10 180.462 18.5320   1
   3   3 -10 158.259 15.1826   5
   3   3 -10 138.360 14.8535   6
  -3   3  10 141.166 14.4973   7
   2  -3 -10 13.8891 6.45287   5
   2  -3 -10 5.69022 8.78901   6
  -2  -3  10 3.22450 7.69105   7
   2   3 -10 9.69889 6.95443   6
  -2   3  10 -2.4485 8.95661   7
   2   3 -10 14.7908 10.0556   5
  -1  -3  10 -3.8836 9.17348   7
   1  -3 -10 4.11316 5.65207   6
   1  -3 -10 10.2952 7.17042   5
   1   3 -10 -9.2070 8.24746   6
   1   3 -10 -5.0813 6.30550   5
  -1   3  10 -3.6697 5.59807   7
   0   3 -10 176.552 13.9956   5
   1  -3  10 242.452 17.1750   7
  -1  -3 -10 260.630 15.7144   6
   1   3  10 292.341 17.0606   7
  -1   3 -10 237.679 15.8817   6
  -1   3 -10 245.553 15.7946   5
  -2  -3 -10 20.8864 6.91871   6
   2  -3  10 24.9285 8.18410   7
  -2   3 -10 11.7234 8.55392   5
   2   3  10 13.6795 5.39214   7
  -2   3 -10 13.0648 8.20178   6
  -3  -3 -10 18.2058 16.4823   4
  -3  -3 -10 9.26905 6.04396   6
  -3  -3 -10 -3.9474 8.92040   3
   3   3  10 6.41953 6.39575   7
  -3   3 -10 4.93273 8.27309   5
  -3   3 -10 14.6140 6.52607   6
   7  -4 -10 225.596 18.3458   7
   7  -4 -10 283.455 28.9689   1
   7  -4 -10 224.152 20.3946   6
   7   4 -10 214.589 21.2733   6
   7   4 -10 242.054 20.6877   5
  -7   4  10 238.791 21.4923   7
   7   4 -10 232.373 18.0451   7
  -7   4  10 210.348 17.6181   2
   6  -4 -10 31.0038 12.8924   1
   6  -4 -10 44.5593 9.86073   7
   6  -4 -10 30.6880 12.4038   6
  -6   4  10 33.9199 10.2081   7
   6   4 -10 26.5683 9.56223   5
   6   4 -10 50.4302 14.3783   6
  -6   4  10 28.2149 11.3474   2
   5  -4 -10 615.680 29.0738   6
   5  -4 -10 595.694 33.3825   1
  -5  -4  10 610.507 32.7312   7
  -5   4  10 631.136 31.7213   7
   5   4 -10 573.035 31.2762   6
   5   4 -10 629.262 29.1517   5
  -5   4  10 557.857 28.3795   2
   4  -4 -10 -7.4683 11.5675   1
   4  -4 -10 -3.6598 10.1585   6
  -4  -4  10 3.89806 9.05451   7
   4   4 -10 -0.2583 7.80991   6
  -4   4  10 -0.3599 7.74933   7
   4   4 -10 12.5537 11.3276   5
   3  -4 -10 76.8429 12.4465   6
  -3  -4  10 78.8785 11.7730   7
   3  -4 -10 71.6165 14.0934   1
   3   4 -10 41.4011 9.68661   6
  -3   4  10 69.5913 12.9585   7
   3   4 -10 74.8131 11.2488   5
  -2  -4  10 66.3460 13.4412   7
   2  -4 -10 69.6425 10.3047   6
   2   4 -10 41.0436 9.57315   5
   2   4 -10 64.7100 12.1679   6
  -2   4  10 65.4665 10.0126   7
   1  -4 -10 90.7551 11.9887   6
   1  -4 -10 98.4343 10.3930   5
   1   4 -10 75.7940 13.1840   5
  -1   4  10 101.312 12.8895   7
   1   4 -10 111.593 13.3412   6
   0  -4 -10 166.564 15.1058   6
   0   4  10 144.878 14.0360   7
   0   4 -10 162.657 15.0103   6
   0   4 -10 157.699 14.1892   5
  -1  -4 -10 135.595 15.0345   3
  -1  -4 -10 142.021 13.2492   6
   1   4  10 124.780 12.9303   7
  -1   4 -10 144.418 14.9213   5
  -1   4 -10 131.856 13.1226   6
  -2  -4 -10 22.1451 8.21252   6
  -2  -4 -10 6.92346 7.26441   3
  -2  -4 -10 15.5343 11.9944   4
   2   4  10 8.62996 8.02863   7
  -2   4 -10 10.8376 9.74676   5
  -2   4 -10 16.1915 8.30735   6
   6  -5 -10 349.332 31.3500   1
   6  -5 -10 286.853 21.1405   6
   6   5 -10 295.065 21.2793   5
  -6   5  10 285.091 21.8741   7
   6   5 -10 289.716 22.2448   6
  -6   5  10 271.529 19.7801   2
   5  -5 -10 88.6794 19.0745   1
   5  -5 -10 99.8974 15.4189   6
   5   5 -10 70.1954 16.2274   6
  -5   5  10 73.4163 15.4233   7
   5   5 -10 71.9679 12.2327   5
   4  -5 -10 538.028 34.1290   1
   4  -5 -10 536.341 27.2518   6
   4   5 -10 552.980 28.1205   5
   4   5 -10 514.493 30.4388   6
  -4   5  10 567.022 28.0282   7
   3  -5 -10 69.2174 14.2600   1
   3  -5 -10 64.4522 13.1604   6
  -3   5  10 42.8234 10.0174   7
   3   5 -10 41.5056 13.5246   5
   3   5 -10 34.3423 13.6359   6
  -2  -5  10 1449.12 50.6947   3
   2  -5 -10 1458.81 53.9136   6
  -2   5  10 1400.96 53.7362   7
   2   5 -10 1421.13 54.3927   6
   2   5 -10 1484.17 55.0822   5
   1  -5 -10 8.57388 9.74282   6
  -1   5  10 4.06160 10.2339   7
   1   5 -10 22.4467 10.9835   6
   1   5 -10 10.5732 11.5410   5
   0  -5 -10 221.463 18.5391   6
   0  -5 -10 233.998 20.0639   3
   0   5 -10 289.229 20.6730   6
   0   5 -10 237.996 19.8235   5
   0   5  10 257.294 20.4060   7
  -9   0  11 727.233 34.2423   2
  -9   0  11 731.784 35.1002   7
   9   0 -11 756.337 36.9033   6
   9   0 -11 745.213 34.2644   7
   9   0 -11 708.896 36.4229   5
  -9   0  11 749.069 36.1447   6
   8   0 -11 6.77645 12.1523   6
  -8   0  11 -6.6812 8.33331   7
  -8   0  11 2.48653 9.69298   2
   8   0 -11 -17.195 11.3321   5
   8   0 -11 8.94537 10.8892   7
   7   0 -11 295.270 22.9244   6
   7   0 -11 313.773 20.7317   5
   7   0 -11 265.413 21.1872   7
  -7   0  11 250.832 19.9433   7
  -7   0  11 328.212 19.7465   2
  -6   0  11 3.12216 8.52069   7
  -6   0  11 1.40839 5.21386   2
   6   0 -11 -1.2163 7.78940   6
   6   0 -11 9.95137 10.7416   5
   5   0 -11 217.774 18.9208   6
  -5   0  11 244.911 19.8103   7
   5   0 -11 208.972 18.0044   5
  -5   0  11 231.232 15.0311   2
  -4   0  11 -4.8600 6.94252   7
   4   0 -11 3.02597 7.17690   6
   4   0 -11 0.36490 6.62978   5
  -4   0  11 -6.0614 5.50489   2
   3   0 -11 142.272 14.3469   5
  -3   0  11 121.223 14.2896   7
  -3   0  11 127.638 11.3065   2
   3   0 -11 163.451 14.9494   6
   2   0 -11 1.45888 5.73934   5
   2   0 -11 -1.5962 8.16432   6
  -2   0  11 -4.1119 6.16732   7
   1   0 -11 530.738 22.8340   5
   1   0 -11 512.699 23.8395   6
  -1   0  11 511.003 22.7352   7
   0   0 -11 -3.5277 6.61126   5
   0   0 -11 -2.7906 6.44324   6
   0   0  11 -8.8488 6.64486   7
   1   0  11 924.256 33.3323   7
  -1   0 -11 882.318 33.1396   5
  -1   0 -11 918.758 33.2813   6
  -2   0 -11 -5.6714 4.89642   6
   2   0  11 0.16289 5.18357   7
   3   0  11 462.338 19.0958   7
  -3   0 -11 467.976 19.6223   6
   9  -1 -11 31.2032 13.6692   7
  -9  -1  11 43.7577 11.7754   2
   9  -1 -11 43.8599 21.0248   1
   9  -1 -11 29.7489 14.2410   5
  -9  -1  11 32.4829 12.9426   6
   9  -1 -11 25.9294 13.7024   6
  -9  -1  11 33.5886 15.0697   7
   9   1 -11 28.1294 12.8511   7
   9   1 -11 25.8858 10.4949   6
   9   1 -11 27.3697 10.4135   5
  -9   1  11 23.7816 10.8990   7
  -9   1  11 40.2901 10.3106   6
  -9   1  11 42.9120 9.78564   2
   8  -1 -11 626.004 32.3460   7
   8  -1 -11 629.442 30.9855   6
   8  -1 -11 602.145 30.5152   5
  -8  -1  11 634.654 29.7040   2
  -8  -1  11 660.326 34.5782   7
  -8   1  11 593.985 33.2002   7
  -8   1  11 643.111 30.8289   2
   8   1 -11 643.201 30.1292   7
   8   1 -11 619.497 30.5173   5
   8   1 -11 654.020 33.3373   6
   7  -1 -11 0.91805 8.87137   6
  -7  -1  11 1.78872 8.25484   2
   7  -1 -11 11.8848 10.0768   7
  -7  -1  11 4.25818 9.33395   7
   7  -1 -11 32.5658 12.4599   5
  -7   1  11 14.4123 12.6868   7
  -7   1  11 6.94620 9.44274   2
   7   1 -11 -0.0370 11.6502   6
   7   1 -11 1.24028 10.8284   5
   7   1 -11 -7.9092 9.46981   7
  -6  -1  11 80.1201 10.4293   2
  -6  -1  11 50.2751 14.1507   7
   6  -1 -11 50.4886 10.7769   5
   6  -1 -11 52.3546 10.7520   6
   6   1 -11 77.4318 11.3301   5
  -6   1  11 72.3956 14.7455   7
  -6   1  11 61.9408 8.90827   2
   6   1 -11 70.1829 14.0739   6
  -5  -1  11 41.6014 7.99129   2
   5  -1 -11 56.1472 12.5577   6
  -5  -1  11 34.0778 9.76368   7
   5  -1 -11 24.0390 8.58445   5
   5   1 -11 20.8766 8.62761   5
   5   1 -11 27.8215 9.33162   6
  -5   1  11 30.1659 6.66327   2
  -5   1  11 32.3210 12.3034   7
  -4  -1  11 1465.71 53.6211   7
   4  -1 -11 1502.49 53.5691   5
  -4  -1  11 1516.75 49.0336   2
   4  -1 -11 1490.80 54.7356   6
   4   1 -11 1544.91 54.8762   5
   4   1 -11 1537.49 55.0971   6
  -4   1  11 1567.17 50.6622   2
  -4   1  11 1516.89 54.9738   7
   3  -1 -11 277.888 17.5437   5
  -3  -1  11 292.117 20.9910   7
   3  -1 -11 299.923 19.5354   6
   3   1 -11 295.250 20.7058   5
  -3   1  11 300.832 20.7748   7
  -3   1  11 280.698 14.9250   2
   3   1 -11 276.800 19.9563   6
   2  -1 -11 5.42084 5.97064   6
  -2  -1  11 -9.2386 6.19416   7
   2  -1 -11 -1.3226 5.60574   5
   2   1 -11 6.81513 6.30046   5
  -2   1  11 -10.891 8.24500   7
   2   1 -11 -5.9667 8.29945   6
  -1  -1  11 104.088 11.6933   7
   1  -1 -11 87.0151 10.7727   6
   1  -1 -11 90.5035 9.44053   5
   1   1 -11 89.4695 11.1314   5
   1   1 -11 87.1515 10.8976   6
  -1   1  11 88.7925 10.9998   7
   0  -1 -11 603.200 23.9740   5
   0  -1 -11 582.647 25.0418   6
   0  -1  11 590.779 25.7134   7
   0   1 -11 579.435 25.2994   6
   0   1  11 602.543 25.5923   7
   0   1 -11 597.661 24.8741   5
   1  -1  11 140.630 12.8787   7
  -1  -1 -11 144.886 11.8572   6
  -1   1 -11 133.072 11.9422   6
  -1   1 -11 153.883 11.7122   5
   1   1  11 156.233 12.8117   7
  -2  -1 -11 145.359 11.0295   6
   2  -1  11 156.904 12.0731   7
  -2   1 -11 144.211 12.3178   6
   2   1  11 141.467 11.6443   7
  -3  -1 -11 357.603 16.9992   6
   3  -1  11 371.364 16.9097   7
  -3   1 -11 376.829 17.1465   6
   3   1  11 381.460 17.6391   7
   8  -2 -11 18.7115 12.6710   5
   8  -2 -11 23.6808 9.78162   6
  -8  -2  11 19.3289 14.3919   7
   8  -2 -11 45.9475 18.1326   1
  -8   2  11 5.76084 12.8138   7
   8   2 -11 24.2483 12.7777   5
   8   2 -11 14.8977 9.78566   6
  -8   2  11 25.1439 8.77423   2
   7  -2 -11 657.729 33.0870   6
  -7  -2  11 722.372 34.2792   7
   7  -2 -11 824.728 33.3274   7
   7  -2 -11 823.168 36.6081   5
   7  -2 -11 811.108 40.7464   1
   7   2 -11 768.124 33.6176   5
   7   2 -11 622.689 35.0507   6
   7   2 -11 676.397 34.4862   7
  -7   2  11 694.326 33.5189   7
  -7   2  11 780.594 33.4005   2
   6  -2 -11 1.07940 10.8641   1
   6  -2 -11 9.70645 11.4780   6
   6  -2 -11 4.00152 8.07448   5
  -6  -2  11 -8.2669 8.56589   7
   6   2 -11 8.61545 12.1015   6
  -6   2  11 11.7058 9.24634   7
  -6   2  11 4.99412 6.67627   2
   6   2 -11 3.90323 7.85753   5
  -5  -2  11 709.761 33.8445   7
   5  -2 -11 636.399 32.3188   5
   5  -2 -11 705.829 32.9201   6
   5   2 -11 709.358 31.2107   5
  -5   2  11 707.482 33.6905   7
   5   2 -11 632.477 32.5458   6
  -5   2  11 738.017 29.4934   2
   4  -2 -11 252.167 19.9657   5
   4  -2 -11 218.470 19.3111   6
  -4  -2  11 190.726 17.1111   7
   4   2 -11 234.785 17.1553   6
  -4   2  11 201.097 13.2624   2
  -4   2  11 216.915 18.4083   7
   4   2 -11 261.124 20.2324   5
  -3  -2  11 158.275 16.1433   7
   3  -2 -11 176.289 14.1638   5
   3  -2 -11 162.493 15.6246   6
   3   2 -11 148.680 15.7521   6
  -3   2  11 172.396 15.9799   7
   3   2 -11 173.558 16.0419   5
  -3   2  11 169.797 12.3196   2
   2  -2 -11 44.0856 9.59980   5
   2  -2 -11 37.6564 10.1493   6
  -2  -2  11 40.1897 9.00987   7
   2   2 -11 35.3630 10.4862   5
   2   2 -11 27.2896 10.2485   6
  -2   2  11 41.9104 7.15634   2
  -2   2  11 33.1463 10.2997   7
   1  -2 -11 1478.39 51.9680   5
   1  -2 -11 1532.74 52.8437   6
  -1  -2  11 1494.77 52.5164   7
   1   2 -11 1546.27 53.3159   6
  -1   2  11 1526.09 52.9781   7
   1   2 -11 1571.77 53.9120   5
   0  -2  11 124.869 12.8867   7
   0  -2 -11 127.279 11.2560   5
   0  -2 -11 120.194 11.4970   6
   0   2 -11 119.434 12.1534   6
   0   2  11 114.263 11.8021   7
   0   2 -11 146.474 13.5518   5
   1  -2  11 32.4435 8.42597   7
  -1  -2 -11 16.2712 7.05003   6
  -1   2 -11 32.8422 8.05064   6
   1   2  11 21.4286 6.03938   7
  -1   2 -11 15.5362 6.44766   5
  -2  -2 -11 15.1503 6.40954   6
   2  -2  11 21.2306 7.50282   7
  -2   2 -11 22.2494 6.62097   5
   2   2  11 31.8988 7.44695   7
  -2   2 -11 25.8717 7.09882   6
  -7  -3  11 101.400 14.7089   7
   7  -3 -11 114.426 21.0306   1
   7  -3 -11 81.3473 13.1717   6
   7   3 -11 84.4447 13.3538   6
  -7   3  11 109.479 14.2019   2
   7   3 -11 101.856 13.1134   5
  -7   3  11 109.891 17.0194   7
   6  -3 -11 0.66911 11.4934   6
   6  -3 -11 15.1982 14.9036   1
  -6  -3  11 6.81294 9.84843   7
   6   3 -11 17.1631 9.20324   5
  -6   3  11 33.0544 10.4394   7
   6   3 -11 14.7613 9.61315   6
  -6   3  11 28.3819 10.7460   2
   5  -3 -11 140.277 16.3684   5
   5  -3 -11 139.882 16.6003   6
  -5  -3  11 144.598 17.7578   7
   5  -3 -11 219.624 22.0080   1
  -5   3  11 121.386 16.4155   7
   5   3 -11 137.044 14.5343   5
   5   3 -11 130.201 16.8000   6
  -5   3  11 150.139 14.1651   2
   4  -3 -11 293.447 21.7337   5
  -4  -3  11 282.683 20.1941   7
   4  -3 -11 289.537 22.1293   6
   4   3 -11 335.606 22.9736   6
   4   3 -11 300.446 22.7877   5
  -4   3  11 301.709 22.8488   7
  -4   3  11 305.355 16.8502   2
   3  -3 -11 16.8370 7.72007   5
  -3  -3  11 -8.2357 11.3856   7
   3  -3 -11 15.4695 10.2144   6
  -3   3  11 -1.1656 10.0345   7
   3   3 -11 19.0697 8.13223   5
   3   3 -11 11.9649 10.7629   6
  -3   3  11 10.3974 5.90947   2
   2  -3 -11 217.003 15.0565   5
  -2  -3  11 216.050 19.8156   7
   2  -3 -11 211.052 17.5246   6
   2   3 -11 200.361 16.0044   5
   2   3 -11 215.562 18.5827   6
  -2   3  11 185.420 15.3904   7
   1  -3 -11 21.9873 7.79157   5
   1  -3 -11 37.5442 9.64504   6
  -1  -3  11 36.8718 11.1455   7
   1   3 -11 30.8245 10.4254   5
   1   3 -11 13.9667 9.47968   6
  -1   3  11 19.3001 7.30369   7
   0  -3  11 135.097 13.7261   7
   0  -3 -11 166.922 14.3532   6
   0   3 -11 116.624 12.9044   6
   0   3  11 115.827 11.3195   7
  -1  -3 -11 6.77849 7.09950   6
   1  -3  11 2.44660 8.49549   7
   1   3  11 0.98989 7.55218   7
  -1   3 -11 3.88711 7.81304   6
  -1   3 -11 1.14330 8.83467   5
  -2  -3 -11 249.822 16.0732   6
   2  -3  11 263.150 17.7018   7
  -2   3 -11 269.506 17.7991   6
  -2   3 -11 282.779 16.8439   5
   2   3  11 263.490 17.1811   7
   6  -4 -11 100.580 16.4082   6
  -6  -4  11 81.8040 17.7059   7
   6  -4 -11 111.370 20.8467   1
   6   4 -11 137.011 17.6600   6
  -6   4  11 84.1086 11.5886   2
   6   4 -11 114.669 16.6490   5
  -6   4  11 95.9251 16.3542   7
  -5  -4  11 11.7888 10.3691   7
   5  -4 -11 16.7565 10.3709   1
   5  -4 -11 9.71525 11.8196   6
   5   4 -11 8.42861 12.4007   6
  -5   4  11 12.0994 7.61595   2
   5   4 -11 26.6318 12.7255   5
  -5   4  11 -2.1476 12.0833   7
   4  -4 -11 112.687 13.6287   6
   4  -4 -11 117.476 18.7779   1
  -4  -4  11 111.112 16.9253   7
  -4   4  11 101.194 12.9628   7
   4   4 -11 121.297 16.4840   6
   4   4 -11 94.9698 12.9378   5
  -4   4  11 135.143 12.1843   2
   3  -4 -11 28.7925 9.12029   6
  -3  -4  11 38.7474 13.7238   7
  -3   4  11 23.1475 9.02254   7
   3   4 -11 39.1053 12.7489   5
   3   4 -11 57.4434 12.9829   6
   2  -4 -11 242.084 19.6099   6
  -2  -4  11 237.595 18.8173   7
   2  -4 -11 250.785 16.6765   5
   2   4 -11 259.923 20.3168   5
  -2   4  11 251.849 20.9212   7
   2   4 -11 265.671 18.2447   6
   1  -4 -11 33.8845 10.3382   6
   1   4 -11 9.63747 10.8475   5
   1   4 -11 23.2902 8.07009   6
  -1   4  11 21.5346 10.4666   7
   0  -4 -11 5.94053 6.23258   6
   0   4 -11 6.01810 7.58560   5
   0   4  11 5.28058 9.13046   7
   0   4 -11 -0.5019 9.15916   6
   3  -5 -11 1099.95 45.2416   6
   3   5 -11 1097.19 46.5133   6
   8   0 -12 1.01603 8.86131   5
  -8   0  12 19.9971 10.7381   7
  -8   0  12 -2.8329 9.77720   2
   8   0 -12 29.5916 14.2996   6
   7   0 -12 17.6153 9.27578   6
  -7   0  12 -13.485 8.61817   7
  -7   0  12 5.37332 8.96126   2
   7   0 -12 11.7236 12.4178   5
  -6   0  12 14.6056 8.34599   2
   6   0 -12 15.2012 9.10708   5
   6   0 -12 17.3732 12.6451   6
  -6   0  12 -17.981 11.7693   7
   5   0 -12 -1.9608 7.64126   6
  -5   0  12 -1.4272 8.20235   7
   5   0 -12 10.8997 7.86970   5
  -5   0  12 0.43020 6.53123   2
   4   0 -12 515.456 27.7510   6
  -4   0  12 493.764 28.1859   7
   4   0 -12 521.344 27.7539   5
   3   0 -12 6.40437 8.97966   5
  -3   0  12 4.42308 10.1218   7
   3   0 -12 -0.8935 9.60070   6
   2   0 -12 24.5162 9.76108   6
   2   0 -12 18.9364 9.11461   5
  -2   0  12 10.7243 9.73224   7
   1   0 -12 -2.9744 7.74648   5
  -1   0  12 -16.087 7.87600   7
   1   0 -12 3.25990 6.07988   6
   0   0  12 857.602 33.2656   7
   0   0 -12 909.735 34.4560   5
   0   0 -12 903.203 34.6365   6
   1   0  12 -1.5785 4.61586   7
  -1   0 -12 1.47521 6.61567   6
   8  -1 -12 486.619 27.2008   5
  -8  -1  12 481.302 31.6826   7
   8  -1 -12 458.931 30.0409   6
  -8  -1  12 474.869 25.6559   2
  -8   1  12 518.003 31.7215   7
   8   1 -12 422.706 26.5454   6
  -8   1  12 464.953 26.5205   2
   8   1 -12 462.347 26.4375   5
   7  -1 -12 20.8217 9.44073   5
  -7  -1  12 2.61435 8.74739   2
   7  -1 -12 19.8433 12.9800   6
  -7  -1  12 22.6158 10.5719   7
  -7   1  12 22.4864 9.97361   2
  -7   1  12 19.5084 13.5235   7
   7   1 -12 16.4148 13.2603   6
   7   1 -12 16.1945 12.7553   5
  -6  -1  12 -4.0013 7.18726   2
   6  -1 -12 -14.017 11.6172   6
  -6  -1  12 -9.0301 12.2181   7
   6  -1 -12 0.12750 11.4918   5
  -6   1  12 7.12602 8.52015   2
   6   1 -12 -9.9754 11.0748   5
   6   1 -12 -23.083 10.9238   6
  -6   1  12 -11.018 8.23698   7
  -5  -1  12 290.453 23.2310   7
  -5  -1  12 274.289 15.8151   2
   5  -1 -12 274.443 19.4502   6
   5  -1 -12 294.028 22.5541   5
   5   1 -12 264.252 22.4492   5
  -5   1  12 271.055 17.1460   2
   5   1 -12 231.703 21.6065   6
  -5   1  12 291.109 20.0558   7
   4  -1 -12 897.291 38.2199   6
  -4  -1  12 909.265 38.7673   7
   4  -1 -12 895.099 36.5165   5
   4   1 -12 890.439 38.4961   6
  -4   1  12 880.202 32.1156   2
  -4   1  12 930.210 38.7051   7
   4   1 -12 869.451 36.6286   5
   3  -1 -12 -4.2814 6.14032   5
  -3  -1  12 3.91880 10.2419   7
   3  -1 -12 2.38051 7.07209   6
  -3   1  12 -3.4789 7.04828   7
   3   1 -12 -1.9493 6.75076   5
   3   1 -12 10.5512 9.75226   6
  -2  -1  12 286.994 20.7050   7
   2  -1 -12 308.077 20.0442   5
   2  -1 -12 301.995 19.7896   6
  -2   1  12 293.116 20.6952   7
   2   1 -12 286.751 17.8420   6
   2   1 -12 315.429 20.5779   5
   1  -1 -12 315.027 19.1469   6
   1  -1 -12 337.197 19.5386   5
  -1  -1  12 312.531 20.3505   7
   1   1 -12 327.300 18.4048   5
  -1   1  12 321.302 18.0194   7
   1   1 -12 300.267 19.4082   6
   0  -1 -12 207.130 15.0436   6
   0  -1  12 189.830 15.9963   7
   0   1  12 191.013 15.6740   7
   0   1 -12 183.993 16.0374   5
   0   1 -12 181.507 15.1902   6
   1  -1  12 37.7186 8.82221   7
  -1  -1 -12 22.2124 8.76663   6
  -1   1 -12 35.9605 8.22052   6
   1   1  12 45.7752 8.71469   7
  -1   1 -12 38.0842 10.5519   5
   7  -2 -12 517.189 31.0779   6
   7  -2 -12 480.458 27.8302   5
  -7  -2  12 572.271 30.0291   7
  -7   2  12 554.738 32.5221   7
   7   2 -12 531.406 28.3272   5
  -7   2  12 562.648 28.0297   2
   7   2 -12 512.327 31.5941   6
  -6  -2  12 1240.14 51.2049   7
   6  -2 -12 1275.63 50.4603   5
   6  -2 -12 1302.87 50.9811   6
  -6   2  12 1273.99 46.6816   2
   6   2 -12 1212.80 48.5227   5
   6   2 -12 1191.15 50.6161   6
  -6   2  12 1317.35 51.1649   7
   5  -2 -12 338.253 23.5662   5
  -5  -2  12 284.813 20.6497   7
   5  -2 -12 301.732 23.2372   6
   5   2 -12 285.629 23.1015   6
  -5   2  12 273.347 23.9698   7
  -5   2  12 321.206 17.1640   2
   5   2 -12 280.112 19.9814   5
  -4  -2  12 2.38267 8.79932   7
   4  -2 -12 -4.9953 10.5329   6
   4  -2 -12 13.7215 7.92080   5
   4   2 -12 10.3840 10.9362   5
  -4   2  12 14.2838 11.5650   7
  -4   2  12 11.3550 7.58527   2
   4   2 -12 -7.4914 7.66342   6
   3  -2 -12 78.6588 10.9602   6
   3  -2 -12 82.3821 12.7353   5
  -3  -2  12 103.485 14.5491   7
   3   2 -12 87.5576 13.7160   5
  -3   2  12 74.4036 11.2470   7
   3   2 -12 95.3004 13.7092   6
   2  -2 -12 857.325 36.5141   6
   2  -2 -12 889.670 36.2007   5
  -2  -2  12 923.489 37.9029   7
  -2   2  12 886.808 37.1245   7
   2   2 -12 935.562 37.7759   5
   2   2 -12 861.452 36.8549   6
   1  -2 -12 795.132 32.5825   6
  -1  -2  12 812.589 34.6728   7
   1  -2 -12 832.262 32.9382   5
   1   2 -12 798.330 32.7836   6
  -1   2  12 818.506 33.9486   7
   1   2 -12 834.646 34.8532   5
   0  -2 -12 121.050 12.5269   6
   0  -2  12 148.396 14.5174   7
   0   2  12 154.100 13.8515   7
   0   2 -12 117.295 13.4530   5
   0   2 -12 126.107 12.8918   6
   1  -2  12 59.1397 10.4605   7
  -1  -2 -12 38.9305 8.64192   6
   1   2  12 48.4258 9.09033   7
  -1   2 -12 28.6578 8.94037   6
  -1   2 -12 45.3970 10.1429   5
  -6  -3  12 5.23442 10.3132   7
   6  -3 -12 14.8527 9.57968   5
   6  -3 -12 17.8633 13.2757   6
   6  -3 -12 -0.1631 11.7125   1
   6   3 -12 -10.441 11.9237   5
  -6   3  12 9.38486 10.3830   2
  -6   3  12 19.4220 10.0077   7
   6   3 -12 -1.3290 12.9814   6
  -5  -3  12 567.825 32.0409   7
   5  -3 -12 553.838 27.6472   5
   5  -3 -12 547.512 30.2630   6
  -5   3  12 499.228 26.1746   2
  -5   3  12 545.640 31.1855   7
   5   3 -12 536.505 28.3450   6
   5   3 -12 594.973 31.6126   5
   4  -3 -12 48.6364 13.3582   6
  -4  -3  12 65.6053 12.3512   7
   4  -3 -12 65.1941 10.8352   5
   4   3 -12 87.2253 14.8777   6
  -4   3  12 68.2637 10.7634   2
   4   3 -12 67.6653 11.5238   5
  -4   3  12 61.4416 14.0246   7
   3  -3 -12 710.846 33.5106   5
  -3  -3  12 768.416 35.7778   7
   3  -3 -12 767.109 33.0368   6
   3   3 -12 738.194 33.1824   5
   3   3 -12 746.624 34.6463   6
  -3   3  12 754.281 30.2461   2
  -3   3  12 759.810 32.7845   7
   2  -3 -12 51.7577 10.7824   5
   2  -3 -12 49.3826 9.68760   6
  -2  -3  12 40.7076 9.88964   7
   2   3 -12 54.4029 10.0216   5
  -2   3  12 56.9577 9.89663   7
   2   3 -12 63.1259 10.5297   6
   1  -3 -12 236.093 18.3496   6
  -1  -3  12 223.871 20.7208   7
   1   3 -12 211.802 18.7565   6
  -1   3  12 247.858 19.8780   7
   1   3 -12 286.239 21.1012   5
   0  -3 -12 422.470 21.4075   6
   0  -3  12 440.588 24.7869   7
   0   3  12 435.924 23.8045   7
   0   3 -12 448.843 23.8084   6
   0   3 -12 440.313 23.0622   5
  -3  -4  12 209.145 20.9780   7
   3  -4 -12 183.792 18.3795   6
   3  -4 -12 175.433 15.2786   5
  -3   4  12 193.500 18.7458   7
   3   4 -12 169.315 16.4106   5
   3   4 -12 195.513 19.6399   6
   6   0 -13 -3.6314 8.42660   6
  -6   0  13 -3.4143 8.87903   7
   6   0 -13 -0.1295 11.6237   5
  -6   0  13 -11.383 7.54853   2
   5   0 -13 278.273 21.8190   5
   5   0 -13 283.670 23.4971   6
  -5   0  13 316.808 25.0419   7
   4   0 -13 5.15089 7.49516   5
  -4   0  13 1.26326 11.4195   7
   4   0 -13 -10.773 10.4629   6
  -3   0  13 166.321 17.0978   7
   3   0 -13 229.008 19.4072   6
   3   0 -13 184.088 15.9746   5
   2   0 -13 -4.6950 6.40163   6
   2   0 -13 0.88939 9.21579   5
  -2   0  13 -1.3391 10.1113   7
   1   0 -13 30.8857 9.86593   5
   1   0 -13 43.4020 10.8109   6
  -1   0  13 50.5410 11.1221   7
   6  -1 -13 110.197 17.1779   6
  -6  -1  13 115.589 15.0935   7
   6  -1 -13 121.095 17.0341   5
  -6   1  13 143.360 12.4889   2
   6   1 -13 117.685 16.6919   5
  -6   1  13 107.161 17.4185   7
   6   1 -13 110.507 17.1758   6
   5  -1 -13 450.074 27.2821   5
  -5  -1  13 433.929 28.0584   7
   5  -1 -13 388.625 24.1204   6
   5   1 -13 417.404 27.2832   6
   5   1 -13 418.751 24.4102   5
  -5   1  13 438.015 25.2392   7
  -4  -1  13 114.471 14.0322   7
   4  -1 -13 134.951 14.1691   5
   4  -1 -13 110.527 15.7856   6
   4   1 -13 149.257 14.8122   6
  -4   1  13 146.006 16.8589   7
   4   1 -13 138.328 16.3443   5
  -3  -1  13 79.8453 13.9962   7
   3  -1 -13 74.8423 13.6328   6
   3  -1 -13 84.7753 11.1774   5
   3   1 -13 86.6895 13.5663   5
   3   1 -13 56.7128 12.9708   6
  -3   1  13 92.9204 11.8787   7
   2  -1 -13 388.384 22.8426   5
  -2  -1  13 393.622 24.2107   7
   2  -1 -13 383.699 23.3555   6
   2   1 -13 359.420 21.2875   6
  -2   1  13 414.963 22.0070   7
   2   1 -13 374.558 23.5414   5
   1  -1 -13 -2.9882 8.63519   6
  -1  -1  13 0.89735 9.54351   7
   1  -1 -13 1.49250 8.31108   5
  -1   1  13 0.49132 6.55177   7
   1   1 -13 8.71723 9.22580   5
   1   1 -13 -3.9931 8.86613   6
  -5  -2  13 66.5487 12.7541   7
   5  -2 -13 47.9230 13.5243   5
   5  -2 -13 28.4531 13.5732   6
   5   2 -13 71.5692 11.8656   5
  -5   2  13 60.0948 10.4021   2
   5   2 -13 46.2198 10.9248   6
  -5   2  13 39.0744 14.6322   7
  -4  -2  13 172.235 18.7522   7
   4  -2 -13 175.273 15.9987   5
   4  -2 -13 154.852 15.6368   6
   4   2 -13 205.335 19.2356   6
   4   2 -13 158.139 17.7619   5
  -4   2  13 179.591 16.8193   7
   3  -2 -13 380.635 21.5853   5
   3  -2 -13 387.226 24.3316   6
  -3  -2  13 361.375 22.6114   7
   3   2 -13 390.214 25.1574   5
  -3   2  13 349.354 24.5731   7
   3   2 -13 359.911 24.2187   6
   2  -2 -13 156.481 15.0105   5
  -2  -2  13 160.839 15.2045   7
   2  -2 -13 179.985 16.3854   6
  -2   2  13 150.804 14.3973   7
   2   2 -13 161.295 16.4351   6
   2   2 -13 151.376 16.2656   5
   0   0   0    0.00    0.00   0
 _exptl_absorpt_process_details 'SADABS 2014/5'
 _exptl_absorpt_correction_type   multi-scan
 _exptl_absorpt_correction_T_max  0.7454
 _exptl_absorpt_correction_T_min  0.6094
 _exptl_special_details

;
loop_
_symmetry_equiv_pos_as_xyz
'x, y, z'
'-x+1/2, y+1/2, -z+1/2'
'-x, -y, -z'
'x-1/2, -y-1/2, z-1/2'
loop_
_atom_site_label
_atom_site_type_symbol
_atom_site_fract_x
_atom_site_fract_y
_atom_site_fract_z
_atom_site_U_iso_or_equiv
_atom_site_adp_type
_atom_site_occupancy
_atom_site_site_symmetry_order
_atom_site_calc_flag
_atom_site_refinement_flags_posn
_atom_site_refinement_flags_adp
C1 C 0.8455(5) 0.8596(6) 0.0553(4) 0.0093(8) Uani 1 1 d . .
H1A H 0.828403 0.745965 -0.004844 0.011 Uiso 1 1 calc R U
H1B H 0.760001 0.956357 0.016682 0.011 Uiso 1 1 calc R U
C2 C 1.0038(5) 0.9557(6) 0.0653(4) 0.0109(8) Uani 1 1 d . .
H2A H 1.02842 1.060705 0.132168 0.013 Uiso 1 1 calc R U
H2B H 1.089067 0.855543 0.091788 0.013 Uiso 1 1 calc R U
C3 C 1.0106(5) 0.6332(6) 0.2783(4) 0.0104(8) Uani 1 1 d . .
H3A H 1.101247 0.725757 0.299633 0.012 Uiso 1 1 calc R U
H3B H 1.009145 0.572075 0.36038 0.012 Uiso 1 1 calc R U
C4 C 1.0365(5) 0.4725(6) 0.1906(4) 0.0138(9) Uani 1 1 d . .
H4A H 0.943607 0.38584 0.163151 0.021 Uiso 1 1 calc R U
H4B H 1.130214 0.394987 0.237763 0.021 Uiso 1 1 calc R U
H4C H 1.052388 0.532788 0.114014 0.021 Uiso 1 1 calc R U
S1 S 0.82812(11) 0.77329(14) 0.20846(9) 0.0077(2) Uani 1 1 d . .
Cl1 Cl 0.86846(11) 0.86525(14) 0.55204(10) 0.0130(2) Uani 1 1 d . .
Cu1 Cu 0.86711(6) 1.03554(7) 0.35624(5) 0.01093(16) Uani 1 1 d . .
loop_
_atom_site_aniso_label
_atom_site_aniso_U_11
_atom_site_aniso_U_22
_atom_site_aniso_U_33
_atom_site_aniso_U_23
_atom_site_aniso_U_13
_atom_site_aniso_U_12
C1 0.011(2) 0.0072(18) 0.008(2) 0.0037(16) 0.0011(16) 0.0012(15)
C2 0.011(2) 0.0100(18) 0.011(2) -0.0006(17) 0.0034(16) -0.0019(17)
C3 0.0075(19) 0.0112(19) 0.009(2) 0.0038(17) -0.0012(15) 0.0026(16)
C4 0.015(2) 0.0103(19) 0.017(2) 0.0014(18) 0.0055(18) 0.0034(17)
S1 0.0078(5) 0.0079(5) 0.0072(5) 0.0002(4) 0.0024(4) -0.0001(4)
Cl1 0.0107(5) 0.0161(5) 0.0113(5) 0.0041(4) 0.0024(4) -0.0031(4)
Cu1 0.0096(3) 0.0130(3) 0.0099(3) -0.0003(2) 0.0029(2) 0.0024(2)
loop_
_atom_type_symbol
_atom_type_description
_atom_type_scat_dispersion_real
_atom_type_scat_dispersion_imag
_atom_type_scat_source
C C 0.0033 0.0016 'International Tables Vol C Tables 4.2.6.8 and 6.1.1.4'
H H 0 0 'International Tables Vol C Tables 4.2.6.8 and 6.1.1.4'
S S 0.1246 0.1234 'International Tables Vol C Tables 4.2.6.8 and 6.1.1.4'
Cl Cl 0.1484 0.1585 'International Tables Vol C Tables 4.2.6.8 and 6.1.1.4'
Cu Cu 0.3201 1.2651 'International Tables Vol C Tables 4.2.6.8 and 6.1.1.4'
loop_
_geom_angle_atom_site_label_1
_geom_angle_atom_site_label_2
_geom_angle_atom_site_label_3
_geom_angle
_geom_angle_site_symmetry_1
_geom_angle_site_symmetry_3
C2 C1 S1 115.2(3) . .
C2 C2 C1 110.1(4) 3_775 .
C4 C3 S1 114.2(3) . .
C1 S1 C3 102.52(18) . .
C1 S1 Cu1 103.04(13) . 2_645
C3 S1 Cu1 104.41(13) . 2_645
C1 S1 Cu1 110.40(13) . .
C3 S1 Cu1 101.22(13) . .
Cu1 S1 Cu1 131.72(4) 2_645 .
Cu1 Cl1 Cu1 87.36(4) 3_776 .
S1 Cu1 Cl1 119.15(4) 2_655 3_776
S1 Cu1 S1 112.93(2) 2_655 .
Cl1 Cu1 S1 114.39(4) 3_776 .
S1 Cu1 Cl1 112.75(4) 2_655 .
Cl1 Cu1 Cl1 92.64(4) 3_776 .
S1 Cu1 Cl1 101.67(4) . .
loop_
_geom_bond_atom_site_label_1
_geom_bond_atom_site_label_2
_geom_bond_distance
_geom_bond_site_symmetry_2
C1 C2 1.528(5) .
C1 S1 1.823(4) .
C2 C2 1.526(8) 3_775
C3 C4 1.515(6) .
C3 S1 1.824(4) .
S1 Cu1 2.3081(11) 2_645
S1 Cu1 2.3453(11) .
Cl1 Cu1 2.3436(11) 3_776
Cl1 Cu1 2.4225(11) .
loop_
_geom_hbond_atom_site_label_D
_geom_hbond_atom_site_label_H
_geom_hbond_atom_site_label_A
_geom_hbond_distance_DH
_geom_hbond_distance_HA
_geom_hbond_distance_DA
_geom_hbond_angle_DHA
_geom_hbond_site_symmetry_A
C1 H1B Cl1 0.99 3 3.908(4) 153.7 2_655
C4 H4B Cl1 0.98 2.89 3.502(4) 121.7 3_766
C1 H1B Cl1 0.99 3 3.908(4) 153.7 2_655
C4 H4B Cl1 0.98 2.89 3.502(4) 121.7 3_766
