#------------------------------------------------------------------------------
#$Date: 2019-09-10 03:35:06 +0300 (Tue, 10 Sep 2019) $
#$Revision: 218107 $
#$URL: file:///home/coder/svn-repositories/cod/cif/7/23/37/7233728.cif $
#------------------------------------------------------------------------------
#
# This file is available in the Crystallography Open Database (COD),
# http://www.crystallography.net/
#
# All data on this site have been placed in the public domain by the
# contributors.
#
data_7233728
loop_
_publ_author_name
'Molcanov, Kresimir'
'Milasinovic, Valentina'
'Ivic, Nives'
'Stilinovi\'c, Vladimir'
'Kolaric, Dinko'
'Kojic-Prodic, Biserka'
_publ_section_title
;
 Influence of organic cations on stacking of semiquinone radical anions
;
_journal_name_full               CrystEngComm
_journal_paper_doi               10.1039/C9CE00919A
_journal_year                    2019
_chemical_formula_moiety         'C15 H9 Cl6 N2 O3'
_chemical_formula_sum            'C15 H9 Cl6 Cu0 N2 O3'
_chemical_formula_weight         477.94
_space_group_IT_number           2
_space_group_name_Hall           '-P 1'
_space_group_name_H-M_alt        'P -1'
_symmetry_cell_setting           triclinic
_symmetry_space_group_name_Hall  '-P 1'
_symmetry_space_group_name_H-M   'P -1'
_atom_sites_solution_hydrogens   geom
_atom_sites_solution_primary     direct
_atom_sites_solution_secondary   difmap
_audit_creation_date             2017-02-08T11:43:57-00:00
_audit_creation_method           'WinGX routine CIF_UPDATE'
_audit_update_record
;
2019-06-10 deposited with the CCDC.    2019-09-02 downloaded from the CCDC.
;
_cell_angle_alpha                66.219(5)
_cell_angle_beta                 72.013(5)
_cell_angle_gamma                89.522(5)
_cell_formula_units_Z            2
_cell_length_a                   9.6014(5)
_cell_length_b                   10.0218(6)
_cell_length_c                   10.7402(6)
_cell_measurement_reflns_used    4819
_cell_measurement_temperature    293(2)
_cell_measurement_theta_max      75.7258
_cell_measurement_theta_min      4.7692
_cell_volume                     891.44(10)
_computing_cell_refinement
;
        CrysAlisPro, Agilent Technologies,
        Version 1.171.36.20 (release 27-06-2012 CrysAlis171 .NET)
        (compiled Jul 11 2012,15:38:31)
;
_computing_data_collection
;
        CrysAlisPro, Agilent Technologies,
        Version 1.171.36.20 (release 27-06-2012 CrysAlis171 .NET)
        (compiled Jul 11 2012,15:38:31)
;
_computing_data_reduction
;
        CrysAlisPro, Agilent Technologies,
        Version 1.171.36.20 (release 27-06-2012 CrysAlis171 .NET)
        (compiled Jul 11 2012,15:38:31)
;
_computing_molecular_graphics    'Ortep-3 for Windows (Farrugia, 1997)'
_computing_publication_material  'WinGX publication routines (Farrugia, 1999)'
_computing_structure_refinement  'SHELXL-97 (Sheldrick, 1997)'
_computing_structure_solution    'SHELXS-97 (Sheldrick, 1997)'
_diffrn_ambient_temperature      293(2)
_diffrn_detector_area_resol_mean 10.4323
_diffrn_measured_fraction_theta_full 0.987
_diffrn_measured_fraction_theta_max 0.987
_diffrn_measurement_device_type  'Xcalibur, Ruby, Nova'
_diffrn_measurement_method       '\w scans'
_diffrn_radiation_monochromator  graphite
_diffrn_radiation_type           CuK\a
_diffrn_radiation_wavelength     1.54184
_diffrn_reflns_av_R_equivalents  0.0333
_diffrn_reflns_av_unetI/netI     0.0348
_diffrn_reflns_limit_h_max       9
_diffrn_reflns_limit_h_min       -12
_diffrn_reflns_limit_k_max       12
_diffrn_reflns_limit_k_min       -12
_diffrn_reflns_limit_l_max       10
_diffrn_reflns_limit_l_min       -13
_diffrn_reflns_number            7801
_diffrn_reflns_theta_full        75.91
_diffrn_reflns_theta_max         75.91
_diffrn_reflns_theta_min         4.77
_exptl_absorpt_coefficient_mu    8.986
_exptl_absorpt_correction_T_max  1
_exptl_absorpt_correction_T_min  0.65319
_exptl_absorpt_correction_type   multi-scan
_exptl_absorpt_process_details
;
        CrysAlisPro, Agilent Technologies,
        Version 1.171.36.20 (release 27-06-2012 CrysAlis171 .NET)
        (compiled Jul 11 2012,15:38:31)
        Empirical absorption correction using spherical harmonics,
 implemented in SCALE3 ABSPACK scaling algorithm.
;
_exptl_crystal_colour            black
_exptl_crystal_density_diffrn    1.781
_exptl_crystal_density_method    'not measured'
_exptl_crystal_description       prism
_exptl_crystal_F_000             478
_exptl_crystal_recrystallization_method
'Re-crystallisation from solvent: acetone'
_exptl_crystal_size_max          0.1
_exptl_crystal_size_mid          0.1
_exptl_crystal_size_min          0.1
_refine_diff_density_max         0.664
_refine_diff_density_min         -0.487
_refine_diff_density_rms         0.116
_refine_ls_extinction_method     none
_refine_ls_goodness_of_fit_ref   1.07
_refine_ls_hydrogen_treatment    mixed
_refine_ls_matrix_type           full
_refine_ls_number_parameters     241
_refine_ls_number_reflns         3662
_refine_ls_number_restraints     6
_refine_ls_restrained_S_all      1.07
_refine_ls_R_factor_all          0.0597
_refine_ls_R_factor_gt           0.0574
_refine_ls_shift/su_max          0.004
_refine_ls_shift/su_mean         0
_refine_ls_structure_factor_coef Fsqd
_refine_ls_weighting_details
'calc w=1/[\s^2^(Fo^2^)+(0.1029P)^2^+0.7143P] where P=(Fo^2^+2Fc^2^)/3'
_refine_ls_weighting_scheme      calc
_refine_ls_wR_factor_ref         0.177
_reflns_number_gt                3367
_reflns_number_total             3662
_reflns_threshold_expression     >2sigma(I)
_iucr_refine_instructions_details
;
TITL Cl4Q_4ampy in P-1
CELL  1.54184   9.6014  10.0218  10.7402   66.219   72.013   89.522
ZERR     2.00   0.0005   0.0006   0.0006    0.005    0.005    0.005
LATT   1
SFAC  C    N    O    H    CU   CL
UNIT  30   4   6    18    0    12
MERG   2
OMIT    -4.00 180.00
OMIT    4 2 9
OMIT    -1 -3 7
OMIT    9 5 5
OMIT    -4 2 0
OMIT    -3 -3 6
OMIT    6 5 2
EXYZ N2 C15B
EADP N2 C15B
EXYZ N1 C12B
EADP N1 C12B
EXYZ C15 N2B
EADP C15 N2B
EXYZ C12 N1B
EADP C12 N1B
FREE C11 N1B
FREE C13 N1B
FREE C10 C12B
FREE C14 C12B
FREE C12 C15B
FREE N1B N2
FREE N1 N2B
FREE C12B C15
FLAT C12B N2B H2C H2D
DFIX    N2B H2C 0.85 0.02
DFIX    N2B H2D 0.85 0.02
DANG    H2C H2D 1.49 0.04
DANG     2.500   0.040 H2D C10
DANG     2.500   0.040 H2C C14
FMAP   2
PLAN   20
BOND    $H
HTAB
CONF
ACTA
L.S.  10
WGHT    0.102900    0.714300
FVAR       5.16943
MOLE    1
CL1   6    0.625328    0.221674    0.715768    11.00000    0.06273    0.05396 =
         0.03424   -0.01844   -0.01975    0.00482
CL2   6    0.908375    0.400722    0.442027    11.00000    0.03851    0.05525 =
         0.06302   -0.02180   -0.02440   -0.00386
CL3   6    0.567761    0.549460    0.104220    11.00000    0.06685    0.04556 =
         0.04225   -0.00822   -0.02865   -0.00165
CL4   6    0.284436    0.372882    0.379676    11.00000    0.03434    0.05605 =
         0.07136   -0.03118   -0.02376    0.01030
O1    3    0.362476    0.219003    0.637863    11.00000    0.03686    0.08044 =
         0.04289   -0.01930    0.00136   -0.00683
O2    3    0.835151    0.535261    0.178272    11.00000    0.04516    0.05813 =
         0.04399   -0.00497   -0.00674   -0.01808
C1    1    0.469400    0.292672    0.533674    11.00000    0.03321    0.04099 =
         0.03419   -0.01652   -0.00458   -0.00024
C2    1    0.617584    0.306579    0.544443    11.00000    0.04003    0.03704 =
         0.03250   -0.01726   -0.01183    0.00183
C3    1    0.737069    0.382731    0.429116    11.00000    0.03408    0.03482 =
         0.04061   -0.01741   -0.01435   -0.00010
C4    1    0.727523    0.461190    0.283158    11.00000    0.03585    0.03504 =
         0.03471   -0.01123   -0.00601   -0.00772
C5    1    0.579256    0.453019    0.272550    11.00000    0.04139    0.03134 =
         0.03512   -0.01215   -0.01485    0.00020
C6    1    0.459248    0.376366    0.388673    11.00000    0.03275    0.03644 =
         0.04343   -0.02035   -0.01386    0.00439
MOLE    2
CL5   6    0.189820   -0.027462    0.470054    11.00000    0.02802    0.04829 =
         0.04685   -0.02035   -0.01442    0.00281
CL6   6    0.459739    0.171806    0.200778    11.00000    0.04513    0.04256 =
         0.03045   -0.01096   -0.01509    0.00359
O3    3    0.272124   -0.191197    0.727635    11.00000    0.03018    0.04399 =
         0.03155   -0.01119   -0.00082   -0.00428
C7    1    0.376359   -0.100044    0.623109    11.00000    0.02729    0.02977 =
         0.02733   -0.01162   -0.00225   -0.00068
C8    1    0.362413   -0.013307    0.483520    11.00000    0.02659    0.03276 =
         0.03340   -0.01603   -0.00817    0.00210
C9    1    0.478617    0.079030    0.367650    11.00000    0.03165    0.02945 =
         0.02657   -0.01117   -0.00708    0.00175
MOLE    3
N1    2   -0.138298    0.173858    0.912156    10.50000    0.03964    0.05361 =
         0.04208   -0.01891   -0.00258   -0.00518
N2    2   -0.061884   -0.210193    0.857063    10.50000    0.09373    0.05067 =
         0.09399   -0.01472    0.04191    0.00950
AFIX  93
H2A   4   -0.117027   -0.291530    0.918986    10.50000   -1.20000
H2B   4    0.010853   -0.209109    0.785575    10.50000   -1.20000
AFIX   0
C10   1   -0.021549    0.172402    0.799847    11.00000    0.04122    0.05352 =
         0.03392   -0.01170   -0.00284   -0.01008
AFIX  43
H10   4    0.042075    0.258788    0.735797    11.00000   -1.20000
AFIX   0
C11   1    0.002308    0.048828    0.780920    11.00000    0.04599    0.05986 =
         0.03471   -0.01421    0.00265   -0.00009
AFIX  43
H11   4    0.082870    0.051350    0.704436    11.00000   -1.20000
AFIX   0
C12   1   -0.089852   -0.082629    0.872268    10.50000    0.04404    0.04991 =
         0.04112   -0.01579   -0.00260    0.00122
C14   1   -0.229319    0.042961    1.004755    11.00000    0.03761    0.06276 =
         0.04543   -0.02311    0.00466   -0.00652
AFIX  43
H14   4   -0.308809    0.040646    1.081989    11.00000   -1.20000
AFIX   0
C13   1   -0.206082   -0.081651    0.986242    11.00000    0.03583    0.05134 =
         0.04311   -0.01057   -0.00067   -0.00297
AFIX  43
H13   4   -0.269154   -0.168176    1.051079    11.00000   -1.20000
AFIX   0
C15   1   -0.161376    0.300984    0.933502    10.50000    0.10143    0.09967 =
         0.10341   -0.07299    0.05401   -0.05539
AFIX  33
H15A  4   -0.087490    0.380255    0.858861    10.50000   -1.50000
H15B  4   -0.155069    0.285169    1.025797    10.50000   -1.50000
H15C  4   -0.257542    0.325506    0.930620    10.50000   -1.50000
AFIX   0
C15B  1   -0.061884   -0.210193    0.857063    10.50000    0.09373    0.05067 =
         0.09399   -0.01472    0.04191    0.00950
AFIX  33
H15D  4    0.035501   -0.196135    0.789476    10.50000   -1.50000
H15E  4   -0.133238   -0.236701    0.822215    10.50000   -1.50000
H15F  4   -0.068276   -0.287327    0.948822    10.50000   -1.50000
AFIX   0
C12B  1   -0.138298    0.173858    0.912156    10.50000    0.03964    0.05361 =
         0.04208   -0.01891   -0.00258   -0.00518
N2B   2   -0.161376    0.300984    0.933502    10.50000    0.10143    0.09967 =
         0.10341   -0.07299    0.05401   -0.05539
N1B   2   -0.089852   -0.082629    0.872268    10.50000    0.04404    0.04991 =
         0.04112   -0.01579   -0.00260    0.00122
H2C   4   -0.246457    0.300963    0.986030    10.50000   -1.20000
H2D   4   -0.085725    0.362443    0.898135    10.50000   -1.20000
HKLF    4
 
REM  Cl4Q_4ampy in P-1
REM R1 =  0.0574 for   3367 Fo > 4sig(Fo)  and  0.0597 for all   3662 data
REM    241 parameters refined using      6 restraints
 
END
 
WGHT      0.1030      0.7209
REM Highest difference peak  0.664,  deepest hole -0.487,  1-sigma level  0.116
Q1    1   0.5226  0.3268  0.1384  11.00000  0.05    0.66
Q2    1   0.7781  0.4560  0.5616  11.00000  0.05    0.63
Q3    1  -0.4108  0.1248  1.0666  11.00000  0.05    0.62
Q4    1   0.3057 -0.0690  0.3517  11.00000  0.05    0.59
Q5    1   0.5024  0.2553  0.8352  11.00000  0.05    0.59
Q6    1   0.0626  0.0146  0.6204  11.00000  0.05    0.58
Q7    1   0.8471  0.2515  0.4779  11.00000  0.05    0.58
Q8    1   0.5749  0.3923  0.7548  11.00000  0.05    0.57
Q9    1   0.4998  0.3902  0.1640  11.00000  0.05    0.56
Q10   1   0.4019  0.0185  0.2666  11.00000  0.05    0.55
Q11   1   0.1219  0.1725  0.5395  11.00000  0.05    0.54
Q12   1   0.2399  0.4636  0.4156  11.00000  0.05    0.54
Q13   1   0.1231 -0.1856  0.5439  11.00000  0.05    0.53
Q14   1   0.5679  0.0765  0.7667  11.00000  0.05    0.53
Q15   1   0.2508  0.1280  0.4178  11.00000  0.05    0.53
Q16   1   0.2278 -0.1211  0.4581  11.00000  0.05    0.52
Q17   1   0.3364  0.5229  0.3296  11.00000  0.05    0.52
Q18   1   0.4077  0.3412  0.2626  11.00000  0.05    0.51
Q19   1   0.2102  0.2033  0.4601  11.00000  0.05    0.51
Q20   1   0.5896  0.3322  0.7449  11.00000  0.05    0.51
;
_cod_data_source_file            c9ce00919a2.cif
_cod_data_source_block           cl4q_4ampy
_cod_original_cell_volume        891.44(9)
_cod_database_code               7233728
_iucr_refine_reflections_details
;
   0   0  -1 122333. 2305.19   2
   0   0  -1 107823. 2311.34   1
   0   0  -2 1886.09 134.022   2
   0   0   3 28425.7 796.344   3
   0   0  -3 29831.0 841.692   2
   0   0   4 381.979 80.0262   3
   0   0  -4 312.666 75.7438   2
   0   0   5 109.651 50.0746   3
   0   0   6 2778.78 281.504   3
   0   0   7 85.5484 53.5610   3
   0   0  -7 50.9158 25.8700  22
   0   0  -7 68.2754 27.1031  11
   0   0  -8 240.755 47.4973  22
   0   0  -8 215.425 44.4098  11
   0   0  -9 70.2650 22.4583  11
   0   0  -9 54.8804 19.6993  13
   0   0  -9 23.5050 13.5991   6
   0   0  -9 31.6643 17.7190  22
   0   0 -10 5065.97 199.140  13
   0   0 -10 5663.48 228.900  22
   0   0 -11 12717.3 343.845  22
   0   1 -11 109.338 20.1892  22
   0   1 -10 1285.53 93.3885  22
   0   1  -9 162.676 37.6684  11
   0   1  -9 138.916 33.0662  22
   0   1  -9 162.505 28.9843  13
   0   1  -8 2838.98 176.885  11
   0   1  -8 2908.02 174.297  22
   0   1  -8 2854.59 153.262  13
   0   1  -7 9462.57 344.682  11
   0   1  -7 9191.24 332.548  22
   0  -1   6 66038.5 1908.25   3
   0  -1   5 637.875 130.054   3
   0  -1   4 611.028 111.967   3
   0  -1   3 99.7678 42.9293   3
   0  -1   2 5903.79 279.593   3
   0  -1   1 28821.0 707.631   3
   0  -1   0 894.689 58.2863   3
   0  -1  -1 1242.40 80.1153   1
   0  -1  -1 1187.07 62.4988   2
   0  -1  -2 29310.6 760.767   1
   0  -1  -2 28758.1 675.463   2
   0  -1  -3 8954.49 339.934   2
   0  -1  -3 8349.35 398.361   1
   0  -1  -4 299452. 6042.62   2
   0   1   5 14117.0 571.151   3
   0  -1  -5 15356.4 626.803   2
   0   1   6 772.629 135.858   3
   0   1   7 3408.34 320.275   3
   0  -1  -8 184.277 41.2901  22
   0  -1  -8 189.309 41.5100  19
   0  -1  -8 137.626 37.7056  11
   0   1   8 184.308 75.0564   3
   0  -1  -9 19.9991 16.0429  22
   0  -1  -9 40.5785 20.6051  19
   0  -1  -9-11.1195 16.7990  13
   0  -1 -10 638.775 73.7083  22
   0  -1 -10 680.247 72.8827  13
   0  -1 -11 147.574 28.8002  22
   0  -1 -11 149.372 28.5615  13
   0  -1 -12 823.675 49.3737   9
   0   2 -10 122.544 23.6626  22
   0   2  -9 1341.04 104.579  11
   0   2  -9 1382.13 102.819  22
   0   2  -8 261.952 50.2108  11
   0   2  -8 266.736 46.2124  22
   0   2  -7 12.3325 18.6198  22
   0   2  -7 25.8561 10.7359  17
   0   2  -7 26.5690 19.9457  11
   0  -2   6 3360.73 357.774   3
   0   2  -6 3394.54 175.981  22
   0   2  -6 3596.13 188.785  11
   0   2  -6 3751.01 188.320  17
   0  -2   5 13832.8 710.154   3
   0  -2   4 411.198 101.103   3
   0  -2   3 51762.2 1414.58   3
   0  -2   2 454404. 8975.48   3
   0  -2   1 3236.73 197.369   3
   0  -2   0 10805.0 344.649   3
   0  -2  -1 710.867 62.5155   3
   0  -2  -1 700.486 87.0451   1
   0  -2  -2 24678.3 607.620   2
   0  -2  -2 26263.2 701.127   1
   0  -2  -3 1380.87 110.459   2
   0  -2  -3 1509.73 150.727   1
   0  -2  -4 6250.26 388.126   1
   0  -2  -4 7580.80 326.059   2
   0  -2  -5 8833.86 518.126   1
   0  -2  -5 9953.36 463.065   2
   0   2   6 20.0148 24.5692   3
   0  -2  -6 54.1430 34.9965   2
   0   2   7 459.228 107.039   3
   0  -2  -8 15221.8 440.083  19
   0  -2  -8 14995.2 435.018  16
   0  -2  -8 14143.9 416.967  25
   0  -2  -8 13642.0 436.619  22
   0  -2  -8 15510.9 458.396  13
   0  -2  -9 5534.07 250.202  13
   0  -2  -9 5475.40 222.452  25
   0  -2  -9 5068.42 237.378  22
   0  -2  -9 5201.16 233.076  19
   0  -2 -10 649.643 78.9067  13
   0  -2 -10 759.029 76.6260  19
   0  -2 -10 686.412 77.1228  22
   0  -2 -11 1634.06 108.206  13
   0  -2 -11 1663.49 108.065  22
   0  -2 -12 41.3309 12.2766  22
   0  -2 -12 76.1874 19.5558   9
   0   3  -9 1322.36 87.8180   6
   0   3  -9 1159.04 81.9564  22
   0  -3   8 17594.8 505.638  27
   0   3  -8 18776.9 539.197  11
   0   3  -7 65.4140 27.7459  17
   0   3  -7-1.74997 11.4504  11
   0   3  -7 57.2830 24.4227  22
   0   3  -6 952.599 97.5603  17
   0   3  -6 974.353 103.395  20
   0   3  -6 1110.93 99.0550  22
   0  -3   6 1110.13 224.274   3
   0   3  -6 942.724 100.758  11
   0  -3   5 2139.76 285.732   3
   0  -3   4 2014.75 258.045   3
   0  -3   3 11868.1 601.944   3
   0  -3   2 3158.01 263.098   3
   0  -3   1 25629.4 798.370   3
   0  -3   0 7429.85 324.891   3
   0  -3  -1 422310. 8435.09   1
   0  -3  -1 421868. 8195.57   3
   0  -3  -2 999999. 19240.1   1
   0  -3  -3 24929.3 782.670   1
   0  -3  -3 24419.4 656.206   2
   0  -3  -4 69.4123 29.6655   2
   0  -3  -4-9.76318 20.3306   1
   0  -3  -5 623.099 96.5643   2
   0  -3  -5 572.513 126.140   1
   0  -3  -6 811.256 164.195   1
   0  -3  -6 1126.00 154.663   2
   0   3   7 230.349 71.7658   3
   0  -3  -8 3194.97 176.805  13
   0  -3  -8 3150.92 169.891  19
   0  -3  -8 3047.68 157.656  16
   0  -3  -8 2853.00 154.519  22
   0  -3  -8 2632.03 154.504  25
   0  -3  -9 85.8386 26.5706  25
   0  -3  -9 139.597 40.9330  19
   0  -3  -9 71.2410 27.5288  13
   0  -3  -9 142.072 37.2129  22
   0  -3 -10 1834.05 137.479  13
   0  -3 -10 1919.54 130.572  22
   0  -3 -10 1750.01 119.571  25
   0  -3 -10 2050.42 137.201  19
   0  -3 -11 2386.56 143.454  13
   0  -3 -11 2443.86 134.520  22
   0  -3 -12 73.5190 17.0098  22
   0  -3 -12 130.531 25.9884   9
   0   4  -9 344.622 30.7168  22
   0   4  -8 840.231 69.5544  22
   0   4  -8 879.683 78.1500  11
   0   4  -7 3974.19 199.154  17
   0   4  -7 3867.97 200.211  11
   0   4  -7 3769.70 181.463  22
   0   4  -6 2686.26 171.996  11
   0   4  -6 2747.51 158.814  22
   0   4  -6 2777.63 174.527  17
   0   4  -6 2936.97 182.922  20
   0  -4   5 83886.0 2475.25   3
   0   4  -5 86700.1 1838.62  17
   0   4  -5 81954.7 1779.63  22
   0   4  -5 83615.3 1825.69  11
   0   4  -5 87682.0 1868.71  20
   0  -4   4 88885.9 2503.27   3
   0  -4   3 2345.68 283.442   3
   0  -4   2 2792.89 281.324   3
   0  -4   1 1937.92 208.589   3
   0  -4   0 372.071 80.9758   3
   0  -4  -1 14087.7 669.102   1
   0  -4  -1 14426.3 510.780   3
   0  -4  -2 32409.7 856.459   3
   0  -4  -2 31916.2 1000.45   1
   0  -4  -3 45281.0 1262.93   1
   0  -4  -3 44560.0 1113.86   2
   0  -4  -4 72.8184 33.7867   2
   0  -4  -4 65.9856 39.2362   1
   0  -4  -5 2051.11 178.646   2
   0  -4  -5 1989.37 239.350   1
   0  -4  -6 787.504 167.706   1
   0  -4  -6 886.717 128.428   2
   0  -4  -7 43247.3 1549.09   1
   0  -4  -8 3009.07 173.568  19
   0  -4  -8 2800.42 146.664  16
   0  -4  -8 3155.70 176.151  13
   0  -4  -9 706.253 86.2985  13
   0  -4  -9 771.445 80.1732  16
   0  -4  -9 662.663 84.1376  19
   0  -4  -9 524.885 71.1546  25
   0  -4 -10 410.889 81.2476  19
   0  -4 -10 228.233 55.0675  25
   0  -4 -10 494.494 81.7041  13
   0  -4 -11 320.970 56.4120  13
   0  -4 -11 426.167 61.6586   9
   0  -4 -11 310.409 47.7229  25
   0  -4 -12 798.908 66.8379   9
   0  -5   8 78.4255 16.0040  27
   0   5  -7 92.8256 25.8564  11
   0   5  -7 96.9694 22.7756  22
   0  -5   7 59.6205 19.3172  27
   0   5  -6 358.343 49.7356  22
   0   5  -6 345.327 55.4201  20
   0   5  -6 434.463 63.7528  17
   0   5  -6 394.883 60.3702  11
   0   5  -5 311.354 66.8505  17
   0   5  -5 240.707 62.4824  20
   0   5  -4 12235.1 395.009  18
   0  -5   4 12674.1 779.132   3
   0   5  -4 11949.5 437.032  20
   0   5  -4 11887.0 408.525  17
   0   5  -3 10275.8 350.456  17
   0  -5   3 10367.7 679.885   3
   0  -5   2 1057.08 197.214   3
   0  -5   1 110974. 2739.06   3
   0  -5   0 84888.7 2121.16   3
   0  -5  -1 377.538 126.012   1
   0  -5  -1 209.337 60.6698   3
   0  -5  -2 9643.56 429.527   3
   0  -5  -2 9642.56 543.278   1
   0  -5  -3 50.7584 30.2367   1
   0  -5  -4 3004.29 287.721   1
   0  -5  -4 3266.15 230.515   2
   0  -5  -5 618.767 104.226   2
   0  -5  -5 530.506 129.894   1
   0  -5  -6 1320.46 219.246   1
   0  -5  -7 1007.66 204.479   1
   0  -5  -8 12566.3 406.881  13
   0  -5  -8 11746.8 408.559  25
   0  -5  -8 11807.3 356.684  16
   0  -5  -8 13108.5 413.536  19
   0  -5  -9 1576.75 133.739   9
   0  -5  -9 1423.30 123.635  25
   0  -5  -9 1542.06 127.203  19
   0  -5  -9 1551.48 129.964  13
   0  -5  -9 1551.59 108.450  16
   0  -5 -10 92.2405 41.2112  13
   0  -5 -10 100.232 39.2772   9
   0  -5 -10 44.9968 29.8410  25
   0  -5 -10 150.762 54.4793  19
   0  -5 -11 13960.6 432.580   9
   0  -5 -11 13353.5 408.770  25
   0  -5 -12 640.902 63.1118   9
   0  -5 -12 481.325 45.8498  25
   0  -6   7 3807.83 152.973  27
   0   6  -6 2076.41 129.367  17
   0   6  -6 1870.00 116.458  11
   0   6  -5 45.4357 20.6179  11
   0   6  -5 59.7952 22.2608  17
   0   6  -5 48.5028 15.2999  20
   0   6  -4 34.7000 16.1245  17
   0   6  -4 54.9995 28.5741  11
   0   6  -4 46.2041 31.5257  20
   0  -6   3 1817.36 281.021   3
   0   6  -3 1960.58 142.383  17
   0   6  -3 1787.41 150.229  20
   0   6  -3 1821.63 128.234  18
   0  -6   2 49.2588 29.3832   3
   0   6  -2 106.289 36.5473  20
   0   6  -2 103.269 26.2343  18
   0   6  -2 101.060 25.5401  17
   0  -6   1 4677.27 413.574   3
   0  -6   0 10.1835 20.7868   3
   0  -6   0 62.3109 61.0824   1
   0  -6  -1 751.541 178.053   1
   0  -6  -1 859.240 149.085   3
   0  -6  -2 8118.61 563.840   1
   0  -6  -2 8303.26 451.656   3
   0  -6  -3 139555. 3363.15   1
   0  -6  -4 43199.6 1212.04   2
   0  -6  -4 40932.5 1388.11   1
   0  -6  -5 5519.40 337.314   2
   0  -6  -5 4942.78 422.582   1
   0  -6  -6 728.127 169.723   1
   0  -6  -7 3360.35 173.476  19
   0  -6  -7 3134.91 181.190  25
   0  -6  -7 3057.40 164.034  13
   0  -6  -7 2687.60 165.204   9
   0  -6  -7 3500.47 394.504   1
   0  -6  -8 1223.45 116.070  13
   0  -6  -8 1199.88 113.530   9
   0  -6  -8 1279.10 242.521   1
   0  -6  -8 1348.93 116.485  19
   0  -6  -8 1282.45 117.654  25
   0  -6  -9 412.314 66.5274  13
   0  -6  -9 528.395 80.5060  19
   0  -6  -9 462.722 71.1706  10
   0  -6  -9 426.724 67.1106  25
   0  -6  -9 388.803 62.3326   9
   0  -6 -10 7.96332 14.3117  25
   0  -6 -10 0.24172 12.6229   9
   0  -6 -11 324.725 57.7818   9
   0  -6 -11 290.653 51.1644  25
   0  -6 -12 486.650 57.0517   9
   0  -6 -12 484.992 50.4373  25
   0  -7   6 587.987 56.9491  27
   0   7  -5 1398.47 92.9498  11
   0   7  -5 1471.18 107.744  17
   0   7  -5 1501.87 108.932  20
   0  -7   5 1416.08 113.603  27
   0   7  -4 6222.95 283.796  20
   0   7  -4 6625.70 277.084  17
   0   7  -4 6111.89 240.147  11
   0   7  -3 78279.7 1783.90  20
   0   7  -3 78533.6 1735.17  17
   0   7  -2 11624.3 404.604  17
   0   7  -2 11541.8 442.101  20
   0   7  -1 382.442 59.2267  17
   0  -7   1 585.452 206.689   1
   0   7  -1 439.060 72.3779  20
   0  -7   1 319.346 114.979   3
   0   7  -1 442.548 54.4900  18
   0  -7   0 2674.12 403.884   1
   0   7   0 2455.77 143.733  17
   0  -7   0 2581.66 313.723   3
   0  -7  -1 3041.99 318.321   3
   0  -7  -1 3013.86 398.051   1
   0  -7  -2 2509.50 337.766   1
   0  -7  -3 19614.6 945.061   1
   0  -7  -4 505.977 138.089   1
   0  -7  -4 715.226 132.522   2
   0  -7  -5 740.972 168.610   1
   0  -7  -6 2720.62 193.630  10
   0  -7  -6 2109.40 157.342   9
   0  -7  -6 2281.32 122.705  12
   0  -7  -6 2583.94 333.954   1
   0  -7  -6 2818.62 168.026  25
   0  -7  -6 2793.74 161.152  24
   0  -7  -7 2284.94 160.229  25
   0  -7  -7 2071.68 159.779   9
   0  -7  -7 2115.92 309.928   1
   0  -7  -7 2707.26 196.499  10
   0  -7  -7 1967.23 116.994  12
   0  -7  -8 35485.4 942.360  10
   0  -7  -8 34486.8 888.082  25
   0  -7  -9 19407.2 592.847  25
   0  -7  -9 19471.3 617.394  10
   0  -7 -10 1090.40 111.627  25
   0  -7 -10 963.957 107.699   9
   0  -7 -10 1025.73 105.719  10
   0  -7 -11-3.08169 16.5561   9
   0  -7 -11-18.1236 21.7497  25
   0  -7 -12-4.78208 9.51342   9
   0  -7 -12 13.0102 11.1860  25
   0  -8   5 163.962 28.6214  27
   0  -8   4 330.745 52.0216  27
   0   8  -4 328.218 47.5924  17
   0   8  -4 318.947 48.0269  20
   0   8  -3 355.594 61.4453  20
   0   8  -3 361.978 57.1656  17
   0   8  -2 5031.81 241.809  17
   0   8  -2 4803.09 266.872  20
   0   8  -1 4502.48 229.106  17
   0   8  -1 4680.23 262.749  20
   0   8   0 4813.15 265.283  20
   0   8   0 4190.39 214.836  17
   0   8   1 23690.0 615.306  17
   0  -8  -1 20687.4 677.282  10
   0  -8  -2 1370.78 140.279  10
   0  -8  -2 1202.92 115.620  24
   0   8   2 1302.72 101.821  17
   0  -8  -3 7877.70 327.098  24
   0  -8  -3 8389.54 380.811  10
   0  -8  -3 8312.45 536.113   2
   0  -8  -3 8066.29 614.747   1
   0  -8  -4 2146.57 154.957  24
   0  -8  -4 2144.12 182.578  10
   0  -8  -4 2023.47 293.780   1
   0  -8  -5 3289.62 230.392  10
   0  -8  -5 2529.37 140.709  12
   0  -8  -5 3378.64 195.801  24
   0  -8  -5 3050.93 368.328   1
   0  -8  -5 2883.41 178.234  25
   0  -8  -6 17.8348 38.2242  10
   0  -8  -6-7.93331 24.2666  25
   0  -8  -6 15.2456 16.2540  24
   0  -8  -6 1.53030 9.35640  12
   0  -8  -7 531.974 74.2140  24
   0  -8  -7 490.125 87.8961  10
   0  -8  -7 374.056 65.1679  25
   0  -8  -7 463.284 55.2788  12
   0  -8  -7 345.676 70.7876   9
   0  -8  -8 35.7447 12.0393  12
   0  -8  -8 80.5195 42.8038  10
   0  -8  -8 9.42870 27.0514   9
   0  -8  -8 44.4805 27.2891  25
   0  -8  -9 1571.41 148.906   9
   0  -8  -9 1998.70 169.587  10
   0  -8  -9 1831.69 150.775  25
   0  -8 -10 4151.28 224.774  25
   0  -8 -10 3692.94 221.190   9
   0  -8 -11 452.680 61.9992  25
   0  -8 -11 344.244 55.2937   9
   0  -8 -12 2007.12 108.399  25
   0   9  -4 81.1411 17.6152  17
   0  -9   4 61.7342 15.1714  27
   0   9  -3 184.800 33.5951  17
   0  -9   3 190.356 34.0219  27
   0   9  -3 165.272 31.7152  20
   0   9  -2 1718.19 135.480  20
   0   9  -2 1605.54 117.377  17
   0  -9   2 1645.30 120.892  27
   0   9  -1 26.7460 19.6235  17
   0  -9   1 18.7504 16.8841  27
   0   9  -1 3.47831 21.8477  20
   0   9   0 315.340 57.0340  17
   0   9   0 358.562 69.4536  20
   0   9   1 3955.95 206.769  17
   0   9   1 4395.10 260.689  20
   0  -9  -2 0.58278 11.0824  10
   0   9   2 30.2903 14.8612  17
   0  -9  -3 2619.36 209.842  10
   0  -9  -3 2666.32 189.446  24
   0  -9  -4 2838.11 195.547  24
   0  -9  -4 2651.44 218.318  10
   0  -9  -5 23102.2 680.499  24
   0  -9  -5 23363.1 596.976  12
   0  -9  -6 4305.41 241.312  24
   0  -9  -6 4227.66 289.169  10
   0  -9  -6 3535.24 220.255  25
   0  -9  -7 11825.0 424.894  24
   0  -9  -7 10977.2 426.418  25
   0  -9  -7 12322.0 371.600  12
   0  -9  -7 11928.7 507.849  10
   0  -9  -8 83.5247 41.4664  10
   0  -9  -8 86.7650 30.5739  24
   0  -9  -8 106.439 29.1399  12
   0  -9  -8 88.9743 31.9230  25
   0  -9  -9 541.197 88.9172  10
   0  -9  -9 547.066 80.4740  25
   0  -9 -10 24.4186 20.7873  25
   0  -9 -10 34.7250 22.0144  10
   0  -9 -11 1068.26 91.0619  25
   0  -9 -12 68.7490 15.8466  25
   0  10  -2 4690.16 177.993  20
   0  10  -2 4327.02 159.609  17
   0  10  -1 15454.1 434.387  17
   0  10  -1 16884.1 486.329  20
   0  10   0 183.062 46.4632  20
   0  10   0 187.829 38.6674  17
   0  10   1 481.853 78.2981  20
   0  10   1 422.278 58.7713  17
   0  10   2 771.272 79.4244  17
   0  10   2 913.255 111.415  20
   0 -10  -3 80.8368 31.2055  10
   0 -10  -4 393.234 78.2190  10
   0 -10  -4 315.822 52.1749  12
   0 -10  -5 1471.62 110.021  12
   0 -10  -5 1836.59 177.303  10
   0 -10  -6 15.9352 21.4300  10
   0 -10  -6-8.35330 12.2354  12
   0 -10  -7 763.671 114.052  10
   0 -10  -7 644.550 68.0648  12
   0 -10  -7 616.209 83.8946  25
   0 -10  -8 368.920 64.4081  25
   0 -10  -8 389.999 76.6298  10
   0 -10  -8 348.614 45.1300  12
   0 -10  -9 330.400 65.1904  10
   0 -10  -9 242.988 49.9992  25
   0 -10 -10 11502.3 372.678  25
   0 -10 -10 12145.9 389.038  10
   0 -10 -11 5637.85 201.924  25
   0  11   0 2511.40 131.556  20
   0 -11   0 2145.10 97.4216  12
   0  11   1 710.335 78.7728  20
   0  11   1 593.090 53.2164  17
   0 -11  -2 137.708 31.2392  12
   0  11   2 150.343 38.0848  20
   0  11   3 441.130 71.0846  20
   0 -11  -3 483.470 55.9779  12
   0  11   4 4287.13 234.691  20
   0 -11  -4 4787.94 196.592  12
   0 -11  -5 2709.82 199.066  10
   0 -11  -5 2526.21 137.777  12
   0 -11  -6 921.232 116.491  10
   0 -11  -6 1169.64 88.9681  12
   0 -11  -7 137.199 41.6833  10
   0 -11  -7 251.919 38.0306  12
   0 -11  -8 18.8710 13.1839  10
   0 -11  -8 0.37043 5.69019  12
   0 -11  -9 75.7382 28.6946  10
   0 -11 -10 194.013 31.3262  10
   0  12   2 11.9806 8.99055  20
   0 -12  -2 21.3860 8.45443  12
   0 -12  -3 714.588 53.6658  12
   0  12   3 565.038 60.7169  20
   0  12   4 221.348 40.5493  20
   0 -12  -4 282.968 34.9392  12
   0 -12  -5 2280.75 105.057  12
   0  12   5 1406.82 101.827  20
   0  12   6 25.5180 11.7885  20
   0 -12  -6 17.5541 5.42968  12
   0 -12  -7 74.0276 15.7876  12
   0 -12  -8 4525.71 191.415  10
   1 -12  -8 16.4956 10.8554  10
  -1  12   7 2058.15 104.730  20
   1 -12  -7 5572.70 205.596  10
   1 -12  -6 5115.06 210.536  10
   1 -12  -6 4026.85 123.477  12
   1 -12  -5-15.5369 11.2519  12
  -1  12   5 11.3026 6.95905  20
   1 -12  -4 1037.30 64.1544  12
  -1  12   4 878.747 79.5970  20
   1 -12  -3 34.3702 10.3199  12
  -1  12   3 35.4840 16.7273  20
  -1  12   2 136.373 27.1757  20
   1 -12  -2 150.430 21.1817  12
   1 -11  -9 134.048 35.8354  10
   1 -11  -8 86.4340 30.4336  10
   1 -11  -7 396.452 72.7391  10
   1 -11  -6 4343.38 263.603  10
   1 -11  -6 6315.72 209.282  12
   1 -11  -5 1202.42 86.7443  12
   1 -11  -5 1062.32 120.006  10
   1 -11  -4 766.492 96.1789  10
   1 -11  -4 631.874 63.9650  12
   1 -11  -3 7523.08 259.033  12
  -1  11   3 7792.51 323.634  20
  -1  11   2 1256.26 88.9271  17
  -1  11   2 1653.29 130.385  20
  -1  11   1 2.26584 16.8624  20
  -1  11   1 11.6166 11.4184  17
  -1  11   0 7986.43 263.977  20
  -1  11   0 6445.00 213.563  17
   1 -11   1 2144.63 86.8386  12
  -1  11  -1 2547.55 105.452  20
   1 -10 -10 254.513 40.7389  25
   1 -10 -10 364.162 54.1278  10
   1 -10  -9 4639.31 212.563  25
   1 -10  -9 4951.64 255.356  10
   1 -10  -8 1897.19 135.376  25
   1 -10  -8 2044.36 135.270  24
   1 -10  -8 2136.37 179.236  10
   1 -10  -7 1981.59 149.294  24
   1 -10  -7 1969.12 139.667  25
   1 -10  -7 1856.28 106.679  12
   1 -10  -7 1862.40 176.322  10
   1 -10  -6 11491.7 354.523  12
   1 -10  -6 13028.6 456.281  24
   1 -10  -6 12944.0 519.841  10
   1 -10  -5 290.920 60.8161  24
   1 -10  -5 324.340 73.5281  10
   1 -10  -5 284.720 44.8914  12
   1 -10  -4 51.6806 26.3474  24
   1 -10  -4 47.1993 22.7188  12
   1 -10  -4 31.7039 22.0571  10
  -1  10   3-3.15194 5.98237  17
   1 -10  -3-2.23404 18.6495  10
  -1  10   2 471.357 63.8708  17
  -1  10   1 6.10035 9.42230  20
  -1  10   1 13.3313 13.6820  17
  -1  10   0 1699.78 137.062  20
  -1  10   0 1466.35 111.766  17
  -1  10  -1 11467.8 360.166  17
  -1  10  -1 12526.0 399.688  20
   1 -10   2 1550.90 83.1821  27
  -1  10  -2 1773.18 101.389  17
  -1  10  -2 1779.04 106.368  20
  -1  10  -3 155.922 22.0090  17
   1  -9 -11 696.115 64.5011  25
   1  -9 -11 585.844 52.4259  10
   1  -9 -10 146.877 37.8405  25
   1  -9 -10 118.945 31.8058  10
   1  -9  -9 1.62458 11.1156  25
   1  -9  -9 21.6482 25.4258  10
   1  -9  -8 145.532 42.5696  25
   1  -9  -8 173.856 54.0445  10
   1  -9  -8 157.961 39.9521  24
   1  -9  -7 85.4604 27.5639  25
   1  -9  -7 135.913 48.1397  10
   1  -9  -7 103.111 29.7548  24
   1  -9  -6 15752.9 528.414  24
   1  -9  -6 14794.4 496.360  25
   1  -9  -6 16626.5 614.084  10
   1  -9  -6 17330.2 454.153  12
   1  -9  -5 51553.3 1463.42  10
   1  -9  -5 56383.2 1391.56  24
   1  -9  -4 21404.6 632.325  24
   1  -9  -4 17916.7 658.132  10
   1  -9  -3 430.739 76.7530  24
   1  -9  -3 351.727 83.1913  10
  -1   9   3 436.931 63.8579  17
  -1   9   2 6976.05 282.060  17
   1  -9  -2 7418.20 322.929  24
   1  -9  -2 6871.83 342.996  10
   1  -9  -1 40.3385 18.6404  10
  -1   9   1 29.5456 16.6395  17
  -1   9   0 2006.22 143.686  17
  -1   9   0 2242.83 175.721  20
  -1   9  -1 318.674 65.1594  20
  -1   9  -1 283.182 50.5989  17
  -1   9  -2 34.4661 24.6498  20
  -1   9  -2 47.3100 22.5560  17
  -1   9  -3-8.84101 12.1910  17
  -1   9  -3-2.73532 6.49044  20
   1  -9   3 4.70074 9.00728  27
  -1   9  -4 8.40211 8.18720  17
   1  -9   4 3.90574 4.92635  27
   1  -8 -12 657.604 50.1636  25
   1  -8 -11 9246.07 293.478  10
   1  -8 -11 9727.83 316.742  25
   1  -8 -10 221.775 47.5813  10
   1  -8 -10 87.7302 19.4457   9
   1  -8 -10 203.113 43.5412  25
   1  -8  -9 453.315 71.0634   9
   1  -8  -9 707.968 88.6208  25
   1  -8  -9 641.062 95.9435  10
   1  -8  -8 401.225 69.3954   9
   1  -8  -8 471.100 85.7268  10
   1  -8  -8 498.526 76.6553  25
   1  -8  -7 717.537 90.6788  25
   1  -8  -7 753.503 88.2302  24
   1  -8  -7 728.225 109.570  10
   1  -8  -7 693.886 95.4091   9
   1  -8  -6 739.777 87.1771  25
   1  -8  -6 798.773 69.9367  12
   1  -8  -6 931.765 122.377  10
   1  -8  -6 921.219 101.296  24
   1  -8  -5 3636.23 192.444  25
   1  -8  -5 3903.62 252.148  10
   1  -8  -5 3315.73 158.723  12
   1  -8  -4 6182.48 456.588   2
   1  -8  -4 6207.57 283.424  24
   1  -8  -4 6095.11 319.561  10
   1  -8  -3 147.279 78.8431   2
  -1   8   3 104.336 26.0458  17
   1  -8  -3 185.610 55.1321  10
   1  -8  -3 112.438 31.8612  24
  -1   8   2 6390.61 256.666  17
   1  -8  -2 6200.59 312.399  10
   1  -8  -2 6386.85 281.760  24
   1  -8  -1 14815.1 538.516  10
   1  -8  -1 16506.1 515.289  24
  -1   8   0 536.617 70.7638  17
  -1   8  -1 3938.17 234.391  20
  -1   8  -1 3580.57 200.071  17
  -1   8  -2 20482.7 596.099  17
  -1   8  -2 20826.7 637.315  20
  -1   8  -3 2766.19 167.450  17
  -1   8  -3 2694.14 175.775  20
  -1   8  -4 488.574 60.5067  20
  -1   8  -4 554.061 64.4290  17
  -1   8  -5 23.4467 12.3201  17
   1  -8   5 16.9840 11.4254  27
   1  -7 -12-2.37103 5.62059  25
   1  -7 -11 135.771 33.3351  25
   1  -7 -11 104.227 25.8525   9
   1  -7 -10 10.7867 21.8772   9
   1  -7 -10-7.60902 12.6166  25
   1  -7 -10-15.5999 18.7338  10
   1  -7  -9 4087.97 248.696  10
   1  -7  -9 3912.71 223.106  25
   1  -7  -9 3296.20 206.624   9
   1  -7  -8 16653.8 581.781  10
   1  -7  -8 15929.7 517.613  25
   1  -7  -7 23095.0 646.827  25
   1  -7  -7 25511.9 743.737  10
   1  -7  -6 1051.72 122.667  10
   1  -7  -6 751.312 90.7669   9
   1  -7  -6 914.285 94.2310  25
   1  -7  -5 33526.0 917.902  10
   1  -7  -5 35131.5 1167.35   2
   1  -7  -4 38403.0 1248.37   2
   1  -7  -3 189.652 75.1427   2
   1  -7  -2 571.938 132.960   3
   1  -7  -1 70.6732 63.7515   3
  -1   7   0 3901.61 187.113  17
   1  -7   0 3895.37 393.135   3
   1  -7   1 4376.74 453.880   3
  -1   7  -1 3336.10 208.546  20
  -1   7  -1 3461.92 186.604  17
  -1   7  -1 4138.90 184.601  18
  -1   7  -2 4991.34 259.105  20
  -1   7  -2 4982.49 221.933  18
  -1   7  -2 4889.46 235.630  17
  -1   7  -3 14611.4 471.805  17
  -1   7  -3 14178.5 491.633  20
  -1   7  -3 14353.8 444.120  18
  -1   7  -4 2717.52 157.696  11
  -1   7  -4 2941.81 175.903  17
  -1   7  -4 2656.02 173.427  20
  -1   7  -5 73.1047 21.9298  17
  -1   7  -5 63.9374 19.9964  20
  -1   7  -5 69.9665 21.4595  11
  -1   7  -6 933.526 66.3710  11
   1  -7   6 929.356 79.3927  27
   1  -6 -12 681.839 58.3367   9
   1  -6 -12 873.861 60.3551  25
   1  -6 -11 2058.35 130.512  25
   1  -6 -11 1788.11 126.629   9
   1  -6 -10 366.458 62.2270  25
   1  -6 -10 376.460 66.0895  10
   1  -6 -10 355.538 65.4003   9
   1  -6  -9 5594.52 265.677  25
   1  -6  -9 4733.10 243.852   9
   1  -6  -8 6680.20 291.211  25
   1  -6  -8 5515.05 257.594   9
   1  -6  -7 5814.21 493.865   1
   1  -6  -7 6456.54 270.090  25
   1  -6  -6 4.55042 13.4502   2
   1  -6  -6 180.109 79.4284   1
   1  -6  -5 5897.86 390.581   2
   1  -6  -5 5500.17 437.785   1
   1  -6  -4 109839. 2737.20   1
   1  -6  -4 110915. 2615.01   2
   1  -6  -3 171842. 3894.64   2
   1  -6  -3 179040. 3957.51   1
   1  -6  -2 2549.75 263.667   1
   1  -6  -2 2303.28 242.449   3
   1  -6  -1 256.108 87.5582   1
   1  -6  -1 277.182 85.8406   3
   1  -6   0 10717.6 616.389   3
   1  -6   0 12555.8 770.005   1
   1  -6   1 99.9851 74.7362   1
   1  -6   1 69.2294 54.8861   3
  -1   6  -2 4684.50 212.494  17
  -1   6  -2 5142.48 244.125  20
  -1   6  -2 4594.35 201.802  18
  -1   6  -3 132.818 40.3751  20
  -1   6  -3 168.233 37.3099  18
  -1   6  -3 115.325 29.6262  17
  -1   6  -4 1082.10 110.075  20
  -1   6  -4 1104.19 101.408  18
  -1   6  -4 1090.19 106.616  17
  -1   6  -5 80.2777 28.1783  17
  -1   6  -5 99.4658 31.8673  11
  -1   6  -5 87.4386 24.9895  20
  -1   6  -6 352.595 52.2235  17
  -1   6  -6 367.020 52.0680  11
   1  -6   7 216.814 35.2478  27
  -1   6  -7 285.535 38.2481  11
   1  -5 -12 325.742 40.4625   9
   1  -5 -12 228.273 26.6142  25
   1  -5 -11 160.453 35.7615   9
   1  -5 -11 150.480 32.9941  25
   1  -5 -10 20322.5 580.531  25
   1  -5 -10 20705.1 580.887   9
   1  -5  -9 29113.7 777.775  13
   1  -5  -9 28873.3 764.487   9
   1  -5  -9 29133.6 774.623  25
   1  -5  -8 671.018 85.6275  13
   1  -5  -8 826.846 95.8205  19
   1  -5  -8 685.944 83.9874  25
   1  -5  -7 2625.81 162.389  13
   1  -5  -7 2334.92 146.247  19
   1  -5  -7 2199.33 145.027  25
   1  -5  -6 1005.99 154.493   2
   1  -5  -6 946.121 182.912   1
   1  -5  -5 729.220 123.921   2
   1  -5  -5 593.666 132.869   1
   1  -5  -4 17805.9 739.901   1
   1  -5  -4 17436.9 662.217   2
   1  -5  -3 50412.5 1400.30   1
   1  -5  -3 49712.5 1349.55   2
   1  -5  -2 20.7797 16.4810   3
   1  -5  -2 39.1526 30.1295   1
   1  -5  -1 1466.07 197.132   1
   1  -5  -1 1207.57 161.531   3
   1  -5   0 5689.29 384.924   3
   1  -5   0 5440.81 453.494   1
   1  -5   1 9022.71 526.548   3
   1  -5   2 48682.4 1563.29   3
   1  -5   3 114.292 73.3875   3
  -1   5  -4 7210.80 290.085  17
  -1   5  -4 6905.83 302.037  20
   1  -5   4 8215.26 616.719   3
  -1   5  -4 7898.88 292.946  18
  -1   5  -5 15.0908 11.2163  20
  -1   5  -5 21.5623 13.1054  22
  -1   5  -5 23.0185 14.3241  18
  -1   5  -5 46.3076 23.1069  17
  -1   5  -6 1432.38 106.826  22
  -1   5  -6 1390.17 118.955  11
  -1   5  -6 1422.14 117.207  17
  -1   5  -7 759.662 68.7006  22
  -1   5  -7 718.103 76.9964  11
  -1   5  -7 693.634 71.8614  17
  -1   5  -8 619.190 48.5525  22
  -1   5  -8 661.905 59.4863  11
  -1   5  -8 721.640 61.8489   6
   1  -4 -12 130.270 23.8848   9
   1  -4 -11 721.149 66.7644  22
   1  -4 -11 629.898 61.4410  25
   1  -4 -11 790.425 74.9478   9
   1  -4 -10 12.6292 21.3362  13
   1  -4 -10 28.8170 21.1191  25
   1  -4 -10 42.7194 24.8862  22
   1  -4  -9 950.517 110.544  13
   1  -4  -9 778.016 88.7706  22
   1  -4  -9 1022.64 116.732  19
   1  -4  -8 182.360 46.1132  13
   1  -4  -8 151.894 37.3474  22
   1  -4  -8 137.321 36.6601  25
   1  -4  -8 197.275 47.5015  19
   1  -4  -7 2313.52 267.932   2
   1  -4  -6 86943.1 2367.28   1
   1  -4  -6 85697.7 2158.65   2
   1  -4  -5 54056.4 1593.29   1
   1  -4  -5 53317.9 1436.89   2
   1  -4  -4 2965.67 229.050   2
   1  -4  -4 2779.98 256.709   1
   1  -4  -3 75053.8 1794.84   1
   1  -4  -3 72039.7 1720.69   2
   1  -4  -2 100061. 2239.98   3
   1  -4  -2 100079. 2257.38   1
   1  -4  -1 1064.21 141.388   1
   1  -4  -1 946.302 121.691   3
   1  -4   0 5079.18 311.719   3
   1  -4   1 1765.13 196.532   3
   1  -4   2 2789.31 275.166   3
   1  -4   3 299.459 93.0919   3
   1  -4   4 2658.99 315.008   3
   1  -4   5 971.004 202.019   3
  -1   4  -5 780.220 76.7068  22
  -1   4  -5 956.822 90.0638  18
  -1   4  -5 978.840 92.8919  17
  -1   4  -6 21207.3 586.624  22
  -1   4  -6 22199.3 613.739  17
  -1   4  -7 835.279 84.4997  17
  -1   4  -7 875.351 92.0023  11
  -1   4  -7 1044.00 92.6962  22
  -1   4  -8 189.001 34.1686  22
  -1   4  -8 231.045 40.8180  11
   1  -4   8 134.814 31.2441  27
  -1   4  -9 4403.94 152.324  22
   1  -3 -12 4738.34 151.672   9
   1  -3 -11 4985.17 175.849  25
   1  -3 -11 5086.40 200.968  22
   1  -3 -10 3457.16 172.875  25
   1  -3 -10 3560.68 186.607  22
   1  -3 -10 3645.62 193.633  13
   1  -3  -9 8604.30 322.526  19
   1  -3  -9 8438.51 320.573  22
   1  -3  -9 8652.60 333.233  13
   1  -3  -9 8498.39 313.507  25
   1  -3  -8 426.631 58.7816  22
   1  -3  -8 342.321 58.6489  13
   1  -3  -8 305.138 52.1478  25
   1  -3  -8 334.425 56.7137  19
   1  -3  -7 77.6142 48.9848   2
   1  -3  -6 186.109 69.8505   2
   1  -3  -5 4388.18 304.189   2
   1  -3  -5 4793.89 372.910   1
   1  -3  -4 288.486 67.2803   2
   1  -3  -4 300.033 82.1711   1
   1  -3  -3 5075.70 268.104   2
   1  -3  -3 5078.17 300.892   1
   1  -3  -2 357775. 7060.33   2
   1  -3  -2 359309. 7070.33   1
   1  -3  -1 297430. 5909.05   3
   1  -3  -1 298388. 5923.83   1
   1  -3   0 43111.4 1092.16   3
   1  -3   1 1687.67 164.067   3
   1  -3   2 2751.46 238.144   3
   1  -3   3 9515.58 514.681   3
   1  -3   4 25.5569 39.0924   3
   1  -3   5 215.262 93.5443   3
  -1   3  -6 4248.17 201.021  18
  -1   3  -6 4402.03 203.703  22
   1  -3   6 3902.39 400.595   3
  -1   3  -6 4296.73 208.268  17
  -1   3  -7 191.528 44.8722  22
  -1   3  -7 175.378 39.6508  17
  -1   3  -7 161.281 42.9807  11
  -1   3  -8 426.769 62.5397  11
  -1   3  -8 364.443 58.2183  22
  -1   3  -9 7141.85 244.793  22
  -1   3  -9 6693.98 248.105  11
  -1   3  -9 6341.72 242.178   6
  -1   3 -10 24718.4 546.624  22
   1  -2 -11 554.734 58.2970  22
   1  -2 -10 945.037 76.3155  25
   1  -2 -10 863.794 86.3197  22
   1  -2 -10 827.221 83.4312  13
   1  -2  -9 10985.8 351.313  25
   1  -2  -9 10322.6 372.091  22
   1  -2  -9 10598.7 371.572  13
   1  -2  -8 101588. 2101.88  25
   1  -2  -8 104951. 2117.90  19
   1  -2  -8 103986. 2137.91  13
   1  -2  -8 101334. 2132.80  22
   1  -2  -7 33429.9 1170.52   2
  -1   2   7 24476.5 998.933   3
   1  -2  -6 10754.0 587.767   2
   1  -2  -5 53808.2 1518.41   2
   1  -2  -4 1779.92 187.088   2
   1  -2  -4 1584.59 196.201   1
   1  -2  -3 225.351 66.1793   1
   1  -2  -3 376.997 70.9306   2
   1  -2  -2 13543.5 447.300   1
   1  -2  -2 12101.5 421.824   2
   1  -2  -1 40597.4 963.309   3
   1  -2  -1 41195.9 923.034   1
   1  -2   0 1133.68 97.4859   3
   1  -2   1 15910.8 506.210   3
   1  -2   2 6163.08 316.430   3
   1  -2   3 57532.4 1497.87   3
   1  -2   4 183888. 4049.90   3
   1  -2   5 295.341 87.6189   3
   1  -2   6 296.847 98.5584   3
   1  -2   7 103.668 62.8314   3
  -1   2  -7 173.602 40.1816  22
  -1   2  -7 262.876 46.1554  17
  -1   2  -7 232.546 46.9653  11
  -1   2  -8 1667.58 134.158  11
  -1   2  -8 1721.58 128.716  22
  -1   2  -9 54.3660 21.2133  11
  -1   2  -9 55.3437 18.6493   6
  -1   2  -9 48.2138 17.5708  22
  -1   2 -10 1088.89 76.1392   6
  -1   2 -10 1112.62 80.3632  22
   1  -1 -11 84.6256 22.2475  22
   1  -1 -10 234.182 43.8259  22
   1  -1 -10 223.713 38.5049  13
   1  -1  -9 47.1988 22.7805  22
   1  -1  -9 19.9046 23.0380  13
   1  -1  -8 509.217 69.8884  22
   1  -1  -8 530.093 67.6431  13
   1  -1  -8 587.176 65.0668  19
   1  -1  -8 547.953 62.6332  25
   1  -1  -7-0.41219 8.26032  11
  -1   1   7-12.8712 31.5772   3
   1  -1  -7 17.1325 7.96120  22
   1  -1  -7-16.4779 11.4796  13
  -1   1   6 6736.49 451.442   3
   1  -1  -6 7755.03 512.587   2
   1  -1  -5 16884.0 733.298   2
   1  -1  -4 249128. 5206.36   2
  -1   1   3 4661.67 123.426   4
   1  -1  -3 7838.86 334.422   2
   1  -1  -2 66105.8 1422.40   1
   1  -1  -2 61414.7 1370.42   2
   1  -1  -1 192386. 3644.66   1
   1  -1  -1 198382. 3639.37   2
   1  -1   0 449.716 31.4146   1
   1  -1   0 415.718 46.4411   3
   1  -1   1 1082.51 85.4136   3
   1  -1   2 45355.5 1082.06   3
   1  -1   3 580.143 88.5604   3
   1  -1   4 2106.37 197.213   3
   1  -1   5 4045.44 315.980   3
   1  -1   6 1148.87 182.436   3
  -1   1  -7 33654.4 820.147  11
  -1   1  -7 33019.8 804.638  22
  -1   1  -8 35815.8 899.882  11
  -1   1  -8 35765.9 890.713  22
  -1   1  -9 9423.36 344.114   6
  -1   1  -9 9408.54 346.514  11
  -1   1  -9 9668.71 319.377  13
  -1   1  -9 10009.1 349.269  22
  -1   1 -10 1381.92 97.4982   6
  -1   1 -10 1327.95 84.9032  13
  -1   1 -10 1375.87 100.953  22
  -1   1 -11 4180.76 153.136  22
   1   0 -11 6.36112 8.23182  22
   1   0 -10 8387.71 266.507  22
  -1   0  10 5116.20 214.495  28
   1   0  -9 4213.62 188.398  13
   1   0  -9 4372.44 212.760  22
   1   0  -8 5438.33 255.319  11
   1   0  -8 5553.12 255.563  22
   1   0  -8 5587.24 232.231  13
   1   0  -7 9027.77 301.692  13
   1   0  -7 8916.07 322.882  22
   1   0  -7 8742.89 328.216  11
  -1   0   6 728.756 150.255   3
  -1   0   5 4260.20 338.603   3
   1   0  -4 2704.17 256.923   2
   1   0  -3 5665.94 333.566   2
   1   0  -2 35016.1 938.051   2
   1   0  -1 44016.6 998.753   2
  -1   0   0 90737.8 1958.00   5
   1   0   0 108281. 1967.85   2
  -1   0  -1 37681.5 824.576   1
  -1   0  -1 40636.7 813.394   4
   1   0   2 54283.1 1150.50   3
  -1   0  -2 51249.6 1224.31   1
  -1   0  -3 102374. 2302.32   1
   1   0   3 98720.6 2163.89   3
   1   0   4 5364.58 292.571   3
   1   0   5 767.256 122.006   3
   1   0   6 504.545 109.731   3
   1   0   7 116.228 57.3698   3
  -1   0  -8 366.694 48.0184  19
  -1   0  -8 409.023 61.0874  22
  -1   0  -8 388.654 61.2214  11
   1   0   8 407.990 106.925   3
  -1   0  -9 110.845 32.2138   6
  -1   0  -9 192.250 43.9900  22
  -1   0  -9 124.861 33.8894  11
  -1   0 -10 1078.00 89.1796   6
  -1   0 -10 1102.92 95.0929  22
  -1   0 -10 1032.04 87.4059  13
  -1   0 -11 12702.2 345.389  22
  -1   0 -11 11212.2 311.256  13
   1   1 -10 44.8083 17.3247  22
  -1  -1  10 7.28032 14.4811  28
   1   1  -9 2684.82 156.047  22
   1   1  -8 80.9939 29.9291  11
   1   1  -8 100.844 33.5182  22
   1   1  -7 27243.1 712.808  22
  -1  -1   7 25357.5 1106.42   3
   1   1  -7 27695.8 734.473  11
  -1  -1   6 176542. 4248.74   3
   1   1  -6 198848. 3654.34  11
  -1  -1   5 9751.76 577.880   3
  -1  -1   4 8879.14 490.981   3
  -1  -1   3 17712.8 664.286   3
  -1  -1   2 1055.86 121.705   3
   1   1  -2 934.311 126.798   2
   1   1  -1 65008.5 1497.57   2
   1   1   0 86632.1 1797.15   2
  -1  -1  -1 2045.55 129.399   1
  -1  -1  -2 658.425 76.9794   1
  -1  -1  -2 653.910 41.5550   2
  -1  -1  -2 536.269 42.7126   4
   1   1   2 649.598 41.9102   3
  -1  -1  -3 49997.4 1095.19   2
  -1  -1  -3 50221.3 1266.95   1
   1   1   3 49133.7 1086.22   3
  -1  -1  -4 63987.6 1501.36   2
   1   1   4 65844.4 1494.53   3
   1   1   5 326298. 6553.95   3
   1   1   6 87885.1 2115.56   3
   1   1   7 542.632 109.747   3
  -1  -1  -8 933.511 87.4864  16
  -1  -1  -8 764.057 74.9552  19
  -1  -1  -8 938.238 88.5970  11
  -1  -1  -8 876.610 87.8779  22
  -1  -1  -9 2024.93 136.862   6
  -1  -1  -9 2079.84 139.103  11
  -1  -1  -9 1968.58 129.460  19
  -1  -1  -9 2051.62 142.134  22
  -1  -1 -10 1481.55 104.054  19
  -1  -1 -10 1354.81 109.660  22
  -1  -1 -10 1398.53 110.564  13
  -1  -1 -11 451.833 53.7475  13
  -1  -1 -11 498.767 57.6365  22
  -1  -1 -12 381.937 37.3005  22
  -1  -1 -12 582.056 46.8377   9
  -1  -2  10 10.8674 6.92263  28
   1   2 -10 49.3490 14.1530  22
   1   2  -9 1785.24 104.702   6
   1   2  -9 1855.96 113.932  22
   1   2  -8 1655.18 127.626  11
   1   2  -8 1718.45 124.221  22
  -1  -2   7 422.650 60.8182  27
   1   2  -7 534.184 73.7629  11
   1   2  -7 499.193 66.8057  22
   1   2  -6 336.150 57.2717  11
  -1  -2   6 370.986 116.879   3
   1   2  -6 343.451 55.2297  22
   1   2  -6 325.741 56.1176  17
  -1  -2   5 270.990 100.935   3
  -1  -2   4 23583.2 944.695   3
  -1  -2   3 323.989 88.1460   3
  -1  -2   2 99979.2 2325.16   3
  -1  -2   1 342834. 6816.71   3
  -1  -2   0 64271.6 1421.64   3
  -1  -2  -1 4017.06 264.880   1
  -1  -2  -1 4887.96 168.507   3
  -1  -2  -2 2554.31 177.819   1
  -1  -2  -3 6497.23 214.723   5
  -1  -2  -3 6760.26 330.139   1
  -1  -2  -3 6453.54 211.703   2
  -1  -2  -4 546.011 102.828   1
  -1  -2  -4 521.513 71.1392   2
   1   2   5 36478.1 956.310   3
  -1  -2  -5 36876.2 976.641   2
  -1  -2  -5 35388.4 1176.15   1
  -1  -2  -6 12151.8 699.784   1
   1   2   6 18281.4 638.301   3
   1   2   7 465.037 95.4408   3
  -1  -2  -7 317.937 45.3605   6
  -1  -2  -8 2037.74 129.004   6
  -1  -2  -8 2231.97 136.359  19
  -1  -2  -8 2122.56 135.180  22
  -1  -2  -8 2411.45 138.702  16
  -1  -2  -9 51752.2 1197.17  22
  -1  -2  -9 53114.3 1193.64  16
  -1  -2  -9 52708.3 1196.35  19
  -1  -2 -10 1511.81 117.366  22
  -1  -2 -10 1580.76 124.589  13
  -1  -2 -10 1587.22 117.289  19
  -1  -2 -11 4813.11 193.798  19
  -1  -2 -11 4865.76 203.636  22
  -1  -2 -11 4763.85 209.527  13
  -1  -2 -12 346.041 37.2527  22
  -1  -2 -12 439.002 45.0417  13
   1   3  -9 2546.02 114.596  22
   1   3  -8 6508.51 231.390  22
  -1  -3   8 4398.70 189.881  27
   1   3  -7 4188.75 220.599  11
   1   3  -7 4641.17 214.754  22
  -1  -3   7 4865.46 229.311  27
   1   3  -6 7668.02 314.745  11
   1   3  -6 6782.35 305.427  17
   1   3  -6 6973.73 326.353  20
   1   3  -5 3185.10 182.330  11
   1   3  -5 3481.85 209.597  20
   1   3  -5 3491.49 176.031  22
   1   3  -5 3157.92 182.980  17
  -1  -3   5 3134.65 366.588   3
  -1  -3   4 2259.21 280.694   3
  -1  -3   3 11253.7 604.815   3
  -1  -3   2 6795.65 414.210   3
  -1  -3   1 11088.0 485.566   3
  -1  -3   0 14819.6 514.849   3
  -1  -3  -1 15743.5 462.844   3
  -1  -3  -2 8091.21 405.280   1
  -1  -3  -2 7787.65 248.476   3
  -1  -3  -3 124208. 2612.55   2
  -1  -3  -3 131991. 2881.96   1
  -1  -3  -4 39336.6 906.272   2
  -1  -3  -4 36592.5 1129.06   1
  -1  -3  -5 3133.64 294.414   1
  -1  -3  -5 3332.67 198.284   2
  -1  -3  -6 6781.74 489.643   1
  -1  -3  -7 304.866 110.455   1
  -1  -3  -8 685.559 72.5805  19
  -1  -3  -8 718.705 73.1947  16
  -1  -3  -9 1757.94 129.990  19
  -1  -3  -9 1610.62 114.167  22
  -1  -3  -9 1406.02 108.095  25
  -1  -3  -9 1653.30 118.961  16
  -1  -3  -9 1643.25 128.050  13
  -1  -3 -10 137.091 38.2827  19
  -1  -3 -10 121.476 34.9042  13
  -1  -3 -10 95.1885 29.4222  22
  -1  -3 -11 180.862 38.1191  13
  -1  -3 -11 155.743 34.7350  19
  -1  -3 -11 202.692 36.9111  22
  -1  -3 -12 560.418 57.4530  13
  -1  -3 -12 727.742 64.2497   9
  -1  -4   8 20.7313 11.6450  27
   1   4  -8 56.0857 17.2438  22
   1   4  -7 69.8367 24.8430  11
  -1  -4   7 44.9295 19.5250  27
   1   4  -7 72.5379 23.4000  22
  -1  -4   6 1611.73 133.581  27
   1   4  -6 2059.58 144.138  11
   1   4  -6 1862.90 123.469  22
   1   4  -6 2029.58 148.131  17
   1   4  -5 42329.5 993.010  22
   1   4  -5 42156.7 1033.70  11
   1   4  -5 45499.0 1107.79  20
   1   4  -5 43942.9 1058.34  17
  -1  -4   4 37268.5 1430.60   3
   1   4  -4 37845.5 973.158  20
   1   4  -4 38765.0 931.081  17
   1   4  -4 37533.5 907.590  11
  -1  -4   3 41825.3 1456.85   3
  -1  -4   2 11151.7 606.903   3
  -1  -4   1 768.298 136.149   3
  -1  -4   0 353.891 77.6080   3
  -1  -4  -1 13234.9 723.946   1
  -1  -4  -1 15246.3 517.472   3
  -1  -4  -2 4962.19 364.913   1
  -1  -4  -2 4549.65 219.201   3
  -1  -4  -3 578.044 113.403   1
  -1  -4  -4 5730.59 249.343   2
  -1  -4  -4 5578.30 250.397   5
  -1  -4  -4 5778.97 382.886   1
  -1  -4  -5 800.729 149.690   1
  -1  -4  -5 660.195 83.1627   2
  -1  -4  -6 60386.4 1848.46   1
  -1  -4  -7 196107. 4649.57   1
  -1  -4  -8 3019.26 173.912  25
  -1  -4  -8 3682.16 173.415  16
  -1  -4  -8 3445.57 408.457   1
  -1  -4  -8 4057.64 197.626  19
  -1  -4  -8 4446.65 212.386  13
  -1  -4  -9 4563.98 227.636  13
  -1  -4  -9 4294.23 200.004  16
  -1  -4  -9 4827.03 227.246  19
  -1  -4 -10 471.848 72.5595  13
  -1  -4 -10 547.197 77.5769  19
  -1  -4 -10 385.044 58.7185  25
  -1  -4 -11 1510.80 121.156  13
  -1  -4 -11 1528.17 117.634  19
  -1  -4 -11 1811.81 131.618   9
  -1  -4 -11 1470.84 104.261  25
  -1  -4 -12 223.776 38.4040   9
  -1  -4 -12 181.595 33.9746  13
  -1  -4 -13 1883.43 86.8092   9
  -1  -5   8 280.141 32.2474  28
  -1  -5   7-2.05160 8.91799  27
  -1  -5   6 82.1299 30.3219  27
   1   5  -6 79.8794 29.6628  17
   1   5  -6 75.8714 26.2531  11
   1   5  -5 2104.13 163.180  20
   1   5  -5 2143.41 154.233  17
   1   5  -5 2041.73 142.359  11
   1   5  -4 3229.90 182.170  11
   1   5  -4 2979.65 202.485  20
   1   5  -4 3190.63 191.672  17
   1   5  -3 1612.63 114.621  11
  -1  -5   3 1594.41 264.180   3
   1   5  -3 1201.90 108.674  17
   1   5  -3 1011.78 113.424  20
  -1  -5   2 47899.9 1601.82   3
  -1  -5   1 3078.02 311.731   3
  -1  -5   0 11814.0 577.094   3
  -1  -5  -1 196060. 4844.30   1
  -1  -5  -1 206597. 4289.42   3
  -1  -5  -2 6666.36 494.384   1
  -1  -5  -2 6698.07 327.085   3
  -1  -5  -3 3544.32 327.046   1
  -1  -5  -4 8098.66 505.197   1
  -1  -5  -4 8148.82 346.898   2
  -1  -5  -5 9117.44 559.225   1
  -1  -5  -6 248.743 92.9355   1
  -1  -5  -7 7583.63 583.649   1
  -1  -5  -8 3122.77 155.042  16
  -1  -5  -8 3013.92 147.150  12
  -1  -5  -8 3128.46 182.625   9
  -1  -5  -8 2973.59 175.045  25
  -1  -5  -8 3187.13 172.288  13
  -1  -5  -8 3458.66 180.240  19
  -1  -5  -8 3168.68 387.753   1
  -1  -5  -9 3478.53 199.327  25
  -1  -5  -9 3743.79 181.385  16
  -1  -5  -9 3634.29 200.763  13
  -1  -5  -9 3609.01 162.959  12
  -1  -5  -9 3909.28 207.548  19
  -1  -5  -9 3914.26 212.742   9
  -1  -5 -10 494.198 71.4060  13
  -1  -5 -10 431.813 67.5073  19
  -1  -5 -10 489.488 61.4478  16
  -1  -5 -10 409.142 61.4752  25
  -1  -5 -10 430.071 67.5897   9
  -1  -5 -11 9575.92 345.001   9
  -1  -5 -11 8563.69 311.298  25
  -1  -5 -11 8615.45 326.963  13
  -1  -5 -11 8806.74 322.271  19
  -1  -5 -12 1709.26 114.989   9
  -1  -5 -12 1423.56 87.2425  25
  -1  -5 -13 2185.27 101.546   9
  -1  -6   7 1485.84 74.4050  27
  -1  -6   7 1565.55 79.8770  28
  -1  -6   6 267.056 44.3112  27
   1   6  -5 5003.92 245.884  20
  -1  -6   5 4548.33 233.867  27
   1   6  -5 4708.61 208.160  11
   1   6  -5 5213.93 238.884  17
   1   6  -4 35.9077 13.1559  11
   1   6  -4 31.0266 24.9152  20
   1   6  -4 33.4923 23.2250  17
   1   6  -3-6.07805 17.1265  17
   1   6  -3-12.9263 8.31271  11
   1   6  -3 6.18481 18.1082  20
   1   6  -2 973.871 97.3226  17
  -1  -6   2 677.088 170.204   3
   1   6  -2 900.471 104.177  20
  -1  -6   1 600.519 146.563   3
  -1  -6   0 1946.75 242.697   3
  -1  -6   0 1876.86 357.962   1
  -1  -6  -1 158.613 90.4315   1
  -1  -6  -1 49.4920 31.8556   3
  -1  -6  -2 14508.8 846.600   1
  -1  -6  -3 1132.35 202.593   1
  -1  -6  -4 19505.9 670.527   2
  -1  -6  -4 17869.3 867.331   1
  -1  -6  -5 54027.8 1743.67   1
  -1  -6  -6 334.851 116.259   1
  -1  -6  -7 123.557 36.8218   9
  -1  -6  -7 122.834 33.5529  25
  -1  -6  -7 195.282 92.8646   1
  -1  -6  -8 34.1499 24.9830  25
  -1  -6  -8 37.1915 20.7550   9
  -1  -6  -8 95.4990 35.3398  19
  -1  -6  -8 109.726 72.3376   1
  -1  -6  -8 40.3395 20.6245  12
  -1  -6  -8 37.8352 26.9761  13
  -1  -6  -8 54.5402 29.7472  10
  -1  -6  -9 200.580 47.8364  13
  -1  -6  -9 108.376 24.9013  12
  -1  -6  -9 219.634 43.3676  16
  -1  -6  -9 179.760 46.4783  25
  -1  -6  -9 194.499 47.1453   9
  -1  -6  -9 228.621 52.6441  19
  -1  -6 -10 1765.83 147.918   9
  -1  -6 -10 2003.46 121.377  16
  -1  -6 -10 1922.69 144.381  13
  -1  -6 -10 2065.27 152.348  25
  -1  -6 -10 1970.24 147.119  19
  -1  -6 -11 5265.88 239.193  25
  -1  -6 -11 5724.50 263.080   9
  -1  -6 -12 100.101 24.6429  25
  -1  -6 -12 163.343 36.5065   9
  -1  -6 -13 638.879 52.2449   9
  -1  -7   6 17.3173 9.61991  27
   1   7  -5 1297.09 96.4591  17
  -1  -7   5 1207.70 97.2881  27
   1   7  -4 5166.86 251.902  20
  -1  -7   4 4950.16 245.156  27
   1   7  -4 5260.69 237.334  17
   1   7  -3 20687.8 649.900  20
   1   7  -3 21197.0 610.756  17
   1   7  -2 156.079 48.5808  20
   1   7  -2 139.778 40.8003  17
   1   7  -1 39643.7 987.012  17
   1   7  -1 41794.2 1064.46  20
   1   7   0 2614.52 156.028  17
   1   7   0 2722.60 186.158  20
  -1  -7  -1 463.829 169.409   1
  -1  -7  -2 750.647 189.294   1
  -1  -7  -3 3869.69 430.399   1
  -1  -7  -4 247.822 106.615   1
  -1  -7  -5 463.704 138.107   1
  -1  -7  -6 101.362 34.6753   9
  -1  -7  -6 122.359 35.7970  25
  -1  -7  -6 103.103 66.9697   1
  -1  -7  -6 128.426 44.6390  10
  -1  -7  -6 108.002 24.3347  12
  -1  -7  -7 817.620 74.6759  12
  -1  -7  -7 1076.80 227.549   1
  -1  -7  -7 648.714 86.1994   9
  -1  -7  -7 869.068 98.5034  25
  -1  -7  -7 901.966 108.172  10
  -1  -7  -8 11735.7 365.101  12
  -1  -7  -8 11721.1 388.220  19
  -1  -7  -8 12460.7 441.971  25
  -1  -7  -8 12795.4 468.028  10
  -1  -7  -8 10856.9 440.168   9
  -1  -7  -9 24879.1 692.043  19
  -1  -7  -9 25613.9 642.229  12
  -1  -7  -9 26765.6 751.575  25
  -1  -7  -9 24833.4 758.283   9
  -1  -7 -10 520.442 77.7402  25
  -1  -7 -10 542.315 55.2863  12
  -1  -7 -10 530.069 85.1875   9
  -1  -7 -11 6037.98 262.429  25
  -1  -7 -11 5676.20 274.854   9
  -1  -7 -12 199.409 39.9021   9
  -1  -7 -12 246.497 40.0634  25
  -1  -8   5-1.80607 4.42112  27
   1   8  -4 27.4528 14.4908  17
   1   8  -4-2.31903 14.1119  20
  -1  -8   4 8.80373 8.07579  27
   1   8  -3 2603.26 155.247  17
  -1  -8   3 2700.61 166.850  27
   1   8  -3 2651.01 171.197  20
  -1  -8   2 19.9638 17.8104  27
   1   8  -2 29.6962 14.5165  17
   1   8  -2 47.9777 31.5011  20
   1   8  -1 983.871 115.859  20
   1   8  -1 969.045 99.2285  17
   1   8   0 11390.2 396.657  17
   1   8   0 12215.2 461.736  20
   1   8   1 40.8341 15.7741  17
   1   8   1 41.2821 20.1589  20
  -1  -8  -1-14.2377 34.2105   1
  -1  -8  -2 61591.1 1531.04  10
  -1  -8  -2 70278.5 2327.32   1
  -1  -8  -3 24969.1 1221.48   1
  -1  -8  -3 24624.3 767.426  10
  -1  -8  -4 20.6738 16.1343  25
  -1  -8  -4 59.6248 34.6188  10
  -1  -8  -4 38.8324 24.1399  24
  -1  -8  -5-9.77710 10.9656  24
  -1  -8  -5 25.9144 9.30189  25
  -1  -8  -5 17.9115 40.2927   1
  -1  -8  -5 10.1184 15.8479  12
  -1  -8  -5-30.8963 38.6330  10
  -1  -8  -6 370.530 51.4622  12
  -1  -8  -6 446.437 71.5356  24
  -1  -8  -6 458.559 75.1076  25
  -1  -8  -6 513.509 164.290   1
  -1  -8  -6 421.601 79.7745  10
  -1  -8  -7 2.91572 14.6555  25
  -1  -8  -7-4.54766 23.8754  10
  -1  -8  -7 3.45609 11.3944  12
  -1  -8  -8 4103.91 255.950  10
  -1  -8  -8 3859.26 231.287  25
  -1  -8  -8 3555.51 176.202  12
  -1  -8  -8 3238.53 226.554   9
  -1  -8  -9 819.307 76.1141  12
  -1  -8  -9 967.796 116.704  10
  -1  -8  -9 902.191 109.031  25
  -1  -8  -9 721.215 102.765   9
  -1  -8 -10 575.018 82.7196  25
  -1  -8 -10 497.808 52.1864  12
  -1  -8 -10 434.152 75.8945   9
  -1  -8 -10 625.454 81.6902  10
  -1  -8 -11 2980.28 173.678  25
  -1  -8 -11 2585.44 173.103   9
  -1  -8 -12 322.094 45.6525  25
  -1  -8 -12 1154.47 98.0759   9
   1   9  -3 2259.55 124.630  20
  -1  -9   3 2174.17 114.260  27
   1   9  -3 2141.61 112.434  17
   1   9  -2 142.539 37.3695  20
   1   9  -2 123.776 28.4766  17
  -1  -9   2 143.590 32.5376  27
  -1  -9   1 523.526 69.7534  27
   1   9  -1 524.542 66.9455  17
   1   9  -1 464.817 74.8433  20
  -1  -9   0 2659.84 158.990  27
   1   9   0 2236.87 149.400  17
   1   9   0 2186.21 178.265  20
   1   9   1 669.204 77.5641  17
   1   9   1 764.531 102.348  20
   1   9   2 65.5994 20.1715  17
   1   9   2 79.3667 27.2889  20
  -1  -9  -3 57.1045 36.3295  10
  -1  -9  -4 1460.62 159.033  10
  -1  -9  -5 1016.47 92.6173  12
  -1  -9  -5 1238.04 150.889  10
  -1  -9  -6 24137.1 601.939  12
  -1  -9  -6 22110.4 666.391  24
  -1  -9  -6 22106.4 753.663  10
  -1  -9  -7 3726.53 232.530  25
  -1  -9  -7 3665.27 265.943  10
  -1  -9  -8 1440.44 155.328  10
  -1  -9  -8 1436.74 138.275  25
  -1  -9  -8 1570.98 115.466  12
  -1  -9  -9 2919.85 150.839  12
  -1  -9  -9 3278.70 210.397  25
  -1  -9  -9 3074.54 214.956  10
  -1  -9 -10 129.020 39.9334  25
  -1  -9 -10 113.559 35.6626  10
  -1  -9 -10 84.9243 18.8633  12
  -1  -9 -11 483.237 65.9315  25
  -1  -9 -12 105.293 23.4762  25
   1  10  -2 1114.03 75.5792  20
   1  10  -1 3596.23 179.222  20
   1  10  -1 3151.73 142.126  17
   1  10   0 7477.74 309.562  20
   1  10   0 6976.35 250.846  17
   1  10   1 5378.75 270.730  20
   1  10   1 5135.57 212.485  17
   1  10   2 23.1397 24.6791  20
   1  10   3 52.8424 26.3873  20
  -1 -10  -4 683.145 75.1597  12
   1  10   4 632.769 90.1910  20
  -1 -10  -4 795.741 114.454  10
  -1 -10  -5 0.41492 8.22480  12
  -1 -10  -5-9.53925 28.6890  10
  -1 -10  -6 1428.42 108.242  12
  -1 -10  -6 1856.75 180.023  10
  -1 -10  -7 268.343 44.2202  12
  -1 -10  -7 320.190 72.5733  10
  -1 -10  -8 14.4600 14.3687  12
  -1 -10  -8-5.92397 22.5866  10
  -1 -10  -8 36.5335 31.6891  25
  -1 -10  -9 2173.95 157.983  25
  -1 -10  -9 2410.61 175.625  10
  -1 -10  -9 1936.63 109.472  12
  -1 -10 -10 3455.70 177.091  10
  -1 -10 -10 3345.92 183.131  25
  -1 -10 -11 303.583 45.4956  25
  -1 -11   0 133.764 18.8554  12
   1  11   0 138.201 28.1215  20
   1  11   1 315.979 50.5976  20
  -1 -11  -1 346.626 39.0634  12
  -1 -11  -2 604.130 58.7283  12
   1  11   2 560.265 72.2996  20
  -1 -11  -3 292.492 42.4522  12
   1  11   3 258.566 51.4920  20
  -1 -11  -4 12363.5 359.201  12
   1  11   4 10639.5 394.941  20
  -1 -11  -5 1761.22 112.963  12
  -1 -11  -5 1851.16 161.083  10
  -1 -11  -6 1419.81 142.178  10
  -1 -11  -6 1205.83 91.9697  12
  -1 -11  -7 592.569 90.0626  10
  -1 -11  -7 585.602 65.2968  12
  -1 -11  -8 38.8524 15.9465  12
  -1 -11  -8 75.1863 29.5588  10
  -1 -11  -9 27.6049 8.98365  12
  -1 -11  -9 9.41791 13.2295  10
  -1 -11 -10 1408.26 86.2734  10
  -1 -12  -3 177.964 27.0900   8
  -1 -12  -3 170.525 24.2955  12
   1  12   3 136.378 26.3055  20
  -1 -12  -4 879.291 61.5339   8
  -1 -12  -4 1040.64 68.4572  12
   1  12   5 283.432 39.6426  20
  -1 -12  -5 528.660 49.1337  12
  -1 -12  -6 229.995 33.9694  12
   1  12   6 79.6450 18.2619  20
  -1 -12  -7 917.571 61.7597  12
  -1 -12  -8 1516.56 70.4023  12
   2 -12  -7 3365.16 148.512  10
  -2  12   6 284.252 40.8212  20
   2 -12  -6 488.637 54.8029  10
  -2  12   5 501.667 57.3630  20
  -2  12   4 223.873 38.8768  20
   2 -12  -3 100.512 15.6806  12
  -2  12   3 130.686 28.5611  20
  -2  12   2 117.322 24.6955  20
   2 -11  -9 87.3820 24.7646  10
   2 -11  -8 359.903 61.8660  10
   2 -11  -7 3657.79 212.959  10
   2 -11  -6 386.207 61.8484  24
   2 -11  -6 344.993 65.7400  10
   2 -11  -5 136.653 40.2028  10
   2 -11  -5 172.116 29.6152  12
   2 -11  -4 656.038 83.8000  10
   2 -11  -4 589.831 55.4540  12
   2 -11  -3 842.315 68.1139  12
  -2  11   3 605.925 60.5908  17
  -2  11   2 1795.15 132.044  20
  -2  11   2 1272.30 91.9521  17
  -2  11   1 7847.16 280.226  20
  -2  11   1 5985.75 222.535  17
  -2  11   0 405.600 51.3131  20
  -2  11   0 384.750 43.3485  17
  -2  11  -1 26.4951 9.40263  17
   2 -10 -10 1338.19 93.0113  10
   2 -10  -9 2937.02 144.512  25
   2 -10  -9 3556.76 197.528  10
   2 -10  -8 43.2472 24.5013  10
   2 -10  -8 83.9550 27.5185  24
   2 -10  -8 60.2921 23.4334  25
   2 -10  -7 44.0271 22.4811  10
   2 -10  -7 39.4020 19.0344  24
   2 -10  -6 10636.5 399.148  24
   2 -10  -6 10556.8 453.116  10
   2 -10  -5 2728.23 186.532  24
   2 -10  -5 2277.80 121.251  12
   2 -10  -5 2601.80 208.896  10
  -2  10   4 15.4381 15.9004  17
   2 -10  -4 63.3629 29.2124  24
   2 -10  -4 1.00508 7.99899  12
   2 -10  -4 44.9307 32.5486  10
   2 -10  -3 1316.13 134.343  10
   2 -10  -3 1354.64 125.564  24
  -2  10   3 1132.00 100.691  17
  -2  10   2 622.788 72.6895  17
   2 -10  -2 642.813 83.9058  10
  -2  10   1 1515.93 116.826  17
  -2  10   1 1793.44 148.661  20
  -2  10   0 685.293 85.0083  20
  -2  10   0 584.371 68.6573  17
  -2  10  -1 298.451 46.1029  17
  -2  10  -1 319.147 51.8303  20
  -2  10  -2 1129.20 80.4149  20
  -2  10  -2 1240.53 85.0225  17
  -2  10  -3 2247.44 96.3947  17
   2  -9 -11 50.5309 13.9886  25
   2  -9 -10 334.847 46.3797  25
   2  -9 -10 439.696 61.2485  10
   2  -9  -9 606.652 71.4932  25
   2  -9  -9 576.114 83.2882  10
   2  -9  -8 178.773 42.4645  25
   2  -9  -8 213.407 57.3061  10
   2  -9  -8 217.117 43.3806  24
   2  -9  -7 1288.25 114.405  25
   2  -9  -7 1269.58 146.985  10
   2  -9  -7 1416.55 125.312  24
   2  -9  -6 4147.98 234.933  24
   2  -9  -6 4191.28 274.876  10
   2  -9  -5 11745.2 493.728  10
   2  -9  -5 12261.3 449.469  24
   2  -9  -4 4783.13 257.677  24
   2  -9  -4 4374.66 280.576  10
  -2   9   3 17761.5 530.920  17
   2  -9  -3 19334.4 589.226  24
   2  -9  -3 17803.8 621.843  10
   2  -9  -2 21.7530 17.5986  24
   2  -9  -2 12.2645 17.1190  10
  -2   9   2 36.6251 18.1736  17
   2  -9  -1 4948.38 246.010  24
   2  -9  -1 4591.82 248.382  10
  -2   9   0 1174.99 123.008  20
  -2   9   0 1125.75 104.508  17
  -2   9  -1 1075.39 101.816  17
  -2   9  -1 1201.30 118.265  20
  -2   9  -2 30.4780 13.8245  20
  -2   9  -2 35.6201 16.3839  17
  -2   9  -3 693.468 69.5559  17
  -2   9  -3 604.618 63.7720  20
   2  -9   4-21.4098 13.9465  27
  -2   9  -4-2.69076 5.34856  17
   2  -8 -11 4830.98 178.997  25
   2  -8 -11 4216.38 160.602  10
   2  -8 -10 28.0913 28.5207  25
   2  -8 -10 75.8536 30.3604  10
   2  -8  -9 130.232 36.6475  25
   2  -8  -9 217.035 50.5702  10
   2  -8  -8 2023.82 150.318  25
   2  -8  -8 1837.78 128.234  24
   2  -8  -8 2239.90 189.318  10
   2  -8  -7 442.776 68.7662  24
   2  -8  -7 517.789 75.4886  25
   2  -8  -7 481.585 89.7389  10
   2  -8  -6 2498.75 161.556  25
   2  -8  -6 2610.13 207.630  10
   2  -8  -5 4787.91 283.648  10
   2  -8  -4 803.226 164.057   2
   2  -8  -4 737.596 104.119  10
   2  -8  -3 141.011 38.6919  24
   2  -8  -3 188.558 81.5605   2
   2  -8  -3 135.953 43.6004  10
   2  -8  -2 137.798 34.8422  24
   2  -8  -2 84.4710 33.7628  10
   2  -8  -1-12.3569 23.7547  24
   2  -8  -1 2.46887 46.7396   3
   2  -8  -1 16.7074 19.7125  10
  -2   8   1 32.0001 16.6265  23
  -2   8   1 18.4915 8.22124  17
   2  -8   0 34449.2 910.623  24
  -2   8   0 43039.0 956.248  17
  -2   8  -1 12046.2 382.969  18
  -2   8  -1 12416.6 420.178  17
  -2   8  -2 1561.98 114.725  18
  -2   8  -2 1627.88 127.901  17
  -2   8  -2 1818.83 146.254  20
  -2   8  -3 8204.98 295.996  18
  -2   8  -3 8702.93 332.135  20
  -2   8  -3 8785.65 327.725  17
  -2   8  -4 26.4943 11.8573  17
  -2   8  -4 12.4156 10.0752  11
  -2   8  -4 21.3972 15.2335  20
  -2   8  -5-0.24725 5.62295  11
  -2   8  -5 4.78906 6.32465  17
   2  -8   6 792.900 51.7365  27
   2  -7 -11 244.083 35.3947  10
   2  -7 -11 304.488 43.2855  25
   2  -7 -10 1883.64 133.198  25
   2  -7 -10 1975.39 144.858  10
   2  -7  -9 502.958 66.8512   9
   2  -7  -9 717.721 100.191  10
   2  -7  -9 675.269 84.0852  25
   2  -7  -8 1467.76 123.710   9
   2  -7  -8 1815.32 143.111  25
   2  -7  -7 518.110 76.9829  25
   2  -7  -6 7697.98 309.163  25
   2  -7  -6 9633.82 574.704   2
   2  -7  -5 8439.95 306.043  25
   2  -7  -5 10299.3 602.017   2
   2  -7  -4 22527.7 936.463   2
   2  -7  -4 20935.6 649.725  10
   2  -7  -3-22.3365 28.8005   2
   2  -7  -2 7.70599 40.4348   2
   2  -7  -1 2259.58 295.501   3
  -2   7   0 510.273 65.4332  17
   2  -7   0 375.248 54.1640  24
  -2   7   0 481.364 60.7380  23
   2  -7   0 613.380 154.264   3
  -2   7  -1 9323.29 330.328  17
   2  -7   1 10083.6 694.146   3
  -2   7  -1 9269.39 324.088  23
  -2   7  -1 9109.75 310.512  18
  -2   7  -2 77.3802 25.9271  18
  -2   7  -2 84.5216 34.6296  20
  -2   7  -2 73.8312 25.9683  17
  -2   7  -3 1554.79 120.854  18
  -2   7  -3 1388.41 118.825  17
  -2   7  -3 1486.22 129.354  20
  -2   7  -4 7644.09 305.268  20
  -2   7  -4 7601.50 293.350  18
  -2   7  -4 8021.69 312.032  17
  -2   7  -5 521.846 63.6673  11
  -2   7  -5 587.400 67.8376  17
  -2   7  -6 2019.50 105.589   6
  -2   7  -6 1853.24 104.201  11
  -2   7  -6 1917.61 107.032  17
   2  -7   7 4454.15 148.579  27
   2  -6 -11 6756.52 230.026  25
   2  -6 -11 5291.71 201.413   9
   2  -6 -10 5641.02 244.201  25
   2  -6 -10 5190.11 230.230   9
   2  -6  -9 733.436 88.5003  25
   2  -6  -9 495.725 68.9131   9
   2  -6  -8 342.757 55.4615   9
   2  -6  -8 462.889 74.7817  25
   2  -6  -7 483.986 70.4385  25
   2  -6  -7 354.914 55.6512   9
   2  -6  -6 815.317 85.7149  25
   2  -6  -6 728.452 148.479   2
   2  -6  -5 743.398 148.864   2
   2  -6  -4 9910.94 550.952   2
   2  -6  -3 2261.58 247.483   2
   2  -6  -2 52585.6 1563.16   2
   2  -6  -1 43501.7 1407.88   3
   2  -6   0 6289.71 473.730   3
   2  -6   1 30914.3 1227.23   3
  -2   6  -2 72.0240 23.8987  17
  -2   6  -2 53.6261 20.4521  23
   2  -6   2 148.533 95.0955   3
  -2   6  -2 59.7537 25.0672  18
  -2   6  -3 1161.91 100.412  18
  -2   6  -3 1159.80 102.867  17
   2  -6   3 983.466 207.775   3
  -2   6  -3 1281.04 115.247  20
  -2   6  -4 18.2442 12.1465  17
  -2   6  -4 9.35592 10.9539  18
  -2   6  -4 12.1767 14.6304  20
  -2   6  -5 1276.20 97.5156  22
  -2   6  -5 1412.43 114.945  18
  -2   6  -5 1459.58 118.720  17
  -2   6  -6 94.2004 26.4472  11
  -2   6  -6 79.5762 27.0333  17
  -2   6  -6 76.4495 22.7483  22
  -2   6  -7 47.5078 11.2385  17
  -2   6  -7 33.9294 13.2067  11
  -2   6  -7 30.4899 10.9337   6
   2  -5 -11 394.862 47.5413  25
   2  -5 -11 362.335 43.1700   9
   2  -5 -10 12737.5 401.193  25
   2  -5 -10 11558.9 372.767   9
   2  -5  -9 4897.27 239.569  25
   2  -5  -9 4160.55 208.869   9
   2  -5  -8 23417.5 653.182  25
   2  -5  -8 22024.0 612.024   9
   2  -5  -7 780.776 82.0018   9
   2  -5  -7 927.474 95.0825  25
   2  -5  -7 663.872 153.081   2
   2  -5  -6 1353.49 199.184   2
   2  -5  -5 5416.75 392.889   2
   2  -5  -5 5658.92 404.353   1
   2  -5  -4 4553.56 341.657   2
   2  -5  -4 4882.99 344.569   1
   2  -5  -3 8940.77 439.385   1
   2  -5  -3 8378.66 458.213   2
   2  -5  -2-5.39629 10.6875   1
   2  -5  -2 10.5446 29.0299   2
   2  -5  -1 6841.87 423.550   3
   2  -5  -1 6526.94 348.132   1
   2  -5   0 1073.41 161.813   1
   2  -5   0 1195.95 179.016   3
   2  -5   1 33282.6 1164.96   3
   2  -5   1 32233.8 1214.25   1
   2  -5   2 111477. 2865.09   3
   2  -5   3 693.384 164.449   3
   2  -5   4 726.577 174.077   3
  -2   5  -4 717.185 76.0355  18
  -2   5  -4 635.309 71.9424  17
  -2   5  -5 13293.2 414.635  22
  -2   5  -5 14095.9 439.904  18
  -2   5  -5 13987.4 443.175  17
  -2   5  -6 464.366 61.0997  22
  -2   5  -6 378.637 59.1497  18
  -2   5  -7 538.920 61.8403  22
  -2   5  -7 433.331 63.2684  11
  -2   5  -7 454.696 56.9633  17
  -2   5  -8 65.1626 16.9778  22
  -2   5  -8 54.4072 16.6768   6
   2  -5   8 38.8202 14.4009  27
  -2   5  -8 71.1183 21.0630  11
   2  -4 -11 200.373 32.7629  25
   2  -4 -11 215.238 34.4882  22
   2  -4 -11 213.946 33.2868   9
   2  -4 -10 3231.25 166.354   9
   2  -4 -10 2869.64 163.409  22
   2  -4 -10 2807.03 159.804  25
   2  -4  -9 6101.42 266.557  22
   2  -4  -9 5778.95 262.591  25
   2  -4  -8 1253.55 113.472  25
   2  -4  -8 1240.89 116.629  13
   2  -4  -8 1236.99 109.550  22
   2  -4  -7 379.066 60.3536  13
   2  -4  -7 281.401 102.091   2
   2  -4  -7 343.933 52.0798  22
   2  -4  -7 336.912 56.9940  25
   2  -4  -6 3183.37 311.013   2
   2  -4  -5 8814.91 503.476   2
   2  -4  -4 208597. 4503.75   2
   2  -4  -4 211389. 4505.93   1
   2  -4  -3 8617.80 436.840   2
   2  -4  -3 10402.2 451.723   1
   2  -4  -2 2893.11 232.417   2
   2  -4  -2 2931.82 198.929   1
   2  -4  -1 6470.63 370.318   3
   2  -4  -1 6734.28 298.434   1
   2  -4   0 2918.06 225.190   1
   2  -4   0 2543.49 232.510   3
   2  -4   1 1225.20 168.564   3
   2  -4   2 14729.1 678.475   3
   2  -4   3 2336.15 277.622   3
   2  -4   4 26.2461 27.6665   3
  -2   4  -5 122.610 30.7881  17
   2  -4   5 117.302 59.4295   3
  -2   4  -5 108.801 28.1163  18
  -2   4  -6 23412.9 631.714  22
  -2   4  -6 23535.2 639.898  18
  -2   4  -6 25058.1 647.990  17
  -2   4  -7 10271.8 353.844  22
  -2   4  -7 10761.7 380.079  11
  -2   4  -7 10926.1 355.722  17
  -2   4  -8 4135.63 201.201  11
  -2   4  -8 4264.16 188.519  22
  -2   4  -9 6301.05 198.791  11
  -2   4  -9 6124.12 182.425  22
   2  -3 -11 172.983 32.7986   9
   2  -3 -11 121.077 27.4471  22
   2  -3 -11 166.393 25.1857  25
   2  -3 -10 949.256 82.3669  25
   2  -3 -10 1019.03 94.0107  22
   2  -3  -9 9981.92 347.275  25
   2  -3  -9 9603.72 358.033  22
   2  -3  -8 3828.24 205.542  22
   2  -3  -8 3947.02 202.766  25
   2  -3  -8 3811.39 206.072  13
   2  -3  -7 585.163 143.600   2
   2  -3  -7 763.122 81.6503  25
   2  -3  -7 723.977 78.1958  13
   2  -3  -7 586.027 71.7696  22
   2  -3  -6 10120.8 615.668   2
   2  -3  -5 24.3117 10.3326   2
   2  -3  -4 25.3557 19.0919   2
   2  -3  -3 969.405 131.391   2
   2  -3  -3 1189.71 138.386   1
   2  -3  -2 1049.88 109.495   1
   2  -3  -2 1081.38 126.683   2
   2  -3  -1 13499.9 404.854   1
   2  -3  -1 15194.8 539.538   3
   2  -3   0 143371. 3154.54   3
   2  -3   0 148357. 3024.41   1
   2  -3   1 9862.61 442.451   3
   2  -3   2 45682.3 1276.85   3
   2  -3   3 57565.4 1593.87   3
   2  -3   4 12.4272 25.3797   3
   2  -3   5 855.318 172.295   3
   2  -3   6 123.651 66.5365   3
  -2   3  -6 82.4236 27.6531  18
  -2   3  -6 124.814 32.8549  17
  -2   3  -7 367.967 58.2718  22
  -2   3  -7 394.644 58.5927  18
  -2   3  -8 493.428 68.9571  22
  -2   3  -8 526.676 71.9249  11
  -2   3  -9-2.45653 8.85653   6
  -2   3  -9 5.63518 7.01896  22
  -2   3  -9-14.4086 12.2605  11
  -2   3 -10 11232.8 299.977  22
   2  -2 -11 50.4086 15.8209  22
   2  -2 -11 63.1065 19.7410   9
   2  -2 -10 390.702 45.5467  25
   2  -2 -10 334.292 50.6122  22
   2  -2  -9 299.533 49.3812  25
   2  -2  -9 300.919 54.0479  22
   2  -2  -9 271.753 51.4133  13
   2  -2  -8 17671.8 541.196  22
   2  -2  -8 17918.3 532.466  13
   2  -2  -7 5117.76 232.151  22
   2  -2  -7 5912.06 487.975   2
   2  -2  -7 5348.89 232.011  13
   2  -2  -7 5568.41 228.488  19
   2  -2  -6 128821. 3223.86   2
   2  -2  -5 4986.12 397.065   2
   2  -2  -4 17250.2 684.959   2
   2  -2  -3 1086.63 140.097   2
   2  -2  -2 669.414 93.7031   2
   2  -2  -1 1290.20 122.364   2
   2  -2  -1 1193.93 83.9611   1
   2  -2   0 6678.66 287.990   3
   2  -2   0 4789.56 139.782   1
   2  -2   1 426.042 73.1301   3
   2  -2   2 248.785 60.0839   3
   2  -2   3 137445. 3032.47   3
   2  -2   4 102487. 2458.71   3
   2  -2   5 56611.0 1641.92   3
   2  -2   6 9.45646 26.4125   3
   2  -2   7 5830.18 471.455   3
  -2   2  -7 6651.75 270.398  22
  -2   2  -7 6648.61 257.376  18
  -2   2  -8 540.544 72.4815  22
  -2   2  -8 547.198 74.8011  11
  -2   2  -9 107.618 29.4353  22
  -2   2  -9 97.0498 29.6615   6
  -2   2  -9 134.886 35.2957  11
  -2   2 -10-10.2487 14.3580   6
  -2   2 -10-6.95707 10.2771  11
  -2   2 -10-3.52176 5.23758  22
  -2   2 -11 201.328 24.3225  22
   2  -1 -11 654.068 51.6923  22
   2  -1 -10 157.924 36.0770  22
  -2   1   9 248.759 47.2042  28
   2  -1  -9 353.994 46.7522  25
   2  -1  -9 355.672 58.7341  22
   2  -1  -8 104.357 33.8001  13
   2  -1  -8 95.7522 24.2863  25
   2  -1  -8 83.1587 30.6884  22
   2  -1  -7 6583.19 270.325  22
   2  -1  -7 6425.91 251.486  13
  -2   1   6 406.782 114.178   3
   2  -1  -6 561.523 148.615   2
   2  -1  -5 8748.74 550.305   2
   2  -1  -4 11264.8 575.230   2
  -2   1   3 37079.0 857.882   4
   2  -1  -3 49387.5 1193.26   2
  -2   1   2 438644. 9042.22   4
   2  -1  -2 568863. 9312.70   2
   2  -1  -1 3181.76 188.133   2
  -2   1   1 2632.31 137.126   4
   2  -1   0 13212.5 392.432   2
  -2   1   0 11975.9 360.385   4
   2  -1   1 3651.39 186.751   3
   2  -1   2 41532.5 1010.23   3
   2  -1   3 9075.57 383.863   3
   2  -1   4 18761.5 664.267   3
   2  -1   5-0.83082 12.1775   3
   2  -1   6 3496.49 312.505   3
  -2   1  -7 1993.26 122.908  16
  -2   1  -7 1762.52 120.338  22
  -2   1  -8 2096.13 144.865  22
  -2   1  -8 2098.16 147.068  11
  -2   1  -9 31746.4 806.495  11
  -2   1  -9 30912.4 808.865   6
  -2   1  -9 32151.7 806.255  22
  -2   1 -10 487.765 54.8063  13
  -2   1 -10 479.420 59.8262  22
  -2   1 -10 415.448 55.0638   6
  -2   1 -10 499.412 60.1983  11
  -2   1 -11 203.398 25.7676  13
  -2   1 -11 275.085 35.6309  22
   2   0 -10 1141.50 82.4731  22
  -2   0  10 647.640 55.0225  28
   2   0  -9 11390.7 355.437  22
  -2   0   9 7983.34 316.467  28
   2   0  -8 12176.4 350.985  25
   2   0  -8 10555.2 386.658  22
   2   0  -7 20429.0 539.022  13
   2   0  -7 20000.1 578.022  22
  -2   0   6 1161.32 204.944   3
   2   0  -6 1220.92 104.123  11
   2   0  -6 1400.09 106.482  22
  -2   0   5 167.716 62.6964   3
   2   0  -5 303.525 101.641   2
   2   0  -4 6382.55 443.290   2
  -2   0   3 2076.88 148.219   5
   2   0  -3 2423.13 236.749   2
  -2   0   2 1268.97 109.142   5
   2   0  -2 1567.59 163.990   2
   2   0  -1 11616.4 420.691   2
  -2   0   1 11537.8 372.301   5
   2   0   0 403.082 54.7302   2
  -2   0  -1 31383.6 775.475   4
  -2   0  -1 31626.8 730.257   1
   2   0   2 386880. 7149.01   3
  -2   0  -2 392714. 7166.10   4
  -2   0  -3 267725. 5529.13   1
   2   0   3 277585. 5402.50   3
   2   0   4 102124. 2233.70   3
   2   0   5 15781.7 592.175   3
   2   0   6 732.140 124.591   3
   2   0   7 131.977 50.1359   3
  -2   0  -8 1134.98 96.4933  16
  -2   0  -8 1012.55 96.2441  11
  -2   0  -8 1049.70 98.7199  22
  -2   0  -8 1076.51 89.4329  19
  -2   0  -9 371.150 60.9903   6
  -2   0  -9 437.287 65.6337  22
  -2   0  -9 436.306 64.1287  11
  -2   0  -9 332.331 49.0904  19
  -2   0 -10 1004.18 92.2072   6
  -2   0 -10 1019.01 93.8595  22
  -2   0 -10 951.496 86.3768  11
  -2   0 -10 1022.04 80.5720  19
  -2   0 -11-11.7560 14.8354  22
  -2   0 -11-10.9829 10.5278   6
  -2   0 -11-23.3742 18.1895  13
  -2   0 -12 709.525 46.1309  22
  -2  -1  10 3.16202 4.51952  28
   2   1 -10 39.8475 12.7496  22
   2   1  -9 976.815 84.4266  22
  -2  -1   9 589.591 68.5465  28
   2   1  -8 4777.86 226.296  22
   2   1  -7 4541.07 223.592  22
   2   1  -6 1217.75 108.667  11
  -2  -1   6 1139.45 213.497   3
   2   1  -6 1181.02 102.285  22
  -2  -1   5 35527.5 1297.39   3
  -2  -1   4 154826. 3593.67   3
   2   1  -3 11691.9 609.450   2
  -2  -1   3 12272.6 568.006   3
   2   1  -2 19453.2 739.773   2
   2   1  -1 288.199 69.0741   2
  -2  -1   0 5456.57 249.663   5
   2   1   0 5012.66 256.199   2
  -2  -1  -1 8727.13 350.220   1
  -2  -1  -1 8376.54 302.231   5
  -2  -1  -2 11918.2 403.795   1
   2   1   3 52675.5 1124.83   3
  -2  -1  -3 53273.9 1181.23   4
   2   1   4 230.909 44.5805   3
  -2  -1  -4 237.553 68.2517   1
   2   1   5 138472. 2974.75   3
  -2  -1  -5 152167. 3346.73   1
   2   1   6 4758.83 289.708   3
  -2  -1  -7 131873. 2685.08   6
  -2  -1  -8 214.528 46.0990   6
  -2  -1  -8 208.618 39.8344  22
  -2  -1  -8 250.548 44.1497  16
  -2  -1  -8 271.212 45.6051  19
  -2  -1  -9 173.943 40.2326   6
  -2  -1  -9 76.7348 16.9800  19
  -2  -1  -9 167.882 37.1948  16
  -2  -1  -9 175.226 41.5286  22
  -2  -1 -10 193.067 42.2439   6
  -2  -1 -10 251.140 45.4666  19
  -2  -1 -10 232.767 45.0665  22
  -2  -1 -11 344.840 47.5422  22
  -2  -1 -11 273.533 38.2709  19
  -2  -1 -11 320.051 47.1576  13
  -2  -1 -12 157.200 24.7744  22
  -2  -1 -12 177.299 27.5076  13
  -2  -1 -12 244.943 31.2037   9
  -2  -2   9 80.3777 22.4551  28
   2   2  -9 108.886 24.2858  22
   2   2  -8 937.192 85.6370  22
   2   2  -7 5296.82 235.472  22
  -2  -2   7 4541.21 214.055  27
   2   2  -6 10458.5 373.195  11
   2   2  -6 10482.0 351.647  22
  -2  -2   5 215.236 91.9145   3
  -2  -2   5 152.338 32.0112  27
   2   2  -5 151.689 35.0074  17
   2   2  -5 227.604 47.5507  20
   2   2  -5 179.241 34.5305  22
   2   2  -5 127.502 31.7751  11
  -2  -2   4 450.907 126.774   3
  -2  -2   3 8984.33 522.238   3
  -2  -2   2 37177.7 1132.00   3
  -2  -2   1 125516. 2756.34   3
  -2  -2   0 109589. 2348.13   3
  -2  -2  -1 10597.0 323.633   3
  -2  -2  -2 20047.4 611.913   5
  -2  -2  -2 23193.2 708.382   1
  -2  -2  -3 242.561 61.1108   1
  -2  -2  -3 202.801 43.7497   5
  -2  -2  -4 3121.85 251.067   1
  -2  -2  -4 3036.84 154.355   4
   2   2   4 2936.42 114.259   3
  -2  -2  -5 4861.88 367.984   1
   2   2   5 5271.73 223.596   3
  -2  -2  -6 5122.32 414.155   1
  -2  -2  -7 1278.36 99.3157   6
  -2  -2  -8 4931.38 210.883  16
  -2  -2  -8 4804.70 219.376  19
  -2  -2  -9 392.735 59.8550   6
  -2  -2  -9 585.836 72.5776  16
  -2  -2  -9 553.140 69.3881  22
  -2  -2  -9 472.462 63.0611  19
  -2  -2 -10 2390.09 145.695   6
  -2  -2 -10 2179.09 140.666  22
  -2  -2 -10 2108.07 140.494  19
  -2  -2 -10 2302.71 147.232  16
  -2  -2 -11 18236.7 509.437  13
  -2  -2 -11 17803.8 484.441  22
  -2  -2 -11 17464.6 483.818  19
  -2  -2 -12 12.8672 12.0682   9
  -2  -2 -12 1.82526 6.87206  13
  -2  -2 -12-10.1119 11.9642  22
  -2  -3   9 38.8469 12.1638  28
   2   3  -8 37.2432 17.8234  22
  -2  -3   7 39036.7 955.040  27
   2   3  -7 43156.8 963.958  22
  -2  -3   6 10571.3 384.720  27
   2   3  -6 11171.2 366.584  22
   2   3  -6 10431.3 381.612  11
   2   3  -5 6672.38 287.641  11
  -2  -3   5 7646.30 313.669  27
  -2  -3   5 8376.91 613.164   3
   2   3  -5 7496.93 277.046  22
   2   3  -5 6713.88 323.276  20
   2   3  -5 6271.59 290.141  17
  -2  -3   4 1384.67 237.691   3
  -2  -3   3 5733.13 443.262   3
  -2  -3   2 1036.98 166.875   3
  -2  -3   1 40913.2 1200.69   3
  -2  -3   0 4136.39 260.619   3
  -2  -3  -1 9042.43 336.844   3
  -2  -3  -2 268.134 79.5690   1
  -2  -3  -2 145.332 23.3663   3
  -2  -3  -3 73803.4 1501.28   2
  -2  -3  -3 76534.0 1699.33   5
  -2  -3  -3 78451.4 1864.76   1
  -2  -3  -4 58515.7 1584.10   1
  -2  -3  -4 60094.5 1355.51   5
  -2  -3  -5 102689. 2066.12   4
  -2  -3  -5 93271.1 2454.50   1
  -2  -3  -6 7627.07 516.223   1
  -2  -3  -7 63.1252 48.9233   1
  -2  -3  -7 84.4716 23.3406   6
  -2  -3  -8 2548.65 142.478  16
  -2  -3  -8 2480.85 142.905   6
  -2  -3  -8 2733.36 153.889  19
  -2  -3  -9 1444.88 110.653  16
  -2  -3  -9 1420.20 97.7012  12
  -2  -3  -9 1443.00 115.742  19
  -2  -3 -10 64.4884 24.1705  16
  -2  -3 -10 55.9244 21.4745  22
  -2  -3 -10 25.1147 17.7137  13
  -2  -3 -10 31.0735 16.2689  19
  -2  -3 -11 372.115 49.0676  22
  -2  -3 -11 342.867 54.1023  13
  -2  -3 -11 381.521 59.5097  19
  -2  -3 -12 581.466 57.1225  19
  -2  -3 -12 558.966 60.7349  13
  -2  -3 -12 732.170 67.0173   9
  -2  -3 -13 1584.49 75.6208   9
  -2  -4   8 86.5525 20.4982  28
  -2  -4   7 79.6605 23.1078  27
   2   4  -7 119.640 25.5483  22
  -2  -4   6 2858.06 174.837  27
   2   4  -6 3257.21 162.144  22
  -2  -4   5 160.112 40.5228  27
   2   4  -5 183.693 36.3994  22
   2   4  -5 198.160 50.5296  20
   2   4  -5 168.271 41.1294  11
   2   4  -5 181.144 44.1407  17
   2   4  -4 2339.50 177.271  20
   2   4  -4 2152.78 142.744  11
   2   4  -4 2322.47 159.037  17
  -2  -4   4 2420.63 322.967   3
  -2  -4   3 62574.0 1949.41   3
  -2  -4   2 29054.7 1102.34   3
  -2  -4   1 24.1787 24.2026   3
  -2  -4   0 17682.5 675.945   3
  -2  -4  -1 1307.12 134.969   3
  -2  -4  -2 23.9403 14.9461   3
  -2  -4  -2 13.6326 36.4439   1
  -2  -4  -3 3887.74 322.283   1
  -2  -4  -4 659.759 128.710   1
  -2  -4  -4 618.563 88.8338   5
  -2  -4  -5 4255.32 354.557   1
  -2  -4  -6 8237.75 550.602   1
  -2  -4  -7 25216.6 1122.47   1
  -2  -4  -8 20063.8 528.974  16
  -2  -4  -8 19864.9 548.434  19
  -2  -4  -8 18604.7 997.844   1
  -2  -4  -9 44243.0 990.456  12
  -2  -4  -9 44394.1 1020.03  16
  -2  -4  -9 47294.5 1056.78  19
  -2  -4 -10 33.8108 13.0933  25
  -2  -4 -10 41.0369 19.6122  12
  -2  -4 -10 102.497 35.2134  16
  -2  -4 -10 48.4204 23.5260  19
  -2  -4 -10 40.7792 23.9783  13
  -2  -4 -11 47.4798 16.0963  13
  -2  -4 -11 45.4081 24.3878   9
  -2  -4 -11 101.961 33.7644  19
  -2  -4 -12 269.287 45.7750  13
  -2  -4 -12 230.188 41.3273   9
  -2  -4 -12 265.687 43.6787  19
  -2  -4 -13 323.803 36.6920   9
  -2  -5   7 8.28160 6.64026  28
  -2  -5   7-10.9080 6.44029  27
  -2  -5   6 14.2352 15.6666  27
   2   5  -5 323.538 56.6726  17
   2   5  -5 320.772 53.0360  11
   2   5  -5 365.785 65.1757  20
  -2  -5   5 321.922 59.1042  27
  -2  -5   4 1959.78 158.824  27
   2   5  -4 1464.31 117.527  11
   2   5  -4 1682.48 152.788  20
   2   5  -4 1599.61 134.710  17
   2   5  -3 878.505 86.0437  11
   2   5  -3 875.061 109.681  20
  -2  -5   3 914.177 201.947   3
   2   5  -3 913.532 97.4430  17
  -2  -5   2 160.262 77.4522   3
   2   5  -2 146.045 36.2519  17
   2   5  -2 131.666 44.0128  20
  -2  -5   1 161.903 92.1526   3
  -2  -5   0 15896.6 701.955   3
  -2  -5  -1 55426.5 1420.36   3
  -2  -5  -1 48806.0 1878.03   1
  -2  -5  -2 31591.5 1281.21   1
  -2  -5  -3 13869.3 733.761   1
  -2  -5  -4 399.091 84.8560   5
  -2  -5  -4 465.595 121.102   1
  -2  -5  -5 13801.4 726.645   1
  -2  -5  -6 134.516 66.1615   1
  -2  -5  -7 6420.17 542.280   1
  -2  -5  -8 205.800 30.8375  16
  -2  -5  -8 214.236 99.5577   1
  -2  -5  -8 237.708 40.0716  12
  -2  -5  -8 218.365 37.9198  13
  -2  -5  -8 232.586 49.3939   9
  -2  -5  -8 221.550 44.5332  25
  -2  -5  -8 273.768 43.2506  15
  -2  -5  -8 252.354 46.5583  19
  -2  -5  -9 300.616 48.5619  16
  -2  -5  -9 299.420 54.6300   9
  -2  -5  -9 243.378 52.6376  25
  -2  -5  -9 244.347 38.2044  12
  -2  -5  -9 290.493 53.4100  13
  -2  -5  -9 307.024 52.2160  19
  -2  -5 -10 2335.70 156.740  25
  -2  -5 -10 2430.49 146.445  16
  -2  -5 -10 2417.73 131.518  12
  -2  -5 -10 2528.45 165.144  19
  -2  -5 -10 2400.51 159.231  13
  -2  -5 -10 2445.09 167.666   9
  -2  -5 -11 1159.93 100.628  25
  -2  -5 -11 1331.54 99.8619  16
  -2  -5 -11 1253.62 109.212  13
  -2  -5 -11 1338.18 115.994   9
  -2  -5 -11 1229.14 108.927  19
  -2  -5 -12 4516.86 205.410   9
  -2  -5 -12 4141.40 184.104  19
  -2  -5 -12 3998.79 184.807  13
  -2  -5 -13 1771.54 98.4018   9
  -2  -6   6 998.284 76.1840  28
  -2  -6   6 1140.97 80.3232  27
  -2  -6   5 22268.2 609.781  27
  -2  -6   4 527.221 75.6538  27
   2   6  -4 617.228 80.1608  17
   2   6  -4 581.652 65.2807  11
   2   6  -4 740.731 99.8809  20
   2   6  -3 262.302 53.6476  17
  -2  -6   3 218.681 51.5846  27
   2   6  -3 222.061 56.9382  20
   2   6  -2 85.5640 26.5379  17
   2   6  -2 103.036 35.1372  20
  -2  -6   1 4666.24 417.807   3
   2   6  -1 4370.35 243.144  20
   2   6  -1 4357.09 210.230  17
  -2  -6   0 575.001 130.061   3
  -2  -6   0 789.183 247.546   1
  -2  -6  -1 3145.14 442.842   1
  -2  -6  -2 14.4721 29.5933   1
  -2  -6  -3 17308.5 927.297   1
  -2  -6  -4 535.777 142.826   1
  -2  -6  -5 14793.7 814.792   1
  -2  -6  -6 87662.7 2536.82   1
  -2  -6  -7 24375.2 1156.46   1
  -2  -6  -7 24087.1 656.104  25
  -2  -6  -7 23754.3 593.700  12
  -2  -6  -7 23204.9 660.496   9
  -2  -6  -8 36.9805 14.8218  12
  -2  -6  -8 38.2808 31.7945   9
  -2  -6  -8 105.637 20.5966  16
  -2  -6  -8 2.47588 7.52170  15
  -2  -6  -8-9.22027 16.9677  25
  -2  -6  -8-72.0729 60.6968   1
  -2  -6  -8 9.75357 10.9323  19
  -2  -6  -9 863.190 89.4145  13
  -2  -6  -9 1033.06 87.9149  12
  -2  -6  -9 866.700 100.605  25
  -2  -6  -9 1007.89 98.7634  19
  -2  -6  -9 979.823 87.5138  16
  -2  -6  -9 877.312 103.766   9
  -2  -6 -10 621.122 65.8024  12
  -2  -6 -10 652.684 90.1345   9
  -2  -6 -10 662.065 80.3622  13
  -2  -6 -10 712.811 74.9214  16
  -2  -6 -10 574.962 78.6798  25
  -2  -6 -10 582.057 77.8648  19
  -2  -6 -11 39.9097 20.0155  16
  -2  -6 -11 24.4694 26.1407   9
  -2  -6 -11 13.1646 9.29606  13
  -2  -6 -11 20.0638 10.5026  12
  -2  -6 -11 61.5387 31.1664  19
  -2  -6 -11 23.5352 14.7574  25
  -2  -6 -12 253.957 38.5118  25
  -2  -6 -12 280.452 51.6056   9
  -2  -6 -13-8.03336 12.5865   9
  -2  -7   5-1.84766 7.76664  27
  -2  -7   5 4.88344 4.59168  28
   2   7  -4 161.102 37.3920  17
   2   7  -4 205.656 45.4660  20
  -2  -7   4 151.562 37.8476  27
  -2  -7   3 532.471 75.2434  27
   2   7  -3 604.640 88.0854  20
   2   7  -3 501.065 68.3384  17
   2   7  -2 107.440 31.9129  17
   2   7  -2 139.627 41.9962  20
  -2  -7   2 73.0420 36.7160  27
   2   7  -1 10108.9 421.603  20
  -2  -7   1 10913.9 401.308  27
   2   7  -1 9789.37 363.188  17
  -2  -7   0 6960.78 293.840  27
   2   7   0 6977.89 325.237  20
   2   7   0 6652.95 274.108  17
  -2  -7  -1 959.273 255.964   1
   2   7   1 987.723 108.470  20
  -2  -7  -2 601.833 187.378   1
  -2  -7  -2 623.199 90.0922  10
  -2  -7  -3 891.731 219.952   1
  -2  -7  -4 242.520 111.268   1
  -2  -7  -5 3028.12 381.844   1
  -2  -7  -6 2250.67 327.961   1
  -2  -7  -6 2409.38 164.290  25
  -2  -7  -6 2385.76 148.435  24
  -2  -7  -6 2469.76 183.186  10
  -2  -7  -6 1946.91 120.617  12
  -2  -7  -6 2048.80 164.908   9
  -2  -7  -7 5413.92 264.780  25
  -2  -7  -7 4805.39 209.081  12
  -2  -7  -7 5194.13 210.895  15
  -2  -7  -7 5481.49 537.177   1
  -2  -7  -7 4747.67 266.321   9
  -2  -7  -7 5940.42 292.779  10
  -2  -7  -8 225.103 50.0465   9
  -2  -7  -8 232.400 39.2875  15
  -2  -7  -8 181.065 37.0738  12
  -2  -7  -8 290.899 62.3961  10
  -2  -7  -9 2354.38 139.981  12
  -2  -7  -9 2424.69 178.932  25
  -2  -7  -9 2508.87 139.105  15
  -2  -7  -9 2290.75 148.757  19
  -2  -7  -9 2375.33 188.117   9
  -2  -7 -10 24352.9 669.837  19
  -2  -7 -10 25684.1 626.675  16
  -2  -7 -10 26599.9 735.021  25
  -2  -7 -10 25125.2 628.660  12
  -2  -7 -10 25210.4 755.221   9
  -2  -7 -11 573.881 75.4807  25
  -2  -7 -11 503.831 51.1783  12
  -2  -7 -11 547.178 80.5131   9
  -2  -7 -12 172.304 40.6059   9
  -2  -7 -12 176.777 34.6220  25
  -2  -7 -13 144.950 34.4670   9
  -2  -8   4 395.768 45.8413  27
  -2  -8   3 12.6301 12.3513  27
  -2  -8   3-5.91391 4.58218   8
   2   8  -3 11.2533 11.3054  17
   2   8  -3 23.4243 17.9795  20
  -2  -8   2 94.5409 28.7719  27
   2   8  -2 123.055 46.0249  20
   2   8  -2 135.909 36.4007  17
  -2  -8   1 1139.49 110.761  27
   2   8  -1 1025.72 120.617  20
   2   8  -1 1012.90 100.947  17
  -2  -8   0 2121.80 152.933  27
   2   8   0 1948.79 139.830  17
   2   8   0 1883.70 168.167  20
   2   8   1 150.507 44.0300  20
   2   8   1 112.892 31.4752  17
   2   8   2 2.26182 15.0032  20
  -2  -8  -3 2276.65 365.331   1
  -2  -8  -3 2314.98 194.734  10
  -2  -8  -4 40712.8 1098.86  10
  -2  -8  -4 42473.4 1704.30   1
  -2  -8  -5 10084.3 750.040   1
  -2  -8  -5 7878.81 290.621  12
  -2  -8  -5 8983.55 369.925  25
  -2  -8  -5 10976.2 448.219  10
  -2  -8  -6 25.4350 39.5227   1
  -2  -8  -6 28.8899 16.0738  12
  -2  -8  -6 52.1064 24.7950  10
  -2  -8  -7 2139.75 171.822  25
  -2  -8  -7 2068.01 127.063  15
  -2  -8  -7 2098.45 182.443  10
  -2  -8  -7 1923.00 128.918  12
  -2  -8  -8 216.947 78.2087   9
  -2  -8  -8 112.649 25.7962  15
  -2  -8  -8 147.948 34.9800  12
  -2  -8  -8 156.352 50.2918  25
  -2  -8  -8 106.091 39.3625  10
  -2  -8  -9 1496.83 145.419  25
  -2  -8  -9 1468.73 100.682  15
  -2  -8  -9 1304.80 103.602  12
  -2  -8  -9 1582.17 145.676  10
  -2  -8  -9 1212.28 133.479   9
  -2  -8 -10 767.239 101.282  25
  -2  -8 -10 754.141 70.3192  12
  -2  -8 -10 751.698 101.746   9
  -2  -8 -11 219.273 50.0219   9
  -2  -8 -11 205.858 47.9350  25
  -2  -8 -11 149.529 26.1323  12
  -2  -8 -12 181.388 37.9235  25
  -2  -9   3 1703.64 85.4092  27
  -2  -9   2 1815.24 105.176   8
  -2  -9   2 2296.27 123.032  27
   2   9  -2 1962.27 112.393  17
   2   9  -2 2195.67 138.693  20
   2   9  -1 136.577 31.3876  17
  -2  -9   1 166.857 35.6029  27
   2   9  -1 107.000 33.2317  20
  -2  -9   0 65.6103 20.6170  27
   2   9   0 18.2659 18.0883  17
   2   9   0 23.6609 18.8563  20
   2   9   1 16.5442 8.79154  17
   2   9   1 19.3142 16.4312  20
   2   9   2 3552.64 228.198  20
   2   9   3 94.8379 34.8360  20
  -2  -9  -4 18.4715 18.8279  12
   2   9   4 46.1000 26.4992  20
  -2  -9  -4 20.0571 17.7759  10
  -2  -9  -5 10903.4 348.486  12
  -2  -9  -5 7941.60 417.513  10
  -2  -9  -6 45.8036 20.8687  12
  -2  -9  -6-9.97132 23.2360  10
  -2  -9  -7 182.542 35.3090  15
  -2  -9  -7 184.872 50.2811  25
  -2  -9  -7 113.478 41.5985  10
  -2  -9  -8 29349.8 859.829  25
  -2  -9  -8 31792.8 771.241  12
  -2  -9  -8 29657.7 889.529  10
  -2  -9  -9 1575.79 145.412  25
  -2  -9  -9 1413.70 104.641  12
  -2  -9  -9 1594.29 146.209  10
  -2  -9 -10 140.730 42.2339  25
  -2  -9 -10 137.701 29.1403  12
  -2  -9 -11 31.6877 24.4840  25
  -2  -9 -11 17.4470 10.0257  12
  -2 -10   1 1166.77 76.5674   8
   2  10  -1 1288.26 93.4969  20
  -2 -10   0 865.666 63.6394  12
   2  10   0 998.835 95.4849  20
   2  10   0 881.343 67.1844  17
   2  10   1 642.808 88.8788  20
  -2 -10  -2 7240.45 261.654  12
   2  10   2 7443.93 326.218  20
  -2 -10  -3 555.430 67.6623  12
   2  10   3 550.148 82.6941  20
   2  10   4 3.76301 13.9006  20
  -2 -10  -4 10.0808 19.7686  12
  -2 -10  -5 885.116 84.2410  12
   2  10   5 802.243 94.5272  20
  -2 -10  -5 1065.19 132.367  10
  -2 -10  -6 267.405 64.4612  10
  -2 -10  -6 252.929 45.2276  12
  -2 -10  -7 469.140 59.7246  12
  -2 -10  -7 440.238 83.5064  10
  -2 -10  -8 620.766 68.2777  12
  -2 -10  -8 575.790 91.8572  10
  -2 -10  -9 216.555 37.4966  12
  -2 -10  -9 237.256 53.9189  10
  -2 -10 -10 1031.53 88.1291  10
  -2 -10 -10 862.711 64.7475  12
  -2 -10 -11 95.5913 15.0575  12
  -2 -11  -1 64.7573 19.3568   8
  -2 -11  -1 47.6169 12.7975  12
   2  11   1 65.9227 20.0987  20
   2  11   2 158.927 35.5885  20
  -2 -11  -2 188.252 28.7234  12
  -2 -11  -3 2204.03 115.596  12
   2  11   3 1891.81 134.191  20
  -2 -11  -4 866.769 73.9659  12
   2  11   4 644.116 76.5371  20
  -2 -11  -5 1972.27 118.182  12
   2  11   5 1565.41 118.408  20
  -2 -11  -6 11221.8 346.548  12
  -2 -11  -7 449.698 57.0016  12
  -2 -11  -7 372.109 69.0283  10
  -2 -11  -8 68.6701 23.0149  12
  -2 -11  -8 44.5981 21.4672  10
  -2 -11  -9 1063.88 73.0258  12
  -2 -11  -9 734.725 76.6982  10
  -2 -11 -10 0.53675 5.78990  12
  -2 -12  -4 210.110 27.3265  12
  -2 -12  -4 191.881 25.0584   8
  -2 -12  -5 449.795 43.7752  12
  -2 -12  -6-4.44217 4.76069  12
  -2 -12  -7 279.272 34.4045  12
  -2 -12  -8 858.457 55.0449  12
  -3  12   5 2828.96 130.105  20
  -3  12   4 322.284 41.8234  20
  -3  12   3 874.851 65.9131  20
   3 -11  -8 283.686 43.9202  10
   3 -11  -7 506.213 57.9013  24
   3 -11  -7 554.180 70.8113  10
   3 -11  -6 35.7907 22.8293  10
   3 -11  -6 27.4707 15.7924  24
   3 -11  -5 3.56747 7.88353  24
   3 -11  -5 17.8582 17.0735  10
  -3  11   4 15.0852 10.1336  17
   3 -11  -4-3.74926 13.9312  24
   3 -11  -4-9.34067 10.0887  10
   3 -11  -3 167.874 26.2360  12
  -3  11   3 157.239 30.1828  17
   3 -11  -2 1498.17 83.4440  12
  -3  11   2 1397.81 94.2494  17
  -3  11   1 2518.15 138.498  20
  -3  11   1 1942.62 110.382  17
  -3  11   0 970.075 72.0931  20
  -3  11   0 939.182 68.2625  17
  -3  11  -1 21.8039 8.31435  17
   3 -10  -9 12.2475 13.6526  10
   3 -10  -8 4960.91 194.538  24
   3 -10  -8 5102.16 253.069  10
   3 -10  -7 5349.72 279.666  10
   3 -10  -7 5289.76 233.271  24
   3 -10  -6 615.093 79.6149  24
   3 -10  -6 626.849 93.2190  10
   3 -10  -5 110.853 40.9433  24
  -3  10   5 99.0184 26.4769  17
   3 -10  -5 168.386 51.3717  10
   3 -10  -4 1675.85 138.668  24
   3 -10  -4 1665.01 151.165  10
   3 -10  -3 0.09316 22.8703  10
   3 -10  -3 17.1707 19.4977  24
   3 -10  -3 15.6953 11.8173  12
  -3  10   3 20.4829 14.5751  17
  -3  10   2 2334.12 145.561  17
   3 -10  -2 2336.55 154.973  24
  -3  10   1 168.211 37.5360  17
  -3  10   0 7.17701 9.67383  17
  -3  10   0 25.0558 17.2609  20
  -3  10  -1 340.291 49.0712  20
  -3  10  -1 358.363 51.3394  17
  -3  10  -2 240.833 31.7856  20
  -3  10  -2 294.594 39.9622  17
  -3  10  -3 8.10042 3.84144  17
   3  -9 -10 118.297 23.1435  25
   3  -9 -10 125.658 26.3191  10
   3  -9  -9 134.834 29.1295  25
   3  -9  -9 165.871 42.0079  10
   3  -9  -8 246.020 42.4930  24
   3  -9  -8 178.195 34.6865  25
   3  -9  -8 202.616 51.2169  10
   3  -9  -7 212.564 46.7474  24
   3  -9  -7 223.468 41.1637  25
   3  -9  -7 181.100 52.0261  10
   3  -9  -6 1210.92 119.107  24
   3  -9  -6 1189.16 139.439  10
   3  -9  -5 43.2445 29.6806  10
   3  -9  -5 36.0903 11.5925  24
   3  -9  -4 8522.80 359.878  24
   3  -9  -4 8337.49 388.948  10
   3  -9  -3 3131.51 201.038  24
   3  -9  -3 2601.84 202.240  10
   3  -9  -2 132.478 45.6990  10
   3  -9  -2 81.3045 31.7153  24
  -3   9   2 58.7534 21.3214  23
  -3   9   2 145.664 38.2109  17
  -3   9   1 6833.55 290.131  17
  -3   9   1 7411.49 279.565  23
   3  -9  -1 6815.37 293.821  24
  -3   9   0 3162.00 180.453  17
  -3   9  -1 367.594 62.7826  20
  -3   9  -1 379.174 58.2453  17
  -3   9  -2 3609.03 182.791  20
  -3   9  -2 3589.83 181.214  17
  -3   9  -3 292.187 43.7808  17
  -3   9  -4 21.6930 10.8677  17
   3  -8 -10 8530.50 278.627  25
   3  -8 -10 8933.39 305.615  10
   3  -8  -9 6507.26 262.460  25
   3  -8  -9 6737.38 304.664  10
   3  -8  -8 283.911 45.8869  24
   3  -8  -8 357.795 57.8914  25
   3  -8  -8 349.171 74.4842  10
   3  -8  -7 4065.30 211.646  25
   3  -8  -7 4257.23 271.620  10
   3  -8  -6 2580.92 159.661  25
   3  -8  -6 2690.88 211.781  10
   3  -8  -5 205.823 56.0707  10
   3  -8  -4 526.509 88.1223  10
   3  -8  -3 287.489 59.6010  10
  -3   8   3 319.605 48.0556  23
   3  -8  -2 2315.17 164.479  24
   3  -8  -2 2449.44 179.536  10
  -3   8   2 2497.56 147.923  23
   3  -8  -1 959.907 97.9529  24
  -3   8   1 1096.41 96.4827  23
  -3   8   0 3247.16 182.995  17
  -3   8   0 3233.96 176.398  23
  -3   8  -1 189.399 42.4385  17
  -3   8  -1 199.078 39.3364  18
  -3   8  -2 11465.8 390.477  17
  -3   8  -2 10585.7 360.620  18
  -3   8  -3 335.795 52.8189  20
  -3   8  -3 399.269 55.1679  18
  -3   8  -3 375.531 58.2824  17
  -3   8  -4 577.064 65.5360  17
  -3   8  -5 1850.58 95.8288  11
  -3   8  -5 2172.98 110.856  17
   3  -8   6 118.851 19.7793  27
   3  -7 -11 434.659 42.0016  25
   3  -7 -10 3057.30 157.025  25
   3  -7 -10 3212.11 172.913  10
   3  -7  -9 0.06827 19.4765  25
   3  -7  -8 117.660 34.6918  25
   3  -7  -7 7.57909 8.60147  25
   3  -7  -6 41916.7 1012.55  25
   3  -7  -5 1733.02 252.254   2
   3  -7  -4 2868.40 321.982   2
   3  -7  -4 2484.25 186.622  10
   3  -7  -3 3383.72 344.981   2
   3  -7  -3 2884.93 190.531  10
  -3   7   2 30.0933 18.6393  23
   3  -7  -2 31.1273 15.4446   2
   3  -7  -1 1272.98 224.434   2
  -3   7   1 1252.69 98.4677  23
   3  -7   0 4705.55 462.217   3
  -3   7   0 4551.81 201.894  23
  -3   7  -1 2334.03 152.946  17
   3  -7   1 2650.70 367.261   3
  -3   7  -1 2427.00 153.882  23
  -3   7  -1 2421.29 147.467  18
  -3   7  -2 2494.54 156.997  17
  -3   7  -2 2862.10 178.860  20
  -3   7  -2 2509.78 153.595  18
  -3   7  -3 1251.95 114.246  20
  -3   7  -3 1416.02 119.267  17
  -3   7  -4 2295.59 146.962  18
  -3   7  -4 2047.84 142.902  17
  -3   7  -5 2877.34 155.488  18
  -3   7  -5 3045.98 159.647  17
  -3   7  -6 13363.3 372.407  11
  -3   7  -6 13559.6 363.792  17
   3  -7   7 557.644 47.1384  27
  -3   7  -7 711.860 46.3589  11
   3  -6 -11 125.373 25.0191  25
   3  -6 -10 2447.67 141.853  25
   3  -6  -9 3284.00 190.694  25
   3  -6  -8 535.385 77.1621  25
   3  -6  -7 1444.56 124.608  25
   3  -6  -6 8630.73 328.770  25
   3  -6  -6 9435.89 595.574   2
   3  -6  -5 6700.47 262.765  25
   3  -6  -5 7636.55 526.507   2
   3  -6  -4 255.867 94.3377   2
   3  -6  -3 348.512 104.764   2
   3  -6  -2 7111.66 482.679   2
   3  -6  -1 12527.2 676.045   2
   3  -6   0 9983.05 629.508   3
   3  -6   1 16546.7 868.080   3
  -3   6  -2 8.69214 12.9475  23
  -3   6  -2 25.1709 16.9124  17
  -3   6  -2 5.34144 7.35594  21
  -3   6  -3 2206.12 141.178  17
   3  -6   3 2102.33 309.968   3
  -3   6  -3 2361.48 147.733  18
  -3   6  -4 3494.29 190.032  18
  -3   6  -4 3633.98 192.570  17
  -3   6  -5 639.097 69.8874  22
  -3   6  -5 640.035 75.6901  18
  -3   6  -5 752.514 82.9062  17
  -3   6  -6 57.3194 20.0144  22
  -3   6  -6 74.3769 24.1085  17
  -3   6  -6 66.0912 22.0906  18
  -3   6  -6 60.7610 21.7666   6
  -3   6  -7 43.9009 13.1460  17
  -3   6  -7 35.5633 14.1938   6
  -3   6  -7 37.3628 13.0999  22
  -3   6  -7 40.0128 18.5675  11
   3  -6   8 417.041 37.8046  27
  -3   6  -8 770.077 50.9699  11
   3  -5 -11 319.467 36.3917  25
   3  -5 -10 498.502 60.2593  22
   3  -5 -10 461.169 56.8597  25
   3  -5  -9 971.862 96.5357  25
   3  -5  -9 1028.58 102.361  22
   3  -5  -9 862.509 78.7949   9
   3  -5  -8 28874.8 786.268  25
   3  -5  -8 30837.0 805.834  22
   3  -5  -7 7594.44 311.781  25
   3  -5  -7 7611.68 312.479  22
   3  -5  -6 1853.51 133.723  25
   3  -5  -6 1750.54 247.112   2
   3  -5  -5 7088.66 495.217   2
   3  -5  -4 1041.69 179.966   2
   3  -5  -3 2025.75 230.759   2
   3  -5  -2 1931.66 221.382   2
   3  -5  -1 8299.74 484.793   2
   3  -5   0 20059.4 860.987   3
   3  -5   1 104.030 66.9887   3
   3  -5   2 3496.57 358.033   3
   3  -5   3 24881.2 1094.46   3
  -3   5  -4 56408.5 1256.23  18
  -3   5  -4 56488.8 1242.14  17
  -3   5  -5 2761.93 165.629  18
  -3   5  -5 2820.95 163.890  17
  -3   5  -6 1831.61 127.631  22
  -3   5  -6 1976.34 138.128  18
  -3   5  -6 1813.72 126.173  17
  -3   5  -7 3199.43 172.155   6
  -3   5  -7 3218.95 161.501  22
  -3   5  -7 3298.59 156.150  17
  -3   5  -8 31.6800 13.9255  22
  -3   5  -8 17.7792 8.47929   6
  -3   5  -8 32.5461 13.8929  11
  -3   5  -9 225.405 26.1100  11
   3  -4 -11 795.947 52.6533  25
   3  -4 -10 12.7134 11.2661   9
   3  -4 -10 15.1294 10.8714  25
   3  -4 -10-7.73270 18.6468  22
   3  -4  -9 36.7141 17.0489  25
   3  -4  -9 41.8312 22.4380  22
   3  -4  -8 4681.96 236.466  25
   3  -4  -8 4329.93 235.481  22
   3  -4  -7 147.299 50.3262  25
   3  -4  -7 207.433 94.8890   2
   3  -4  -7 215.014 57.0117  22
   3  -4  -6 783.905 82.4515  25
   3  -4  -6 607.384 76.1734  22
   3  -4  -6 629.236 152.693   2
   3  -4  -5 9245.44 561.954   2
   3  -4  -4 24178.1 930.183   2
   3  -4  -3 11081.7 555.548   2
   3  -4  -2 6507.56 387.761   2
   3  -4  -1 610.232 113.473   2
   3  -4   0 1818.67 208.161   3
   3  -4   1 2285.43 245.990   3
   3  -4   2 1047.53 172.172   3
   3  -4   3 949.717 176.104   3
   3  -4   4 176.583 82.8523   3
   3  -4   5 175.890 82.0820   3
  -3   4  -5 119.551 27.7480  18
  -3   4  -5 82.2974 24.7600  17
  -3   4  -6 230.611 41.7396  17
  -3   4  -6 254.893 45.6044  18
  -3   4  -7 12457.6 402.886  22
  -3   4  -7 12760.3 402.712  18
  -3   4  -8 5646.48 227.965  22
  -3   4  -8 5525.94 238.061  11
  -3   4  -8 5488.82 234.518   6
  -3   4  -9 3016.79 134.190  22
  -3   4  -9 2984.41 140.338  11
  -3   4  -9 3279.36 145.110   6
   3  -3 -10 18574.7 521.181  22
   3  -3 -10 18598.2 486.102  25
   3  -3  -9 3027.68 165.491  25
   3  -3  -9 3008.69 180.157  22
   3  -3  -8 1024.59 106.419  22
   3  -3  -8 1175.29 104.559  25
   3  -3  -7 3497.56 201.076  22
   3  -3  -7 4579.87 441.729   2
   3  -3  -6 98.3723 63.0200   2
   3  -3  -6 57.0890 27.3690  22
   3  -3  -5 1264.59 199.694   2
   3  -3  -4 374.819 98.3457   2
   3  -3  -3 4.98070 23.5253   2
   3  -3  -2 1.64040 10.7467   2
   3  -3  -1 360.804 77.8420   2
   3  -3   0 159.316 53.4063   3
   3  -3   1 214427. 4527.59   3
   3  -3   2 36173.7 1113.45   3
   3  -3   3 26994.9 956.227   3
   3  -3   4 12629.4 643.329   3
   3  -3   5 60.4929 42.1463   3
   3  -3   6 795.573 172.081   3
  -3   3  -6 1016.77 89.4898  18
  -3   3  -7 75.8213 23.3043  22
  -3   3  -7 65.3706 22.5656  18
  -3   3  -8 192.147 42.0454  22
  -3   3  -8 185.521 41.7325   6
  -3   3  -8 234.568 42.7312  18
  -3   3  -9-3.69191 11.6905   6
  -3   3  -9-0.84423 8.13130  22
  -3   3  -9 11.3520 11.9423  11
  -3   3 -10 119.690 21.1647  22
  -3   3 -10 133.414 24.6056  11
   3  -2 -10 284.108 35.0515  25
   3  -2 -10 227.140 40.7913  22
   3  -2  -9 773.270 74.8793  25
   3  -2  -9 729.353 83.7867  22
   3  -2  -8 1579.67 133.161  22
   3  -2  -8 1820.60 126.233  25
   3  -2  -7 2256.96 154.534  22
  -3   2   7 1778.17 130.955  28
   3  -2  -6 24083.7 634.085  13
   3  -2  -6 24225.8 646.294  22
   3  -2  -5 293.255 101.753   2
   3  -2  -4 875.726 150.988   2
   3  -2  -3 18367.6 728.268   2
   3  -2  -2 3643.79 266.240   2
   3  -2  -1 8563.01 383.218   2
   3  -2   0 186.606 52.3775   2
   3  -2   1 200.163 58.5519   3
   3  -2   2 1110.38 135.738   3
   3  -2   3 462.121 93.5484   3
   3  -2   4 2811.92 253.761   3
   3  -2   5 71919.8 1928.08   3
   3  -2   6 27908.2 1060.59   3
   3  -2   7 5008.19 421.580   3
  -3   2  -7 5836.72 232.647  18
  -3   2  -8 2914.56 181.873   6
  -3   2  -8 3111.69 177.720  22
  -3   2  -8 3020.16 160.166  18
  -3   2  -9 678.575 79.7384   6
  -3   2  -9 776.741 81.5175  22
  -3   2  -9 722.401 79.7265  11
  -3   2 -10 1292.44 91.3308  11
  -3   2 -10 1275.23 81.1858  13
  -3   2 -10 1328.93 96.5097   6
  -3   2 -10 1374.70 96.0708  22
  -3   2 -11 407.770 37.5217  22
   3  -1 -10 720.688 65.9298  22
   3  -1  -9 1069.21 79.3916  25
   3  -1  -9 945.668 91.2505  22
  -3   1   8 146.400 34.5771  28
   3  -1  -8 250.350 42.6849  25
   3  -1  -8 200.208 43.4021  22
   3  -1  -7 2247.44 157.877  22
  -3   1   6 84.9837 37.3192   3
   3  -1  -6 54.9363 49.4147   2
   3  -1  -6 147.107 32.1357  13
   3  -1  -6 155.692 36.5702  22
   3  -1  -5 30.7120 35.4819   2
   3  -1  -4 13336.1 697.179   2
  -3   1   3 32267.1 833.401   4
   3  -1  -3 40825.3 1166.45   2
   3  -1  -2 21920.3 724.422   2
  -3   1   2 18577.0 559.865   4
  -3   1   1 258253. 5374.27   4
   3  -1  -1 293336. 5520.30   2
   3  -1   0 485.301 72.8899   2
  -3   1   0 441.504 67.9220   4
   3  -1   1 10388.1 398.459   3
   3  -1   1 10176.0 366.558   2
  -3   1  -1 10554.2 379.225   4
   3  -1   2 66100.8 1535.11   3
   3  -1   3 10006.5 414.490   3
   3  -1   4 171.011 56.6989   3
   3  -1   5 178.786 59.9929   3
   3  -1   6 55.1324 30.2745   3
   3  -1   7 83.2562 29.8389   3
  -3   1  -8 625.823 81.3252   6
  -3   1  -8 514.607 67.9283  22
  -3   1  -8 757.240 76.6202  16
  -3   1  -8 579.301 64.4044  19
  -3   1  -8 638.003 66.3868  18
  -3   1  -9 9041.13 350.861   6
  -3   1  -9 9681.79 343.402  11
  -3   1  -9 9361.90 302.252  19
  -3   1  -9 9644.52 343.452  22
  -3   1 -10 726.259 74.7461  22
  -3   1 -10 684.896 76.3284   6
  -3   1 -10 709.263 71.1485  11
  -3   1 -11 5260.68 179.712  13
  -3   1 -11 5961.05 199.739  22
   3   0 -10 123.220 24.0945  22
  -3   0   9 4490.19 197.180  28
   3   0  -9 6247.22 235.533  22
   3   0  -8 9395.48 287.223  25
   3   0  -8 8499.53 324.846  22
   3   0  -7 4373.61 225.024  22
   3   0  -6 1512.57 119.703  22
  -3   0   6 1490.60 242.967   3
  -3   0   5 147.257 70.5812   3
   3   0  -5 140.166 73.7564   2
   3   0  -4 9.88884 24.9982   2
   3   0  -3 4575.75 372.549   2
  -3   0   2 4627.79 260.945   5
   3   0  -2 5473.04 356.573   2
   3   0  -1 1240.88 139.912   2
   3   0   0 9525.12 371.834   2
  -3   0   0 9278.37 341.969   4
   3   0   1 65369.1 1472.36   2
  -3   0  -1 68077.9 1439.32   1
  -3   0  -1 69613.5 1521.44   4
  -3   0  -2 222315. 4289.48   4
  -3   0  -2 200609. 4220.89   1
   3   0   2 198230. 4226.22   3
   3   0   2 227008. 4175.54   2
   3   0   3 476604. 8838.24   3
  -3   0  -3 483038. 8862.42   4
   3   0   4 3700.37 217.645   3
  -3   0  -4 4131.29 290.033   1
   3   0   5 2110.35 181.289   3
   3   0   6 4737.15 311.900   3
  -3   0  -7 75.1702 26.8533   6
  -3   0  -8 1921.22 141.324   6
  -3   0  -8 1804.53 122.060  16
  -3   0  -8 1890.24 131.452  22
  -3   0  -8 1911.59 125.895  19
  -3   0  -9 220.131 47.0311  16
  -3   0  -9 212.601 46.0147  22
  -3   0  -9 208.772 41.5090  11
  -3   0  -9 254.914 46.2678  19
  -3   0  -9 213.778 47.9259   6
  -3   0 -10 5.09487 11.8502   6
  -3   0 -10 12.2817 11.2212  22
  -3   0 -10 14.6242 6.04070  11
  -3   0 -10-2.89947 10.1819  19
  -3   0 -11 1057.95 82.9164  13
  -3   0 -11 1060.16 82.8774   6
  -3   0 -11 1026.17 80.8267  22
  -3   0 -12 23.2100 6.48816  22
  -3   0 -12 36.6229 9.93621  13
   3   1  -9 436.609 50.8979  22
  -3  -1   9 298.792 42.2806  28
  -3  -1   8 998.150 97.6649  28
   3   1  -8 1331.82 107.186  22
   3   1  -7 1308.18 124.463  22
   3   1  -6 11459.3 390.814  22
  -3  -1   5 252.567 104.756   3
   3   1  -5 200.317 39.6242  22
  -3  -1   4 422.313 122.250   3
   3   1  -3 62186.6 1834.44   2
  -3  -1   3 60386.7 1541.71   5
  -3  -1   2 7909.35 390.533   5
   3   1  -2 8482.25 497.619   2
  -3  -1   1 2632.89 204.935   5
   3   1  -1 2764.26 243.852   2
  -3  -1   0 2490.50 189.487   5
   3   1   0 2103.66 185.890   2
  -3  -1  -1 17143.3 552.651   5
  -3  -1  -1 17892.3 601.966   1
  -3  -1  -2 51422.7 1081.29   1
  -3  -1  -2 47207.9 1018.44   4
  -3  -1  -3 61297.5 1467.33   1
  -3  -1  -3 60220.4 1387.39   4
   3   1   4 2965.71 154.610   3
  -3  -1  -4 3646.91 271.163   1
  -3  -1  -4 3546.14 196.310   4
   3   1   5 778.933 87.5259   3
  -3  -1  -5 1136.78 171.515   1
  -3  -1  -6 713.468 68.7542   6
  -3  -1  -6 647.430 151.876   1
  -3  -1  -7 40838.8 958.897   6
  -3  -1  -8 913.332 86.4179  22
  -3  -1  -8 887.136 92.3090   6
  -3  -1  -8 955.451 87.3745  19
  -3  -1  -9 3521.31 181.680  16
  -3  -1  -9 3372.74 182.030  19
  -3  -1  -9 3395.24 194.196   6
  -3  -1  -9 3432.39 183.874  22
  -3  -1 -10 715.546 82.4142   6
  -3  -1 -10 721.698 79.0504  22
  -3  -1 -10 668.607 73.4895  19
  -3  -1 -10 954.571 89.5561  16
  -3  -1 -11 63.3805 17.2349  13
  -3  -1 -11 96.1539 26.4223   6
  -3  -1 -11 92.6201 26.7901  22
  -3  -1 -11 96.3038 25.4065  19
  -3  -1 -12 91.2447 18.2276  22
  -3  -1 -12 75.5826 15.4901   9
  -3  -1 -12 102.744 23.4885  13
  -3  -1 -12 131.514 22.2807  19
   3   2  -9 1433.05 72.7911  22
  -3  -2   9 933.932 62.2307  28
   3   2  -8 113.621 29.7301  22
  -3  -2   8 65.2427 22.8282  28
   3   2  -7 2574.10 152.093  22
  -3  -2   7 2027.05 126.321  27
  -3  -2   6 2169.55 146.391  27
   3   2  -6 2363.39 151.180  22
   3   2  -5 3285.34 175.220  22
  -3  -2   5 2967.20 177.722  27
  -3  -2   5 3541.50 394.526   3
  -3  -2   4 229.034 87.2259   3
  -3  -2   3 4618.86 336.157   5
  -3  -2   3 5538.94 429.577   3
  -3  -2   2 4725.72 359.275   3
  -3  -2   2 3853.16 295.577   5
  -3  -2   1 17489.7 673.738   5
  -3  -2   1 20503.4 734.204   3
  -3  -2   0 139226. 3043.81   5
  -3  -2  -1 456397. 9012.95   5
  -3  -2  -2 20976.0 687.423   5
  -3  -2  -2 20954.2 755.174   1
  -3  -2  -3 70.0830 36.0139   1
  -3  -2  -4 5421.33 340.563   1
  -3  -2  -4 5186.20 252.353   4
  -3  -2  -5 14.5293 15.8932   4
  -3  -2  -5-15.3393 34.0771   1
  -3  -2  -6 4097.02 175.138   6
  -3  -2  -6 4287.22 376.405   1
  -3  -2  -7 8946.87 618.533   1
  -3  -2  -7 9490.73 320.834   6
  -3  -2  -8 1035.36 91.7783  16
  -3  -2  -8 1061.85 92.2571  26
  -3  -2  -8 933.390 86.5811  12
  -3  -2  -8 717.325 83.8266   6
  -3  -2  -8 1051.93 95.3549  19
  -3  -2  -9 4775.54 220.599  16
  -3  -2  -9 4199.44 219.933   6
  -3  -2  -9 4791.49 214.013  22
  -3  -2  -9 4570.53 228.444  19
  -3  -2 -10 233.378 41.3502  22
  -3  -2 -10 267.437 50.6449   6
  -3  -2 -10 217.318 45.5215  16
  -3  -2 -10 191.867 35.2935  19
  -3  -2 -11 622.321 72.9570  13
  -3  -2 -11 576.590 62.6544  22
  -3  -2 -11 551.689 65.9206  19
  -3  -2 -12 16263.8 435.960  13
  -3  -2 -12 14834.6 394.433  22
  -3  -2 -12 15652.5 410.618  19
   3   3  -8 507.260 45.2805  22
  -3  -3   8 475.417 52.7269  28
  -3  -3   7 5580.61 249.129  28
  -3  -3   7 4784.14 197.697  27
   3   3  -7 5427.33 213.873  22
  -3  -3   6 3420.74 189.004  27
   3   3  -6 3039.15 168.046  22
  -3  -3   5 15200.1 485.987  27
   3   3  -5 14493.0 441.747  22
  -3  -3   4 55.6080 30.9148  27
   3   3  -4 87.5788 34.4080  17
   3   3  -4 23.7974 10.6786  11
   3   3  -4 112.499 28.1019  22
   3   3  -4 34.6648 8.73744  20
  -3  -3   4 98.4413 67.9640   3
  -3  -3   3 1363.78 218.207   5
  -3  -3   3 941.863 197.455   3
  -3  -3   2 3310.47 325.919   3
  -3  -3   1 8700.44 493.404   3
  -3  -3   0 341.474 81.2943   3
  -3  -3  -1 125.378 40.2904   3
  -3  -3  -2 304.233 90.2040   1
  -3  -3  -2 214.968 34.1739   3
  -3  -3  -2 197.697 63.1628   5
  -3  -3  -3 26644.9 817.363   5
  -3  -3  -3 27201.3 926.305   1
  -3  -3  -4 27529.1 947.186   1
  -3  -3  -5 136294. 3176.88   1
  -3  -3  -5 134383. 2824.11   4
  -3  -3  -6 7676.09 523.897   1
  -3  -3  -7 2688.19 146.268   6
  -3  -3  -7 2873.71 337.379   1
  -3  -3  -8 2603.93 143.062  16
  -3  -3  -8 2485.55 139.814  26
  -3  -3  -8 2424.20 329.514   1
  -3  -3  -8 2640.81 141.168  12
  -3  -3  -8 2676.34 153.508  19
  -3  -3  -8 2259.64 144.806   6
  -3  -3  -9 62.8872 24.6101  16
  -3  -3  -9 65.5377 21.6766  12
  -3  -3  -9 78.5600 27.1395   6
  -3  -3  -9 66.6822 27.1383  19
  -3  -3 -10 129.876 31.8234  16
  -3  -3 -10 149.392 35.3375  19
  -3  -3 -11 205.238 42.0120  16
  -3  -3 -11 243.583 46.4380   9
  -3  -3 -11 165.492 35.6835  13
  -3  -3 -11 215.741 43.2278  19
  -3  -3 -12 135.200 29.5917   9
  -3  -3 -12 87.7629 22.1457  13
  -3  -3 -12 149.259 32.0130  19
  -3  -3 -13 535.772 45.0237  13
  -3  -3 -13 709.376 48.8265   9
  -3  -4   7 149.975 31.5729  28
  -3  -4   7 150.690 26.0092  27
  -3  -4   6 247.491 45.6846  27
   3   4  -6 359.882 47.4033  22
  -3  -4   5 1016.73 103.922  27
  -3  -4   4 2266.13 165.715  27
   3   4  -4 2451.66 189.242  20
   3   4  -4 2208.25 146.601  11
   3   4  -4 2388.94 165.577  17
  -3  -4   3 20.3707 11.7319  27
   3   4  -3 33.5219 14.2204  17
  -3  -4   3 18.3550 47.6129   3
  -3  -4   3-38.9318 36.6105   5
   3   4  -3 9.57323 10.4634  11
   3   4  -3 67.5944 33.5999  20
  -3  -4   2 72882.9 2103.72   3
  -3  -4   1 32302.6 1131.07   3
  -3  -4   0 1771.96 199.481   3
  -3  -4  -1 3456.58 408.012   1
  -3  -4  -1 4563.04 279.527   3
  -3  -4  -2 554.123 140.791   1
  -3  -4  -3 1609.66 179.756   5
  -3  -4  -3 1605.81 221.881   1
  -3  -4  -4 110.252 43.8054   5
  -3  -4  -4 185.469 71.2204   1
  -3  -4  -5 10672.0 606.039   1
  -3  -4  -6 1123.14 199.326   1
  -3  -4  -7 15064.4 833.891   1
  -3  -4  -8 1985.24 122.290  15
  -3  -4  -8 1931.09 124.689  16
  -3  -4  -8 2001.17 122.375  26
  -3  -4  -8 1941.78 120.762  12
  -3  -4  -8 2118.09 136.879  19
  -3  -4  -8 1644.19 277.838   1
  -3  -4  -8 1961.82 132.416   9
  -3  -4  -9 240.072 45.0968  16
  -3  -4  -9 160.654 39.9192  25
  -3  -4  -9 265.218 46.6552  12
  -3  -4  -9 137.549 81.9560   1
  -3  -4  -9 296.716 50.9675  19
  -3  -4  -9 299.873 56.9339   9
  -3  -4 -10 26533.2 700.916  16
  -3  -4 -10 26999.1 670.402  12
  -3  -4 -10 26580.8 720.598  19
  -3  -4 -10 28375.5 733.924   9
  -3  -4 -11 1951.72 127.599  16
  -3  -4 -11 1826.31 133.714  19
  -3  -4 -11 1755.63 132.302  13
  -3  -4 -11 1902.47 136.381   9
  -3  -4 -12 131.282 32.2502   9
  -3  -4 -12 137.844 32.3707  13
  -3  -4 -12 156.654 36.2909  19
  -3  -4 -13 13.7127 11.2047   9
  -3  -4 -13 6.49757 6.32754  13
  -3  -5   7 1323.22 69.7137  28
  -3  -5   6 424.238 50.8882  27
  -3  -5   6 449.097 56.5089  28
  -3  -5   5 694.973 80.9858  27
  -3  -5   4 435.315 70.8892  27
   3   5  -4 562.277 87.1247  20
   3   5  -4 497.424 72.4448  17
  -3  -5   3 441.516 71.9706  27
   3   5  -3 455.650 79.6576  20
   3   5  -3 467.608 71.3329  17
  -3  -5   2 436.920 144.933   3
   3   5  -2 265.450 74.3541  20
   3   5  -2 350.661 67.6116  17
  -3  -5   1 4017.31 379.189   3
  -3  -5   0 504.240 117.377   3
  -3  -5  -1 6843.47 645.672   1
  -3  -5  -2 128947. 3491.04   1
  -3  -5  -3 65209.9 1773.93   5
  -3  -5  -3 67739.0 2058.61   1
  -3  -5  -4 30398.7 986.365   5
  -3  -5  -4 29074.9 1159.01   1
  -3  -5  -5 315.759 110.900   1
  -3  -5  -5 324.665 81.3035   5
  -3  -5  -6 221.440 91.4276   1
  -3  -5  -7-9.15955 24.8442   1
  -3  -5  -8 873.230 81.0956  16
  -3  -5  -8 774.124 71.9494  26
  -3  -5  -8 837.516 77.5845  15
  -3  -5  -8 669.534 83.2379  25
  -3  -5  -8 831.436 78.2708  12
  -3  -5  -8 763.188 80.3876  19
  -3  -5  -8 747.972 191.345   1
  -3  -5  -8 726.547 85.3165   9
  -3  -5  -9 1272.83 107.072  13
  -3  -5  -9 1373.63 104.191  12
  -3  -5  -9 1366.44 105.547  15
  -3  -5  -9 1087.79 108.163  25
  -3  -5  -9 1347.32 106.626  16
  -3  -5  -9 1210.30 109.513  19
  -3  -5  -9 1312.58 119.008   9
  -3  -5 -10 425.749 65.9167  25
  -3  -5 -10 508.288 65.8208  16
  -3  -5 -10 428.866 55.3593  12
  -3  -5 -10 430.370 65.9560  19
  -3  -5 -10 444.330 64.9217  13
  -3  -5 -10 541.242 76.9828   9
  -3  -5 -11 5786.65 213.523  12
  -3  -5 -11 5566.36 229.046  16
  -3  -5 -11 5255.20 232.193  25
  -3  -5 -11 5479.59 241.654  13
  -3  -5 -11 5611.57 247.868  19
  -3  -5 -11 5640.74 258.776   9
  -3  -5 -12 398.596 57.3618   9
  -3  -5 -12 350.505 49.8618  13
  -3  -5 -12 416.395 54.7152  19
  -3  -5 -13 3081.23 138.104   9
  -3  -6   6 161.837 22.8790  27
  -3  -6   5 89.4179 25.6540  27
  -3  -6   5 70.5905 21.0397  28
   3   6  -4 7058.02 313.217  20
  -3  -6   4 6898.45 288.823  27
  -3  -6   3 4461.87 240.386  27
  -3  -6   3 3768.51 189.635   8
   3   6  -3 4392.08 253.762  20
   3   6  -3 4417.37 226.433  17
   3   6  -2 75.9344 24.7140  17
  -3  -6   2 94.5705 34.5452  27
   3   6  -2 115.576 42.7409  20
  -3  -6   1 10.5557 12.7306  27
  -3  -6   1 2.17537 122.028   1
   3   6  -1 55.3127 30.4201  20
   3   6  -1 32.3000 20.3292  17
  -3  -6   0 26.2322 18.4541  27
   3   6   0 11.2366 13.3966  17
   3   6   0 30.2974 24.8459  20
  -3  -6  -1 20.8487 46.8497   1
  -3  -6  -2 7249.72 661.272   1
  -3  -6  -3 792.418 156.521   5
  -3  -6  -3 1348.43 257.770   1
  -3  -6  -4 617.757 129.736   5
  -3  -6  -4 599.520 161.718   1
  -3  -6  -5 23530.7 850.865   5
  -3  -6  -5 22877.3 1086.26   1
  -3  -6  -6 2448.54 332.756   1
  -3  -6  -7 44.5297 24.4851  16
  -3  -6  -7 45.7122 22.5562  25
  -3  -6  -7-0.71823 17.3168   9
  -3  -6  -7 39.4082 22.0094  15
  -3  -6  -8 18118.0 501.370  15
  -3  -6  -8 18710.4 504.494  16
  -3  -6  -8 17589.3 498.339  12
  -3  -6  -8 17971.2 558.370  25
  -3  -6  -8 18976.9 1040.98   1
  -3  -6  -8 17421.3 502.592  19
  -3  -6  -8 17245.0 566.946   9
  -3  -6  -9 12.8773 18.0840  16
  -3  -6  -9 33.9614 15.9520  15
  -3  -6  -9 56.4683 25.2978   9
  -3  -6  -9 16.9054 8.42395  12
  -3  -6  -9 5.62912 12.3461  19
  -3  -6 -10 58.2394 31.9359   9
  -3  -6 -10 20.8567 10.2281  16
  -3  -6 -10 3.64290 14.4062  25
  -3  -6 -10 33.4409 20.4631  13
  -3  -6 -10-5.70126 9.77268  12
  -3  -6 -10 21.8827 20.5316  19
  -3  -6 -11 142.677 36.4141  25
  -3  -6 -11 133.371 26.2511  12
  -3  -6 -11 169.558 38.1850  13
  -3  -6 -11 138.297 34.7481  16
  -3  -6 -11 131.440 39.7003  19
  -3  -6 -11 158.090 44.1808   9
  -3  -6 -12-9.11313 23.4789   9
  -3  -6 -12 24.0222 10.6219  25
  -3  -6 -12 22.7554 11.4049  13
  -3  -6 -12 37.5475 16.7364  19
  -3  -6 -13 280.632 40.8120   9
  -3  -7   5 144.848 22.1055  27
  -3  -7   4-2.77877 8.40917  27
  -3  -7   3 1969.65 140.234  27
   3   7  -3 1901.31 149.127  20
  -3  -7   3 1497.54 100.961   8
   3   7  -3 1773.68 126.286  17
  -3  -7   2 4.29099 20.8816  27
   3   7  -2 22.6749 19.0670  17
   3   7  -2-3.02766 15.6106  20
  -3  -7   1 152.065 41.3173  27
   3   7  -1 133.370 34.4296  17
   3   7  -1 118.233 36.4386  20
   3   7   0 44277.3 1157.48  20
   3   7   0 43684.6 1056.26  17
  -3  -7  -1 7103.10 281.641  27
  -3  -7  -1 7798.11 776.827   1
   3   7   1 6252.74 305.265  20
  -3  -7  -2 2121.39 386.495   1
   3   7   2 1891.47 148.378  20
  -3  -7  -3 2208.93 295.949   5
  -3  -7  -3 1723.15 315.131   1
   3   7   3 1512.21 125.530  20
  -3  -7  -3 1542.71 148.533  10
  -3  -7  -4 3234.23 152.200  12
  -3  -7  -4 3782.77 361.447   5
  -3  -7  -4 1858.81 169.580  10
  -3  -7  -4 1760.64 316.496   1
  -3  -7  -5 790.608 98.3959  25
  -3  -7  -5 837.514 206.527   1
  -3  -7  -5 739.120 74.8513  12
  -3  -7  -5 846.976 106.098  10
  -3  -7  -6 2001.98 163.434  25
  -3  -7  -6 1514.30 284.977   1
  -3  -7  -6 1803.48 126.350  12
  -3  -7  -6 2096.84 170.859  10
  -3  -7  -7 2329.51 350.351   1
  -3  -7  -7 2529.35 182.716  25
  -3  -7  -7 2105.41 134.366  12
  -3  -7  -7 2711.50 190.317  10
  -3  -7  -7 2214.87 177.167   9
  -3  -7  -8 1211.29 101.506  15
  -3  -7  -8 1184.95 100.220  12
  -3  -7  -8 1315.50 100.281  16
  -3  -7  -8 1267.19 131.336  25
  -3  -7  -8 1074.88 123.338   9
  -3  -7  -9 3308.17 167.397  16
  -3  -7  -9 3216.43 169.836  15
  -3  -7  -9 3306.54 215.453  25
  -3  -7  -9 3130.45 169.582  12
  -3  -7  -9 3036.31 167.807  19
  -3  -7  -9 3231.75 221.654   9
  -3  -7 -10 203.761 49.9039   9
  -3  -7 -10 211.000 51.2391  25
  -3  -7 -10 189.117 35.2834  16
  -3  -7 -10 146.338 31.4709  12
  -3  -7 -10 187.687 40.6783  19
  -3  -7 -11 4781.50 235.465  25
  -3  -7 -11 4651.52 186.477  16
  -3  -7 -11 4304.03 178.025  12
  -3  -7 -11 4316.38 200.641  19
  -3  -7 -11 4620.55 248.388   9
  -3  -7 -12 13139.2 388.235  25
  -3  -7 -12 13135.2 419.527   9
  -3  -8   4 9.46420 2.80931  27
  -3  -8   3 201.677 35.5898  27
  -3  -8   2 165.568 36.4372   8
   3   8  -2 237.381 51.4482  20
  -3  -8   2 230.196 44.6122  27
   3   8  -2 223.936 40.4600  17
  -3  -8   1 562.845 74.2962  27
   3   8  -1 511.601 80.8228  20
   3   8  -1 504.206 65.4488  17
   3   8   0 2589.47 195.781  20
   3   8   0 2778.72 162.486  17
  -3  -8  -1 4377.98 212.453  27
   3   8   1 3670.82 236.565  20
   3   8   2 3565.91 225.073  20
   3   8   3 4354.29 240.545  20
  -3  -8  -4 38907.7 1368.48   5
   3   8   4 36679.5 914.498  20
  -3  -8  -5 3753.43 185.993  12
  -3  -8  -5 4881.16 292.010  10
  -3  -8  -6 7858.21 358.080  25
  -3  -8  -6 6953.66 271.709  12
  -3  -8  -7 658.636 74.2963  12
  -3  -8  -7 769.102 102.844  25
  -3  -8  -7 791.084 107.420  10
  -3  -8  -8 61.5897 32.8095  25
  -3  -8  -8 53.6507 20.6239  12
  -3  -8  -8 42.4284 16.3196  15
  -3  -8  -8 78.4606 38.2292  10
  -3  -8  -9 41.3626 27.2851  25
  -3  -8  -9 46.6499 22.4299  12
  -3  -8 -10 230.464 55.8972  25
  -3  -8 -10 263.807 43.0723  12
  -3  -8 -11 155.462 39.8247  25
  -3  -8 -11 153.284 26.6155  12
  -3  -8 -12 543.686 62.2604  25
  -3  -9   2 7124.93 211.391  27
   3   9  -2 7015.14 241.132  20
  -3  -9   1 15.9457 13.7707   8
  -3  -9   1 0.48751 5.85118  27
  -3  -9   0 548.734 51.3174  12
   3   9   0 506.979 75.0684  20
   3   9   0 449.782 53.7716  17
   3   9   1 27.9455 10.3292  20
  -3  -9  -2 284.381 47.2019  12
   3   9   2 277.719 61.5416  20
   3   9   3 71.7004 31.0698  20
  -3  -9  -3 74.8519 29.0492  12
  -3  -9  -4 2528.93 149.083  12
   3   9   4 2512.55 174.586  20
  -3  -9  -5 690.129 76.4301  12
  -3  -9  -5 797.935 115.432  10
  -3  -9  -6 7460.54 287.054  12
  -3  -9  -6 5885.98 335.993  10
  -3  -9  -7 13031.1 405.640  12
  -3  -9  -7 11115.9 478.863  10
  -3  -9  -8 120.982 41.3122  25
  -3  -9  -8 75.4821 24.0674  15
  -3  -9  -8 121.057 30.7465  12
  -3  -9  -8 54.5078 18.2993  10
  -3  -9  -9 17711.0 624.562  25
  -3  -9  -9 20595.3 521.830  15
  -3  -9  -9 21499.4 550.101  12
  -3  -9  -9 18104.0 587.807  10
  -3  -9 -10 6471.29 236.545  12
  -3  -9 -10 6850.06 313.651  25
  -3  -9 -11-12.4432 13.1624  12
  -3 -10   0 1726.85 105.584   8
   3  10   0 1889.71 120.003  20
  -3 -10  -1 394.780 40.8226  12
   3  10   1 341.686 55.1541  20
  -3 -10  -2 7264.72 239.489  12
   3  10   2 6985.10 296.656  20
  -3 -10  -3 825.579 76.1332  12
   3  10   3 775.106 95.4202  20
  -3 -10  -4 658.131 69.6436  12
   3  10   4 530.985 73.1815  20
  -3 -10  -5 251.474 43.4205  12
  -3 -10  -6 8.95784 11.2160  12
  -3 -10  -7 1376.52 97.6858  15
  -3 -10  -7 1383.42 106.699  12
  -3 -10  -7 1438.28 145.489  10
  -3 -10  -8 980.335 77.6870  15
  -3 -10  -8 955.568 84.8977  12
  -3 -10  -8 1094.37 116.658  10
  -3 -10  -9 222.328 32.1850  15
  -3 -10  -9 243.640 39.6877  12
  -3 -10  -9 263.846 48.1067  10
  -3 -10 -10 976.056 71.7402  12
  -3 -10 -11 234.028 27.1244  12
  -3 -11  -1 1627.30 82.6436   8
   3  11   2 518.059 53.9618  20
  -3 -11  -2 621.642 43.2142  12
  -3 -11  -3-4.40857 8.27799   8
  -3 -11  -3-5.64640 10.1593  12
   3  11   3-10.0671 8.92511  20
  -3 -11  -4 3058.86 152.067   8
  -3 -11  -4 2972.90 134.628  12
  -3 -11  -5 220.557 34.9861  12
  -3 -11  -5 282.675 39.7188   8
  -3 -11  -6 345.483 41.9689  15
  -3 -11  -6 315.899 45.2627  12
  -3 -11  -7 7044.67 219.808  15
  -3 -11  -7 7540.36 255.333  12
  -3 -11  -8 3295.37 149.588  12
  -3 -11  -9 68.6075 18.7750  12
  -3 -11 -10 44.7192 11.4084  12
  -3 -12  -5-0.99060 5.27401  12
  -3 -12  -6 737.730 52.4126  12
  -3 -12  -7-6.37856 7.09366  12
  -3 -12  -8 3794.31 127.380  12
   4 -11  -7 116.259 24.3490  10
   4 -11  -6 69.7184 19.2238  24
   4 -11  -6 34.1127 17.0852  10
   4 -11  -5 227.480 39.0769  24
   4 -11  -5 187.835 35.1505  10
   4 -11  -4-17.2451 16.0656  24
  -4  11   4-10.2725 10.9286  17
  -4  11   3 824.038 65.6243  17
  -4  11   2 82.8294 20.9426  17
  -4  11   2 87.9853 25.4932  20
  -4  11   1 656.711 60.0030  20
  -4  11   1 527.413 51.1524  17
  -4  11   0 3459.05 133.866  17
   4 -10  -8 698.025 53.1717  24
   4 -10  -8 872.860 82.2433  10
   4 -10  -7 60.1534 21.2438  24
   4 -10  -7 30.0525 23.6924  10
   4 -10  -6 5532.65 232.223  24
   4 -10  -6 5465.08 257.580  10
   4 -10  -5 1019.44 100.685  24
   4 -10  -5 910.844 102.368  10
   4 -10  -4 37.8573 15.7312  24
   4 -10  -4 44.2079 24.3368  10
  -4  10   4 24.4986 19.7738  17
  -4  10   3 977.815 89.7514  17
   4 -10  -3 969.824 98.3908  24
   4 -10  -2 231.167 45.8688  24
  -4  10   2 275.679 47.8645  17
  -4  10   1 90.0760 25.8888  17
  -4  10   0 520.630 63.9386  20
  -4  10   0 472.343 58.1276  17
  -4  10  -1 260.764 40.3068  17
  -4  10  -1 202.048 32.4933  20
  -4  10  -2 20.3740 8.01879  17
   4  -9  -9-6.96717 11.6692  10
   4  -9  -8 808.142 67.1112  24
   4  -9  -8 852.544 95.7693  10
   4  -9  -7 46.7006 21.5559  24
   4  -9  -7 46.6081 12.4219  10
   4  -9  -6 46.0076 10.9738  24
   4  -9  -6 34.2151 28.6003  10
   4  -9  -5 330.292 69.5094  10
   4  -9  -4 277.704 58.1762  24
   4  -9  -4 300.166 63.3980  10
  -4   9   3 1246.80 100.165  23
   4  -9  -3 1429.64 138.858  10
   4  -9  -3 1478.16 132.563  24
  -4   9   2 18688.3 550.001  17
   4  -9  -2 19834.1 577.346  24
  -4   9   1 24.2525 17.0842  17
  -4   9   1 52.5305 22.5326  23
   4  -9  -1 48.3988 26.9887  24
  -4   9   0 923.250 90.7369  17
  -4   9   0 847.640 84.1422  23
  -4   9  -1 5663.28 244.169  17
  -4   9  -1 6283.17 259.073  20
  -4   9  -2 78.3227 24.8715  17
  -4   9  -2 73.3012 19.8815  18
  -4   9  -3-4.05607 10.0591  17
  -4   9  -4 832.794 58.0931  17
   4  -8 -10 1572.85 90.9254  10
   4  -8  -9 123.823 30.2254  25
   4  -8  -9 147.955 40.9081  10
   4  -8  -8 1804.49 119.628  25
   4  -8  -8 1868.50 113.407  24
   4  -8  -8 1954.51 160.798  10
   4  -8  -7 111.372 31.1814  25
   4  -8  -7 101.982 40.1109  10
   4  -8  -6 67.3211 32.6090  10
   4  -8  -5 779.834 107.385  10
  -4   8   4 651.317 71.9749  23
   4  -8  -4 589.158 93.9633  10
  -4   8   3 267.761 45.6258  23
   4  -8  -3 229.673 52.4805  10
  -4   8   2 80.5282 25.8116  23
   4  -8  -1 1352.96 119.434  24
  -4   8   1 1710.07 125.611  23
   4  -8   0 22.2813 11.3483  24
  -4   8   0 76.2476 28.1923  23
  -4   8   0 68.3023 27.4454  17
  -4   8  -1 3058.40 176.345  17
  -4   8  -1 2999.49 173.541  23
  -4   8  -1 2692.78 154.844  18
  -4   8  -2 15640.9 475.304  17
  -4   8  -2 14542.3 450.004  18
  -4   8  -3 3485.76 173.474  18
  -4   8  -3 3602.70 182.538  17
  -4   8  -4 1646.92 106.076  18
  -4   8  -4 1802.16 113.823  17
  -4   8  -5 2266.40 108.220  11
  -4   8  -5 2452.53 111.930  17
   4  -7 -10 294.426 36.5686  25
   4  -7 -10 272.422 39.8137  10
   4  -7  -9 0.05408 7.36264  25
   4  -7  -9-11.7280 16.4184  10
   4  -7  -8 0.33619 8.19421  25
   4  -7  -7 873.369 93.3811  25
   4  -7  -6 746.104 83.3623  25
  -4   7   5 5500.13 229.820  23
  -4   7   4 14136.1 427.313  23
   4  -7  -3 616.994 157.234   2
  -4   7   3 464.845 62.2159  23
   4  -7  -3 459.418 76.0384  10
  -4   7   2 563.227 68.5178  23
   4  -7  -2 428.441 67.2253  10
  -4   7   1 8594.36 310.953  23
   4  -7  -1 9243.38 625.667   2
  -4   7   0 1227.32 105.799  23
   4  -7   0 1139.53 218.228   2
  -4   7  -1 664.441 73.1905  21
  -4   7  -1 914.124 93.3253  17
  -4   7  -1 763.032 83.5444  23
  -4   7  -2 2279.50 147.649  17
  -4   7  -2 2150.37 142.471  18
  -4   7  -2 2218.59 148.863  23
  -4   7  -3 688.057 80.5074  18
  -4   7  -3 672.670 79.4820  17
  -4   7  -4 576.734 71.2605  18
  -4   7  -4 362.574 56.9962  17
  -4   7  -5 1151.35 95.7749  18
  -4   7  -5 1068.65 87.0745  17
  -4   7  -6 82.0198 19.7174  17
  -4   7  -6 79.1650 22.7053  11
  -4   7  -7 4863.58 150.859  11
   4  -6 -10 6224.44 213.296  25
   4  -6 -10 5839.42 221.712  10
   4  -6  -9 35.4433 15.4602  25
   4  -6  -8 389.221 63.5773  25
   4  -6  -7 1282.96 114.906  25
   4  -6  -6 594.343 74.9779  25
  -4   6   6 415.506 56.9340  23
  -4   6   5-2.94531 13.1953  23
   4  -6  -5 10.0250 8.65002  25
   4  -6  -5 13.5468 25.1112   2
  -4   6   4 3055.69 164.060  23
   4  -6  -4 3929.30 391.029   2
   4  -6  -3 810.600 172.501   2
   4  -6  -2 139.805 73.0082   2
   4  -6  -1 20277.7 913.648   2
   4  -6   0 29511.9 1171.69   2
   4  -6   1 10899.7 714.512   3
  -4   6  -1 11984.8 369.513  23
  -4   6  -1 10547.0 347.377  21
  -4   6  -2 731.927 78.4528  17
   4  -6   2 617.785 164.747   3
  -4   6  -2 714.521 77.7467  23
  -4   6  -2 694.685 76.3900  21
  -4   6  -3 5211.88 226.953  17
  -4   6  -3 5376.20 237.006  23
  -4   6  -3 4989.52 230.731  21
  -4   6  -4 88.5968 25.1158  17
  -4   6  -4 92.5871 29.0455  18
  -4   6  -5 1441.28 106.823   6
  -4   6  -5 1377.52 112.249  18
  -4   6  -5 1490.40 111.720  17
  -4   6  -6 23.8859 11.5334  17
  -4   6  -6 15.3121 8.50635  22
  -4   6  -6 1.41904 7.04798   6
  -4   6  -6 14.7538 13.8209  18
  -4   6  -7 686.673 58.1743   6
  -4   6  -7 675.323 56.2045  22
  -4   6  -7 678.316 65.6380  11
  -4   6  -8 30.7523 9.44194  11
   4  -5 -10 708.860 62.1273  25
   4  -5  -9-12.5278 17.5933  25
   4  -5  -9-5.57402 9.44185  22
   4  -5  -8 237.591 48.3854  25
   4  -5  -8 170.771 48.6432  22
   4  -5  -7 8913.71 368.510  22
   4  -5  -7 8986.88 347.628  25
   4  -5  -6 13078.5 463.012  22
   4  -5  -6 12973.1 430.390  25
   4  -5  -5 1302.21 121.997  22
   4  -5  -5 1223.72 212.511   2
   4  -5  -5 1216.58 102.385  25
   4  -5  -4 7701.50 537.776   2
   4  -5  -3 2715.84 302.874   2
   4  -5  -2 630.744 132.470   2
   4  -5  -1 3889.66 340.729   2
   4  -5   0 234.062 81.4708   2
   4  -5   1 183.744 88.8076   3
   4  -5   2 2703.02 328.941   3
  -4   5  -3 7419.91 264.667  17
   4  -5   3 6680.88 538.872   3
  -4   5  -3 7279.71 276.323  21
  -4   5  -3 7518.87 273.641  23
  -4   5  -4 1146.22 95.9040  17
   4  -5   4 1198.96 224.076   3
  -4   5  -4 1230.47 101.798  23
  -4   5  -4 1280.26 109.205  21
  -4   5  -5 28982.3 737.955   6
  -4   5  -5 28732.7 743.550  18
  -4   5  -5 28822.0 723.348  17
  -4   5  -6 1420.57 113.681   6
  -4   5  -6 1470.68 115.349  18
  -4   5  -6 1575.34 110.701  17
  -4   5  -7 55.7173 18.7321   6
  -4   5  -7 70.6114 23.0942  22
  -4   5  -7 57.6714 20.1660  18
  -4   5  -8 1067.78 78.6509   6
  -4   5  -8 1041.34 74.8050  22
  -4   5  -8 1004.51 80.0814  11
  -4   5  -9 50.7660 12.0727  11
   4  -4 -10 139.011 25.2356  25
   4  -4 -10 107.784 24.9965  22
   4  -4  -9 168.438 34.6901  25
   4  -4  -9 185.269 45.8671  22
   4  -4  -8 431.514 74.8704  22
   4  -4  -8 520.673 69.7067  25
   4  -4  -7 1165.07 109.579  25
   4  -4  -7 1115.85 120.559  22
   4  -4  -6 1973.20 157.897  22
   4  -4  -6 2143.26 312.263   2
   4  -4  -5 487.945 141.623   2
   4  -4  -5 363.489 66.0437  22
   4  -4  -4 3073.57 322.453   2
   4  -4  -3 72039.1 2000.97   2
   4  -4  -2 25765.8 947.282   2
   4  -4  -1 43965.9 1316.79   2
   4  -4   0 7301.43 438.827   2
   4  -4   1 8738.92 532.233   3
   4  -4   2 2469.24 276.205   3
   4  -4   3 7769.31 533.567   3
   4  -4   4 4.68949 19.4103   3
  -4   4  -4 8.33341 8.03690  21
  -4   4  -5 1304.74 106.396  21
  -4   4  -5 1398.99 99.7546  17
  -4   4  -6 311.570 55.6874   6
  -4   4  -6 319.791 52.4077  18
  -4   4  -7-2.16279 19.7495   6
  -4   4  -7 5.39878 6.72844  22
  -4   4  -7 16.2605 5.99599  18
  -4   4  -8 2256.03 138.837   6
  -4   4  -8 2288.49 135.219  22
  -4   4  -8 2302.24 129.654  18
  -4   4  -9 19376.0 487.311  22
  -4   4  -9 19446.3 497.470  11
   4  -3 -10 51.4572 15.6798  25
   4  -3 -10 31.7125 15.0559  22
   4  -3  -9 4399.11 191.014  25
   4  -3  -9 4333.73 214.452  22
   4  -3  -8 6913.30 307.213  22
   4  -3  -8 7266.24 285.822  25
   4  -3  -7 634.720 87.6175  22
   4  -3  -6 3023.32 195.065  22
   4  -3  -6 3678.36 413.903   2
   4  -3  -5 262.498 105.277   2
   4  -3  -5 119.738 34.8661  22
   4  -3  -4 50.7463 44.2433   2
   4  -3  -3 1457.55 202.915   2
   4  -3  -2 4897.92 359.065   2
   4  -3  -1 480.733 99.6823   2
   4  -3   0 729.941 118.159   2
   4  -3   1 32121.9 1056.07   3
   4  -3   1 31374.7 978.570   2
   4  -3   2 836.407 144.431   3
   4  -3   3 64500.3 1845.37   3
  -4   3  -3 69099.8 1419.25   6
   4  -3   4 1273.41 200.642   3
   4  -3   5 319.726 103.707   3
  -4   3  -6 511.702 69.4911   6
   4  -3   6 418.195 134.144   3
  -4   3  -6 528.229 62.6870  21
  -4   3  -6 605.471 70.8730  18
  -4   3  -7 153.472 38.7205   6
  -4   3  -7 142.715 35.1950  18
  -4   3  -8 19.5304 18.3823   6
  -4   3  -8 27.4690 12.7184  22
  -4   3  -8 37.2170 8.51774  18
  -4   3  -9 849.137 81.1754   6
  -4   3  -9 860.576 80.1465  22
  -4   3  -9 877.604 82.9015  11
  -4   3 -10 242.939 32.4936  22
  -4   3 -10 203.524 29.7690  11
   4  -2 -10 0.84248 7.24967  22
   4  -2 -10-6.09424 7.81790  25
   4  -2  -9 415.972 49.4284  25
   4  -2  -9 404.813 57.6104  22
   4  -2  -8 779.923 79.3375  25
   4  -2  -8 780.772 90.8787  22
  -4   2   8 621.557 70.5774  28
  -4   2   7 39.3452 22.5323  28
   4  -2  -7 82.4489 32.5383  22
  -4   2   6 3455.20 192.871  28
   4  -2  -6 3822.04 212.993  22
   4  -2  -5 52483.4 1231.97  22
   4  -2  -5 63472.6 1936.32   2
   4  -2  -4 217.555 83.9043   2
   4  -2  -3 5125.45 385.561   2
   4  -2  -2 48404.0 1402.39   2
   4  -2  -1 7975.45 439.535   2
   4  -2   0 24801.8 792.277   2
   4  -2   1 14115.6 531.083   2
   4  -2   2-2.65441 28.0568   3
   4  -2   3 477.680 102.129   3
   4  -2   4 3726.53 305.443   3
  -4   2  -4 4056.45 172.247   6
  -4   2  -5 639.852 69.7562   6
   4  -2   5 562.832 118.655   3
   4  -2   6 20956.1 913.587   3
  -4   2  -6 24878.1 649.641   6
  -4   2  -7 54566.5 1288.02   6
  -4   2  -7 56746.7 1226.75  19
  -4   2  -7 56230.3 1237.74  18
  -4   2  -8 68.6438 25.4679   6
  -4   2  -8 69.6049 22.7042  22
  -4   2  -8 34.6831 11.1110  19
  -4   2  -8 59.3265 18.8893  18
  -4   2  -9 3780.65 197.849   6
  -4   2  -9 3836.96 191.449  22
  -4   2  -9 3885.84 194.452  11
  -4   2 -10 2388.43 134.513   6
  -4   2 -10 2455.69 132.153  22
  -4   2 -10 2318.33 124.026  11
  -4   2 -11 25.3681 7.93567  22
   4  -1 -10 1409.15 77.2502  22
  -4   1   9 248.237 33.5033  28
   4  -1  -9 310.775 36.9603  25
   4  -1  -9 330.331 49.0921  22
   4  -1  -8 639.167 66.4448  25
  -4   1   8 537.524 66.4497  28
   4  -1  -8 643.131 80.9058  22
  -4   1   7 262.886 50.2262  28
   4  -1  -7 305.569 60.8947  22
  -4   1   6 130.806 35.1732  28
   4  -1  -6 162.868 45.2105  22
   4  -1  -5 12.9178 27.6958   2
   4  -1  -5 54.4073 26.8092  22
  -4   1   5 40.4593 11.1404  28
   4  -1  -4 5007.44 449.632   2
   4  -1  -3 109.185 57.9949   2
  -4   1   2 4450.72 258.419   4
   4  -1  -2 4692.67 342.073   2
  -4   1   1 65246.4 1566.07   4
   4  -1  -1 66887.9 1679.76   2
   4  -1   0 1519.76 158.494   2
  -4   1   0 1328.52 140.222   4
   4  -1   1 217256. 4526.10   2
  -4   1  -1 229042. 4567.55   4
   4  -1   2 111.947 40.0098   3
   4  -1   2 77.1827 30.0021   2
  -4   1  -2 48.3822 20.7439   4
   4  -1   3 1694.87 168.905   3
   4  -1   4 9917.50 463.141   3
   4  -1   5 232.960 68.9236   3
  -4   1  -5 302.375 45.8762   6
   4  -1   6 247.384 72.8563   3
  -4   1  -6 331.675 49.8072   6
  -4   1  -7 893.642 92.2665   6
  -4   1  -8 436.392 68.4539   6
  -4   1  -8 534.168 62.4375  16
  -4   1  -8 507.541 63.2472  19
  -4   1  -9 52.2147 24.6739   6
  -4   1  -9 33.0660 8.54035  22
  -4   1  -9 48.4238 16.9576  19
  -4   1 -10 19485.3 539.831   6
  -4   1 -10 19648.9 525.579  22
  -4   1 -10 19616.1 511.077  11
  -4   1 -10 18263.3 472.975  19
  -4   1 -11 8823.73 265.996  13
  -4   1 -11 9376.12 276.298  22
  -4   0   9 360.382 39.3738  28
   4   0  -9 556.372 57.6508  22
   4   0  -8 1277.14 87.1690  25
  -4   0   8 1151.09 97.7900  28
   4   0  -8 1484.34 115.798  22
  -4   0   7 11011.6 409.601  28
   4   0  -7 13217.8 429.111  22
  -4   0   6 160.992 41.0329  28
   4   0  -6 215.460 50.5707  22
  -4   0   5-10.0564 16.7082  28
   4   0  -5-1.51207 14.9265  22
   4   0  -4 17175.9 904.623   2
   4   0  -3 1357.34 218.453   2
  -4   0   2 5026.90 284.909   4
   4   0  -2 5974.14 428.231   2
  -4   0   1 967.122 119.141   4
   4   0  -1 1001.71 147.954   2
  -4   0   0 969.949 119.218   4
   4   0   0 1048.52 130.890   2
  -4   0  -1 2697.13 157.328   1
   4   0   1 2225.56 172.732   2
  -4   0  -2 73520.7 1652.08   4
  -4   0  -2 72902.3 1520.88   1
   4   0   3 848.446 109.571   3
   4   0   3 853.376 83.3352   2
  -4   0  -4 26422.3 875.941   1
   4   0   4 29813.1 818.070   3
   4   0   5 168905. 3643.87   3
  -4   0  -5 199194. 3439.13   6
  -4   0  -6 1240.08 99.0642   6
  -4   0  -7 6030.06 257.164   6
  -4   0  -8 131.413 32.7759  16
  -4   0  -8 126.657 37.1208   6
  -4   0  -8 106.654 31.4893  19
  -4   0  -9 525.315 63.8534  16
  -4   0  -9 501.484 74.1720   6
  -4   0  -9 566.554 71.5768  22
  -4   0  -9 582.475 69.4071  11
  -4   0  -9 548.850 68.2332  19
  -4   0 -10 236.584 46.0289   6
  -4   0 -10 205.654 40.2824  22
  -4   0 -10 222.607 38.4363  19
  -4   0 -11 549.387 61.7249   6
  -4   0 -11 524.757 58.1208  22
  -4   0 -11 492.969 48.7284  19
  -4   0 -12 45.2541 12.2246  13
  -4   0 -12 33.7914 10.1935  22
   4   1  -9 821.027 56.3865  22
  -4  -1   8 114.270 28.8454  28
   4   1  -8 140.039 35.7398  22
  -4  -1   7 977.642 102.143  28
   4   1  -7 1198.59 107.036  22
  -4  -1   6 818.739 111.060  28
   4   1  -6 312.155 87.9684  22
  -4  -1   5 9344.96 353.982  27
   4   1  -5 11983.6 388.192  22
   4   1  -4 40691.8 961.789  22
  -4  -1   4 44176.1 1517.33   3
   4   1  -3 28626.9 1190.31   2
   4   1  -2 34269.9 1231.24   2
  -4  -1   2 33474.4 1056.47   5
  -4  -1   1 20458.1 744.289   5
   4   1  -1 20693.9 831.595   2
  -4  -1   0 16003.0 614.017   5
   4   1   0 13697.8 616.282   2
   4   1   1 243.942 62.6984   2
  -4  -1  -1 292.638 79.4733   1
  -4  -1  -2 10790.7 420.525   1
  -4  -1  -2 10498.4 414.767   4
  -4  -1  -3 11292.0 451.133   4
  -4  -1  -3 10976.3 453.922   1
  -4  -1  -4 6896.68 334.223   4
  -4  -1  -4 7708.50 410.221   1
  -4  -1  -5 13630.2 386.199   6
  -4  -1  -5 15164.2 674.899   1
  -4  -1  -6 19.4288 14.0444   6
  -4  -1  -6 63.1119 44.7198   1
  -4  -1  -7 1266.60 106.540   6
  -4  -1  -8 83364.1 1737.89  16
  -4  -1  -8 79861.0 1788.15   6
  -4  -1  -8 81644.0 1745.18  26
  -4  -1  -8 83678.9 1756.80  19
  -4  -1  -9 25287.7 653.889  16
  -4  -1  -9 24934.9 695.078   6
  -4  -1  -9 25135.2 657.001  22
  -4  -1  -9 24781.9 665.229  19
  -4  -1 -10 1598.11 116.614  22
  -4  -1 -10 1443.03 108.446  16
  -4  -1 -10 1503.32 114.820  19
  -4  -1 -10 1516.52 125.407   6
  -4  -1 -11 4205.57 185.804  22
  -4  -1 -11 4120.34 181.906  19
  -4  -1 -12 1242.58 79.0684  13
  -4  -1 -12 976.034 62.4053  22
  -4  -1 -12 1121.12 65.1823  19
  -4  -2   8 12.9282 13.3004  28
   4   2  -8 8.11062 5.59344  22
  -4  -2   7 1189.75 104.226  28
   4   2  -7 1412.61 105.769  22
  -4  -2   6 116.146 32.4110  28
  -4  -2   6 147.640 31.7426  27
   4   2  -6 157.370 37.7625  22
  -4  -2   5 2824.32 173.858  27
   4   2  -5 2870.01 168.610  22
  -4  -2   4 9372.10 348.769  27
   4   2  -4 9590.71 330.100  22
  -4  -2   3 13157.0 738.583   3
  -4  -2   2 43.6730 46.5189   3
  -4  -2   2 26.6219 40.5205   5
  -4  -2   1 21747.6 821.715   5
   4   2   0 173.329 68.2161   2
  -4  -2   0 271.751 81.6411   5
  -4  -2  -1 3268.59 263.964   5
  -4  -2  -1 3418.24 321.254   1
  -4  -2  -2 165311. 3652.59   1
  -4  -2  -2 174031. 3611.00   5
  -4  -2  -3 193074. 4134.69   4
  -4  -2  -3 213893. 4302.56   1
  -4  -2  -4 3765.67 293.960   1
  -4  -2  -4 4014.74 255.847   4
  -4  -2  -5 8723.79 500.361   1
  -4  -2  -5 8469.20 373.017   4
  -4  -2  -6 2603.66 292.688   1
  -4  -2  -6 2461.28 138.525   6
  -4  -2  -7 41.2987 17.1960   6
  -4  -2  -7 99.1261 60.1163   1
  -4  -2  -8 1503.75 107.492  26
  -4  -2  -8 1233.41 97.7707  16
  -4  -2  -8 1253.38 94.2573  12
  -4  -2  -8 1063.58 103.754   6
  -4  -2  -8 1173.23 100.119  19
  -4  -2  -9 3286.41 163.292  22
  -4  -2  -9 3228.19 181.386  19
  -4  -2 -10 389.313 59.4709  16
  -4  -2 -10 437.430 56.6014  22
  -4  -2 -10 412.246 61.0026  19
  -4  -2 -11 337.828 50.5253  16
  -4  -2 -11 268.418 41.5488   9
  -4  -2 -11 310.846 45.0595  22
  -4  -2 -11 217.516 39.5458  19
  -4  -2 -12 15719.5 431.126  13
  -4  -2 -12 14877.0 410.737  19
  -4  -2 -13 104.750 17.2237  13
  -4  -3   7 182.049 25.8234  27
  -4  -3   7 271.762 44.9807  28
   4   3  -7 293.648 37.3018  22
  -4  -3   6 4645.99 209.814  27
   4   3  -6 4783.46 208.633  22
  -4  -3   5 2590.92 166.856  27
   4   3  -5 2731.81 158.233  22
  -4  -3   4 26420.3 690.468  27
   4   3  -4 21641.9 607.530  22
  -4  -3   3 131.468 38.4695  27
  -4  -3   3 125.690 70.6964   3
   4   3  -3 113.740 34.7734  20
  -4  -3   2 1728.24 236.345   5
  -4  -3   2 1841.16 255.928   3
  -4  -3   1 352.005 103.708   3
  -4  -3   1 556.793 168.923   5
  -4  -3   0 15148.4 700.525   5
  -4  -3   0 17326.6 703.613   3
  -4  -3  -1 21610.8 1042.67   1
  -4  -3  -1 22131.7 872.006   5
  -4  -3  -2 9249.69 564.342   1
  -4  -3  -2 8710.65 469.999   5
  -4  -3  -3 33714.3 1026.89   5
  -4  -3  -3 31215.9 1088.10   1
  -4  -3  -4 45119.2 1367.24   1
  -4  -3  -5 23202.8 923.357   1
  -4  -3  -5 24348.9 752.206   4
  -4  -3  -6 133328. 3264.45   1
  -4  -3  -6 130410. 2793.92   4
  -4  -3  -7 8469.54 598.412   1
  -4  -3  -8 85.6215 27.7438   9
  -4  -3  -8 37.0285 10.6455  16
  -4  -3  -8 46.0401 19.1982  15
  -4  -3  -8 115.456 69.5601   1
  -4  -3  -8 52.0957 15.4603  26
  -4  -3  -8 153.682 38.5313  12
  -4  -3  -8 72.8333 22.7353  19
  -4  -3  -9 3851.27 194.537  26
  -4  -3  -9 4033.16 198.629  16
  -4  -3  -9 3970.06 192.525  12
  -4  -3  -9 4164.60 212.971  19
  -4  -3  -9 4389.76 203.540   9
  -4  -3 -10 43.1543 20.8659  16
  -4  -3 -10 21.7450 10.8328   9
  -4  -3 -10 5.16488 16.8837  19
  -4  -3 -11 1110.42 93.2072  16
  -4  -3 -11 1057.26 97.2203  19
  -4  -3 -11 1200.59 97.9016   9
  -4  -3 -12 1796.30 113.666  13
  -4  -3 -12 1679.87 106.441  19
  -4  -3 -12 2036.59 112.700   9
  -4  -3 -13 23.2662 12.7443  13
  -4  -3 -13 21.3752 11.2398  19
  -4  -4   7 1096.98 69.7532  28
  -4  -4   6 242.278 43.4613  28
  -4  -4   6 217.272 35.6224  27
  -4  -4   5 5.97896 18.3274  28
  -4  -4   5 4.21059 9.74841  27
  -4  -4   4 1421.49 127.323  27
  -4  -4   3 14011.5 476.926  27
   4   4  -3 14408.9 522.441  20
  -4  -4   2 5128.68 245.474  27
  -4  -4   2 4607.82 216.533   8
  -4  -4   2 4891.69 419.032   5
   4   4  -2 5030.49 266.848  20
  -4  -4   2 5667.23 470.754   3
   4   4  -2 4907.49 234.070  17
  -4  -4   1 5050.16 427.767   5
  -4  -4   1 6058.62 452.302   3
  -4  -4   0 94643.4 2694.68   5
  -4  -4   0 125092. 2711.62   3
  -4  -4  -1 21652.1 1134.36   1
  -4  -4  -1 20867.3 871.062   5
  -4  -4  -2 925.145 199.125   1
  -4  -4  -2 875.230 153.432   5
  -4  -4  -3 20.6077 22.8662   5
  -4  -4  -3 29.7125 29.9105   1
  -4  -4  -4 18252.5 712.588   5
  -4  -4  -4 17163.0 806.621   1
  -4  -4  -5 2395.73 284.932   1
  -4  -4  -5 2271.22 191.903   4
  -4  -4  -6 44.4370 50.8349   1
  -4  -4  -7 81.4469 58.2168   1
  -4  -4  -8 1263.49 98.7048  15
  -4  -4  -8 1363.59 104.876  16
  -4  -4  -8 1292.55 99.7996  26
  -4  -4  -8 1039.39 102.104  25
  -4  -4  -8 1415.76 103.079  12
  -4  -4  -8 1475.12 261.026   1
  -4  -4  -8 1316.30 106.224  19
  -4  -4  -8 1225.01 102.939   9
  -4  -4  -9 1462.08 114.821  16
  -4  -4  -9 1525.89 113.702  12
  -4  -4  -9 1288.86 106.747  26
  -4  -4  -9 1524.11 123.550  19
  -4  -4  -9 1475.11 118.862   9
  -4  -4 -10 43028.5 966.627  12
  -4  -4 -10 41809.4 1013.67  19
  -4  -4 -10 40899.4 987.373  16
  -4  -4 -10 40679.1 1003.03   9
  -4  -4 -11 131.087 37.6374  16
  -4  -4 -11 87.3675 32.3117  13
  -4  -4 -11 96.9958 29.4552   9
  -4  -4 -11 98.2832 27.8105  19
  -4  -4 -12 1372.43 92.9946  16
  -4  -4 -12 1235.76 94.9570  13
  -4  -4 -12 1290.98 97.0401  19
  -4  -4 -12 1365.76 99.5669   9
  -4  -4 -13 739.092 55.6330  13
  -4  -4 -13 834.700 58.5446  19
  -4  -4 -13 719.395 53.1072   9
  -4  -5   6 234.002 33.0143  28
  -4  -5   6 208.769 27.7942  27
  -4  -5   5 514.148 60.3403  27
  -4  -5   5 502.932 60.6814  28
  -4  -5   4 15.0576 15.1076  28
  -4  -5   4 54.3810 29.6824  27
  -4  -5   3 280.193 69.7526  27
  -4  -5   3 268.825 70.1210  28
   4   5  -3 131.045 46.9188  20
  -4  -5   2 32.8026 17.9183   8
  -4  -5   2 33.6314 27.2496  27
   4   5  -2 0.07869 15.3011  17
   4   5  -2 13.9666 19.0823  20
  -4  -5   1 2013.71 149.739  27
  -4  -5   1 1936.02 275.680   5
   4   5  -1 2007.66 163.056  20
   4   5  -1 1896.98 133.895  17
  -4  -5   0 76.7168 79.2527   1
  -4  -5   0 108.651 50.0984   5
  -4  -5  -1 38198.1 1813.06   1
  -4  -5  -1 53169.5 1635.02   5
  -4  -5  -2 1312.21 271.794   1
  -4  -5  -2 1709.24 244.228   5
  -4  -5  -3 17649.7 811.589   5
  -4  -5  -3 14015.8 841.637   1
  -4  -5  -4 181547. 4019.11   5
  -4  -5  -4 174918. 4275.41   1
  -4  -5  -5 29929.2 1216.98   1
  -4  -5  -6 8396.57 605.235   1
  -4  -5  -7 26.3621 13.6506  15
  -4  -5  -7 8.36202 14.6153  12
  -4  -5  -7 32.0049 39.5523   1
  -4  -5  -8 1188.77 100.430  16
  -4  -5  -8 1245.12 98.3151  26
  -4  -5  -8 1060.33 92.0577  12
  -4  -5  -8 1162.36 114.365  25
  -4  -5  -8 1092.99 235.735   1
  -4  -5  -8 1266.93 100.674  15
  -4  -5  -8 1169.38 100.744  19
  -4  -5  -8 1285.17 117.801   9
  -4  -5  -9 4.84249 8.33292  16
  -4  -5  -9 31.8928 20.5730  15
  -4  -5  -9 7.03237 11.4702   9
  -4  -5  -9 17.1546 8.88344  25
  -4  -5  -9 15.0674 8.50169  26
  -4  -5  -9 17.9050 14.1675  12
  -4  -5  -9-2.66295 24.2271  19
  -4  -5 -10 2710.01 159.488  16
  -4  -5 -10 2718.32 169.823  25
  -4  -5 -10 2709.83 159.775  13
  -4  -5 -10 2644.77 149.667  12
  -4  -5 -10 2604.09 165.600  19
  -4  -5 -10 2643.49 178.304   9
  -4  -5 -11 26.2965 16.7790   9
  -4  -5 -11 29.9839 16.3718  16
  -4  -5 -11 37.2163 18.0548  13
  -4  -5 -11 29.1447 14.4443  12
  -4  -5 -11 36.0662 13.5625  19
  -4  -5 -12 296.193 48.6658   9
  -4  -5 -12 221.385 37.6235  13
  -4  -5 -12 303.611 42.4325  16
  -4  -5 -12 302.835 46.3093  19
  -4  -5 -13-23.7361 16.8369   9
  -4  -5 -13-1.54659 7.96777  13
  -4  -6   5 824.914 62.3904  27
  -4  -6   5 766.398 54.9576  28
  -4  -6   4 3514.11 165.692  28
  -4  -6   4 3410.72 175.225  27
  -4  -6   3 1660.14 124.098  28
  -4  -6   3 1566.74 134.044  27
   4   6  -3 1850.11 157.140  20
  -4  -6   2 35195.3 882.134  27
  -4  -6   2 30469.9 810.798   8
  -4  -6   2 34381.7 829.378  28
   4   6  -2 32998.1 908.744  20
   4   6  -2 31103.0 826.195  17
   4   6  -1 38.0751 19.2572  17
  -4  -6   1 16.3008 18.6249  27
   4   6  -1 8.39690 17.5403  20
  -4  -6   0 472.721 69.4333  27
  -4  -6   0 543.095 207.983   1
  -4  -6   0 329.348 116.161   5
   4   6   0 413.436 74.1262  20
   4   6   0 421.891 58.2362  17
  -4  -6  -1 1743.70 126.773  27
  -4  -6  -1 2188.80 401.011   1
  -4  -6  -1 1628.12 256.833   5
   4   6   1 1553.18 137.078  20
  -4  -6  -2 2990.33 431.428   1
  -4  -6  -2 2480.91 312.192   5
  -4  -6  -3 123.353 68.1755   5
  -4  -6  -3 86.1838 69.0411   1
  -4  -6  -4 316.605 100.567   5
  -4  -6  -4 478.850 154.789   1
  -4  -6  -5 12677.9 631.986   5
  -4  -6  -5 12556.6 798.850   1
  -4  -6  -6 7177.79 599.468   1
  -4  -6  -6 6856.07 252.879  12
  -4  -6  -6 7980.34 331.619  25
  -4  -6  -7 24190.7 617.847  16
  -4  -6  -7 25010.8 704.160  25
  -4  -6  -7 23279.6 610.302  12
  -4  -6  -7 23184.0 1154.19   1
  -4  -6  -7 22724.8 681.175   9
  -4  -6  -8 48359.3 1107.68  15
  -4  -6  -8 49214.4 1196.88  25
  -4  -6  -8 48296.3 1106.63  12
  -4  -6  -8 49385.1 1116.54  16
  -4  -6  -8 46824.7 1188.67   9
  -4  -6  -9 3756.70 175.871  26
  -4  -6  -9 3587.28 184.858  15
  -4  -6  -9 3635.61 187.157  16
  -4  -6  -9 3418.78 213.675  25
  -4  -6  -9 3406.19 179.741  12
  -4  -6  -9 3378.38 184.246  19
  -4  -6  -9 3275.15 214.797   9
  -4  -6 -10 1172.87 101.138  16
  -4  -6 -10 1222.77 117.880  25
  -4  -6 -10 1165.76 96.2603  12
  -4  -6 -10 1030.40 98.3820  19
  -4  -6 -10 1073.11 116.305   9
  -4  -6 -11 14.3173 24.3168   9
  -4  -6 -11 11.4167 8.26009  16
  -4  -6 -11 19.4093 15.4962  25
  -4  -6 -11 55.6020 20.8626  12
  -4  -6 -11 22.2306 15.4920  13
  -4  -6 -11 47.4255 23.6939  19
  -4  -6 -12 1330.40 86.3996  13
  -4  -6 -12 1512.02 93.8558  16
  -4  -6 -12 1441.95 99.5209  19
  -4  -6 -12 1573.66 117.353   9
  -4  -6 -13 444.791 52.5253   9
  -4  -7   4 75.1130 18.4634  27
  -4  -7   3 28.7748 18.6591  27
  -4  -7   2 7068.54 272.986   8
   4   7  -2 7707.15 333.438  20
  -4  -7   1 10770.7 391.983   8
   4   7  -1 10701.4 429.998  20
   4   7  -1 11044.3 376.192  17
   4   7   0 10.6180 9.00161  17
  -4  -7   0 19.4331 21.7318  27
   4   7   0 15.9578 14.6116  20
  -4  -7  -1 8421.80 318.122  27
   4   7   1 7059.00 334.881  20
  -4  -7  -2 45722.0 1020.76  12
   4   7   2 45155.5 1133.14  20
  -4  -7  -3 188.210 41.2815  12
  -4  -7  -3 126.136 83.4490   5
  -4  -7  -3 35.3898 48.7971   1
  -4  -7  -4 4940.33 203.336  12
  -4  -7  -4 5744.62 462.732   5
  -4  -7  -4 5726.13 579.693   1
  -4  -7  -5 8007.32 273.569  12
  -4  -7  -5 9405.83 560.447   5
  -4  -7  -5 5562.96 304.698  10
  -4  -7  -5 6026.63 590.392   1
  -4  -7  -6 5880.32 242.171  12
  -4  -7  -6 6259.77 591.057   1
  -4  -7  -6 6338.35 307.420  10
  -4  -7  -7 960.288 92.3793  12
  -4  -7  -7 1029.85 90.9806  16
  -4  -7  -7 1078.93 121.822  25
  -4  -7  -8 556.473 88.6388  25
  -4  -7  -8 584.638 69.8740  15
  -4  -7  -8 535.904 66.3109  12
  -4  -7  -8 618.724 71.1924  16
  -4  -7  -8 746.550 117.315   9
  -4  -7  -9 221.292 54.5610   9
  -4  -7  -9 254.624 46.3146  16
  -4  -7  -9 234.778 45.2534  15
  -4  -7  -9 197.693 53.3030  25
  -4  -7  -9 288.829 48.0395  12
  -4  -7 -10 10401.7 342.257  16
  -4  -7 -10 10812.2 346.909  15
  -4  -7 -10 11178.4 418.967  25
  -4  -7 -10 10487.8 342.161  12
  -4  -7 -10 9804.84 337.619  19
  -4  -7 -10 10507.0 418.170   9
  -4  -7 -11 130.653 45.0141   9
  -4  -7 -11 82.7675 21.9324  16
  -4  -7 -11 115.721 36.5984  25
  -4  -7 -11 84.6690 23.0648  12
  -4  -7 -11 86.2943 27.0542  19
  -4  -7 -12 5049.21 177.950  16
  -4  -7 -12 5504.52 237.603   9
  -4  -8   3 149.377 24.7583  27
  -4  -8   2 35.9800 13.7464   8
  -4  -8   2 40.0193 17.4293  27
  -4  -8   1 1622.48 119.031   8
  -4  -8   1 1980.51 130.776  27
   4   8  -1 1874.51 143.693  20
  -4  -8   0 495.720 71.4784   8
  -4  -8   0 591.415 73.2354  27
   4   8   0 470.673 74.6456  20
  -4  -8  -1 80.7115 23.5386  27
   4   8   1 89.4613 33.7646  20
  -4  -8  -2 308.469 43.4132  12
   4   8   2 338.951 65.0479  20
  -4  -8  -3 578.349 63.4115  12
   4   8   3 618.640 85.8143  20
  -4  -8  -4 3469.66 170.454  12
  -4  -8  -5 11616.7 372.181  12
  -4  -8  -6 37092.3 927.299  12
  -4  -8  -6 45007.4 1098.51  10
  -4  -8  -7 354.627 54.8316  12
  -4  -8  -7 471.964 82.1594  10
  -4  -8  -8 186.257 34.9982  16
  -4  -8  -8 164.380 35.3182  12
  -4  -8  -8 211.143 43.6462  15
  -4  -8  -9 89.6119 25.8363  12
  -4  -8  -9 101.836 27.3783  15
  -4  -8  -9 56.3826 30.9156  25
  -4  -8  -9 117.503 26.2224  16
  -4  -8 -10 821.491 76.9713  12
  -4  -8 -10 791.415 69.7834  16
  -4  -8 -10 857.376 104.454  25
  -4  -8 -10 841.916 76.5015  15
  -4  -8 -11 333.879 40.7574  16
  -4  -8 -11 313.171 41.8651  12
  -4  -8 -12 1118.24 66.6785  12
  -4  -9   1 9445.01 270.794   8
  -4  -9   1 9714.67 267.002  27
   4   9  -1 8795.04 297.933  20
  -4  -9   0 11031.2 356.509   8
   4   9   0 10322.3 367.304  20
  -4  -9  -1 402.688 61.3892   8
   4   9   1 369.229 60.4979  20
  -4  -9  -2 197.964 33.4064  12
   4   9   2 183.939 47.1970  20
  -4  -9  -3 3211.96 155.173  12
   4   9   3 3097.62 191.213  20
  -4  -9  -4 10.9864 7.77784  12
  -4  -9  -5 3573.95 181.033  12
  -4  -9  -5 4153.39 211.149   8
  -4  -9  -6 21.4695 34.1571  12
  -4  -9  -7 1922.67 130.779  12
  -4  -9  -8 424.963 66.6784  15
  -4  -9  -8 580.645 73.8607  12
  -4  -9  -9 11346.5 360.200  12
  -4  -9  -9 11161.9 347.315  15
  -4  -9 -10 2140.26 116.837  15
  -4  -9 -10 2208.46 126.425  12
  -4  -9 -11 6689.54 215.249  12
  -4  -9 -12 1357.82 64.4130  12
  -4 -10   0 5827.62 178.189   8
  -4 -10  -1 4889.24 187.357   8
   4  10   1 3597.59 167.214  20
  -4 -10  -2 363.936 54.2593   8
   4  10   2 316.155 49.7790  20
  -4 -10  -3 10974.4 309.185  12
   4  10   3 9213.95 335.896  20
  -4 -10  -4 4411.15 211.942   8
  -4 -10  -4 3941.12 171.798  12
  -4 -10  -5 386.085 55.5703   8
  -4 -10  -5 337.764 47.2270  12
  -4 -10  -6 37.3003 13.4592  12
  -4 -10  -7 1246.66 94.5103  15
  -4 -10  -7 1183.13 94.3165  12
  -4 -10  -8 592.891 60.6452  15
  -4 -10  -8 517.555 59.2947  12
  -4 -10  -9 2273.65 115.821  15
  -4 -10  -9 2168.65 122.061  12
  -4 -10 -10-1.33029 7.76285  12
  -4 -10 -11 1555.51 76.5196  12
  -4 -11  -2 221.747 28.1851   8
  -4 -11  -3 246.853 34.6308   8
  -4 -11  -4 7.88910 11.8893   8
  -4 -11  -4 7.99395 5.11212  12
  -4 -11  -5 125.473 25.1042   8
  -4 -11  -5 149.728 27.6942  12
  -4 -11  -6 544.422 51.4936  15
  -4 -11  -6 580.116 55.7057  12
  -4 -11  -7 7542.81 231.355  15
  -4 -11  -7 7533.22 243.446  12
  -4 -11  -8 1160.12 68.5775  15
  -4 -11  -8 1300.46 83.0254  12
  -4 -11  -9 1297.58 77.0468  12
  -4 -11 -10 31.0328 9.25132  12
   5 -11  -5 53.2772 15.3745  24
  -5  11   4 769.653 52.1583  17
   5 -11  -4 1302.72 82.7006  24
  -5  11   3-5.36190 9.12522  17
  -5  11   2 58.7349 15.1358  17
  -5  11   2 83.7196 19.5454  20
  -5  11   1 324.507 34.6404  17
   5 -10  -7 1247.56 76.3540  24
   5 -10  -7 1253.57 89.7914  10
   5 -10  -6 1694.45 106.924  24
   5 -10  -6 1549.00 109.612  10
  -5  10   5 292.804 41.3157  17
   5 -10  -5 387.454 56.9161  24
   5 -10  -5 440.446 59.5982  10
  -5  10   4 2213.67 127.172  17
   5 -10  -4 2542.75 151.389  24
  -5  10   3 231.513 40.6259  17
   5 -10  -3 182.289 40.5546  24
  -5  10   3 133.806 26.9439  23
  -5  10   2 513.435 60.6461  17
   5 -10  -2 478.464 58.5213  24
  -5  10   2 428.855 49.2259  23
  -5  10   1 337.281 48.0668  17
  -5  10   0 1583.66 96.2183  20
  -5  10   0 1515.39 99.8326  17
  -5  10  -1 13.9287 10.5041  17
  -5  10  -2 261.782 31.9142  17
   5  -9  -8 1.22331 8.72064  10
   5  -9  -7 125.343 29.0976  24
   5  -9  -7 151.428 38.8854  10
   5  -9  -6 703.544 79.1544  24
   5  -9  -6 713.747 88.3653  10
   5  -9  -5 182.374 46.3730  10
  -5   9   4 630.603 66.6630  23
   5  -9  -4 716.337 90.7198  10
   5  -9  -3 3368.55 198.794  24
  -5   9   3 3263.81 167.534  23
  -5   9   2 383.645 56.1136  23
   5  -9  -2 482.574 69.5295  24
  -5   9   1 12731.9 411.371  17
   5  -9  -1 12272.3 392.179  24
  -5   9   1 11860.9 385.824  23
  -5   9   0 8200.72 303.257  17
  -5   9   0 8601.20 302.271  23
  -5   9  -1-9.50883 17.2026  17
  -5   9  -2 2232.07 112.532  18
  -5   9  -2 2776.86 141.303  17
  -5   9  -3 738.065 54.5136  18
  -5   9  -3 962.465 70.7329  17
  -5   9  -4 60.7535 12.6613  17
   5  -8  -9 215.785 34.6309  10
   5  -8  -8 2598.57 117.413  25
   5  -8  -8 2287.69 107.359  24
   5  -8  -8 2793.50 165.530  10
   5  -8  -7 1354.41 130.727  10
   5  -8  -6 332.718 67.8701  10
   5  -8  -5 619.843 93.4919  10
  -5   8   5 477.137 58.7532  23
  -5   8   4 994.229 90.3699  23
   5  -8  -4 944.084 109.101  10
  -5   8   3 55.2529 17.9448  23
   5  -8  -3 41.3649 17.7932  10
  -5   8   2 3869.48 198.068  23
  -5   8   1 6.58373 13.0064  23
  -5   8   0 963.671 96.0900  17
  -5   8   0 914.468 92.2786  23
  -5   8  -1-2.56585 12.4961  17
  -5   8  -1 25.8210 19.0188  23
  -5   8  -1 2.92490 6.04603  18
  -5   8  -2 212.619 41.3418  17
  -5   8  -2 224.357 40.8481  18
  -5   8  -3 10685.6 341.101  18
  -5   8  -3 11296.1 351.477  17
  -5   8  -4 5639.68 208.458  18
  -5   8  -4 5653.84 207.957  17
  -5   8  -5 293.542 31.6965  17
   5  -7  -9 60.9377 14.1113  25
   5  -7  -9 57.2763 22.8724  10
   5  -7  -8 646.848 65.1451  25
   5  -7  -7 197.047 38.9460  25
   5  -7  -6 497.424 62.9127  25
  -5   7   6 364.314 52.0424  23
  -5   7   5 965.477 90.6892  23
  -5   7   4 2202.01 144.480  23
  -5   7   3 40786.9 948.850  23
   5  -7  -3 36871.0 993.449  10
  -5   7   2 15696.3 473.855  23
  -5   7   1 344.776 57.3191  23
  -5   7   0 4836.98 228.243  23
  -5   7  -1 77.1095 26.8040  23
  -5   7  -1 70.7278 23.5114  21
  -5   7  -2 44.5583 19.2075  17
  -5   7  -2 17.2223 15.7909  23
  -5   7  -2 40.5121 13.4197  21
  -5   7  -3 31.0124 12.2652  17
  -5   7  -3 41.1890 21.8571  18
  -5   7  -4 1587.65 116.535  18
  -5   7  -4 1566.35 110.640  17
  -5   7  -5 1163.10 81.3031  22
  -5   7  -5 1288.93 96.3136  18
  -5   7  -5 1270.91 88.3989  17
  -5   7  -6 27.9673 13.1332  18
  -5   7  -7 4923.89 146.190  11
   5  -6  -9 2480.86 125.374  25
   5  -6  -8 65.8220 21.6080  25
   5  -6  -7 868.266 88.7610  25
  -5   6   7 708.520 70.9608  23
   5  -6  -6 1275.80 109.775  25
  -5   6   6 1039.11 95.0301  23
   5  -6  -5 867.475 85.3077  25
  -5   6   5 662.654 76.8593  23
  -5   6   4 6378.54 266.522  23
  -5   6   3 5936.52 253.172  23
   5  -6  -3 6921.53 550.206   2
  -5   6   2 4349.17 206.276  23
   5  -6  -2 4350.44 414.508   2
  -5   6   1 969.772 88.6222  23
  -5   6   1 827.829 74.9157   7
   5  -6  -1 834.434 175.934   2
  -5   6   0 2943.41 161.845  23
   5  -6   0 2918.06 328.522   2
  -5   6   0 2489.43 141.825  21
   5  -6   1 49754.2 1673.83   2
  -5   6  -1 48745.6 1151.73  21
  -5   6  -2 6791.26 270.518  23
  -5   6  -2 6296.07 263.387  21
  -5   6  -3 123.284 32.6157  17
  -5   6  -3 119.261 31.6919  23
  -5   6  -3 113.362 31.1244  21
  -5   6  -4 10796.0 371.949  18
  -5   6  -4 10421.9 346.230  17
  -5   6  -5 981.882 93.3275  18
  -5   6  -5 1024.48 86.7559  17
  -5   6  -6 117.370 27.7890  22
  -5   6  -6 132.749 27.8614  18
  -5   6  -7 564.114 50.6167  22
  -5   6  -7 636.018 57.3806  18
  -5   6  -8 298.612 31.0565  11
   5  -5  -9 13.0847 5.89705  25
   5  -5  -8 723.307 76.4807  25
  -5   5   8 541.278 57.0461  23
   5  -5  -8 656.091 87.6075  22
   5  -5  -7 1813.16 162.601  22
   5  -5  -7 2101.21 143.391  25
   5  -5  -6 349.308 58.7721  25
   5  -5  -6 304.056 71.8527  22
   5  -5  -5 27600.6 722.420  25
   5  -5  -5 28495.8 821.185  22
   5  -5  -4 576.256 151.169   2
   5  -5  -4 555.713 64.3259  25
   5  -5  -3 720.979 170.090   2
  -5   5   3 742.380 80.1702  23
   5  -5  -2 7745.91 545.601   2
  -5   5   1 1468.54 94.5016   7
   5  -5  -1 1460.38 221.534   2
   5  -5   0 4001.07 360.322   2
   5  -5   1 38.1691 41.7365   2
   5  -5   2 1456.15 248.705   3
   5  -5   2 1500.17 226.942   2
  -5   5  -2 1663.08 114.002  23
  -5   5  -2 1698.17 116.523  21
  -5   5  -3 1991.03 126.217  17
   5  -5   3 1805.50 282.478   3
  -5   5  -3 2016.25 131.149  23
  -5   5  -3 2013.09 134.537  21
  -5   5  -4 2842.64 152.247  17
  -5   5  -4 3053.65 165.268  23
  -5   5  -4 2913.56 169.980  21
  -5   5  -5 26513.6 675.553   6
  -5   5  -5 26712.2 701.535  18
  -5   5  -5 26424.5 660.582  17
  -5   5  -6 164.067 37.0058   6
  -5   5  -6 144.352 37.7378  18
  -5   5  -7 109.875 29.8836   6
  -5   5  -7 79.0077 22.7367  22
  -5   5  -7 100.579 25.6884  18
  -5   5  -8 8312.93 256.269  22
  -5   5  -8 8782.26 274.007  11
  -5   5  -9 96.9775 17.2634  11
   5  -4  -9 131.484 27.4021  25
   5  -4  -9 88.6088 25.7349  22
   5  -4  -8 388.562 56.3733  25
   5  -4  -8 291.189 61.2302  22
   5  -4  -7 406.649 60.9953  25
   5  -4  -7 332.619 69.8970  22
   5  -4  -6 357.014 65.3515  25
   5  -4  -6 268.104 69.6900  22
   5  -4  -5 574.580 88.2151  22
   5  -4  -4 392.243 121.082   2
   5  -4  -4 178.212 54.4017  22
   5  -4  -3 1946.39 266.561   2
   5  -4  -2 19859.4 897.335   2
  -5   4   1 152788. 3041.89   7
   5  -4  -1 164850. 3647.16   2
  -5   4   0 47007.1 1031.75   7
   5  -4   0 49020.1 1459.90   2
   5  -4   1 11712.8 606.708   2
   5  -4   2 3361.86 349.872   3
   5  -4   2 3276.36 310.424   2
   5  -4   3 423.243 126.114   3
  -5   4  -4 2086.14 127.164   6
  -5   4  -4 2178.30 129.334  23
  -5   4  -4 2237.01 138.864  21
   5  -4   5 204.988 97.0112   3
  -5   4  -5 204.982 36.4149  23
  -5   4  -5 222.349 43.2980   6
  -5   4  -5 222.565 41.4564  21
  -5   4  -6 5.11058 9.63626   6
  -5   4  -6 15.5101 17.1605  18
  -5   4  -7 90.4366 28.1056   6
  -5   4  -7 71.6436 21.9434  18
  -5   4  -8 1244.33 97.4167   6
  -5   4  -8 1184.79 93.6889  22
  -5   4  -8 1272.32 91.4408  18
  -5   4  -9 4688.41 173.978  22
  -5   4  -9 4730.96 177.936  11
   5  -3  -9 1075.47 74.0774  25
   5  -3  -9 954.752 86.3650  22
   5  -3  -8 2197.24 136.155  25
   5  -3  -8 2239.50 161.684  22
   5  -3  -7 28045.6 713.250  25
   5  -3  -7 25002.7 756.209  22
   5  -3  -6 946.845 112.561  22
  -5   3   5 213.946 44.3208  28
   5  -3  -5 223.217 101.525   2
   5  -3  -5 154.102 43.8922  22
   5  -3  -4 1869.31 147.761  22
   5  -3  -4 2077.98 285.223   2
   5  -3  -3 8403.01 555.677   2
   5  -3  -2 26.9230 22.2623   2
  -5   3   1 219.104 31.7083   7
   5  -3  -1 293.951 90.4279   2
   5  -3   0 20.3408 18.7900   2
  -5   3   0 25.2311 13.5070   7
   5  -3   1 2373.59 233.577   2
   5  -3   2 22356.2 906.545   3
   5  -3   2 22029.6 816.739   2
   5  -3   3 50431.0 1615.06   3
  -5   3  -3 55727.9 1172.71   6
  -5   3  -4 4325.30 186.727   6
   5  -3   4 3298.62 339.198   3
   5  -3   5 551.719 133.706   3
  -5   3  -5 713.484 76.5164   6
  -5   3  -5 651.953 63.9663  23
  -5   3  -5 709.515 73.8928  21
  -5   3  -6 13524.7 434.070   6
  -5   3  -6 13444.0 413.670  21
  -5   3  -7 414.846 62.9729   6
  -5   3  -7 351.357 50.1365  19
  -5   3  -7 388.959 56.7113  18
  -5   3  -8 3121.96 177.187   6
  -5   3  -8 3026.40 157.928  18
  -5   3  -9 71.3148 25.0772   6
  -5   3  -9 94.8489 27.8013  22
  -5   3  -9 99.4802 28.6468  11
  -5   3 -10-2.94250 7.44453  22
  -5   3 -10 0.50738 6.49235  11
   5  -2  -9 372.507 38.1313  25
   5  -2  -9 411.085 52.9328  22
  -5   2   8 127.074 24.8463  28
   5  -2  -8 157.211 30.1608  25
   5  -2  -8 164.987 39.4349  22
  -5   2   7 298.628 52.3322  28
   5  -2  -7 319.668 59.4717  22
  -5   2   6 42.2374 26.4387  28
   5  -2  -6 34.7834 31.0752  22
   5  -2  -5 1503.61 138.507  22
  -5   2   5 1511.51 125.454  28
   5  -2  -4 22788.9 656.831  22
  -5   2   4 23842.7 640.164  28
   5  -2  -3 112617. 2903.44   2
   5  -2  -2 12040.1 633.782   2
   5  -2  -1 301.783 91.7144   2
  -5   2   1 204.669 29.9537   7
   5  -2   0 26160.1 924.813   2
  -5   2  -1 4231.20 165.512   7
   5  -2   1 5296.85 331.268   2
   5  -2   2 1856.17 185.813   2
   5  -2   3 3829.53 317.397   3
  -5   2  -3 4372.39 166.959   6
   5  -2   3 3893.67 275.939   2
   5  -2   4 632.907 125.024   3
  -5   2  -4 749.420 69.8304   6
   5  -2   5 201.469 81.1772   3
  -5   2  -5 236.274 42.2274   6
  -5   2  -6 6240.49 263.620   6
  -5   2  -6 6445.92 244.204  21
  -5   2  -7 9057.21 343.315   6
  -5   2  -7 9050.49 308.682  21
  -5   2  -7 9002.99 311.745  18
  -5   2  -8 14390.5 467.134   6
  -5   2  -8 14368.2 419.347  19
  -5   2  -8 14530.9 421.474  18
  -5   2  -9 209.461 42.2303   6
  -5   2  -9 164.368 34.8150  22
  -5   2  -9 226.898 37.3837  19
  -5   2  -9 267.281 39.1431  18
  -5   2 -10 3064.43 152.473   6
  -5   2 -10 3051.00 145.921  22
  -5   2 -10 2957.93 136.188  11
  -5   2 -11 367.702 30.6077  13
  -5   2 -11 459.163 38.3869  22
   5  -1  -9 335.173 28.4572  25
   5  -1  -9 459.288 50.2330  22
  -5   1   8 241.522 37.0422  28
   5  -1  -8 230.355 35.7544  25
   5  -1  -8 277.007 49.6234  22
  -5   1   7 1956.51 145.027  28
   5  -1  -7 2272.72 168.243  22
  -5   1   6 125.227 40.7407  28
   5  -1  -6 118.424 38.1292  22
  -5   1   5 2831.29 182.128  28
   5  -1  -5 3034.97 191.631  22
  -5   1   4 663.180 78.5115  28
   5  -1  -4 874.513 201.630   2
   5  -1  -4 683.877 83.5719  22
   5  -1  -3 51.7016 47.2390   2
  -5   1   2 8151.95 404.240   4
   5  -1  -2 9076.33 554.656   2
  -5   1   1 5062.21 319.889   4
   5  -1  -1 5124.36 373.456   2
  -5   1   0 134087. 2864.31   4
   5  -1   0 120682. 2898.88   2
   5  -1   1 215471. 4520.30   2
  -5   1  -1 219953. 4536.50   4
   5  -1   2 31503.0 921.229   2
  -5   1  -2 34608.3 1010.79   4
  -5   1  -3 14407.0 374.062   7
   5  -1   3 11483.6 464.229   2
   5  -1   4 13260.0 592.993   3
  -5   1  -4 15474.2 411.784   6
   5  -1   5 283.176 78.4964   3
  -5   1  -5 358.005 49.7789   6
  -5   1  -6 4912.14 225.601   6
  -5   1  -7 489.157 55.0446   7
  -5   1  -7 561.447 62.4558  26
  -5   1  -7 552.755 74.2073   6
  -5   1  -7 534.252 58.4322  21
  -5   1  -8 165.729 41.0318   6
  -5   1  -8 140.167 33.9859  19
  -5   1  -9 1876.48 142.540   6
  -5   1  -9 1902.87 132.026  22
  -5   1  -9 1845.84 121.062  19
  -5   1 -10 1075.65 97.1884   6
  -5   1 -10 1259.48 95.7617  22
  -5   1 -10 1147.44 85.5982  11
  -5   1 -10 1145.89 81.4238  19
  -5   1 -11 135.938 23.4688  22
  -5   0   8 11.0860 10.1786  28
   5   0  -8 21.3144 9.78437  25
   5   0  -8 2.43206 11.5866  22
  -5   0   7 60.0229 24.1419  28
   5   0  -7 65.1079 27.2080  22
  -5   0   6 40211.1 1050.60  28
   5   0  -6 46533.3 1083.19  22
  -5   0   5 35312.6 931.959  28
   5   0  -5 37095.7 936.787  22
  -5   0   4 31.3276 24.9090  28
   5   0  -4-17.0512 31.0189   2
   5   0  -4 56.1791 23.8135  22
  -5   0   4 41.5639 18.5628  27
   5   0  -3 3271.86 379.986   2
   5   0  -2 117.039 70.0326   2
  -5   0   2 85.2065 31.9308   4
  -5   0   1 8756.30 443.105   4
   5   0  -1 8500.33 525.904   2
  -5   0   0 1300.40 161.768   4
   5   0   0 793.898 136.803   2
  -5   0  -1 4973.11 313.067   4
   5   0   1 3678.26 264.734   2
  -5   0  -2 1009.26 137.714   4
   5   0   2 846.631 107.439   2
  -5   0  -3 114.342 47.9345   4
  -5   0  -4 127882. 2475.04   7
  -5   0  -4 118900. 2470.20   6
  -5   0  -5 13615.4 372.516   7
  -5   0  -5 12614.0 387.689   6
  -5   0  -6 77851.8 1599.17   7
  -5   0  -6 75007.8 1644.78   6
  -5   0  -7 1096.56 85.3095  16
  -5   0  -7 1168.45 93.1259  26
  -5   0  -7 1085.79 103.688   6
  -5   0  -8 1377.69 106.941  26
  -5   0  -8 1379.21 101.514  16
  -5   0  -8 1368.93 121.823   6
  -5   0  -8 1273.70 107.171  19
  -5   0  -9 248.734 44.3150  16
  -5   0  -9 233.942 51.7465   6
  -5   0  -9 259.609 47.7777  22
  -5   0  -9 238.262 46.5373  19
  -5   0 -10 469.189 68.2033   6
  -5   0 -10 491.328 62.3309  22
  -5   0 -10 492.338 62.2435  19
  -5   0 -11 337.138 43.2903  22
  -5   0 -11 327.051 38.8347  19
  -5   0 -12 211.698 26.8629  13
  -5   0 -12 177.202 21.1819  22
  -5  -1   8 22.9082 11.2132  28
   5   1  -8 35.5595 14.3726  22
   5   1  -7-3.44700 9.09298  22
  -5  -1   7 20.6034 18.6816  28
  -5  -1   6 1411.68 124.790  28
   5   1  -6 1713.87 131.845  22
  -5  -1   5 583.408 94.5635  28
  -5  -1   5 487.102 70.2344  27
   5   1  -5 651.639 85.2631  22
  -5  -1   4 16512.9 537.797  28
   5   1  -4 17223.2 507.461  22
  -5  -1   4 18127.7 916.172   3
  -5  -1   3 1355.90 109.585  27
  -5  -1   3 1062.17 104.103  28
   5   1  -3 1244.53 236.054   2
   5   1  -3 1160.57 101.581  22
  -5  -1   3 1267.99 215.460   3
   5   1  -2 59810.6 1879.59   2
  -5  -1   2 56539.6 1523.85   4
  -5  -1   1 121770. 2774.40   4
   5   1  -1 123042. 3052.46   2
   5   1   0 157.471 65.6080   2
  -5  -1   0 253.308 95.8343   1
  -5  -1   0 270.407 74.5829   4
  -5  -1  -1 15701.6 611.981   1
  -5  -1  -1 13600.1 559.817   4
  -5  -1  -2 679.577 113.683   4
  -5  -1  -2 674.912 102.419   1
  -5  -1  -3 3072.67 245.308   4
  -5  -1  -3 2793.39 217.515   1
  -5  -1  -4 2160.53 209.891   1
  -5  -1  -4 1909.56 187.770   4
  -5  -1  -5 17172.0 432.230   7
  -5  -1  -5 15601.3 610.839   4
  -5  -1  -5 16197.0 699.779   1
  -5  -1  -6 594.308 69.6611   6
  -5  -1  -6 586.680 130.969   1
  -5  -1  -7 9742.47 352.918   6
  -5  -1  -8 2135.61 131.590  16
  -5  -1  -8 2103.76 136.294  26
  -5  -1  -8 2196.99 157.387   6
  -5  -1  -8 2229.26 146.282  19
  -5  -1  -9 2290.89 139.967  16
  -5  -1  -9 2101.64 155.983   6
  -5  -1  -9 2193.84 137.967  22
  -5  -1  -9 2130.29 144.454  19
  -5  -1 -10 34426.2 811.946  16
  -5  -1 -10 33971.8 817.564  22
  -5  -1 -10 33763.0 834.783  19
  -5  -1 -11 13.1323 6.47619  22
  -5  -1 -11-22.7204 21.4297  19
  -5  -1 -12 29.1675 8.02974  13
  -5  -1 -12 28.4845 8.53453  22
  -5  -1 -12 42.8160 12.8820  19
   5   2  -7 939.795 74.3049  22
  -5  -2   7 860.236 75.1295  28
  -5  -2   6 52.0905 19.5485  27
  -5  -2   6 17.2564 18.1468  28
   5   2  -6 72.5691 26.2052  22
  -5  -2   5 32.3214 24.7645  28
  -5  -2   5 36.3473 15.7187  27
   5   2  -5 86.4539 28.2244  22
  -5  -2   4 1225.78 120.913  28
  -5  -2   4 1218.37 113.711  27
   5   2  -4 1292.83 110.714  22
  -5  -2   3 4587.84 237.782  28
  -5  -2   3 4871.92 235.425  27
   5   2  -3 4716.16 219.355  22
  -5  -2   2 6.51613 34.2319   3
  -5  -2   1 15.0725 22.4418   5
  -5  -2   1 54.1490 31.2601   3
  -5  -2   0 1356.46 194.380   5
  -5  -2  -1 319.167 102.320   1
  -5  -2  -2 98014.1 2393.14   1
  -5  -2  -3 37281.0 1085.84   4
  -5  -2  -3 36392.5 1127.28   1
  -5  -2  -4 203.898 68.5271   1
  -5  -2  -4 248.575 68.6697   4
  -5  -2  -5 8953.42 513.136   1
  -5  -2  -5 8322.48 420.167   4
  -5  -2  -6 540.768 94.4352   4
  -5  -2  -6 591.852 140.076   1
  -5  -2  -7 2535.19 305.212   1
  -5  -2  -8 361.616 57.2815  16
  -5  -2  -8 401.727 61.2732  26
  -5  -2  -8 488.474 64.6945  12
  -5  -2  -8 483.986 69.6783  19
  -5  -2  -9 917.222 89.3119  16
  -5  -2  -9 958.686 96.1690  26
  -5  -2  -9 982.175 98.6364  19
  -5  -2 -10 890.594 89.9533  16
  -5  -2 -10 1103.64 105.475  19
  -5  -2 -11 2536.51 138.558  16
  -5  -2 -11 2681.20 152.040  19
  -5  -2 -12 852.382 70.2753  13
  -5  -2 -12 839.503 66.4630  19
  -5  -2 -13 1669.00 71.3984  13
  -5  -3   7 833.392 58.9119  28
  -5  -3   6 33.2384 18.0184  28
  -5  -3   6 29.7580 12.5252  27
   5   3  -6 20.1897 11.1853  22
  -5  -3   5 1669.47 126.343  27
   5   3  -5 1800.13 124.144  22
  -5  -3   4 136616. 2937.89  27
   5   3  -4 141362. 2894.64  22
  -5  -3   3 30958.6 833.404  28
  -5  -3   3 31267.1 826.005  27
  -5  -3   2 21.0531 15.4629  28
  -5  -3   2 67.3819 28.3417   8
  -5  -3   2 105.028 34.8416  27
  -5  -3   2 76.2639 59.0533   3
  -5  -3   2 141.439 66.0378   5
   5   3  -2 85.7471 32.8827  20
  -5  -3   1 3116.22 327.857   5
  -5  -3   1 3792.24 366.218   3
  -5  -3   0 113.981 92.0624   1
  -5  -3   0 81.7029 77.5439   5
  -5  -3  -1 7665.46 593.964   1
  -5  -3  -1 7374.33 484.002   5
  -5  -3  -2 368.027 111.441   1
  -5  -3  -2 429.932 108.724   5
  -5  -3  -3 3616.73 328.365   1
  -5  -3  -4 2840.82 241.189   4
  -5  -3  -4 3256.01 309.803   1
  -5  -3  -5 775.905 153.400   1
  -5  -3  -5 837.303 128.455   4
  -5  -3  -6 11181.6 645.173   1
  -5  -3  -6 10376.8 468.164   4
  -5  -3  -7 69123.3 2099.74   1
  -5  -3  -8 101063. 2149.05  26
  -5  -3  -8 102209. 2146.77  16
  -5  -3  -8 105623. 2143.95  15
  -5  -3  -8 102361. 2143.58  12
  -5  -3  -8 106073. 2177.54  19
  -5  -3  -8 98085.9 2798.06   1
  -5  -3  -9 547.392 68.3948  16
  -5  -3  -9 714.142 75.3621  12
  -5  -3  -9 611.672 77.5749  19
  -5  -3  -9 453.555 64.7363  26
  -5  -3 -10 24.0691 16.1806  16
  -5  -3 -10 39.9891 22.4300  19
  -5  -3 -11 240.946 43.7990  16
  -5  -3 -11 181.131 37.8055  19
  -5  -3 -12 219.759 37.2177  13
  -5  -3 -12 302.708 44.6124  16
  -5  -3 -12 214.411 37.3348  19
  -5  -3 -13-1.87349 6.13301  13
  -5  -3 -13-4.09030 6.50078  19
  -5  -4   6 155.627 22.4569  27
  -5  -4   6 190.596 31.2932  28
  -5  -4   5 255.032 41.6740  27
  -5  -4   5 261.426 44.9082  28
  -5  -4   4 408.832 65.6934  28
  -5  -4   4 348.444 59.6573  27
  -5  -4   3 2930.02 187.615  28
  -5  -4   3 3251.54 196.715  27
  -5  -4   2 1706.69 140.427  28
  -5  -4   2 1836.97 132.277   8
  -5  -4   2 2031.46 155.273  27
   5   4  -2 2049.80 171.164  20
  -5  -4   1 152.684 36.2759  28
  -5  -4   1 101.321 30.2625   8
  -5  -4   1 128.550 35.2917  27
  -5  -4   1 170.744 77.7866   5
   5   4  -1 115.839 35.4023  20
  -5  -4   0 38284.5 915.935  27
  -5  -4   0 39606.0 1756.14   1
  -5  -4   0 37816.2 1353.24   5
  -5  -4   0 36611.9 915.368   8
  -5  -4  -1 27.0055 66.9799   1
  -5  -4  -1 77.1858 49.1962   5
  -5  -4  -2-4.50447 64.1694   1
  -5  -4  -2 62.4558 43.2451   5
  -5  -4  -3 3386.91 316.665   5
  -5  -4  -3 2812.13 329.829   1
  -5  -4  -4 1447.14 225.352   1
  -5  -4  -5 203.399 64.1223   4
  -5  -4  -5 187.281 74.9529   1
  -5  -4  -6 2757.52 324.634   1
  -5  -4  -6 2681.08 233.800   4
  -5  -4  -7 361.074 118.945   1
  -5  -4  -7 536.073 62.4542  16
  -5  -4  -7 518.077 61.1623  12
  -5  -4  -7 479.060 58.2628  15
  -5  -4  -7 560.265 62.8791  26
  -5  -4  -8 4011.12 190.952  15
  -5  -4  -8 3780.81 192.183  26
  -5  -4  -8 4061.26 190.981  12
  -5  -4  -8 3976.05 196.951  16
  -5  -4  -8 4281.49 444.828   1
  -5  -4  -8 4087.90 202.809  19
  -5  -4  -8 3959.39 200.298   9
  -5  -4  -9 20026.4 558.947  16
  -5  -4  -9 20139.0 554.067  15
  -5  -4  -9 18921.5 548.553  26
  -5  -4  -9 20061.5 542.298  12
  -5  -4  -9 19958.2 575.374  19
  -5  -4  -9 19686.8 566.362   9
  -5  -4 -10 363.372 60.0871   9
  -5  -4 -10 349.786 54.2371  16
  -5  -4 -10 317.193 52.9320  26
  -5  -4 -10 272.393 46.6548  12
  -5  -4 -10 381.013 61.2567  19
  -5  -4 -11 15631.5 467.206  16
  -5  -4 -11 16741.6 480.517  13
  -5  -4 -11 16733.8 492.216  19
  -5  -4 -12 13384.0 370.239  16
  -5  -4 -12 12965.4 373.186  13
  -5  -4 -12 13509.5 386.838  19
  -5  -4 -12 13488.5 375.268   9
  -5  -4 -13 158.805 22.5938  13
  -5  -4 -13 183.443 26.3584  19
  -5  -5   5 202.984 31.7753  28
  -5  -5   5 185.927 29.3109  27
  -5  -5   4 10.5089 8.03965  28
  -5  -5   4 13.3173 13.8636  27
  -5  -5   3 234.521 50.2746  28
  -5  -5   3 195.191 45.6586  27
  -5  -5   2 3118.81 184.386  28
  -5  -5   2 2892.27 168.386   8
  -5  -5   2 3168.50 195.307  27
   5   5  -2 2918.15 208.232  20
  -5  -5   1 12.3983 16.6323   8
  -5  -5   1 53.8983 39.7566  28
  -5  -5   1 28.0257 38.0568  27
   5   5  -1 15.7928 10.1677  20
  -5  -5   0 1344.09 121.642  27
  -5  -5   0 1396.40 235.781   5
  -5  -5   0 1132.01 111.041   8
   5   5   0 1134.93 117.827  20
  -5  -5   0 1298.16 309.786   1
  -5  -5  -1 2954.96 168.986  27
  -5  -5  -1 2740.78 173.652   8
  -5  -5  -1 3319.31 468.881   1
  -5  -5  -1 3079.90 348.361   5
  -5  -5  -2 9884.13 357.916   8
  -5  -5  -2 11766.9 675.978   5
  -5  -5  -3 307.853 107.790   5
  -5  -5  -3 149.566 77.4976   1
  -5  -5  -4 11798.1 642.850   5
  -5  -5  -4 10884.5 713.196   1
  -5  -5  -5 13823.1 800.997   1
  -5  -5  -6 13900.9 816.083   1
  -5  -5  -6 14670.6 614.752   4
  -5  -5  -7 2729.58 154.825  16
  -5  -5  -7 2579.73 145.811  26
  -5  -5  -7 2753.00 149.734  15
  -5  -5  -7 2452.69 178.783  25
  -5  -5  -7 2247.38 323.249   1
  -5  -5  -7 2739.18 149.745  12
  -5  -5  -7 2301.87 158.631   9
  -5  -5  -8 11.8295 16.2681  16
  -5  -5  -8 13.0135 16.0339  26
  -5  -5  -8 0.06281 8.35579  15
  -5  -5  -8 35.0924 26.0653  25
  -5  -5  -8 5.56208 16.1358  12
  -5  -5  -8 20.1701 20.6337  19
  -5  -5  -9 1809.22 131.377  16
  -5  -5  -9 1807.64 128.412  15
  -5  -5  -9 1815.21 127.395  26
  -5  -5  -9 1742.40 148.120  25
  -5  -5  -9 1943.03 132.091  12
  -5  -5  -9 1890.02 136.789  19
  -5  -5  -9 1756.68 142.151   9
  -5  -5 -10 103.310 28.9084   9
  -5  -5 -10 166.358 36.6836  26
  -5  -5 -10 94.2856 26.7471  16
  -5  -5 -10 129.016 29.1706  12
  -5  -5 -10 109.732 30.9663  19
  -5  -5 -11 158.503 32.9103   9
  -5  -5 -11 146.987 34.0979  16
  -5  -5 -11 156.618 32.5590  13
  -5  -5 -11 142.282 30.3811  12
  -5  -5 -11 146.237 30.1246  19
  -5  -5 -12 5.77528 11.6294   9
  -5  -5 -12 64.4766 23.0887  16
  -5  -5 -12 53.2785 21.2205  13
  -5  -5 -12 47.8470 19.0443  19
  -5  -5 -13 33.3006 9.85340  19
  -5  -6   4 482.198 43.9486  28
  -5  -6   4 496.294 51.8073  27
  -5  -6   3 5939.73 221.381  28
  -5  -6   3 5699.23 241.277  27
  -5  -6   2 40804.0 928.059  28
  -5  -6   2 40815.2 975.849  27
  -5  -6   1 3711.42 213.334  27
  -5  -6   1 3346.15 193.977   8
   5   6  -1 3430.44 220.186  20
  -5  -6   0 308.933 57.0258   8
  -5  -6   0 322.356 58.5003  27
   5   6   0 249.518 55.5603  20
  -5  -6  -1 8.12081 16.8565  27
  -5  -6  -1-0.25596 20.3373   8
   5   6   1-7.33539 18.7503  20
  -5  -6  -2 615.480 71.1504  27
  -5  -6  -2 602.283 79.8878   8
  -5  -6  -2 729.300 219.198   1
  -5  -6  -2 592.385 156.581   5
  -5  -6  -3 11.5461 14.9873   8
  -5  -6  -3 73.6976 52.7276   5
  -5  -6  -3-32.5007 91.9700   1
  -5  -6  -4 1651.72 126.557   8
  -5  -6  -4 1285.87 89.4124  12
  -5  -6  -4 1768.89 250.648   5
  -5  -6  -4 1767.04 296.938   1
  -5  -6  -5 906.854 212.312   1
  -5  -6  -5 744.626 78.2898   8
  -5  -6  -5 676.190 67.2560  12
  -5  -6  -6 5848.33 544.781   1
  -5  -6  -6 5758.40 230.442  12
  -5  -6  -7 14.1087 10.7562  26
  -5  -6  -7 41.6445 22.3684  12
  -5  -6  -7 25.9026 38.7142   1
  -5  -6  -8 835.127 80.1394  26
  -5  -6  -8 803.896 85.0384  15
  -5  -6  -8 929.734 112.307  25
  -5  -6  -8 844.322 87.0885  16
  -5  -6  -8 793.636 83.1075  12
  -5  -6  -8 981.529 117.964   9
  -5  -6  -9 83420.0 1748.65  12
  -5  -6  -9 82418.2 1735.64  26
  -5  -6  -9 82372.1 1755.67  15
  -5  -6  -9 77750.7 1837.70  25
  -5  -6  -9 81789.2 1762.21  16
  -5  -6  -9 83310.7 1743.62  19
  -5  -6  -9 79236.5 1828.56   9
  -5  -6 -10 34969.6 848.694  16
  -5  -6 -10 35011.5 825.370  26
  -5  -6 -10 34060.2 831.519  12
  -5  -6 -10 34564.3 846.033  19
  -5  -6 -10 35380.1 914.198   9
  -5  -6 -11 245.055 52.9340   9
  -5  -6 -11 234.753 40.8121  16
  -5  -6 -11 230.483 37.9145  12
  -5  -6 -11 222.259 42.5924  19
  -5  -6 -12 632.964 59.2007  16
  -5  -6 -12 607.264 60.5284  19
  -5  -7   3 5.56328 4.50665  27
  -5  -7   2 2295.50 118.222   8
  -5  -7   2 2458.55 140.999  27
  -5  -7   1 2236.39 143.879   8
  -5  -7   1 2682.53 163.501  27
   5   7  -1 2186.65 161.145  20
  -5  -7   0 124.844 35.5993  27
  -5  -7   0 110.936 32.1754   8
   5   7   0 134.686 39.5482  20
  -5  -7  -1 37.0111 9.68454  27
  -5  -7  -1 44.8258 20.1557   8
   5   7   1 78.6199 31.7317  20
  -5  -7  -2 283.611 58.7927   8
  -5  -7  -2 435.250 60.1962  27
   5   7   2 246.981 52.3061  20
  -5  -7  -3 20045.5 604.052   8
  -5  -7  -4 4976.97 248.845   8
  -5  -7  -4 5444.55 212.895  12
  -5  -7  -5 172.445 37.1125   8
  -5  -7  -5 170.980 33.6648  12
  -5  -7  -6 1960.18 134.676  12
  -5  -7  -7 638.100 81.8129  16
  -5  -7  -7 902.161 93.8543  12
  -5  -7  -8 207.002 40.2903  16
  -5  -7  -8 168.552 36.0189  15
  -5  -7  -8 175.921 33.9883  12
  -5  -7  -9 1422.61 113.147  15
  -5  -7  -9 1539.89 115.484  12
  -5  -7  -9 1653.47 120.114  16
  -5  -7 -10 5127.70 219.739  16
  -5  -7 -10 5221.56 222.400  15
  -5  -7 -10 5118.86 216.303  12
  -5  -7 -11 4452.84 186.759  16
  -5  -7 -11 4534.60 183.635  12
  -5  -7 -11 4350.40 177.253  19
  -5  -7 -12 854.046 63.7473  16
  -5  -7 -12 798.032 61.0667  19
  -5  -8   2 137.346 22.8943  27
  -5  -8   1 541.062 54.6079   8
  -5  -8   1 590.587 59.6343  27
  -5  -8   0 1619.94 119.652   8
  -5  -8   0 1825.58 118.837  27
   5   8   0 1470.73 120.724  20
  -5  -8  -1-8.36919 11.6552   8
  -5  -8  -1 14.4692 6.49493  27
   5   8   1 12.5992 15.9803  20
  -5  -8  -2 1741.63 141.319   8
   5   8   2 1482.24 127.534  20
  -5  -8  -3 935.022 103.493   8
  -5  -8  -4 22483.4 589.151  12
  -5  -8  -4 25088.2 682.338   8
  -5  -8  -5 442.183 65.9532   8
  -5  -8  -5 431.074 57.0322  12
  -5  -8  -6 20.4869 17.5397   8
  -5  -8  -6 18.1356 21.2408  12
  -5  -8  -7 40371.1 977.762  12
  -5  -8  -7 43544.2 983.681  16
  -5  -8  -8 3034.54 170.906  15
  -5  -8  -8 3057.60 168.021  12
  -5  -8  -8 3260.70 168.520  16
  -5  -8  -9 2.37290 13.3432  16
  -5  -8  -9-17.0157 25.8759  15
  -5  -8  -9 2.34904 14.9114  12
  -5  -8 -10 1286.41 91.9852  16
  -5  -8 -10 1375.65 100.064  15
  -5  -8 -10 1330.39 97.8557  12
  -5  -8 -11 361.053 44.5623  12
  -5  -8 -11 371.957 42.9174  16
  -5  -8 -12 113.044 18.0954  16
  -5  -8 -12 141.579 22.4336  12
  -5  -9   0 5117.96 183.094   8
  -5  -9   0 4814.86 155.958  27
  -5  -9  -1 1004.98 87.9398   8
   5   9   1 828.247 78.1607  20
  -5  -9  -2 33.3819 17.2788   8
   5   9   2 22.0522 10.4572  20
  -5  -9  -3 118.973 33.5088   8
  -5  -9  -4 185.760 43.6916   8
  -5  -9  -4 203.369 34.7123  12
  -5  -9  -5 35.8755 17.2401   8
  -5  -9  -5 44.3877 17.6191  12
  -5  -9  -6 157.935 35.5434   8
  -5  -9  -6 172.982 36.8327  12
  -5  -9  -7 87.3948 25.8390  12
  -5  -9  -8 3561.49 182.427  15
  -5  -9  -8 3777.91 183.735  12
  -5  -9  -9-16.2521 17.0473  15
  -5  -9  -9 4.67124 7.74114  12
  -5  -9 -10 6616.37 229.260  15
  -5  -9 -10 6665.54 233.795  12
  -5  -9 -11 29509.1 659.351  12
  -5  -9 -12 2004.04 79.2493  12
  -5 -10  -1 5.08098 5.96272   8
  -5 -10  -2 841.817 69.8455   8
  -5 -10  -3 597.425 65.9865   8
  -5 -10  -4 5478.75 221.613   8
  -5 -10  -4 5046.42 172.475  12
  -5 -10  -5 22557.3 570.031   8
  -5 -10  -5 21526.9 531.387  12
  -5 -10  -6 2078.96 113.523   8
  -5 -10  -6 1936.80 111.836  12
  -5 -10  -7 187.145 34.2223  15
  -5 -10  -7 138.690 27.8551  12
  -5 -10  -8 213.088 35.9894  15
  -5 -10  -8 211.418 34.8160  12
  -5 -10  -9 1.01547 8.43194  12
  -5 -10  -9 9.64258 9.34559  15
  -5 -10 -10 60.4298 17.1558  12
  -5 -10 -11 491.861 37.6489  12
  -5 -11  -4 19.5724 10.0794   8
  -5 -11  -5 3168.28 118.280   8
  -5 -11  -6 9063.37 245.528  15
  -5 -11  -6 7692.24 219.422  12
  -5 -11  -7 256.895 31.3546  15
  -5 -11  -7 244.911 29.2362  12
  -5 -11  -8 2659.00 105.714  15
  -5 -11  -8 2803.86 110.901  12
  -5 -11  -9 6333.67 180.429  12
   6 -10  -6 149.390 22.9431  24
  -6  10   5 4026.13 145.308  17
   6 -10  -5 5013.56 181.542  24
  -6  10   4 5356.18 190.067  17
   6 -10  -4 5641.05 208.654  24
  -6  10   3 435.139 48.6875  17
   6 -10  -3 363.434 45.7303  24
  -6  10   3 276.247 32.8285  23
   6 -10  -2 1215.76 81.1875  24
  -6  10   2 1207.28 75.4162  23
  -6  10   1 360.205 43.2174  17
  -6  10   0 34.9314 13.6890  17
  -6  10  -1 764.415 54.5317  17
   6  -9  -7 131.999 21.5425  24
   6  -9  -7 183.702 30.9270  10
   6  -9  -6 143.057 30.5864  24
   6  -9  -6 142.451 30.2703  10
   6  -9  -5 507.230 61.0857  10
  -6   9   4 7.22924 9.36898  23
   6  -9  -3 112.458 36.8164  24
  -6   9   3 93.1796 24.0350  23
   6  -9  -2 273.074 45.8918  24
  -6   9   2 323.478 47.9520  23
  -6   9   1 3211.87 165.608  17
  -6   9   1 2872.23 151.279  23
  -6   9   0 1744.57 115.395  17
  -6   9   0 1666.84 111.857  23
  -6   9  -1 5768.01 217.365  17
  -6   9  -2 102.189 25.3019  17
  -6   9  -2 91.0477 20.0686  18
  -6   9  -3 207.908 24.2804  18
  -6   9  -3 257.452 30.8858  17
   6  -8  -8 958.521 70.9859  10
   6  -8  -7 7098.89 269.960  10
  -6   8   6 2041.89 104.537  23
   6  -8  -6 2615.57 162.893  10
  -6   8   5 4.65193 7.23900  23
   6  -8  -5 24.6513 18.0724  10
  -6   8   4 5121.12 215.140  23
   6  -8  -4 4574.97 234.091  10
  -6   8   3 2730.91 157.053  23
  -6   8   2 106.148 30.0171  23
  -6   8   1 353.880 56.0227  23
  -6   8   0 315.844 41.7789   7
   6  -8   0 162.555 33.8598  24
  -6   8   0 294.283 51.5165  23
  -6   8  -1 1874.20 126.719  17
  -6   8  -1 1722.48 113.532   7
  -6   8  -1 1856.73 127.770  23
  -6   8  -2 1726.31 114.111  17
  -6   8  -2 1651.02 110.652   7
  -6   8  -2 1797.35 120.408  23
  -6   8  -2 1703.54 111.976  18
  -6   8  -3 1150.02 86.9047   7
  -6   8  -3 1117.56 84.7257  18
  -6   8  -3 1198.89 87.0217  17
  -6   8  -4 172.145 27.6972  17
  -6   8  -4 195.747 31.7328   7
  -6   8  -4 173.147 30.0866  18
  -6   8  -5 6997.95 198.362  18
   6  -7  -8 25.2721 8.31182  25
   6  -7  -8 29.4741 19.1676  10
   6  -7  -7 676.204 58.0057  25
  -6   7   7 578.793 50.3020  23
  -6   7   6 8.87284 9.76808  23
  -6   7   5 305.241 48.8911  23
  -6   7   4 5897.26 250.638  23
  -6   7   3 11927.5 386.257  23
   6  -7  -3 9652.08 382.194  10
  -6   7   2 6155.12 264.500  23
  -6   7   1 37.1591 21.0380  23
  -6   7   0 1328.25 100.880   7
  -6   7   0 1387.09 115.869  23
  -6   7  -1 898.770 86.6584   7
  -6   7  -1 1058.41 99.7185  23
  -6   7  -1 804.170 82.0921  21
  -6   7  -2 195.015 42.0409  23
  -6   7  -2 166.567 38.4221  17
  -6   7  -2 161.818 37.0309  21
  -6   7  -3 3702.57 177.253  17
  -6   7  -3 3862.75 189.341  23
  -6   7  -3 3767.18 190.305  18
  -6   7  -4 229.567 36.6635  17
  -6   7  -4 205.035 39.0469  18
  -6   7  -5 121.100 23.6564  17
  -6   7  -5 119.983 29.4446   7
  -6   7  -5 113.113 27.8658  18
  -6   7  -6 350.507 31.5203  22
  -6   7  -6 609.459 50.5452  18
   6  -6  -8 4095.58 159.523  25
   6  -6  -7 56.0660 18.4542  25
  -6   6   7 50.9449 18.7180  23
   6  -6  -6 3482.54 175.200  25
  -6   6   6 3358.98 173.623  23
  -6   6   5 284.303 51.0987  23
  -6   6   4 2458.25 158.904  23
  -6   6   3 64.5293 23.6205  23
  -6   6   2 102.806 34.6689  23
  -6   6   1 1635.93 124.591  23
  -6   6   0 12.9191 8.79826   7
  -6   6   0 44.6745 18.4956  23
  -6   6   0 74.9808 26.5501  21
  -6   6  -1 1213.29 101.979   7
  -6   6  -1 1342.44 111.258  23
  -6   6  -1 1236.10 104.932  21
  -6   6  -2 14049.3 435.531  23
  -6   6  -2 12960.6 426.061  21
  -6   6  -3 36183.7 864.369  17
  -6   6  -3 37039.6 885.485  23
  -6   6  -3 35717.7 889.735  21
  -6   6  -4-4.35104 21.8500  23
  -6   6  -4 29.4874 17.9590  21
  -6   6  -4 1.62354 15.4109  17
  -6   6  -5 2117.70 135.797  18
  -6   6  -5 2118.71 117.863  17
  -6   6  -6 378.631 48.2687   7
  -6   6  -6 451.576 54.7351  18
  -6   6  -7 431.693 41.6306  22
  -6   6  -7 515.686 48.1389  18
   6  -5  -9 1040.76 56.9377  25
   6  -5  -8 760.138 66.6117  25
  -6   5   8 482.218 44.0710  23
   6  -5  -7 503.430 61.3119  25
  -6   5   7 345.868 48.0710  23
  -6   5   6 3206.84 177.142  23
   6  -5  -6 3526.02 184.329  25
   6  -5  -5 14612.9 446.393  25
  -6   5   5 14553.2 463.336  23
  -6   5   4 1414.86 121.593  23
  -6   5   3 2980.43 176.661  23
  -6   5   2 6695.95 275.576  23
   6  -5  -2 6842.83 534.565   2
  -6   5   1 1564.01 102.046   7
  -6   5   1 1611.53 121.258  23
   6  -5  -1 1712.56 256.140   2
  -6   5   0 895.268 81.0307  28
   6  -5   0 758.160 161.456   2
  -6   5   0 837.395 77.2402   7
  -6   5   0 840.086 83.7092  23
  -6   5  -1 339.412 50.1862  28
   6  -5   1 180.527 77.3707   2
  -6   5  -1 300.539 47.9991   7
  -6   5  -1 370.197 54.5467  23
  -6   5  -1 280.081 48.4022  21
  -6   5  -2 919.038 86.3840  28
   6  -5   2 700.759 152.173   2
  -6   5  -2 880.510 84.7464  23
  -6   5  -2 906.949 87.8610  21
  -6   5  -3 5836.71 233.289  17
  -6   5  -3 5715.12 240.723  23
  -6   5  -3 5694.87 250.939  21
  -6   5  -4 95.7325 22.8713  17
  -6   5  -4 119.985 32.3151  23
  -6   5  -4 111.589 34.1516  21
  -6   5  -5 283.273 51.5669  21
  -6   5  -6 15386.3 453.932  18
  -6   5  -7 11754.0 347.040   7
  -6   5  -7 13151.2 368.864  18
  -6   5  -8 1128.76 72.3158  22
  -6   5  -8 1202.79 72.3253  18
   6  -4  -9 1320.82 65.5546  25
   6  -4  -8 7584.36 235.468  25
  -6   4   8 5248.15 189.798  23
   6  -4  -7 705.835 74.7202  25
   6  -4  -7 511.616 83.3839  22
   6  -4  -6 173.782 40.9420  25
   6  -4  -6 124.720 36.8687  22
   6  -4  -5 3037.08 230.658  22
   6  -4  -4 180.944 73.0302  22
   6  -4  -3 202.149 88.8938   2
  -6   4   3 188.902 34.0723  28
  -6   4   2 2690.03 147.909  28
  -6   4   2 2602.51 156.834  23
  -6   4   1 8332.90 274.327   7
  -6   4   1 9257.23 314.843  23
   6  -4  -1 8702.87 582.038   2
  -6   4   0 3517.16 164.367   7
   6  -4   0 3539.51 346.719   2
  -6   4  -1 6799.10 253.945   7
   6  -4   1 6307.82 454.028   2
   6  -4   2 647.190 141.698   2
  -6   4  -2 723.066 76.6998   7
  -6   4  -2 763.903 75.7913  28
  -6   4  -2 850.635 76.7629  23
  -6   4  -3 19578.5 534.647  28
  -6   4  -3 18623.0 512.203  23
  -6   4  -3 19774.1 538.414  21
   6  -4   4 74.7084 84.9304   3
  -6   4  -4 73.0581 24.3938  23
  -6   4  -4 118.973 37.3232  21
  -6   4  -5 5295.54 221.526  23
  -6   4  -5 5650.90 232.576   6
  -6   4  -5 5473.33 243.088  21
  -6   4  -6 431.964 60.1383   6
  -6   4  -6 429.058 60.7772  21
  -6   4  -6 435.196 61.6153  18
  -6   4  -7 1219.97 96.0330   7
  -6   4  -7 1359.05 106.435   6
  -6   4  -7 1342.45 102.950  18
  -6   4  -8 13.2627 8.69274   7
  -6   4  -8 23.3586 16.8407   6
  -6   4  -8 0.57246 6.81747  22
  -6   4  -8 30.3580 11.9726  18
  -6   4  -9 67.9462 15.7816  22
  -6   4  -9 73.4000 18.4924  11
   6  -3  -8 12419.0 345.652  25
   6  -3  -8 12095.5 397.446  22
   6  -3  -7 22937.5 590.281  25
   6  -3  -7 21598.5 660.196  22
  -6   3   6 2127.28 135.507  28
   6  -3  -6 2123.03 175.204  22
  -6   3   5 66.9448 25.5942  28
   6  -3  -5 40.0849 19.4143  22
  -6   3   4 592.022 74.5149  28
   6  -3  -4 540.218 94.2433  22
  -6   3   3 14.1262 14.2172  28
   6  -3  -3 60.4836 68.3520   2
   6  -3  -3 3.32578 16.7766  22
   6  -3  -2 1278.76 131.180  22
   6  -3  -2 1389.66 223.930   2
  -6   3   1 1299.74 87.1794   7
   6  -3  -1 1371.04 211.822   2
   6  -3   0 668.365 145.667   2
  -6   3   0 684.499 66.5561   7
  -6   3  -1 153.838 29.4904   7
   6  -3   1 131.318 63.1192   2
   6  -3   2 230.719 74.5880   2
  -6   3  -2 262.927 43.6283   7
  -6   3  -3 5827.12 239.760   7
  -6   3  -4 149835. 3061.99  23
  -6   3  -4 154883. 3080.39   6
  -6   3  -4 156063. 3098.04  28
  -6   3  -4 154926. 3095.17  21
  -6   3  -5 60646.1 1310.48  23
  -6   3  -5 61350.4 1350.97   6
  -6   3  -5 60884.8 1350.46  21
  -6   3  -6 69.5417 26.0638   6
  -6   3  -6 83.5666 23.1193  21
  -6   3  -7 5812.29 240.206   7
  -6   3  -7 6027.43 260.351   6
  -6   3  -7 6205.34 247.464  21
  -6   3  -7 6048.77 246.658  18
  -6   3  -8 1117.98 83.2359   7
  -6   3  -8 1100.86 96.9076   6
  -6   3  -8 1056.66 79.5941  19
  -6   3  -8 1142.53 89.1363  18
  -6   3  -9 33.9343 11.3423  22
  -6   3  -9 32.2684 6.57798  18
  -6   3 -10 11.9495 5.03594  22
  -6   3 -10 14.3191 6.08092  11
   6  -2  -8 1048.04 71.3595  25
   6  -2  -8 1095.65 94.1662  22
  -6   2   7 20.1754 13.6002  28
   6  -2  -7 32.1564 16.3609  25
   6  -2  -7 3.92420 20.0719  22
  -6   2   6 674.668 78.4623  28
   6  -2  -6 605.795 94.7403  22
  -6   2   5 418.463 63.4259  28
   6  -2  -5 443.420 79.9116  22
  -6   2   4 1276.91 113.481  28
   6  -2  -4 1145.01 127.274  22
   6  -2  -3 1609.85 145.315  22
  -6   2   3 1718.20 127.634  28
   6  -2  -3 2000.12 300.158   2
   6  -2  -2 27949.4 1140.75   2
   6  -2  -1 3098.53 321.801   2
   6  -2   0 192.391 79.1478   2
  -6   2   0 213.119 35.0372   7
  -6   2  -1 4494.22 185.188   7
   6  -2   1 4198.74 335.011   2
  -6   2  -2 10471.9 334.435   7
   6  -2   2 12946.3 573.234   2
  -6   2  -3 17.0362 9.91411   7
  -6   2  -4 1978.23 129.654   7
  -6   2  -5 1949.45 132.621   7
  -6   2  -5 2003.75 134.687   6
  -6   2  -5 2067.00 126.393  21
  -6   2  -6 71.2175 25.3301   7
  -6   2  -6 28.6608 23.3398   6
  -6   2  -6 68.5549 17.8665  21
  -6   2  -7 630.420 70.9240   7
  -6   2  -7 678.005 82.5375   6
  -6   2  -7 604.482 68.5124  21
  -6   2  -8 32791.6 831.807   6
  -6   2  -8 32580.7 790.203  19
  -6   2  -8 32552.1 774.229  18
  -6   2  -9 2405.42 148.565   6
  -6   2  -9 2476.44 140.837  22
  -6   2  -9 2448.40 127.221  19
  -6   2  -9 2451.34 120.286  18
  -6   2 -10 2337.60 117.483  22
  -6   2 -10 2043.99 101.148  11
  -6   2 -11 3088.25 104.443  22
   6  -1  -8 291.822 33.2240  25
   6  -1  -8 875.580 75.4203  22
  -6   1   7 955.047 84.6882  28
   6  -1  -7 990.575 103.796  22
  -6   1   6 4854.19 232.005  28
   6  -1  -6 4920.60 262.954  22
  -6   1   5 278.334 60.0736  28
   6  -1  -5 276.991 56.5776  22
  -6   1   4 864.391 97.5759  28
   6  -1  -4 860.413 106.484  22
  -6   1   3 1058.73 92.6686  27
   6  -1  -3 1241.42 242.026   2
  -6   1   3 1137.03 109.445  28
   6  -1  -3 1024.25 114.545  22
   6  -1  -2 269.455 111.709   2
   6  -1  -1 44.8263 46.0178   2
  -6   1   1 101.263 42.6293   4
   6  -1   0 304.603 89.4829   2
  -6   1   0 275.027 77.8059   4
  -6   1  -1 14599.1 394.649   7
  -6   1  -1 14916.9 641.294   4
  -6   1  -2 78949.7 1661.90   7
  -6   1  -2 83394.9 2032.42   4
  -6   1  -3 6977.08 252.411   7
  -6   1  -4 4659.31 201.896   7
  -6   1  -5 33188.5 791.293   7
  -6   1  -5 32114.6 794.687   6
  -6   1  -6 2645.74 140.172  26
  -6   1  -6 2550.84 147.058   7
  -6   1  -6 2496.76 158.624   6
  -6   1  -6 2535.27 137.097  21
  -6   1  -7 269.038 43.2220  26
  -6   1  -7 253.507 42.9538   7
  -6   1  -7 257.812 51.8199   6
  -6   1  -7 232.550 40.2367  21
  -6   1  -8 301.173 55.6203   6
  -6   1  -8 322.056 47.0815  21
  -6   1  -9 260.570 52.6816   6
  -6   1  -9 237.708 42.2091  19
  -6   1 -10 90.8894 24.1435  22
  -6   1 -10 60.6326 16.8907  19
  -6   1 -11-13.8783 13.0485  22
  -6   1 -11-7.84862 6.86660  19
  -6   0   7 1091.20 82.4782  28
   6   0  -7 994.449 74.3350  25
  -6   0   6 13131.7 431.123  28
   6   0  -6 15062.9 477.641  22
   6   0  -5 19675.6 598.638  22
  -6   0   5 18607.9 578.401  28
  -6   0   4 1902.89 132.369  27
  -6   0   4 1900.12 150.322  28
   6   0  -4 1682.90 144.952  22
   6   0  -3 4874.53 486.656   2
  -6   0   3 4312.27 227.679  28
  -6   0   3 4309.71 209.905  27
   6   0  -3 4119.37 224.886  22
  -6   0   2 394.043 59.2351  27
  -6   0   2 361.944 61.4238  28
   6   0  -2 393.087 128.598   2
   6   0  -2 263.091 53.4052  22
   6   0  -1 549.071 141.511   2
  -6   0   1 574.624 116.105   4
  -6   0   0 5009.48 359.525   4
   6   0   0 4773.69 403.333   2
   6   0   1 42.5570 24.5538   2
  -6   0  -1 105.714 53.0210   4
  -6   0  -2 3231.17 150.945   7
  -6   0  -2 3193.46 274.116   4
  -6   0  -3 19.4362 13.7684   7
  -6   0  -3 12.6308 19.4918   4
  -6   0  -4 963.598 82.0488   7
  -6   0  -5 34677.7 824.324   7
  -6   0  -6 330230. 6096.20  26
  -6   0  -6 296729. 6091.33   7
  -6   0  -7 49201.5 1108.47  26
  -6   0  -7 50681.8 1100.21   7
  -6   0  -7 46966.1 1153.65   6
  -6   0  -8 130.368 31.2667  16
  -6   0  -8 130.477 31.3916  26
  -6   0  -8 170.027 46.1841   6
  -6   0  -9 6570.35 236.541  16
  -6   0  -9 6185.00 259.617  19
  -6   0 -10 283.127 45.6812  22
  -6   0 -10 364.396 46.8800  16
  -6   0 -10 320.834 48.5509  19
  -6   0 -11 635.558 54.9912  22
  -6   0 -11 629.321 54.5293  19
  -6   0 -12 326.402 31.3487  13
  -6  -1   7 336.611 40.3322  28
   6   1  -7 240.458 28.3475  25
   6   1  -7 336.348 43.7670  22
  -6  -1   6 1148.60 98.7054  28
   6   1  -6 1089.13 99.6803  22
  -6  -1   5 780.534 78.7091  27
   6   1  -5 765.834 93.6302  22
  -6  -1   4 1911.80 152.057  28
   6   1  -4 1812.68 151.793  22
  -6  -1   4 2062.76 142.572  27
  -6  -1   3 6338.43 283.361  27
   6   1  -3 6439.22 294.976  22
  -6  -1   2 444.702 65.0267  28
  -6  -1   2 471.817 64.2105  27
   6   1  -2 459.012 139.463   2
   6   1  -2 365.044 59.1431  22
   6   1  -1 78667.1 2326.01   2
  -6  -1   1 83182.9 2113.14   4
  -6  -1   0 107582. 2521.88   4
   6   1   0 92184.2 2609.70   2
  -6  -1  -1 7842.09 471.049   4
  -6  -1  -2 5164.69 364.673   4
  -6  -1  -3 3726.31 301.669   4
  -6  -1  -4 615.358 64.3363   7
  -6  -1  -4 508.203 104.654   4
  -6  -1  -5 702.152 68.6779   7
  -6  -1  -5 746.462 130.415   4
  -6  -1  -6 9642.68 309.856   7
  -6  -1  -7 1964.53 123.500  16
  -6  -1  -7 2122.89 133.069  26
  -6  -1  -8 562.836 65.5646  16
  -6  -1  -8 679.214 75.6121  26
  -6  -1  -9 2467.74 151.707  26
  -6  -1  -9 2475.76 142.618  16
  -6  -1  -9 2394.36 156.972  19
  -6  -1 -10 12021.0 361.659  16
  -6  -1 -10 12324.9 368.999  22
  -6  -1 -10 12246.8 392.919  19
  -6  -1 -11 3383.00 142.714  22
  -6  -1 -11 3564.82 161.623  19
  -6  -1 -12 1170.61 72.2001  13
  -6  -1 -12 1055.78 63.3233  19
  -6  -2   7 33.2593 11.5953  28
  -6  -2   6 3916.74 178.930  28
   6   2  -6 4637.40 184.006  22
  -6  -2   5 2766.04 170.395  28
  -6  -2   5 2810.14 149.260  27
   6   2  -5 3280.32 175.808  22
  -6  -2   4 339.574 63.8218  28
  -6  -2   4 485.606 66.2683  27
   6   2  -4 350.675 61.4473  22
  -6  -2   3 344.359 63.4713  28
  -6  -2   3 359.625 60.5296  27
   6   2  -3 332.333 57.4005  22
  -6  -2   2 10092.3 380.953  28
  -6  -2   2 10380.0 378.481  27
   6   2  -2 9580.63 364.265  22
  -6  -2   1 1944.90 134.808   8
  -6  -2   1 1890.06 137.166  28
  -6  -2   1 1865.48 134.468  27
  -6  -2   1 1742.62 213.217   4
  -6  -2   0 313.888 84.1659   4
  -6  -2  -1 6328.91 417.081   4
  -6  -2  -2 283.982 83.3941   4
  -6  -2  -3 95885.2 2378.44   4
  -6  -2  -4 118215. 2793.58   4
  -6  -2  -5 20.7692 12.0327   4
  -6  -2  -6 5287.39 344.647   4
  -6  -2  -7 12319.7 369.324  15
  -6  -2  -7 11786.3 378.923  26
  -6  -2  -7 13152.7 375.090  12
  -6  -2  -7 11858.7 374.229  16
  -6  -2  -8 1158.10 98.1771  16
  -6  -2  -8 1137.84 101.979  26
  -6  -2  -8 1109.24 96.9471  12
  -6  -2  -8 1180.08 108.115  19
  -6  -2  -9 467.579 61.6733  16
  -6  -2  -9 498.157 65.6918  26
  -6  -2  -9 523.358 71.2491  19
  -6  -2 -10 967.666 86.7824  16
  -6  -2 -10 1074.68 102.136  19
  -6  -2 -11 20.7177 8.61285  16
  -6  -2 -11 1.71929 17.6421  19
  -6  -2 -12 1550.90 91.6523  13
  -6  -2 -12 1445.01 87.2592  19
  -6  -3   6 293.909 35.8212  28
  -6  -3   5 2494.11 145.706  28
  -6  -3   5 2125.34 119.272  27
  -6  -3   4 3293.88 189.003  28
  -6  -3   4 2826.55 166.332  27
  -6  -3   3 1734.87 140.555  28
  -6  -3   3 1517.47 131.501  27
  -6  -3   2 15588.8 500.163  28
  -6  -3   2 15882.9 502.190  27
  -6  -3   1 8787.01 337.887  28
  -6  -3   1 9502.97 350.533  27
  -6  -3   0 7737.87 295.301  28
  -6  -3   0 7902.17 309.553   8
  -6  -3   0 7509.14 306.547  27
  -6  -3  -1 540.403 155.886   1
  -6  -3  -2 3786.17 364.446   1
  -6  -3  -2 3017.64 283.913   4
  -6  -3  -3 21.4449 25.8924   4
  -6  -3  -3 12.5845 23.2551   1
  -6  -3  -4 8781.57 500.717   4
  -6  -3  -4 9113.36 542.264   1
  -6  -3  -5 2996.75 305.055   1
  -6  -3  -5 2878.67 269.303   4
  -6  -3  -6 2704.97 149.470  26
  -6  -3  -6 3145.23 261.287   4
  -6  -3  -7 38506.6 937.060  26
  -6  -3  -7 40750.6 924.858  15
  -6  -3  -7 39459.8 934.585  16
  -6  -3  -7 41346.2 931.241  12
  -6  -3  -8 102642. 2191.96  16
  -6  -3  -8 102852. 2178.62  15
  -6  -3  -8 103339. 2202.28  26
  -6  -3  -8 108867. 2177.21  12
  -6  -3  -8 108935. 2225.94  19
  -6  -3  -9 58.7940 25.0188  16
  -6  -3  -9 77.6858 29.7016  26
  -6  -3  -9 61.3913 24.7220  12
  -6  -3  -9 39.9021 19.0446  19
  -6  -3 -10 332.931 50.6944  16
  -6  -3 -10 417.946 59.1763  26
  -6  -3 -10 477.481 69.4526  19
  -6  -3 -11 802.007 74.4793  16
  -6  -3 -11 727.052 75.5364  19
  -6  -3 -12 24.6594 12.5400  16
  -6  -3 -12 25.5477 13.2500  13
  -6  -3 -12 15.6407 9.55799  19
  -6  -3 -13 134.808 19.7242  19
  -6  -4   5 259.355 32.2599  27
  -6  -4   5 291.738 38.2741  28
  -6  -4   4 589.543 66.4009  27
  -6  -4   4 573.565 69.1232  28
  -6  -4   3 1415.59 119.639  28
  -6  -4   3 1479.55 119.921  27
  -6  -4   2 938.903 89.8301   8
  -6  -4   2 878.660 96.1544  28
  -6  -4   2 1082.16 107.404  27
  -6  -4   1 3140.30 184.266   8
  -6  -4   1 3132.10 184.361  28
  -6  -4   1 3277.43 195.759  27
  -6  -4   0 13094.2 424.833  28
  -6  -4   0 13597.7 453.429   8
  -6  -4   0 13201.5 443.326  27
  -6  -4  -1 131824. 2740.52   8
  -6  -4  -1 130740. 2715.17  27
  -6  -4  -1 138827. 3660.62   1
  -6  -4  -2 115314. 2353.02   8
  -6  -4  -2 109274. 2306.50  27
  -6  -4  -2 111403. 3073.60   1
  -6  -4  -3 1804.92 262.892   1
  -6  -4  -4 2392.06 255.037   4
  -6  -4  -4 2678.96 314.434   1
  -6  -4  -5 1378.20 226.356   1
  -6  -4  -5 1132.69 172.953   4
  -6  -4  -6 111.477 29.0671  26
  -6  -4  -6 85.2888 19.5545  12
  -6  -4  -6 109.922 50.1082   4
  -6  -4  -7 1141.98 98.9091  26
  -6  -4  -7 1133.14 92.9684  15
  -6  -4  -7 1023.52 200.705   1
  -6  -4  -7 1239.68 97.6166  12
  -6  -4  -7 1155.32 97.6033  19
  -6  -4  -8 3889.67 197.845  26
  -6  -4  -8 3768.57 190.379  12
  -6  -4  -8 3957.94 198.970  16
  -6  -4  -8 3821.11 188.066  15
  -6  -4  -8 3966.28 202.327  19
  -6  -4  -9 38.9075 23.4586  16
  -6  -4  -9 13.5400 13.4848  15
  -6  -4  -9 9.54220 9.08903  26
  -6  -4  -9 42.9928 19.0275  12
  -6  -4  -9 8.80969 11.2060  19
  -6  -4 -10 22.2191 12.6853  16
  -6  -4 -10 81.4677 27.2012  26
  -6  -4 -10 76.4147 28.3763  19
  -6  -4 -11 1134.76 90.8228  16
  -6  -4 -11 1044.80 92.3189  19
  -6  -4 -12 94.8118 24.5238  16
  -6  -4 -12 91.8485 19.7077  13
  -6  -4 -12 94.0873 22.9643  19
  -6  -4 -13 9974.71 256.717  19
  -6  -5   4 2162.09 111.287  27
  -6  -5   4 2285.26 110.207  28
  -6  -5   3 4.19451 11.5366  28
  -6  -5   3 12.2795 13.1881  27
  -6  -5   2 1008.54 93.2117  28
  -6  -5   2 876.417 80.7311   8
  -6  -5   2 1067.96 103.232  27
  -6  -5   1 230.081 48.4638  28
  -6  -5   1 144.271 37.0016   8
  -6  -5   1 199.843 46.3699  27
  -6  -5   0 2276.02 161.873   8
  -6  -5   0 2350.97 164.884  27
   6   5   0 1949.74 156.349  20
  -6  -5  -1 1948.83 155.879   8
  -6  -5  -1 2266.91 163.416  27
  -6  -5  -2 7971.71 299.049  27
  -6  -5  -2 9086.94 629.518   5
  -6  -5  -3 8300.17 325.818   8
  -6  -5  -3 8062.82 286.609  27
  -6  -5  -4 164.345 47.0528   8
  -6  -5  -4 125.968 74.0357   1
  -6  -5  -5 52591.4 1841.14   1
  -6  -5  -5 58164.5 1269.50   8
  -6  -5  -5 53980.4 1605.36   4
  -6  -5  -6 21941.0 587.247  26
  -6  -5  -6 19860.5 1005.51   1
  -6  -5  -6 22333.3 562.574  12
  -6  -5  -6 20616.8 827.986   4
  -6  -5  -7 4133.11 199.555  26
  -6  -5  -7 3931.58 190.891  15
  -6  -5  -7 3995.69 426.244   1
  -6  -5  -7 4123.27 188.900  12
  -6  -5  -8 2121.64 144.946  16
  -6  -5  -8 2104.08 140.099  26
  -6  -5  -8 2263.00 142.793  15
  -6  -5  -8 2243.80 140.072  12
  -6  -5  -9 203.744 43.7324  16
  -6  -5  -9 211.196 43.7010  15
  -6  -5  -9 142.510 36.7983  26
  -6  -5  -9 250.366 46.0644  12
  -6  -5  -9 179.574 42.7933  19
  -6  -5 -10 68.5236 20.5067  16
  -6  -5 -10 78.0506 27.3699  26
  -6  -5 -10 94.1447 26.0296  12
  -6  -5 -10 94.8413 25.8394  19
  -6  -5 -11-1.84638 7.71275  12
  -6  -5 -11 6.78559 12.4542  19
  -6  -5 -12 305.574 40.8850  16
  -6  -5 -12 299.055 41.4791  19
  -6  -5 -13 167.598 22.3698  19
  -6  -6   3 2157.95 112.459  27
  -6  -6   2 16.9000 10.1679   8
  -6  -6   2 14.3845 12.5747  27
  -6  -6   1 7887.67 298.011   8
  -6  -6   1 8521.41 321.654  27
  -6  -6   0 11715.7 405.060   8
  -6  -6   0 11899.6 406.924  27
  -6  -6  -1 154.480 40.0059   8
  -6  -6  -1 156.879 38.2497  27
   6   6   1 92.6458 30.1234  20
  -6  -6  -2 3013.24 191.369   8
  -6  -6  -2 3089.69 175.293  27
  -6  -6  -3 1067.36 109.548   8
  -6  -6  -4 200.190 44.7950   8
  -6  -6  -5 4274.75 212.346   8
  -6  -6  -6 790.930 77.9654   8
  -6  -6  -6 705.207 76.4373  26
  -6  -6  -6 641.585 70.7601  12
  -6  -6  -7 173.222 37.7718  26
  -6  -6  -7 242.948 42.6544  15
  -6  -6  -7 187.927 38.0896  12
  -6  -6  -8 4124.34 197.636  26
  -6  -6  -8 3999.43 201.445  15
  -6  -6  -8 4090.72 207.124  16
  -6  -6  -8 4033.31 194.058  12
  -6  -6  -9 15091.8 457.377  16
  -6  -6  -9 14493.6 435.523  26
  -6  -6  -9 14591.2 444.142  15
  -6  -6  -9 14450.7 433.206  12
  -6  -6 -10 6908.18 265.572  16
  -6  -6 -10 6581.65 256.196  15
  -6  -6 -10 6689.48 250.914  26
  -6  -6 -10 6439.84 246.463  12
  -6  -6 -10 6469.89 244.930  19
  -6  -6 -11 3680.05 163.753  12
  -6  -6 -11 3845.88 168.583  19
  -6  -6 -11 3847.60 174.232  16
  -6  -6 -12 48.3086 16.7328  16
  -6  -6 -12 55.7967 18.7817  19
  -6  -7   2 1.08484 5.86649  27
  -6  -7   1 215.269 34.5850   8
  -6  -7   1 196.427 36.4504  27
  -6  -7   0 1896.66 127.397  27
  -6  -7   0 1698.53 124.492   8
  -6  -7  -1 91.8469 32.0555   8
  -6  -7  -1 47.8140 20.2153  27
   6   7   1 46.4542 17.4827  20
  -6  -7  -2 15335.5 512.046   8
  -6  -7  -2 16579.7 477.864  27
  -6  -7  -3 90310.0 1979.24   8
  -6  -7  -4 24573.0 689.426   8
  -6  -7  -5 1689.53 132.176   8
  -6  -7  -5 1865.95 117.377  12
  -6  -7  -6 3591.92 183.152   8
  -6  -7  -6 3402.09 171.627  12
  -6  -7  -7 906.406 85.5083  12
  -6  -7  -8 67.3895 24.0615  16
  -6  -7  -8 117.284 28.1656  15
  -6  -7  -8 99.6649 26.0316  12
  -6  -7  -9 1906.46 130.917  16
  -6  -7  -9 2001.20 133.049  15
  -6  -7  -9 1976.37 125.520  12
  -6  -7 -10 782.270 76.7362  16
  -6  -7 -10 775.068 75.8825  15
  -6  -7 -10 782.574 72.7161  12
  -6  -7 -11 23.9520 12.1027  16
  -6  -7 -11 15.0816 9.55195  12
  -6  -7 -12 172.182 25.9576  16
  -6  -8   1 19.3879 7.46819  27
  -6  -8   0 500.719 53.8796   8
  -6  -8   0 519.122 51.2374  27
  -6  -8  -1 841.656 83.4602   8
  -6  -8  -1 952.409 76.9999  27
  -6  -8  -2 1649.08 128.729   8
  -6  -8  -3 2832.62 177.355   8
  -6  -8  -4 2240.70 156.705   8
  -6  -8  -5 286.123 52.2507   8
  -6  -8  -5 198.298 35.3533  12
  -6  -8  -6 435.406 59.3678   8
  -6  -8  -6 414.262 52.5500  12
  -6  -8  -7 3706.44 185.070  16
  -6  -8  -7 3651.57 175.056  12
  -6  -8  -8 331.193 51.6256  16
  -6  -8  -8 317.970 50.7271  15
  -6  -8  -8 340.457 49.1654  12
  -6  -8  -9 5116.41 215.096  15
  -6  -8  -9 5254.67 212.613  16
  -6  -8  -9 4964.72 204.225  12
  -6  -8 -10-10.7349 8.77786  16
  -6  -8 -10 9.61469 10.7432  15
  -6  -8 -10-2.64090 7.02227  12
  -6  -8 -11 585.958 51.7115  16
  -6  -8 -11 507.595 48.9667  12
  -6  -9  -1 8595.36 257.134   8
  -6  -9  -2 793.808 72.6733   8
  -6  -9  -3 6.00942 9.77688   8
  -6  -9  -4 308.720 50.5553   8
  -6  -9  -5 794.319 80.0325   8
  -6  -9  -6 253.477 40.9107   8
  -6  -9  -6 274.320 39.4673  16
  -6  -9  -6 263.885 39.2014  12
  -6  -9  -7 4930.49 191.449  16
  -6  -9  -7 5221.30 214.676  15
  -6  -9  -7 4818.82 194.096  12
  -6  -9  -8-3.42754 6.34989  16
  -6  -9  -8 27.3790 9.79474  15
  -6  -9  -8 9.50638 12.3933  12
  -6  -9  -9 2865.43 127.174  16
  -6  -9  -9 3119.82 149.642  15
  -6  -9  -9 3033.24 140.791  12
  -6  -9 -10 668.284 49.8759  16
  -6  -9 -10 861.756 66.5789  15
  -6  -9 -10 759.094 60.9456  12
  -6  -9 -11 2409.74 100.593  12
  -6 -10  -3 974.566 67.9384   8
  -6 -10  -4 5553.18 198.479   8
  -6 -10  -5 20405.3 501.760   8
  -6 -10  -6 96.0307 21.2105   8
  -6 -10  -6 64.1696 14.3995  12
  -6 -10  -7 608.335 57.5031  15
  -6 -10  -7 531.681 45.2691  12
  -6 -10  -8-1.10007 8.58667  15
  -6 -10  -8-1.90717 8.14843  12
  -6 -10  -9 11.3998 6.54853  15
  -6 -10  -9-2.35855 6.93904  12
  -6 -10 -10 11.6512 7.64838  12
  -7  10   3 1859.45 83.5468  17
  -7  10   2 1125.77 64.7698  17
  -7  10   1 974.318 58.6896  17
   7  -9  -5 217.691 33.3489  24
   7  -9  -4 529.894 56.9690  24
  -7   9   4 488.022 44.1613  23
   7  -9  -3 155.476 32.0783  24
  -7   9   3 149.059 26.4796  23
  -7   9   2 455.769 53.3810  17
   7  -9  -2 302.934 42.8270  24
  -7   9   2 408.596 47.8413  23
  -7   9   1 18.4700 9.02815  17
   7  -9  -1 25.7324 13.1403  24
  -7   9   1 19.6875 11.9256  23
  -7   9   0 4381.60 171.044  17
  -7   9   0 4221.80 170.406  23
  -7   9  -1 13912.6 363.340  17
  -7   9  -2 1666.45 80.6106  17
   7  -8  -6 351.992 42.3577  10
  -7   8   5 7875.38 239.696  23
   7  -8  -5 7798.12 260.568  10
  -7   8   4 1084.40 82.6337  23
  -7   8   3 589.390 64.2585  23
  -7   8   2 693.463 72.5186  23
  -7   8   1 196.749 37.0936  23
  -7   8   0 291.862 50.5497  17
  -7   8   0 223.425 42.0072  23
  -7   8  -1 3.46795 6.59350  17
  -7   8  -1 11.0977 6.15674   7
  -7   8  -1 7.17547 8.18528  23
  -7   8  -2 3276.59 147.731  17
  -7   8  -2 3466.05 149.286   7
  -7   8  -2 3425.20 159.033  23
  -7   8  -2 3252.82 148.553  18
  -7   8  -3-7.24816 10.7388  17
  -7   8  -3 3.95504 5.77233   7
  -7   8  -3 8.61832 7.19936  18
  -7   8  -4 1526.07 78.4456  18
   7  -7  -7 22.4793 9.79296  10
  -7   7   6 936.102 66.0394  23
   7  -7  -6 1027.11 88.8158  10
  -7   7   5 698.355 66.5676  23
   7  -7  -5 637.911 77.4394  10
  -7   7   4 482.096 60.5642  23
   7  -7  -4 381.889 58.4972  10
  -7   7   3 17.0904 15.8618  23
  -7   7   2 2746.36 163.591  23
  -7   7   1 20715.0 576.938  23
  -7   7   0 232.076 37.1252   7
  -7   7   0 192.595 40.0012  23
  -7   7  -1 10103.8 323.490   7
  -7   7  -1 10248.9 346.420  23
  -7   7  -2 16529.7 458.357  17
  -7   7  -2 16218.6 463.039   7
  -7   7  -2 16989.8 476.661  23
  -7   7  -2 15639.6 457.427  21
  -7   7  -3 93.0431 23.3885  17
  -7   7  -3 104.192 26.1588   7
  -7   7  -3 88.5249 25.7862  23
  -7   7  -4 253.439 38.5146   7
  -7   7  -4 256.025 40.6791  18
  -7   7  -4 234.534 32.2611  17
  -7   7  -5 238.712 33.2986   7
  -7   7  -5 210.519 31.6330  18
  -7   7  -6-1.35304 4.47061  18
   7  -6  -7 5017.40 149.080  25
  -7   6   7 3703.02 137.137  23
  -7   6   6 2081.08 116.055  23
  -7   6   5 5164.55 221.265  23
  -7   6   4 3155.22 176.019  23
  -7   6   3 678.979 79.9462  23
  -7   6   2 1245.48 108.262  23
  -7   6   1 271.881 52.5107  23
  -7   6   0 1831.01 122.691  28
  -7   6   0 2003.67 123.281   7
  -7   6   0 1969.73 138.426  23
  -7   6   0 1617.34 117.793  21
  -7   6  -1 1927.74 128.812   7
  -7   6  -1 1963.03 135.761  23
  -7   6  -1 1865.24 131.281  21
  -7   6  -2 19885.4 559.709   7
  -7   6  -2 20609.2 567.900  23
  -7   6  -2 20008.2 565.036  21
  -7   6  -3 26600.9 653.641  17
  -7   6  -3 26211.8 686.741   7
  -7   6  -3 26968.8 681.688  23
  -7   6  -3 26074.9 692.547  21
  -7   6  -4 81.0791 23.1152  17
  -7   6  -4 133.295 33.6029   7
  -7   6  -4 89.6387 25.1223  23
  -7   6  -4 126.980 31.7711  21
  -7   6  -5 450.760 55.9208   7
  -7   6  -5 456.677 57.4474  18
  -7   6  -6 1688.36 97.9181   7
  -7   6  -6 1736.32 101.078  18
  -7   6  -7 167.378 22.4315  22
  -7   6  -7 226.589 27.1959  18
   7  -5  -7 560.987 51.1388  25
  -7   5   7 457.338 45.0468  23
   7  -5  -6 25.0382 11.5408  25
  -7   5   6 6.29060 10.9676  23
   7  -5  -5 1431.96 101.382  25
  -7   5   5 1395.28 111.155  23
  -7   5   4 23284.8 642.840  23
  -7   5   3 28640.0 755.049  23
  -7   5   2 1043.25 90.9438  28
  -7   5   2 988.084 98.2941  23
  -7   5   1 14228.5 433.286  28
  -7   5   1 14664.1 455.781  23
  -7   5   0 398.173 58.5552  28
  -7   5   0 377.176 52.8661   7
  -7   5   0 367.623 58.2184  23
  -7   5  -1 189.355 38.9490  28
  -7   5  -1 171.558 35.8583   7
  -7   5  -1 155.325 35.4824  23
  -7   5  -1 158.145 37.6839  21
  -7   5  -2 3140.56 174.041  28
  -7   5  -2 3218.50 177.466   7
  -7   5  -2 3146.40 171.096  23
  -7   5  -2 3106.98 175.995  21
  -7   5  -3 114.372 29.6856  17
  -7   5  -3 102.286 31.9773   7
  -7   5  -3 82.1756 27.4465  23
  -7   5  -3 93.2894 28.3190  21
  -7   5  -4 2228.65 147.844   7
  -7   5  -4 2184.78 136.303  23
  -7   5  -4 2298.57 150.247  21
  -7   5  -5 84.0271 26.6767   7
  -7   5  -5 68.2795 24.9134  21
  -7   5  -6 1561.11 107.458   7
  -7   5  -6 1577.93 109.069  18
  -7   5  -7-4.34932 8.78408   7
  -7   5  -7 18.4553 14.9347  18
  -7   5  -8 8720.63 240.608  22
  -7   5  -8 9269.57 236.832  18
   7  -4  -7 2.17719 5.42392  25
  -7   4   7 3.05401 9.90509  23
   7  -4  -6 42.6723 16.9470  25
  -7   4   6 34.1957 18.3432  23
   7  -4  -5 167.422 35.5728  25
  -7   4   4 2322.77 142.923  28
  -7   4   3 1943.81 132.117  28
  -7   4   3 1941.96 143.921  23
  -7   4   2 229.230 44.3520  28
  -7   4   2 237.073 48.2091  23
  -7   4   1 3375.63 178.509  28
  -7   4   1 3088.00 176.260  23
  -7   4   0 31646.5 784.809  28
  -7   4   0 31651.9 763.317   7
  -7   4   0 31174.6 783.184  23
   7  -4   0 29877.0 1199.81   2
  -7   4  -1 9570.17 327.212   7
  -7   4  -1 9532.59 327.635  23
   7  -4   1 8817.09 574.697   2
  -7   4  -1 9862.38 336.988  28
  -7   4  -2 2868.30 164.804  28
  -7   4  -2 2989.44 169.491   7
  -7   4  -2 2811.24 154.998  23
  -7   4  -3 20183.8 570.271   7
  -7   4  -3 19920.0 559.695  28
  -7   4  -3 19890.6 537.815  23
  -7   4  -3 19576.8 560.137  21
  -7   4  -4 8315.15 324.804   7
  -7   4  -4 8635.56 300.600  23
  -7   4  -4 8993.62 327.316  21
  -7   4  -5 354.131 56.7839   7
  -7   4  -5 331.039 48.1420  23
  -7   4  -5 369.510 57.6544  21
  -7   4  -6 510.393 65.2784   7
  -7   4  -6 516.101 66.0664  21
  -7   4  -7 81.5790 21.6274   7
  -7   4  -7 75.0115 21.0083  19
  -7   4  -7 79.1240 21.4027  18
  -7   4  -8 676.493 62.7899  22
  -7   4  -8 687.837 57.5983  18
  -7   4  -9 57.4228 14.2363  22
  -7   4  -9 54.0632 13.2583  11
   7  -3  -7 303.285 38.7498  25
  -7   3   6 4310.20 176.552  28
   7  -3  -6 4836.91 202.185  25
   7  -3  -5 13343.5 529.365  22
  -7   3   5 15560.9 443.490  28
  -7   3   4 6320.21 264.158  28
   7  -3  -4 5643.48 317.169  22
  -7   3   3 24733.7 665.178  28
  -7   3   2 797.181 87.0244  28
  -7   3   1 501.573 64.2968  28
  -7   3   1 477.211 63.7518  23
  -7   3   0 1211.48 99.9298  28
   7  -3   0 985.622 183.305   2
  -7   3   0 1127.20 89.7036   7
  -7   3   0 1094.99 93.7998  23
  -7   3  -1 2958.20 161.806  28
  -7   3  -1 2768.75 155.024   7
  -7   3  -1 2834.90 152.508  23
  -7   3  -2 0.56691 13.8951  28
  -7   3  -2 12.7855 17.6626   7
  -7   3  -2 2.63243 6.30770  23
  -7   3  -3 757.677 83.9867   7
  -7   3  -3 649.080 64.0652  23
  -7   3  -3 760.065 78.9951  28
  -7   3  -4 22969.4 618.987  28
  -7   3  -4 23528.9 634.452   7
  -7   3  -4 22823.8 583.092  23
  -7   3  -4 23029.6 616.577  21
  -7   3  -5 10001.2 358.548   7
  -7   3  -5 10054.1 347.210  21
  -7   3  -6 9364.40 343.112   7
  -7   3  -6 10551.0 351.881  21
  -7   3  -7 236.498 43.5684   7
  -7   3  -7 260.070 44.7186  21
  -7   3  -7 251.889 43.9260  18
  -7   3  -8 201.990 33.1223   7
  -7   3  -8 206.023 33.1552  19
  -7   3  -8 210.177 34.0900  18
  -7   3  -9 1029.01 75.1349  22
  -7   3  -9 920.386 57.9034  18
  -7   3 -10 346.421 31.2125  22
  -7   2   7 310.486 31.4216  28
   7  -2  -7 362.865 41.9347  25
  -7   2   6 327.401 47.8434  28
   7  -2  -6 279.152 59.1484  22
  -7   2   5 636.741 75.5143  28
   7  -2  -5 487.726 86.8610  22
  -7   2   4 860.064 93.1703  28
   7  -2  -4 681.971 107.273  22
  -7   2   3 16103.1 485.175  28
   7  -2  -3 12875.8 533.101  22
  -7   2   2 80172.4 1755.71  28
  -7   2   2 79867.0 1733.21  27
  -7   2   1 18902.7 544.433  28
  -7   2   1 19378.0 539.005  27
  -7   2   0 376.467 54.1987  28
  -7   2   0 394.593 56.5368  27
   7  -2   0 321.867 100.338   2
  -7   2  -1 8878.17 305.174  28
  -7   2  -1 8051.50 290.311   7
  -7   2  -1 8565.40 285.212  23
  -7   2  -2 1293.43 100.844  28
  -7   2  -2 1167.27 100.278   7
  -7   2  -3 367.920 55.3715  28
  -7   2  -3 250.844 50.4858   7
  -7   2  -4 3291.44 171.640  28
  -7   2  -4 3318.54 180.704   7
  -7   2  -5 1278.81 105.712  28
  -7   2  -5 1457.73 118.498   7
  -7   2  -5 1353.75 106.696  21
  -7   2  -6 194.474 40.9228   7
  -7   2  -6 84.6520 27.1767  21
  -7   2  -7 566.310 67.9835   7
  -7   2  -7 516.840 63.6102  21
  -7   2  -8 166.530 31.1286   7
  -7   2  -8 165.983 35.2117  19
  -7   2  -8 162.136 32.6336  18
  -7   2  -9 10543.9 321.047  22
  -7   2  -9 9689.33 298.238  19
  -7   2 -10 14051.9 339.579  22
  -7   2 -10 11805.5 299.154  19
  -7   1   7 1707.32 78.4085  28
   7  -1  -7 1642.39 83.7644  25
  -7   1   6 123.607 33.2654  28
   7  -1  -6 114.279 42.3066  22
  -7   1   5 895.561 92.1970  28
   7  -1  -5 759.445 101.838  22
  -7   1   4 68.6472 33.0202  28
   7  -1  -4 25.9612 12.3770  22
  -7   1   3 63.2875 22.2613  28
   7  -1  -3 51.7319 27.4271  22
  -7   1   3 70.2065 27.3241  27
  -7   1   2 1778.41 128.815  27
  -7   1   2 1675.07 131.075  28
   7  -1  -2 1440.59 147.369  22
   7  -1  -2 1927.53 289.294   2
  -7   1   1 2991.37 174.612  28
  -7   1   1 3104.50 173.232  27
  -7   1   1 2908.27 151.830  14
   7  -1  -1 3026.19 353.622   2
  -7   1   0 99.5326 30.0060  28
  -7   1   0 70.3811 23.9857  27
  -7   1   0 31.3565 7.26345  14
  -7   1   0 7.33437 27.0171   4
  -7   1  -1 18.3957 23.9557   4
  -7   1  -2 47903.1 1081.32   7
  -7   1  -3 7817.65 286.477   7
  -7   1  -4 26193.4 654.830  28
  -7   1  -4 25766.4 678.186   7
  -7   1  -5 6469.48 254.221  28
  -7   1  -5 6645.87 239.598  26
  -7   1  -5 6946.74 274.326   7
  -7   1  -6 4205.08 188.250  26
  -7   1  -6 4408.88 207.794   7
  -7   1  -6 4016.55 187.775  21
  -7   1  -7 448.573 56.5229  26
  -7   1  -7 377.713 55.5148   7
  -7   1  -7 416.988 56.1157  21
  -7   1  -8 458.552 54.2076  21
  -7   1  -9 87.4670 25.9754  19
  -7   1 -10 873.932 69.6264  22
  -7   1 -10 807.686 65.6527  19
  -7   1 -11 224.582 25.3488  22
   7   0  -7 43.9922 11.2559  25
  -7   0   6 471.161 53.2563  28
   7   0  -6 568.436 68.6418  22
  -7   0   5 1585.22 120.613  28
   7   0  -5 1626.71 138.969  22
  -7   0   4 12598.5 433.523  28
  -7   0   4 13023.1 399.261  27
   7   0  -4 12255.3 460.644  22
  -7   0   3 1615.45 135.466  28
  -7   0   3 1602.71 123.722  27
   7   0  -3 1310.53 137.644  22
  -7   0   2 19864.8 587.416  28
  -7   0   2 20294.3 567.037  27
  -7   0   1 22090.9 623.264  28
  -7   0   1 23336.5 581.126  14
  -7   0   1 23389.6 618.733  27
  -7   0   0 162.897 38.5768  28
  -7   0   0 155.841 40.3949  27
  -7   0   0 176.598 36.2864  14
  -7   0   0 136.631 69.5630   4
  -7   0  -1 99.7571 51.9794   4
  -7   0  -2 1526.88 207.499   4
  -7   0  -3 1690.14 218.844   4
  -7   0  -4 492.532 64.5848   7
  -7   0  -5 1914.02 120.864  28
  -7   0  -5 1999.31 122.186  26
  -7   0  -5 2136.89 135.941   7
  -7   0  -6 21817.9 581.166  28
  -7   0  -6 20993.8 593.879   7
  -7   0  -7 17144.3 483.239  26
  -7   0  -7 16348.5 473.249   7
  -7   0  -7 16666.4 457.006  21
  -7   0  -8 10526.2 347.511  26
  -7   0  -9 7.65078 13.7932  19
  -7   0 -10 3943.94 170.130  22
  -7   0 -10 4206.44 182.069  19
  -7   0 -11 468.502 41.2843  22
  -7   0 -11 562.324 49.1503  19
  -7  -1   6 180.146 30.8685  28
  -7  -1   5-6.13813 13.4861  28
  -7  -1   5 9.47421 12.4093  27
   7   1  -5-4.02924 7.66380  22
  -7  -1   4 904.504 101.884  28
  -7  -1   4 907.502 85.9253  27
   7   1  -4 855.304 102.771  22
  -7  -1   3 2513.15 178.781  28
  -7  -1   3 2505.58 162.422  27
   7   1  -3 2555.19 186.026  22
  -7  -1   2 6071.06 284.304  28
  -7  -1   2 6212.27 274.234  27
  -7  -1   2 6689.45 243.786  14
   7   1  -2 5617.57 291.185  22
  -7  -1   1 16825.2 520.779  28
  -7  -1   1 17931.7 519.952  27
  -7  -1   1 17215.4 483.300  14
  -7  -1   0 82265.8 1815.13  28
  -7  -1   0 85231.1 1786.61  14
  -7  -1   0 84666.4 1819.06  27
  -7  -1  -1 686.585 75.6126  28
  -7  -1  -1 710.356 78.4623  27
  -7  -1  -1 655.736 71.3465  14
  -7  -1  -1 648.689 137.544   4
  -7  -1  -2 6074.91 432.459   4
  -7  -1  -3 3423.19 310.832   4
  -7  -1  -4 794.632 147.388   4
  -7  -1  -5 1716.75 108.093  28
  -7  -1  -5 1741.21 115.427  26
  -7  -1  -5 1628.06 209.667   4
  -7  -1  -6 1296.71 95.0367  16
  -7  -1  -6 1345.43 104.968  26
  -7  -1  -6 1378.95 96.9353  28
  -7  -1  -7 2694.78 146.177  16
  -7  -1  -7 2636.85 154.228  26
  -7  -1  -8 1281.45 97.4806  16
  -7  -1  -8 1222.56 103.778  26
  -7  -1  -9 225.604 37.1307  16
  -7  -1  -9 260.181 44.9238  26
  -7  -1  -9 250.286 47.5076  19
  -7  -1 -10 692.728 62.4930  16
  -7  -1 -10 604.110 59.4796  22
  -7  -1 -10 709.252 73.3422  19
  -7  -1 -11 25630.8 612.439  19
  -7  -1 -12 4726.48 148.827  13
  -7  -1 -12 4622.47 142.870  19
  -7  -2   6 9947.30 252.927  28
  -7  -2   5 1366.19 94.3823  28
  -7  -2   5 1166.44 71.9538  27
  -7  -2   4 1368.61 111.134  28
  -7  -2   4 1251.75 97.3850  27
   7   2  -4 1390.77 112.279  22
  -7  -2   3 107.843 36.5779  28
  -7  -2   3 146.560 37.3367  27
   7   2  -3 133.297 40.2968  22
  -7  -2   2 2400.21 169.181  28
  -7  -2   2 2585.94 170.927  27
  -7  -2   2 2750.95 146.877  14
  -7  -2   1 4504.85 233.860  28
  -7  -2   1 4815.03 237.486  27
  -7  -2   0 1927.36 138.028  28
  -7  -2   0 1916.10 140.671  27
  -7  -2   0 2035.49 249.008   4
  -7  -2  -1 721.793 82.6760   8
  -7  -2  -1 537.318 65.9457  28
  -7  -2  -1 490.437 66.7026  27
  -7  -2  -1 571.992 131.485   4
  -7  -2  -2 2586.00 152.457  27
  -7  -2  -2 2513.03 146.093  14
  -7  -2  -2 3077.77 311.373   4
  -7  -2  -2 2683.05 146.557  28
  -7  -2  -3 2272.58 132.408  14
  -7  -2  -3 2234.26 135.298  27
  -7  -2  -3 2437.40 273.048   4
  -7  -2  -4 2374.82 131.188  14
  -7  -2  -4 2317.58 258.255   4
  -7  -2  -5 62101.0 1333.33  14
  -7  -2  -5 64319.6 1741.88   4
  -7  -2  -6 24547.3 637.956  26
  -7  -2  -6 22912.7 878.574   4
  -7  -2  -7 55.0099 10.8962  15
  -7  -2  -7 50.6738 20.3801  26
  -7  -2  -7 87.0000 24.9751  12
  -7  -2  -8 157.893 36.1248  16
  -7  -2  -8 189.957 40.8150  26
  -7  -2  -9 0.74745 14.2920  16
  -7  -2  -9-1.82562 12.8388  26
  -7  -2 -10-1.04259 12.0922  16
  -7  -2 -10 7.98689 9.68166  26
  -7  -2 -10 0.80140 6.34512  19
  -7  -2 -11 594.910 54.2037  16
  -7  -2 -11 650.003 64.3889  19
  -7  -2 -12 576.049 50.6966  13
  -7  -2 -12 735.314 56.5613  19
  -7  -3   5 21.7877 12.0580  28
  -7  -3   5 2.34450 3.85347  27
  -7  -3   4 15.6910 11.4791  28
  -7  -3   4 22.5146 12.0698  27
  -7  -3   3 5352.47 242.750  28
  -7  -3   3 4562.61 222.332  27
  -7  -3   2 7003.45 295.321  28
  -7  -3   2 6888.30 289.704  27
  -7  -3   1 11297.8 398.328  28
  -7  -3   1 10304.5 379.802   8
  -7  -3   1 11528.0 402.949  27
  -7  -3   0 11659.2 402.089  28
  -7  -3   0 11501.9 416.086   8
  -7  -3   0 12337.0 420.261  27
  -7  -3  -1 5238.64 233.866  28
  -7  -3  -1 5621.31 262.768   8
  -7  -3  -1 5361.41 248.779  27
  -7  -3  -1 5600.69 441.303   4
  -7  -3  -2 7.75506 12.0081   8
  -7  -3  -2 20.9595 10.3159  27
  -7  -3  -3 224.307 46.6190   8
  -7  -3  -3 190.478 38.5713  27
  -7  -3  -3 265.834 99.4969   4
  -7  -3  -4 709.172 72.4409  27
  -7  -3  -4 764.142 72.4496  14
  -7  -3  -4 828.120 159.514   4
  -7  -3  -5 94.9786 23.1052  14
  -7  -3  -5 114.904 59.0099   4
  -7  -3  -6 2750.08 140.232  15
  -7  -3  -6 2558.17 153.878  26
  -7  -3  -6 2370.07 126.007  14
  -7  -3  -6 2311.84 244.365   4
  -7  -3  -7 649.395 73.2626  16
  -7  -3  -7 720.151 71.2188  15
  -7  -3  -7 632.449 75.0608  26
  -7  -3  -7 690.133 67.3877  12
  -7  -3  -8 63.8061 21.5695  15
  -7  -3  -8 73.6319 28.1777  26
  -7  -3  -8 59.0023 19.0694  12
  -7  -3  -8 50.3313 9.45659  19
  -7  -3  -9 19986.3 555.835  16
  -7  -3  -9 19662.3 560.656  26
  -7  -3  -9 20941.4 580.355  19
  -7  -3 -10 1588.94 110.453  16
  -7  -3 -10 1634.05 116.412  26
  -7  -3 -10 1694.49 122.903  19
  -7  -3 -11 5.29524 10.2706  16
  -7  -3 -11-1.27723 14.1593  19
  -7  -3 -12 1801.28 84.8193  16
  -7  -3 -12 1621.63 82.4335  13
  -7  -3 -12 1891.69 97.7339  19
  -7  -4   4 90.1409 20.4173  28
  -7  -4   4 112.407 22.0459  27
  -7  -4   3 2.39204 13.0638  28
  -7  -4   3 20.0913 11.2865  27
  -7  -4   2 237.340 41.7752  28
  -7  -4   2 310.694 52.0392  27
  -7  -4   1 885.044 92.8009   8
  -7  -4   1 875.545 90.1530  28
  -7  -4   1 849.707 94.4074  27
  -7  -4   0 2187.31 146.120  28
  -7  -4   0 2350.34 162.178   8
  -7  -4   0 2199.18 157.919  27
  -7  -4  -1 19356.6 546.836  28
  -7  -4  -1 21152.5 605.819   8
  -7  -4  -1 19766.7 580.473  27
  -7  -4  -2 15886.0 492.910  27
  -7  -4  -2 17607.5 535.707   8
  -7  -4  -3 41046.6 990.988   8
  -7  -4  -3 43414.6 1379.37   4
  -7  -4  -4 4313.61 215.400   8
  -7  -4  -4 3866.62 182.212  27
  -7  -4  -4 3945.53 361.426   4
  -7  -4  -5 1384.69 111.866   8
  -7  -4  -5 1100.70 89.6607  14
  -7  -4  -5 1085.81 179.089   4
  -7  -4  -6 544.769 62.1781  15
  -7  -4  -6 587.765 72.9959  26
  -7  -4  -6 533.129 57.3500  14
  -7  -4  -6 527.422 115.638   4
  -7  -4  -7 2945.45 158.786  15
  -7  -4  -7 3003.46 173.195  26
  -7  -4  -7 3027.86 152.947  12
  -7  -4  -8 997.263 95.3151  16
  -7  -4  -8 953.572 86.1313  15
  -7  -4  -8 979.928 94.4814  26
  -7  -4  -8 917.909 84.5216  12
  -7  -4  -8 967.388 93.1605  19
  -7  -4  -9 1088.21 97.9129  16
  -7  -4  -9 1039.70 95.9188  26
  -7  -4  -9 984.063 86.3931  12
  -7  -4  -9 1051.40 98.5988  19
  -7  -4 -10 2.07509 14.0873  16
  -7  -4 -10 14.7898 16.3749  26
  -7  -4 -10 21.2281 16.2258  19
  -7  -4 -11 378.016 48.5870  16
  -7  -4 -11 440.098 53.5384  19
  -7  -4 -12 963.997 64.4753  16
  -7  -4 -12 939.243 67.5719  19
  -7  -5   3 149.839 27.2950  27
  -7  -5   3 172.967 26.1606  28
  -7  -5   2 493.766 54.7317  28
  -7  -5   2 517.215 61.2417  27
  -7  -5   2 454.175 47.1598  14
  -7  -5   1 139.224 32.8929   8
  -7  -5   1 131.379 30.4949  28
  -7  -5   1 111.116 30.4321  27
  -7  -5   0 123.468 33.5455   8
  -7  -5   0 66.6214 26.7502  27
  -7  -5  -1 694.336 88.5355   8
  -7  -5  -1 772.821 90.3218  27
  -7  -5  -2 2544.35 172.957   8
  -7  -5  -2 2278.12 152.328  27
  -7  -5  -3 18.6877 14.7208   8
  -7  -5  -3 20.9101 15.9225  27
  -7  -5  -4 11007.2 397.622   8
  -7  -5  -5 3390.33 190.607   8
  -7  -5  -5 3103.08 164.259  14
  -7  -5  -6 11634.0 394.743  26
  -7  -5  -6 12294.9 355.195  14
  -7  -5  -7 58400.7 1333.41  26
  -7  -5  -7 57548.6 1308.33  15
  -7  -5  -7 61787.4 1291.92  12
  -7  -5  -8 5357.05 241.284  16
  -7  -5  -8 5232.36 225.534  15
  -7  -5  -8 5108.00 232.385  26
  -7  -5  -8 4987.91 215.365  12
  -7  -5  -9 8.25522 10.8350  16
  -7  -5  -9 19.2973 17.6648  15
  -7  -5  -9 19.4304 12.5526  26
  -7  -5  -9 14.7913 13.9183  12
  -7  -5  -9 20.4636 11.9297  19
  -7  -5 -10 1508.67 110.961  16
  -7  -5 -10 1445.62 106.521  26
  -7  -5 -10 1526.11 102.732  12
  -7  -5 -10 1477.91 105.961  19
  -7  -5 -11 25.9639 9.23911  16
  -7  -5 -11 11.3488 7.41789  19
  -7  -5 -12 37.1388 13.5939  16
  -7  -5 -12 22.9240 9.39472  19
  -7  -6   2 655.290 56.9691  27
  -7  -6   2 546.102 39.7407  14
  -7  -6   1 2854.24 148.286  27
  -7  -6   0 2357.39 147.016   8
  -7  -6   0 2628.39 153.032  27
  -7  -6  -1 9468.91 352.162   8
  -7  -6  -1 9393.75 338.329  27
  -7  -6  -2 711.569 87.4583   8
  -7  -6  -2 739.051 81.4532  27
  -7  -6  -3 343.157 62.7560   8
  -7  -6  -3 364.244 53.9732  27
  -7  -6  -4 233.314 45.3452   8
  -7  -6  -5 2173.58 148.481   8
  -7  -6  -6 12.2453 12.7239   8
  -7  -6  -6 6.04712 9.32558  26
  -7  -6  -7 224.501 48.0720  26
  -7  -6  -7 195.841 41.4112  15
  -7  -6  -7 210.160 38.4049  12
  -7  -6  -8 1034.27 96.3685  16
  -7  -6  -8 959.839 90.2169  26
  -7  -6  -8 961.399 90.5908  15
  -7  -6  -8 1024.45 86.6614  12
  -7  -6  -9 270.671 48.2428  16
  -7  -6  -9 216.990 40.9503  15
  -7  -6  -9 270.948 45.2399  26
  -7  -6  -9 183.965 38.2164  12
  -7  -6 -10 2251.88 133.703  16
  -7  -6 -10 2210.51 126.315  26
  -7  -6 -10 2133.30 119.093  12
  -7  -6 -11 6788.79 234.313  16
  -7  -6 -12 884.004 60.5001  16
  -7  -7   1 13.6974 5.61315  27
  -7  -7   1 13.0455 4.07813  14
  -7  -7   0 699.069 63.2898  27
  -7  -7   0 672.584 63.1607   8
  -7  -7  -1 690.515 76.1328   8
  -7  -7  -1 716.887 70.1194  27
  -7  -7  -2 5995.72 262.184   8
  -7  -7  -2 6016.20 233.456  27
  -7  -7  -3 5404.52 254.317   8
  -7  -7  -4 902.269 95.7202   8
  -7  -7  -5 20774.8 593.708   8
  -7  -7  -5 21275.5 559.601  26
  -7  -7  -6 3206.13 172.135   8
  -7  -7  -6 3145.33 163.075  26
  -7  -7  -6 3158.07 146.830  14
  -7  -7  -7 1473.53 105.105  26
  -7  -7  -7 1582.91 115.333  15
  -7  -7  -7 1551.99 101.094  12
  -7  -7  -8 868.191 89.6677  16
  -7  -7  -8 908.522 84.1155  26
  -7  -7  -8 850.669 86.8997  15
  -7  -7  -8 818.910 76.8475  12
  -7  -7  -9 18.8144 12.7457  16
  -7  -7  -9 31.7979 17.2332  26
  -7  -7  -9 35.7474 19.5895  15
  -7  -7  -9 12.0635 10.9824  12
  -7  -7 -10 5.93994 11.2519  16
  -7  -7 -10-8.87873 16.6627  15
  -7  -7 -10-8.10048 10.5484  26
  -7  -7 -10 4.64872 7.31205  12
  -7  -7 -11 750.436 61.8227  16
  -7  -7 -11 714.365 56.7012  12
  -7  -7 -12 73.5762 16.0658  16
  -7  -8   0 84.7841 14.1342  14
  -7  -8  -1-8.50432 13.3013   8
  -7  -8  -1 12.7359 9.45942  27
  -7  -8  -2 8.98287 11.2391   8
  -7  -8  -3 544.760 66.8952   8
  -7  -8  -4 258.900 47.7748   8
  -7  -8  -5 1062.03 94.8435   8
  -7  -8  -5 1155.17 83.8823  14
  -7  -8  -6 4754.52 202.802   8
  -7  -8  -7 185.280 36.2169  16
  -7  -8  -7 204.542 38.2802  15
  -7  -8  -7 221.528 32.0928  12
  -7  -8  -8 14963.6 420.265  16
  -7  -8  -8 14809.3 420.287  15
  -7  -8  -8 13983.5 383.120  12
  -7  -8  -9 16081.4 429.507  16
  -7  -8  -9 16533.4 435.137  15
  -7  -8 -10 398.359 44.9549  16
  -7  -8 -10 370.420 44.5831  15
  -7  -8 -10 317.455 36.2183  12
  -7  -8 -11 11.2505 4.27433  16
  -7  -8 -11 52.8650 14.0252  12
  -7  -9  -2 5460.88 163.331  14
  -7  -9  -3 5500.34 195.926   8
  -7  -9  -3 5160.58 172.367  14
  -7  -9  -4-11.8751 11.4070   8
  -7  -9  -4 2.45451 8.11225  14
  -7  -9  -5 530.513 55.4313   8
  -7  -9  -5 470.952 45.8647  16
  -7  -9  -5 472.091 42.3396  14
  -7  -9  -6 131.055 24.6614  16
  -7  -9  -7 1932.46 102.701  16
  -7  -9  -7 2070.50 115.299  15
  -7  -9  -8 322.883 37.9043  16
  -7  -9  -8 347.863 44.2029  15
  -7  -9  -8 292.412 32.4581  12
  -7  -9  -9 30.1989 12.2360  16
  -7  -9  -9 33.9813 15.6138  15
  -7  -9  -9 10.7306 8.34159  12
  -7  -9 -10 32.0863 10.9696  12
  -7 -10  -5 488.888 39.5787  15
  -7 -10  -6 3267.82 124.123  15
  -7 -10  -7 3182.38 122.963  15
  -7 -10  -8-1.25353 6.38640  15
  -7 -10  -9 71.7787 14.6117  15
  -8   9   3 351.728 34.0910  17
  -8   9   2 0.44547 6.34061  17
  -8   9   2-0.49040 4.85809  23
  -8   9   1 974.627 60.2849  17
  -8   9   1 982.260 61.3728  23
  -8   9   0 1800.12 80.4503  17
   8  -8  -5 1884.64 89.3832  24
  -8   8   4 25.0874 12.2466  23
  -8   8   3 78.4173 19.5254  23
  -8   8   2 396.840 47.6211  23
   8  -8  -1 995.482 73.7885  24
  -8   8   1 1596.86 98.7845  23
  -8   8   0 409.555 45.8336  17
  -8   8   0 420.585 48.7294  23
  -8   8  -1 1769.75 93.6425  17
  -8   8  -1 1797.52 101.706  23
  -8   8  -1 1527.80 85.0100  18
  -8   8  -2 23.8761 9.25625  17
  -8   8  -2 46.0486 14.1920  18
  -8   8  -3 12.6805 7.04923  18
  -8   7   5 5.78883 5.83268  23
  -8   7   4 715.020 63.7396  23
  -8   7   3 185.242 36.2474  23
  -8   7   2 3905.04 180.500  23
  -8   7   1 619.158 67.4240  23
  -8   7   0 8896.29 306.520  23
  -8   7  -1 1640.04 104.521  17
  -8   7  -1 1602.11 95.8427   7
  -8   7  -1 1554.47 108.008  23
  -8   7  -1 1403.68 93.3021  21
  -8   7  -2 1788.68 102.196  17
  -8   7  -2 1916.98 108.304   7
  -8   7  -2 2017.49 118.022  23
  -8   7  -2 1875.34 109.618  21
  -8   7  -3 624.451 58.7506   7
  -8   7  -3 704.666 62.5569  23
  -8   7  -3 713.060 65.5509  18
  -8   7  -3 569.916 48.6739  17
  -8   7  -4 5.47837 6.87694  18
  -8   7  -5 7.62647 5.09297  18
  -8   6   6 373.524 34.1810  23
   8  -6  -6 400.140 40.6195  10
  -8   6   5 5830.71 202.431  23
   8  -6  -5 5438.90 207.733  10
  -8   6   4 4472.81 191.851  23
  -8   6   3 498.671 63.1557  23
  -8   6   2 4254.93 201.897  23
  -8   6   1 12.5480 8.14735  23
  -8   6   0 250.276 40.7154  28
  -8   6   0 268.433 45.5483  23
  -8   6   0 280.701 44.8810  21
  -8   6  -1 2172.09 127.612   7
  -8   6  -1 2271.36 139.650  23
  -8   6  -1 2162.65 135.113  21
  -8   6  -2 455.766 54.1312  17
  -8   6  -2 465.055 57.8608   7
  -8   6  -2 463.246 59.3357  23
  -8   6  -2 462.918 60.2785  21
  -8   6  -3 26.6893 16.6967  17
  -8   6  -3 51.6243 19.0118   7
  -8   6  -3 27.7917 15.9409  23
  -8   6  -3 20.7665 9.94908  21
  -8   6  -4 7462.65 260.915   7
  -8   6  -4 7237.79 245.831  23
  -8   6  -4 7790.30 266.731  21
  -8   6  -5 1970.29 108.746   7
  -8   6  -5 2149.76 115.159  18
  -8   6  -6 370.434 38.6778  18
  -8   5   6 97.9832 20.6999  23
  -8   5   5 1081.97 82.7802  23
  -8   5   4 5683.77 233.087  23
  -8   5   3 235.187 47.4045  23
  -8   5   2 6626.13 252.516  28
  -8   5   2 7162.26 282.453  23
  -8   5   1 5200.96 223.128  28
  -8   5   1 5193.75 235.305  23
  -8   5   0 99.6077 31.0837  28
  -8   5   0 115.370 33.8747  23
  -8   5  -1 5261.56 230.642  28
  -8   5  -1 5166.05 220.123   7
  -8   5  -1 5213.18 229.084  23
  -8   5  -1 5358.64 232.937  21
  -8   5  -2 312.215 53.6723  28
  -8   5  -2 337.505 53.5754   7
  -8   5  -2 331.163 50.2798  23
  -8   5  -2 345.302 54.5330  21
  -8   5  -3 766.559 81.6899   7
  -8   5  -3 825.896 78.8508  23
  -8   5  -3 864.698 87.5302  21
  -8   5  -4 52.2115 13.3128   7
  -8   5  -4 60.7272 19.8280  23
  -8   5  -4 58.0118 19.4789  21
  -8   5  -5 48.8559 22.5867   7
  -8   5  -5 12.1526 12.2093  21
  -8   5  -6 199.426 32.9201   7
  -8   5  -6 154.850 30.3836  18
  -8   5  -7 885.954 61.0817  18
   8  -4  -6 29.7074 10.4396  25
  -8   4   6 16.7813 10.5669  23
   8  -4  -5 205.554 32.6952  25
  -8   4   5 208.123 36.5494  23
  -8   4   4 3195.27 151.561  28
  -8   4   4 3391.18 175.442  23
  -8   4   3 277.525 47.4690  28
  -8   4   3 262.102 45.1184  23
  -8   4   2 1211.63 103.175  28
  -8   4   2 1211.03 107.360  23
  -8   4   1 437.753 61.6577  28
  -8   4   1 425.049 62.9612  23
  -8   4   0 201.189 41.6154  28
  -8   4   0 223.862 43.2193  23
  -8   4  -1 10848.0 377.745  28
  -8   4  -1 11023.7 360.327   7
  -8   4  -1 10086.5 350.584  23
  -8   4  -2 44660.0 1042.95  28
  -8   4  -2 44932.5 1039.03   7
  -8   4  -2 42914.6 1011.26  23
  -8   4  -3 4092.27 206.131  28
  -8   4  -3 4099.63 205.008   7
  -8   4  -3 4011.19 188.565  23
  -8   4  -3 4148.20 206.249  21
  -8   4  -4 342.546 55.7700   7
  -8   4  -4 335.146 47.4182  23
  -8   4  -4 358.758 54.4086  21
  -8   4  -5 3263.06 177.107   7
  -8   4  -5 3242.37 151.231  23
  -8   4  -5 3509.40 181.494  21
  -8   4  -6 13.9427 5.60047   7
  -8   4  -6 6.08950 11.4535  21
  -8   4  -7 203.140 32.1690   7
  -8   4  -7 145.827 26.6294  19
  -8   4  -7 245.368 37.3725  18
  -8   4  -8 21.9035 12.7683  22
  -8   4  -8 14.4141 9.50417  18
   8  -3  -6 986.955 66.7597  25
  -8   3   6 1049.60 71.0733  23
  -8   3   5 2655.62 127.746  28
   8  -3  -5 2593.85 131.663  25
  -8   3   5 2709.53 143.597  23
  -8   3   4 988.998 87.5268  28
  -8   3   3 6033.45 254.434  28
  -8   3   2 235.332 49.0647  28
  -8   3   2 252.256 50.0058  23
  -8   3   1 568.434 73.5840  28
  -8   3   1 568.303 71.9792  23
  -8   3   0 1605.76 122.567  28
  -8   3   0 1596.09 119.522  23
  -8   3  -1 793.178 83.5833  28
  -8   3  -1 662.193 71.8748  23
  -8   3  -2 419.114 61.7195  28
  -8   3  -2 421.224 59.3454   7
  -8   3  -2 386.014 53.4611  23
  -8   3  -3 41.8166 19.9964  28
  -8   3  -3 30.4516 15.0232   7
  -8   3  -3 24.4527 17.1079  23
  -8   3  -4 297.174 50.7903  28
  -8   3  -4 306.738 53.6665   7
  -8   3  -4 286.314 43.5710  23
  -8   3  -4 347.160 55.8862  21
  -8   3  -5 3352.78 184.360   7
  -8   3  -5 3401.21 181.213  21
  -8   3  -6 8390.04 303.758   7
  -8   3  -6 8366.09 302.240  21
  -8   3  -7 707.264 68.9976   7
  -8   3  -7 717.178 68.8796  21
  -8   3  -7 684.136 68.3599  18
  -8   3  -8 2139.81 103.557   7
  -8   3  -8 1799.53 100.678  19
  -8   3  -8 2098.93 103.535  18
  -8   3  -9 3588.87 118.786  11
  -8   3  -9 2889.45 103.488  19
  -8   2   6 292.608 29.2664  28
   8  -2  -6 313.407 35.8335  25
  -8   2   6 397.027 40.8026  23
  -8   2   5 141.900 27.3762  28
  -8   2   4 98.8262 31.4018  28
  -8   2   3 625.358 78.4886  28
  -8   2   3 672.292 70.6483  27
  -8   2   2 3353.15 189.875  28
  -8   2   2 3487.87 184.672  27
  -8   2   1 5073.20 241.549  28
  -8   2   1 5179.34 239.124  27
  -8   2   0 56341.4 1268.62  28
  -8   2   0 54386.6 1236.49  23
  -8   2  -1 3527.72 186.949  28
  -8   2  -1 3287.69 167.451  23
  -8   2  -2 8067.34 302.547  28
  -8   2  -2 7505.61 268.770  23
  -8   2  -3 6925.67 276.969  28
  -8   2  -3 7307.71 286.597   7
  -8   2  -4 1092.67 99.7283  28
  -8   2  -4 1113.21 103.772   7
  -8   2  -5 57.2591 27.8803  28
  -8   2  -5 66.7093 30.4288   7
  -8   2  -5 86.1131 28.7472  21
  -8   2  -6 112.989 33.3113   7
  -8   2  -6 112.016 31.1290  21
  -8   2  -7 26.1962 15.5607   7
  -8   2  -7-6.62346 8.91840  21
  -8   2  -8 62.2915 18.4042   7
  -8   2  -8 35.3404 14.0781  21
  -8   2  -8 38.2987 15.0264  18
  -8   2  -9 2686.13 123.187  19
  -8   2 -10 2615.32 99.0199  22
  -8   1   6 429.264 35.8569  28
   8  -1  -6 352.425 35.6706  25
  -8   1   5 21.8203 21.2377  28
  -8   1   4 1012.33 94.4565  28
  -8   1   3 25.8770 20.5467  28
  -8   1   3 9.00951 11.7449  27
  -8   1   2 1640.93 131.804  28
  -8   1   2 1657.53 125.294  27
  -8   1   1 1139.51 109.422  28
  -8   1   1 1104.34 103.591  27
  -8   1   0 466.987 66.0842  28
  -8   1   0 546.599 72.9031  27
  -8   1  -1 113.136 33.9253  28
  -8   1  -1 101.022 30.1664  27
  -8   1  -1 77.9060 23.4624  23
  -8   1  -2 2299.79 145.657  28
  -8   1  -3 30428.6 762.977  28
  -8   1  -4 35315.0 877.703  28
  -8   1  -4 36544.2 849.650  26
  -8   1  -5 105.640 31.3952  28
  -8   1  -5 58.9445 15.6370  26
  -8   1  -6 2705.90 144.613  26
  -8   1  -6 2530.73 155.703   7
  -8   1  -6 2675.55 150.802  21
  -8   1  -7 584.490 62.3174  26
  -8   1  -7 590.107 67.5497   7
  -8   1  -7 568.215 64.2594  21
  -8   1  -8 164.399 30.8880  21
  -8   1  -9 1182.28 88.6154  19
  -8   1 -10 429.169 41.6582  22
  -8   1 -10 469.662 45.3843  19
   8   0  -6 133.799 17.5887  25
  -8   0   5 286.420 39.8503  28
  -8   0   4 12.1087 8.45810  28
  -8   0   4 54.4414 19.2274  27
  -8   0   3 20934.5 599.155  28
  -8   0   3 21845.2 578.507  27
  -8   0   2 14126.7 465.218  28
  -8   0   2 14719.8 458.531  27
  -8   0   1 2614.92 170.240  28
  -8   0   1 2597.56 167.128  27
  -8   0   1 2713.40 149.075  14
  -8   0   0 420.475 65.8496  28
  -8   0   0 298.835 53.7455  27
  -8   0   0 283.629 48.9808  14
  -8   0  -1 651.495 77.2282  28
  -8   0  -1 662.370 80.6713  27
  -8   0  -1 612.168 73.5154  14
  -8   0  -1 669.431 138.496   4
  -8   0  -2 986.137 92.1963  28
  -8   0  -2 1074.77 100.600  27
  -8   0  -2 1037.96 93.5355  14
  -8   0  -2 1250.36 193.120   4
  -8   0  -3 249.267 45.1285  28
  -8   0  -3 291.376 48.6165  14
  -8   0  -4 1756.47 121.556  28
  -8   0  -4 1765.46 118.522  26
  -8   0  -5 11.6369 14.8813  28
  -8   0  -5 16.0869 18.0828  26
  -8   0  -6 14.9366 11.6434  28
  -8   0  -6 25.8399 14.9727  26
  -8   0  -7 3629.78 182.812  26
  -8   0  -7 3257.52 162.162  21
  -8   0  -8 108.358 30.3933  26
  -8   0  -9 9790.61 327.950  19
  -8   0 -10 1233.36 76.2290  22
  -8   0 -10 1465.76 93.3400  19
  -8   0 -11 931.606 56.7301  19
  -8  -1   5 12.0290 10.2219  28
  -8  -1   4 218.496 38.0054  28
  -8  -1   4 215.368 32.6392  27
  -8  -1   3 779.266 85.1566  28
  -8  -1   3 578.951 71.6565  27
  -8  -1   2 2498.21 177.215  28
  -8  -1   2 2021.78 159.698  27
  -8  -1   1 21.2654 15.3356  28
  -8  -1   1 20.5055 23.3924  27
  -8  -1   1 9.95273 9.22578  14
  -8  -1   0 5432.00 254.538  27
  -8  -1   0 5081.15 244.512  28
  -8  -1   0 5511.61 233.320  14
  -8  -1  -1 32953.6 842.507  28
  -8  -1  -1 34678.1 861.986  27
  -8  -1  -1 34253.7 835.618  14
  -8  -1  -2 33447.2 850.058  28
  -8  -1  -2 34820.9 874.258  27
  -8  -1  -2 36293.0 857.615  14
  -8  -1  -3 2414.65 143.659  28
  -8  -1  -3 2480.93 153.824  27
  -8  -1  -3 2500.18 149.801  14
  -8  -1  -3 2504.10 279.775   4
  -8  -1  -4 8362.00 294.780  28
  -8  -1  -4 8601.22 301.710  14
  -8  -1  -4 8682.75 536.566   4
  -8  -1  -5 1020.74 89.1104  28
  -8  -1  -5 1052.97 93.5369  26
  -8  -1  -6 55.7791 19.0033  28
  -8  -1  -6 61.1375 19.8349  16
  -8  -1  -6 44.7618 22.4873  26
  -8  -1  -7-2.02040 6.11873  16
  -8  -1  -7 2.57022 12.2129  26
  -8  -1  -8 232.823 38.2066  16
  -8  -1  -8 252.333 45.3437  26
  -8  -1  -9 40.6131 15.8986  16
  -8  -1  -9 38.1370 20.5517  26
  -8  -1  -9 22.4606 17.7229  19
  -8  -1 -10 2003.35 119.359  19
  -8  -1 -11 3738.64 146.472  19
  -8  -2   4 2112.71 113.223  28
  -8  -2   4 1898.97 94.4018  27
  -8  -2   3 255.464 44.4162  28
  -8  -2   3 239.132 39.2456  27
  -8  -2   2 7956.76 309.885  28
  -8  -2   2 8255.09 307.301  27
  -8  -2   2 8205.27 261.315  14
  -8  -2   1 1132.51 109.404  28
  -8  -2   1 1211.08 109.478  27
  -8  -2   1 1205.43 96.0337  14
  -8  -2   0 982.406 98.2677  28
  -8  -2   0 1029.08 103.400  27
  -8  -2   0 1110.61 96.6071  14
  -8  -2  -1 2969.89 173.565  28
  -8  -2  -1 3119.96 184.338  27
  -8  -2  -1 3177.46 173.363  14
  -8  -2  -2 1670.97 122.217  28
  -8  -2  -2 1757.31 131.929  27
  -8  -2  -2 1704.02 125.273  14
  -8  -2  -3 111.731 28.4411  28
  -8  -2  -3 106.896 31.0658  27
  -8  -2  -3 116.500 32.6442  14
  -8  -2  -4 1005.53 85.9264  28
  -8  -2  -4 989.039 92.9474  27
  -8  -2  -4 1036.86 90.9662  14
  -8  -2  -5 24466.4 659.811  26
  -8  -2  -5 23964.2 632.685  14
  -8  -2  -6 564.012 70.9271  26
  -8  -2  -7 8908.03 307.363  16
  -8  -2  -7 8678.15 319.353  26
  -8  -2  -8 2010.09 125.698  16
  -8  -2  -8 1999.30 135.351  26
  -8  -2  -9 13.5979 8.91916  16
  -8  -2  -9 11.5498 6.24422  26
  -8  -2  -9 7.41777 7.61036  19
  -8  -2 -10 85.0568 21.9399  16
  -8  -2 -10 64.7766 19.3937  26
  -8  -2 -10 74.1208 26.3099  19
  -8  -2 -11 55.8999 13.8299  16
  -8  -2 -11 79.6005 22.3097  19
  -8  -2 -12 318.286 29.4863  19
  -8  -3   4 608.976 46.0462  28
  -8  -3   3 257.529 40.8056  28
  -8  -3   3 248.654 37.5762  27
  -8  -3   2 3681.87 183.105  28
  -8  -3   2 3454.79 179.298  27
  -8  -3   2 3193.81 137.301  14
  -8  -3   1 47418.9 1071.26  28
  -8  -3   1 46552.4 1084.49  27
  -8  -3   0 9067.48 331.045  28
  -8  -3   0 8989.60 342.408  27
  -8  -3   0 9111.23 318.537  14
  -8  -3  -1 251.548 47.4504  28
  -8  -3  -1 293.385 51.9621  27
  -8  -3  -1 237.319 43.6575  14
  -8  -3  -2 1438.60 109.354  28
  -8  -3  -2 1430.02 118.711  27
  -8  -3  -2 1429.07 113.489  14
  -8  -3  -3 470.167 58.9703  28
  -8  -3  -3 451.989 64.8790  27
  -8  -3  -3 391.770 60.9370  14
  -8  -3  -4 122.338 29.8151  27
  -8  -3  -4 120.613 32.3304  14
  -8  -3  -5 108.187 28.7080  27
  -8  -3  -5 147.485 34.2306  14
  -8  -3  -6 2249.81 150.643  26
  -8  -3  -6 2116.94 123.752  14
  -8  -3  -7 198.040 40.8858  16
  -8  -3  -7 201.085 42.1998  26
  -8  -3  -8 1608.52 116.961  16
  -8  -3  -8 1671.33 123.583  26
  -8  -3  -8 1709.55 125.442  19
  -8  -3  -9 1040.07 88.1224  16
  -8  -3  -9 1034.49 93.2184  26
  -8  -3  -9 973.412 92.2264  19
  -8  -3 -10 10612.6 322.853  16
  -8  -3 -10 10854.4 339.141  26
  -8  -3 -10 11146.2 346.971  19
  -8  -3 -11 13651.7 356.086  16
  -8  -3 -11 14467.8 384.213  19
  -8  -3 -12 983.566 57.8976  19
  -8  -4   3 25.4077 9.65157  28
  -8  -4   3 36.7954 13.1857  27
  -8  -4   2 581.236 56.3978  28
  -8  -4   2 522.100 56.5134  27
  -8  -4   2 462.329 41.1563  14
  -8  -4   1 8.36420 10.4548  28
  -8  -4   1 5.75158 8.84681  27
  -8  -4   1-6.27369 10.8677  14
  -8  -4   0 229.459 42.0953  28
  -8  -4   0 196.567 42.3333  27
  -8  -4   0 222.931 40.0494  14
  -8  -4  -1-1.41826 7.01982  27
  -8  -4  -1-2.65773 8.78134  14
  -8  -4  -2 750.783 84.3650  27
  -8  -4  -2 800.017 83.6420  14
  -8  -4  -3 9056.06 328.933  27
  -8  -4  -3 9079.46 324.737  14
  -8  -4  -4 2327.58 143.664  27
  -8  -4  -4 2513.40 149.173  14
  -8  -4  -5 0.11494 5.46431  27
  -8  -4  -5 12.2966 10.6877  14
  -8  -4  -6 1884.20 116.387  15
  -8  -4  -6 1963.54 139.437  26
  -8  -4  -6 1829.47 114.624  14
  -8  -4  -7 112.176 27.5165  15
  -8  -4  -7 122.033 33.3247  26
  -8  -4  -8 13.4241 20.1070  16
  -8  -4  -8 15.5416 13.0415  15
  -8  -4  -8 11.0596 10.0457  26
  -8  -4  -8 20.2644 14.8774  12
  -8  -4  -8 6.61083 7.69403  19
  -8  -4  -9-0.22467 16.1844  16
  -8  -4  -9 17.9636 11.8365  26
  -8  -4  -9 11.2110 7.87051  19
  -8  -4 -10 12.1878 15.0001  16
  -8  -4 -10 22.1595 15.1902  26
  -8  -4 -10 15.9942 9.33592  19
  -8  -4 -11 648.437 57.1595  16
  -8  -4 -11 646.920 58.8512  19
  -8  -4 -12 263.967 26.7979  16
  -8  -4 -12 260.230 28.3479  19
  -8  -5   2 297.514 35.7598  27
  -8  -5   1 745.634 69.0382  27
  -8  -5   1 718.236 56.6962  14
  -8  -5   0 577.734 67.5342  27
  -8  -5   0 560.972 58.1905  14
  -8  -5  -1 929.455 90.7307  27
  -8  -5  -1 979.969 87.7783  14
  -8  -5  -2 371.466 62.4773   8
  -8  -5  -2 380.537 57.0412  27
  -8  -5  -3 653.512 87.5560   8
  -8  -5  -3 732.088 81.2217  27
  -8  -5  -3 644.993 77.2721  14
  -8  -5  -4 1015.88 87.3074  27
  -8  -5  -4 876.408 84.9000  14
  -8  -5  -5 1874.58 123.259  14
  -8  -5  -6 196.050 48.0898  26
  -8  -5  -6 166.349 38.4991  15
  -8  -5  -6 165.070 38.3416  14
  -8  -5  -7 4126.36 186.852  15
  -8  -5  -7 4191.00 207.749  26
  -8  -5  -8 17320.6 493.827  16
  -8  -5  -8 16852.8 464.634  15
  -8  -5  -8 16698.7 487.581  26
  -8  -5  -8 16586.2 434.069  12
  -8  -5  -9 8558.95 299.929  16
  -8  -5  -9 8380.08 296.484  26
  -8  -5  -9 8327.03 262.703  12
  -8  -5 -10 128.746 27.6061  16
  -8  -5 -10 163.725 30.7339  26
  -8  -5 -11 388.988 42.9279  16
  -8  -5 -11 344.435 37.2315  19
  -8  -5 -12 28.5367 10.9131  16
  -8  -6   1 30.1248 10.2356  27
  -8  -6   1 32.1963 9.05835  14
  -8  -6   0 2282.42 118.736  27
  -8  -6   0 2083.30 105.743  14
  -8  -6  -1 16968.8 461.238  27
  -8  -6  -1 16922.5 452.948  14
  -8  -6  -2 288.207 50.2561   8
  -8  -6  -2 265.613 43.1697  27
  -8  -6  -2 280.843 45.3718  14
  -8  -6  -3 861.834 91.1006   8
  -8  -6  -3 787.189 75.0810  27
  -8  -6  -3 790.616 79.6734  14
  -8  -6  -4 796.632 87.9517   8
  -8  -6  -4 755.395 75.5083  14
  -8  -6  -5 626.368 72.8841  26
  -8  -6  -5 658.254 68.8634  14
  -8  -6  -6 5.71474 9.56476  26
  -8  -6  -6 0.79810 8.39763  15
  -8  -6  -6 29.9801 11.6068  14
  -8  -6  -7 806.074 80.2168  26
  -8  -6  -7 790.527 74.5238  15
  -8  -6  -8 55.9580 24.3442  16
  -8  -6  -8 56.8958 21.2833  26
  -8  -6  -8 54.5227 17.6356  15
  -8  -6  -9 2397.38 138.067  16
  -8  -6  -9 2451.42 129.973  15
  -8  -6  -9 2280.35 131.111  26
  -8  -6  -9 2266.35 111.410  12
  -8  -6 -10 642.943 62.5277  16
  -8  -6 -10 647.211 60.5297  26
  -8  -6 -11-3.81638 7.84981  16
  -8  -6 -12 10375.2 252.842  16
  -8  -7   0 112.531 16.5623  14
  -8  -7  -1 488.168 44.6866  27
  -8  -7  -1 507.341 46.5676  14
  -8  -7  -2 32.9563 15.9479  27
  -8  -7  -2 19.3049 12.4035  14
  -8  -7  -3 3125.05 167.392   8
  -8  -7  -3 3081.72 147.875  14
  -8  -7  -4 126.755 30.1215   8
  -8  -7  -4 155.280 30.9259  26
  -8  -7  -4 145.728 30.0445  14
  -8  -7  -5 81.7645 25.1576  26
  -8  -7  -5 36.1561 19.0837  14
  -8  -7  -6 5939.59 225.027  26
  -8  -7  -6 5838.85 222.017  15
  -8  -7  -6 5848.84 202.379  14
  -8  -7  -7 1860.87 122.795  16
  -8  -7  -7 1755.22 109.070  26
  -8  -7  -7 1809.54 112.849  15
  -8  -7  -8 1367.89 101.943  16
  -8  -7  -8 1171.89 85.6227  26
  -8  -7  -8 1288.58 93.0815  15
  -8  -7  -9 267.197 40.9077  16
  -8  -7  -9 243.572 34.6295  26
  -8  -7  -9 260.055 39.1608  15
  -8  -7  -9 256.607 33.0439  12
  -8  -7 -10 170.870 31.0682  16
  -8  -7 -10 105.475 21.4703  26
  -8  -7 -11 5.78636 7.06352  16
  -8  -8  -2 68.1394 15.2902  14
  -8  -8  -3 262.741 31.8812  14
  -8  -8  -4 395.686 42.8077  14
  -8  -8  -5 343.018 38.3557  14
  -8  -8  -6 895.409 70.4796  15
  -8  -8  -7 3947.58 167.440  16
  -8  -8  -7 3862.58 160.212  15
  -8  -8  -8 872.259 69.8894  16
  -8  -8  -8 835.224 65.8329  15
  -8  -8  -9 1022.95 70.4269  16
  -8  -8  -9 1034.47 69.8326  15
  -8  -8 -10 12124.8 305.745  16
  -8  -9  -5 35.6759 8.90444  15
  -8  -9  -6 12.2357 4.69179  15
  -8  -9  -7-1.42488 5.23858  16
  -8  -9  -7 7.80893 9.23759  15
  -8  -9  -8 17.5045 9.73278  15
  -8  -9  -9 154.230 20.6273  15
  -9   8   2 446.965 35.5150  17
  -9   8   2 460.130 37.5824  23
  -9   8   1 2357.33 93.4095  17
  -9   8   1 2809.70 107.659  23
  -9   8   0 300.164 27.3927  17
  -9   8   0 374.271 36.0124  23
  -9   8  -1 81.7698 15.6223  23
  -9   7   4 131.702 18.7946  23
  -9   7   3 83.1853 18.2538  23
  -9   7   2 34.0088 13.5302  23
  -9   7   1 856.085 68.4446  23
  -9   7   0 4592.85 176.487  23
  -9   7  -1 609.406 49.3351  17
  -9   7  -1 699.267 59.4588  23
  -9   7  -2 2684.12 117.380  23
  -9   7  -3 7.46943 6.04255  18
  -9   7  -4 219.873 24.2697  18
  -9   6   4 890.342 61.2735  23
  -9   6   3 940.167 70.8575  23
  -9   6   2 459.598 52.1898  23
  -9   6   1 24.1787 7.58102  23
  -9   6   0 209.937 36.8249  23
  -9   6   0 160.329 27.7910  21
  -9   6  -1 635.971 64.8136  23
  -9   6  -1 613.447 60.0306  21
  -9   6  -2 53.8760 18.1413  23
  -9   6  -2 50.0624 17.2283  21
  -9   6  -3 199.428 32.5436   7
  -9   6  -3 151.288 27.0220  23
  -9   6  -3 178.239 29.6101  21
  -9   6  -4 192.822 29.4600   7
  -9   6  -4 179.613 29.4138  21
  -9   6  -5 2687.30 111.411  18
  -9   5   5 406.394 35.3090  23
  -9   5   4 209.788 32.8587  23
  -9   5   3 1642.22 102.964  23
  -9   5   2 7115.24 238.678  28
  -9   5   2 7848.40 268.082  23
  -9   5   1 545.129 59.4536  28
  -9   5   1 515.025 60.7998  23
  -9   5   1 514.088 53.8843  21
  -9   5   0 5.84257 6.05794  28
  -9   5   0 19.3651 14.5217  21
  -9   5  -1 4953.31 213.232  28
  -9   5  -1 5068.80 209.005  23
  -9   5  -1 5081.94 210.677  21
  -9   5  -2 821.747 75.3443  23
  -9   5  -2 816.175 78.1294  21
  -9   5  -3 199.299 36.7124   7
  -9   5  -3 190.478 33.7199  23
  -9   5  -3 203.368 39.8632  21
  -9   5  -4 486.837 55.1396   7
  -9   5  -4 452.973 46.9609  23
  -9   5  -4 453.017 54.6669  21
  -9   5  -5 3.17908 7.11889   7
  -9   5  -5-8.61145 7.06419  21
  -9   5  -6 111.801 19.2546  19
  -9   5  -6 423.365 41.3337  18
  -9   5  -7 167.935 20.7861  22
  -9   4   5 1775.48 84.3447  23
  -9   4   4 270.607 38.4831  23
  -9   4   3 181.357 31.3942  28
  -9   4   3 179.015 33.8134  23
  -9   4   2 518.494 58.8220  28
  -9   4   2 498.829 61.1991  23
  -9   4   1 343.597 53.9842  28
  -9   4   1 331.013 54.0179  23
  -9   4   0 87.5003 27.2817  28
  -9   4   0 119.456 32.3952  23
  -9   4  -1 1541.46 119.556  28
  -9   4  -1 1448.37 106.298  23
  -9   4  -2 1103.89 98.3090  28
  -9   4  -2 998.420 84.5548  23
  -9   4  -3 7293.25 280.087  28
  -9   4  -3 7478.75 276.756   7
  -9   4  -3 7279.35 255.188  23
  -9   4  -3 7419.20 280.309  21
  -9   4  -4 7245.08 266.495   7
  -9   4  -4 6692.27 231.204  23
  -9   4  -4 7275.67 270.337  21
  -9   4  -5 23.6820 15.0917   7
  -9   4  -5 13.3018 7.73531  21
  -9   4  -6 4993.67 190.745   7
  -9   4  -6 5104.76 194.320  21
  -9   4  -7 8.60113 5.37949  19
  -9   4  -7 26.9088 10.8246  18
  -9   4  -8 36.5738 9.84895  22
  -9   3   5 3381.83 125.255  23
  -9   3   4 6880.11 206.061  28
  -9   3   4 7332.65 228.829  23
  -9   3   3 109.571 29.1032  28
  -9   3   3 92.6778 26.1451  23
  -9   3   2 3660.91 179.816  28
  -9   3   2 3561.09 176.681  23
  -9   3   1 1295.24 107.213  28
  -9   3   1 1139.33 97.2811  23
  -9   3   0 132.961 34.6083  28
  -9   3   0 105.655 31.0844  23
  -9   3  -1 388.826 59.5139  28
  -9   3  -1 381.591 53.5499  23
  -9   3  -2 888.647 89.5301  28
  -9   3  -2 773.960 73.1136  23
  -9   3  -3 41.8662 23.5246  28
  -9   3  -3 9.20494 11.8607  23
  -9   3  -4 850.197 85.2128  28
  -9   3  -4 756.804 81.4058   7
  -9   3  -4 829.491 84.1321  21
  -9   3  -5 115.708 30.6085   7
  -9   3  -5 106.463 29.8004  21
  -9   3  -6 1097.16 87.5522   7
  -9   3  -6 1047.40 86.7139  21
  -9   3  -7 17181.6 439.808  21
  -9   3  -7 16928.0 428.900  18
  -9   3  -8 2262.54 106.219  19
  -9   3  -8 3251.12 107.645  18
   9  -2  -5 93.4762 14.7510  25
  -9   2   5 159.077 22.7553  23
  -9   2   4 130.398 24.8305  28
   9  -2  -4 85.6647 19.1260  25
  -9   2   4 154.671 27.4771  23
  -9   2   3 358.105 49.8649  28
  -9   2   3 374.007 50.6586  23
  -9   2   2 633.891 73.1417  28
  -9   2   2 588.003 66.7349  23
  -9   2   1 555.670 70.8610  28
  -9   2   1 525.451 63.8519  23
  -9   2   0 239.063 46.6907  28
  -9   2   0 219.921 41.2267  23
  -9   2  -1 4598.63 221.187  28
  -9   2  -1 4304.27 192.842  23
  -9   2  -2 465.695 63.9939  28
  -9   2  -2 392.168 50.1968  23
  -9   2  -3 295.099 50.7143  28
  -9   2  -4 1644.94 125.013  28
  -9   2  -5 661.865 77.0592  28
  -9   2  -5 612.370 74.6090  21
  -9   2  -6 56.8328 20.6518  21
  -9   2  -7 32.3654 17.6694  21
  -9   2  -8 442.225 52.9090  19
  -9   2  -9-11.5569 9.73062  22
  -9   2  -9-5.39422 7.25766  19
  -9   1   5 144.955 20.6908  23
  -9   1   4 1435.20 86.6511  28
  -9   1   4 1463.64 86.0660  23
  -9   1   3 1276.63 95.7741  28
  -9   1   2 255.119 44.5932  28
  -9   1   2 247.388 42.5981  27
  -9   1   1 468.614 66.3679  28
  -9   1   1 505.122 64.3520  27
  -9   1   1 496.867 62.9514  23
  -9   1   0 839.843 89.9793  28
  -9   1   0 964.596 96.6630  27
  -9   1   0 778.003 76.1257  23
  -9   1  -1 129.999 36.2181  28
  -9   1  -1 137.986 29.3614  23
  -9   1  -2-11.7630 8.86566  28
  -9   1  -3 172.570 39.4521  28
  -9   1  -4 2254.62 146.302  28
  -9   1  -5 42602.8 998.656  28
  -9   1  -6 4798.10 207.790  21
  -9   1  -7 516.382 57.7290  21
  -9   1  -8 4515.67 168.419  21
  -9   1  -9 148.035 26.6647  19
  -9   1 -10 40.6470 11.1168  19
  -9   0   4 268.278 34.2541  28
  -9   0   4 269.715 31.6785  23
  -9   0   3 2972.86 148.033  28
  -9   0   3 2711.98 126.404  27
  -9   0   2 2448.08 147.155  28
  -9   0   2 2423.75 139.713  27
  -9   0   1 10554.9 365.701  28
  -9   0   1 10659.0 361.781  27
  -9   0   0 1471.10 120.751  28
  -9   0   0 1529.59 123.597  27
  -9   0   0 1466.23 102.448  23
  -9   0  -1 1304.05 113.033  28
  -9   0  -1 1485.21 121.763  27
  -9   0  -2 407.796 60.3749  28
  -9   0  -2 450.071 67.3788  27
  -9   0  -3 881.635 88.4600  28
  -9   0  -4 532.820 66.6160  28
  -9   0  -4 555.875 64.7168  26
  -9   0  -5 102.524 31.9818  28
  -9   0  -5 121.915 30.1062  26
  -9   0  -6 68.8766 25.8691  28
  -9   0  -6 75.2386 26.3155  26
  -9   0  -7 15.3358 11.1353  26
  -9   0  -7 6.42182 8.99938  21
  -9   0  -8 2668.45 135.145  26
  -9   0  -8 2280.41 114.495  21
  -9   0  -9 34793.8 801.307  19
  -9   0 -10 158.053 27.7996  19
  -9  -1   4 369.700 36.4572  28
  -9  -1   3 452.737 50.4841  28
  -9  -1   3 368.564 41.2124  27
  -9  -1   2 308.812 56.5824  28
  -9  -1   2 269.262 45.4078  27
  -9  -1   1 2777.57 162.056  28
  -9  -1   1 2454.35 152.472  27
  -9  -1   1 2448.83 128.018  14
  -9  -1   0 107.435 28.4913  28
  -9  -1   0 84.8382 28.6112  27
  -9  -1   0 71.2718 16.7100  14
  -9  -1  -1 5178.19 239.978  28
  -9  -1  -1 5548.45 252.806  27
  -9  -1  -1 5558.31 234.037  14
  -9  -1  -2 9328.09 335.727  28
  -9  -1  -2 9892.87 357.975  27
  -9  -1  -2 9436.13 335.416  14
  -9  -1  -3 25505.4 672.236  28
  -9  -1  -3 26694.6 701.272  27
  -9  -1  -3 26331.8 677.510  14
  -9  -1  -4 444.402 58.8465  28
  -9  -1  -5 4132.65 192.405  28
  -9  -1  -5 4217.14 201.479  26
  -9  -1  -6 2759.18 148.494  28
  -9  -1  -6 2794.78 156.932  26
  -9  -1  -7 352.672 50.8434  26
  -9  -1  -7 358.291 45.7989  21
  -9  -1  -8 46.3344 16.1502  26
  -9  -1  -9 13.8675 10.6012  26
  -9  -1  -9 23.8229 14.8062  19
  -9  -1 -10 309.821 39.7546  19
  -9  -1 -11 146.843 20.1236  19
  -9  -2   3 1262.30 74.5819  28
  -9  -2   3 1074.71 63.7797  27
  -9  -2   2 115.492 26.7099  28
  -9  -2   2 80.2800 21.7119  27
  -9  -2   1 482.101 62.1580  28
  -9  -2   1 404.668 58.0986  27
  -9  -2   1 415.017 47.9878  14
  -9  -2   0 1384.02 108.084  28
  -9  -2   0 1331.80 111.917  27
  -9  -2   0 1299.48 97.6151  14
  -9  -2  -1 49.1521 20.6225  28
  -9  -2  -1 73.0753 28.5180  27
  -9  -2  -1 102.267 25.3108  14
  -9  -2  -2 1638.42 117.336  28
  -9  -2  -2 1627.29 127.542  27
  -9  -2  -2 1672.58 120.314  14
  -9  -2  -3 1.14216 15.2371  28
  -9  -2  -3 23.9874 17.9476  27
  -9  -2  -3 15.5046 19.2422  14
  -9  -2  -4 164.357 35.7590  28
  -9  -2  -4 199.221 39.5733  14
  -9  -2  -5 86.2353 22.5291  28
  -9  -2  -5 65.4765 18.5864  26
  -9  -2  -6 15544.8 440.633  16
  -9  -2  -6 15604.0 468.177  26
  -9  -2  -7 38486.5 872.741  16
  -9  -2  -7 36869.1 895.123  26
  -9  -2  -8 25.9858 14.3023  16
  -9  -2  -8 34.2059 20.6110  26
  -9  -2  -8 28.0803 14.1012  19
  -9  -2  -9 770.845 61.2804  16
  -9  -2  -9 701.283 67.8603  26
  -9  -2  -9 709.827 70.0315  19
  -9  -2 -10 1047.19 60.3101  16
  -9  -2 -10 1174.37 80.9663  19
  -9  -2 -11 164.090 22.3481  19
  -9  -3   2 496.143 46.6355  28
  -9  -3   2 458.133 47.3799  27
  -9  -3   1 119.772 27.0853  28
  -9  -3   1 97.4853 24.1363  27
  -9  -3   1 66.8398 18.6316  14
  -9  -3   0 3716.40 173.295  28
  -9  -3   0 3533.75 185.062  27
  -9  -3  -1 27906.6 682.123  28
  -9  -3  -1 26532.5 709.984  27
  -9  -3  -1 27431.2 683.663  14
  -9  -3  -2 1057.68 89.5202  28
  -9  -3  -2 915.920 94.0664  27
  -9  -3  -2 968.297 89.9902  14
  -9  -3  -3 4405.03 192.515  28
  -9  -3  -3 4338.06 214.114  27
  -9  -3  -3 4625.27 209.964  14
  -9  -3  -4 115.422 32.3185  27
  -9  -3  -4 122.160 32.7794  14
  -9  -3  -5 224.846 43.9321  26
  -9  -3  -5 193.777 36.6824  14
  -9  -3  -6 686.319 77.7514  26
  -9  -3  -7 617.450 69.9697  16
  -9  -3  -7 622.062 73.6333  26
  -9  -3  -7 595.914 66.5988  19
  -9  -3  -8 16.4059 9.50568  16
  -9  -3  -8 2.67547 10.6791  26
  -9  -3  -8-12.5162 11.8461  19
  -9  -3  -9 1658.30 100.071  16
  -9  -3  -9 1702.47 110.539  26
  -9  -3  -9 1709.96 107.587  19
  -9  -3 -10 1349.64 79.1234  16
  -9  -3 -10 1469.43 92.2536  26
  -9  -3 -10 1420.41 88.6622  19
  -9  -3 -11 2362.32 86.2245  16
  -9  -3 -11 2879.87 109.278  19
  -9  -4   2 319.284 30.2767  27
  -9  -4   1 93.3009 16.2249  28
  -9  -4   1 141.531 26.2217  27
  -9  -4   1 110.918 17.7623  14
  -9  -4   0 289.906 37.3848  28
  -9  -4   0 270.566 41.7813  27
  -9  -4   0 263.900 36.0780  14
  -9  -4  -1 493.976 52.7907  28
  -9  -4  -1 447.933 58.3086  27
  -9  -4  -1 511.414 57.4815  14
  -9  -4  -2 936.666 90.3482  27
  -9  -4  -2 941.401 84.6751  14
  -9  -4  -3 2799.24 158.798  27
  -9  -4  -3 3002.07 159.920  14
  -9  -4  -4 31262.3 758.925  27
  -9  -4  -4 30537.2 758.434  14
  -9  -4  -5 20623.1 578.522  26
  -9  -4  -5 20875.3 547.341  14
  -9  -4  -6 570.003 68.5402  26
  -9  -4  -6 526.813 57.4264  14
  -9  -4  -7 4870.51 214.171  16
  -9  -4  -7 4873.86 219.093  26
  -9  -4  -8 289.999 46.6352  16
  -9  -4  -8 297.648 46.9059  26
  -9  -4  -9-5.05460 10.8846  16
  -9  -4  -9 0.93406 11.5017  26
  -9  -4 -10 304.710 36.4532  16
  -9  -4 -10 365.308 44.1811  26
  -9  -4 -10 313.486 36.9392  19
  -9  -4 -11 958.175 54.8768  16
  -9  -4 -11 837.888 49.2667  19
  -9  -5   1 2627.94 99.5742  27
  -9  -5   0 76.7233 21.0397  27
  -9  -5   0 85.1862 17.7618  14
  -9  -5  -1 602.378 60.3968  27
  -9  -5  -1 583.369 54.8613  14
  -9  -5  -2 31.6965 14.8165  27
  -9  -5  -2 45.7717 19.9992  14
  -9  -5  -3 1735.84 112.265  27
  -9  -5  -3 1714.30 112.428  14
  -9  -5  -4 654.559 65.5249  27
  -9  -5  -4 652.263 68.7634  14
  -9  -5  -5 1446.39 113.000  26
  -9  -5  -5 1298.65 100.339  14
  -9  -5  -6 99.0628 29.9052  26
  -9  -5  -6 101.407 24.4329  14
  -9  -5  -7 555.790 64.6731  16
  -9  -5  -7 492.170 49.9745  15
  -9  -5  -7 516.190 62.2999  26
  -9  -5  -8 10617.0 333.904  16
  -9  -5  -8 10380.0 333.356  26
  -9  -5  -9 4140.69 174.045  16
  -9  -5  -9 4307.12 179.513  26
  -9  -5 -10 3172.35 133.498  16
  -9  -5 -10 3177.44 136.080  26
  -9  -5 -11-7.50078 9.36919  16
  -9  -6  -1 421.130 39.8419  27
  -9  -6  -1 441.043 39.5300  14
  -9  -6  -2 14066.7 374.702  27
  -9  -6  -2 15144.8 381.627  14
  -9  -6  -3 4626.17 173.349  27
  -9  -6  -3 4849.13 186.641  14
  -9  -6  -4 361.451 48.1403  26
  -9  -6  -4 380.050 47.4296  14
  -9  -6  -5 2050.49 123.696  26
  -9  -6  -5 2142.28 114.691  14
  -9  -6  -6 9.59886 6.66792  15
  -9  -6  -6 3.99024 8.15437  26
  -9  -6  -6 18.6718 9.04740  14
  -9  -6  -7 57.1709 20.6225  16
  -9  -6  -7 65.3645 15.6129  15
  -9  -6  -7 64.0778 18.3413  26
  -9  -6  -8 489.941 56.0251  16
  -9  -6  -8 410.793 43.0146  15
  -9  -6  -8 440.086 52.2309  26
  -9  -6  -9 739.237 64.4626  16
  -9  -6  -9 764.477 63.1507  26
  -9  -6 -10 439.623 42.4214  16
  -9  -6 -10 383.357 38.4456  26
  -9  -6 -11 2957.81 103.325  16
  -9  -7  -2 89.1178 15.8855  14
  -9  -7  -3 26.9277 9.39021  26
  -9  -7  -3 16.8507 5.97951  14
  -9  -7  -4 11.7460 8.66916  26
  -9  -7  -4 43.3638 15.1482  14
  -9  -7  -5 226.235 27.2258  15
  -9  -7  -5 258.686 32.6194  26
  -9  -7  -5 308.574 35.8108  14
  -9  -7  -6 15018.5 371.081  26
  -9  -7  -6 14486.3 347.781  14
  -9  -7  -7 376.089 46.4629  16
  -9  -7  -7 344.768 35.5978  15
  -9  -7  -7 320.771 37.5625  26
  -9  -7  -8 352.401 43.1376  16
  -9  -7  -8 299.164 33.3035  15
  -9  -7  -8 307.895 34.8812  26
  -9  -7  -9 406.774 43.1809  16
  -9  -7  -9 319.150 32.5863  26
  -9  -7 -10 13.9338 4.20621  16
  -9  -8  -5 786.850 51.0676  16
  -9  -8  -6 920.796 58.7180  16
  -9  -8  -7 255.204 29.9190  16
  -9  -8  -8 425.127 37.4142  16
 -10   6   2 1323.46 66.7817  23
 -10   6   1 347.529 36.0732  23
 -10   6   0 883.472 59.9576  23
 -10   6  -1 671.427 50.4508  23
 -10   6  -1 573.801 39.7345  21
 -10   6  -2 204.705 25.2358  23
 -10   6  -2 226.426 26.6713  21
 -10   6  -3 27.3506 7.33509  21
 -10   6  -4 856.848 49.4672  18
 -10   5   3 101.078 17.3135  23
 -10   5   2 226.954 29.8546  23
 -10   5   1 4977.08 165.859  28
 -10   5   1 6223.94 194.516  23
 -10   5   0 2838.08 124.536  28
 -10   5   0 3139.23 133.165  23
 -10   5   0 3012.68 120.725  21
 -10   5  -1 644.971 56.3558  23
 -10   5  -1 652.090 55.6586  21
 -10   5  -2 1483.62 83.6735  23
 -10   5  -2 1619.41 94.2472  21
 -10   5  -3 1263.78 70.3789  23
 -10   5  -3 1433.21 86.9703  21
 -10   5  -4 56.9779 15.1039  21
 -10   5  -5 986.139 60.0081  18
 -10   4   3 480.754 40.7289  23
 -10   4   2 414.763 40.2685  28
 -10   4   2 491.394 46.3946  23
 -10   4   1 19.3937 10.7497  28
 -10   4   1-14.2722 13.1637  23
 -10   4   0 259.471 40.1150  28
 -10   4   0 250.656 36.9586  23
 -10   4  -1 58.9486 18.8724  28
 -10   4  -1 19.8615 13.8033  23
 -10   4  -1 49.9893 21.1540  21
 -10   4  -2 1029.18 83.4853  28
 -10   4  -2 958.616 70.2774  23
 -10   4  -2 1006.21 81.6848  21
 -10   4  -3 8560.53 253.656  23
 -10   4  -3 9806.85 297.783  21
 -10   4  -4 1584.94 100.213  21
 -10   4  -5 2874.68 130.202  21
 -10   4  -6 200.801 28.0821  21
 -10   4  -6 201.127 27.0232  18
 -10   3   3 7189.34 203.012  28
 -10   3   3 8127.33 219.345  23
 -10   3   2 3832.27 153.086  28
 -10   3   2 3885.41 151.132  23
 -10   3   1 3099.61 146.203  28
 -10   3   1 3025.17 137.489  23
 -10   3   0 5336.03 215.316  28
 -10   3   0 5476.13 199.359  23
 -10   3  -1-9.57352 11.3053  28
 -10   3  -1 33.6754 15.4348  23
 -10   3  -2 13.7992 12.3393  28
 -10   3  -2 11.2407 5.39910  23
 -10   3  -3 467.872 58.1214  28
 -10   3  -4 33.2409 17.7923  21
 -10   3  -5 53.1294 18.2033  21
 -10   3  -6 5.25470 5.43444  21
 -10   3  -7 1293.85 69.7589  21
 -10   3  -7 1115.71 59.4994  18
 -10   2   3 147.080 22.6839  28
 -10   2   3 140.700 22.2383  23
 -10   2   2 18.2332 14.5443  28
 -10   2   2 11.7391 9.55256  23
 -10   2   1 608.879 63.4602  28
 -10   2   1 651.945 58.4166  23
 -10   2   0 3237.05 162.190  28
 -10   2   0 3065.46 141.069  23
 -10   2  -1 11721.7 368.250  28
 -10   2  -1 11252.2 322.856  23
 -10   2  -2 949.697 87.0087  28
 -10   2  -3 2347.29 140.243  28
 -10   2  -4 4950.60 210.980  28
 -10   2  -5 13.7674 8.21031  21
 -10   2  -6 195.094 37.6941  21
 -10   2  -7 1624.56 88.3942  21
 -10   2  -7 1566.84 78.8231  18
 -10   2  -8 138.613 24.2410  19
 -10   1   3 860.156 55.0482  28
 -10   1   3 729.998 45.3396  23
 -10   1   2 1140.29 78.6660  28
 -10   1   2 984.926 64.6862  23
 -10   1   1-4.67180 10.7498  28
 -10   1   1 2.12119 5.17295  23
 -10   1   0-9.55045 10.3244  28
 -10   1   0-7.58199 11.3426  23
 -10   1  -1-5.81741 7.22409  28
 -10   1  -2 194.264 39.6305  28
 -10   1  -3 225.041 40.9482  28
 -10   1  -4 498.917 61.8609  28
 -10   1  -5 3447.63 166.494  28
 -10   1  -6 4937.72 194.256  21
 -10   1  -7 16694.8 422.904  21
 -10   1  -8 2.78769 3.83666  21
 -10   1  -8 31.0831 14.3501  19
 -10   1  -9 708.536 50.7103  19
 -10   0   3 220.164 24.8097  28
 -10   0   2 1985.13 101.058  28
 -10   0   2 1657.21 77.2162  23
 -10   0   1 6341.45 226.685  28
 -10   0   1 5873.03 188.191  23
 -10   0   0 846.932 78.1121  28
 -10   0  -1 757.522 76.7511  28
 -10   0  -2 3062.02 162.745  28
 -10   0  -3 176.659 37.5569  28
 -10   0  -3 251.913 40.0000  26
 -10   0  -4 629.506 67.4704  28
 -10   0  -4 591.122 62.4840  26
 -10   0  -5 390.977 51.4453  28
 -10   0  -5 430.533 50.9642  26
 -10   0  -6 28.3270 8.82378  26
 -10   0  -6 21.4033 12.7475  21
 -10   0  -7 15.2598 10.2483  26
 -10   0  -7 36.5616 16.6395  21
 -10   0  -8 573.882 48.0488  26
 -10   0  -8 611.057 61.2444  19
 -10   0  -9 379.175 39.4534  19
 -10  -1   2 5.77591 9.55803  28
 -10  -1   1 140.498 24.2506  28
 -10  -1   0 308.552 44.7087  28
 -10  -1   0 310.056 49.0578  27
 -10  -1  -1 327.782 46.9627  28
 -10  -1  -1 299.041 49.8614  27
 -10  -1  -2 980.253 84.7011  28
 -10  -1  -3 6274.71 241.378  28
 -10  -1  -4 10752.7 337.598  28
 -10  -1  -4 10535.7 340.070  26
 -10  -1  -5 7684.07 265.357  28
 -10  -1  -5 7882.56 273.979  26
 -10  -1  -6 477.141 52.6717  28
 -10  -1  -6 588.017 60.4733  26
 -10  -1  -7 702.072 65.3390  26
 -10  -1  -7 674.475 56.5106  21
 -10  -1  -8 275.653 38.0012  26
 -10  -1  -8 273.769 40.5279  19
 -10  -1  -9 394.084 41.9901  19
 -10  -1 -10 223.023 25.8069  19
 -10  -2   1 440.614 42.5112  28
 -10  -2   1 536.092 49.4927  27
 -10  -2   0 2591.66 126.385  28
 -10  -2   0 2701.69 136.524  27
 -10  -2  -1 1214.25 88.1904  28
 -10  -2  -1 1317.67 99.0318  27
 -10  -2  -2 260.078 40.0942  28
 -10  -2  -2 225.072 40.7264  27
 -10  -2  -3 165.402 31.9959  28
 -10  -2  -4 601.987 62.4819  28
 -10  -2  -4 578.067 68.6294  26
 -10  -2  -5 1199.93 86.1156  28
 -10  -2  -5 1294.69 101.209  26
 -10  -2  -6 749.195 63.7457  16
 -10  -2  -6 755.065 74.0001  26
 -10  -2  -7 176.609 33.3003  26
 -10  -2  -7 210.441 36.4605  19
 -10  -2  -8 27488.0 639.296  26
 -10  -2  -8 26065.4 624.256  19
 -10  -2  -9 15985.8 394.829  26
 -10  -2  -9 15231.4 390.097  19
 -10  -2 -10 369.925 33.6638  19
 -10  -3   1 16.2988 7.55799  27
 -10  -3   0 2693.21 111.365  28
 -10  -3   0 3218.68 135.640  27
 -10  -3  -1 259.672 38.3401  28
 -10  -3  -1 268.727 48.7170  27
 -10  -3  -1 242.370 40.2294  14
 -10  -3  -2 8006.24 251.891  28
 -10  -3  -2 8515.01 287.090  27
 -10  -3  -2 8060.43 266.514  14
 -10  -3  -3 82.0761 19.7216  28
 -10  -3  -3 52.4662 18.1284  27
 -10  -3  -3 110.136 26.6883  14
 -10  -3  -4 39.5506 17.1783  26
 -10  -3  -4 20.1055 18.2163  14
 -10  -3  -5 335.100 51.6330  26
 -10  -3  -6 1218.53 86.9481  16
 -10  -3  -6 1285.81 97.6954  26
 -10  -3  -7 125.540 25.6458  16
 -10  -3  -7 117.835 26.6276  26
 -10  -3  -8 21.0246 9.37516  16
 -10  -3  -8 34.0979 9.62508  26
 -10  -3  -9 139.322 21.5255  16
 -10  -3  -9 161.497 29.2452  26
 -10  -3  -9 115.919 20.5791  19
 -10  -4   0 119.456 20.0683  27
 -10  -4  -1 29.0663 12.4401  27
 -10  -4  -1 28.9218 12.3918  14
 -10  -4  -2 580.171 57.7099  27
 -10  -4  -2 590.150 55.3051  14
 -10  -4  -3 3935.20 167.109  27
 -10  -4  -3 3806.19 164.018  14
 -10  -4  -4 162.113 32.1265  26
 -10  -4  -4 122.764 26.5309  14
 -10  -4  -5 1577.06 108.427  26
 -10  -4  -6 25894.7 629.265  16
 -10  -4  -6 26572.9 650.175  26
 -10  -4  -7 6507.53 225.425  16
 -10  -4  -7 6801.79 240.262  26
 -10  -4  -8 504.101 48.7949  16
 -10  -4  -8 548.237 55.5482  26
 -10  -4  -9 271.330 31.5017  16
 -10  -4  -9 290.127 37.8047  26
 -10  -4 -10 121.665 20.9538  26
 -10  -5  -1 697.477 44.1465  26
 -10  -5  -2 32.7798 13.1889  27
 -10  -5  -2 16.8848 8.71729  14
 -10  -5  -3 12.4791 13.7041  26
 -10  -5  -3 7.41625 8.84701  14
 -10  -5  -4 575.102 56.9565  26
 -10  -5  -4 562.007 52.8576  14
 -10  -5  -5 113.024 26.5657  26
 -10  -5  -5 120.411 23.6614  14
 -10  -5  -6 394.136 52.1097  16
 -10  -5  -6 507.766 58.6865  26
 -10  -5  -7 5233.62 196.378  16
 -10  -5  -7 5540.20 203.427  26
 -10  -5  -8 1111.93 73.9257  16
 -10  -5  -8 1127.38 76.8729  26
 -10  -5  -9 4241.92 147.637  16
 -10  -5  -9 4387.20 154.143  26
 -10  -5 -10 20150.2 445.763  26
 -10  -6  -3 3584.01 121.339  26
 -10  -6  -3 3995.99 127.320  14
 -10  -6  -4 14163.0 359.434  26
 -10  -6  -4 15406.8 358.503  14
 -10  -6  -5 1944.55 96.3324  26
 -10  -6  -6 286.983 36.2020  16
 -10  -6  -6 290.589 34.3553  26
 -10  -6  -7 32.9824 17.6665  16
 -10  -6  -7 6.80222 4.93961  26
 -10  -6  -8 822.050 57.9171  16
 -10  -6  -8 773.310 54.5296  26
 -10  -6  -9 10.3342 4.30798  16
 -10  -6  -9 6.86421 3.36536  26
 -10  -7  -6 963.219 55.5399  16
 -10  -7  -7 6630.99 185.929  16
 -11   4  -1 32.7350 10.4062  21
 -11   4  -2 581.415 46.4343  21
 -11   4  -3 46.4144 13.5618  21
 -11   4  -4 4316.96 141.161  21
 -11   4  -5 13309.6 306.324  21
 -11   3   1 5794.67 162.375  28
 -11   3   0 1878.35 88.9641  28
 -11   3   0 1798.80 80.0027  21
 -11   3  -1 1142.54 73.3975  28
 -11   3  -1 1108.22 68.6230  21
 -11   3  -2 2854.49 127.377  28
 -11   3  -2 3029.65 127.918  21
 -11   3  -3 641.752 54.9078  21
 -11   3  -4 182.967 27.9628  21
 -11   3  -5 20.0722 9.83811  21
 -11   3  -6 250.816 25.8389  21
 -11   2   1 119.015 19.7898  28
 -11   2   0 67.6966 17.6688  28
 -11   2  -1 9.22736 8.22912  28
 -11   2  -2 13567.9 368.577  28
 -11   2  -3 20473.4 506.680  28
 -11   2  -4 2842.72 129.037  21
 -11   2  -5 4387.66 161.250  21
 -11   2  -6 2887.59 113.092  21
 -11   2  -7 90.6824 16.6201  19
 -11   1   1 2752.09 104.818  28
 -11   1   0 264.953 35.2197  28
 -11   1  -1 1327.63 85.1344  28
 -11   1  -2 118.315 24.5811  28
 -11   1  -3 78.4587 23.5968  28
 -11   1  -4 6.64580 6.88633  28
 -11   1  -5 557.001 52.1531  21
 -11   1  -6 6990.00 210.964  21
 -11   1  -7 9330.15 215.347  21
 -11   1  -7 6618.16 220.466  19
 -11   0   1 1105.87 57.1615  28
 -11   0   0 19601.6 460.350  28
 -11   0  -1 26456.8 610.442  28
 -11   0  -2 1472.72 90.8593  28
 -11   0  -2 1289.21 71.0767  26
 -11   0  -3 6027.45 209.710  28
 -11   0  -3 5691.78 182.204  26
 -11   0  -4 868.377 68.9174  28
 -11   0  -4 826.075 57.1547  26
 -11   0  -5 193.390 30.0568  28
 -11   0  -6 9.03494 6.76433  21
 -11   0  -7 71.8028 14.3794  21
 -11   0  -7 65.4832 16.6338  19
 -11   0  -8 17.2330 8.16532  19
 -11  -1   0 38.8657 12.2299  28
 -11  -1  -1 133.545 27.2945  28
 -11  -1  -1 134.955 25.1327  26
 -11  -1  -2 13.5417 8.49271  28
 -11  -1  -2 14.3410 9.09691  26
 -11  -1  -3 3568.54 146.254  28
 -11  -1  -3 3447.35 140.710  26
 -11  -1  -4 13853.9 361.917  28
 -11  -1  -4 13664.1 360.591  26
 -11  -1  -5 10339.2 286.572  28
 -11  -1  -5 10613.5 292.299  26
 -11  -1  -6 170.376 25.3147  26
 -11  -1  -6 138.569 21.2349  21
 -11  -1  -7 3705.22 126.443  26
 -11  -1  -7 2902.53 116.363  19
 -11  -1  -8 176.177 21.9733  19
 -11  -2  -1 3460.88 117.043  28
 -11  -2  -1 3583.62 123.906  26
 -11  -2  -2 410.056 38.2563  28
 -11  -2  -2 470.794 45.0786  26
 -11  -2  -3 11.2100 5.27398  28
 -11  -2  -3 29.9352 12.5860  26
 -11  -2  -4 704.648 52.1294  28
 -11  -2  -4 796.146 63.8445  26
 -11  -2  -5 128.964 24.6600  26
 -11  -2  -6 12.8014 6.09551  26
 -11  -2  -6 1.86515 8.02307  21
 -11  -2  -7 57.1612 12.3791  26
 -11  -2  -8 2845.01 106.886  26
 -11  -3  -2 29095.1 634.029  26
 -11  -3  -3 22536.5 525.514  26
 -11  -3  -4 297.639 30.1416  16
 -11  -3  -4 493.411 47.9731  26
 -11  -3  -5 2473.37 101.682  16
 -11  -3  -5 3787.21 143.271  26
 -11  -3  -6-8.69688 8.80118  26
 -11  -3  -7-16.5633 12.3860  26
 -11  -3  -8 6.66253 3.67213  26
 -11  -4  -3 21.9075 10.5827  26
 -11  -4  -4 114.385 18.1545  16
 -11  -4  -4 189.849 27.2518  26
 -11  -4  -5 466.166 38.6158  16
 -11  -4  -5 810.895 58.3388  26
 -11  -4  -6 2490.70 100.327  16
 -11  -4  -6 3913.23 136.056  26
 -11  -4  -7 31.6084 7.79938  16
 -11  -4  -7 39.0844 11.0287  26
 -11  -4  -8 952.918 56.3902  26
 -11  -5  -5 304.871 29.0155  26
 -11  -5  -6 111.240 18.4822  26
 -11  -5  -7 395.259 33.1782  26
 -12   1  -3 327.019 27.9842  21
 -12   1  -4 311.591 27.6003  21
 -12   0  -3 784.308 45.2720  21
 -12   0  -4 1067.00 53.4482  21
   0   0   0    0.00    0.00   0
TITL Cl4Q_4ampy in P-1
REM P-1 (#2 in standard setting)
CELL 1.54184   9.601417  10.021850  10.740155  66.2186  72.0128  89.5217
ZERR    8.00   0.000537   0.000560   0.000625   0.0055   0.0054   0.0046
LATT  1
SFAC C N O Cr Cu
UNIT 8.00 16.00 8.00 8.00 8.00
TREF
HKLF 4
END
;
loop_
_symmetry_equiv_pos_as_xyz
'x, y, z'
'-x, -y, -z'
loop_
_atom_site_label
_atom_site_fract_x
_atom_site_fract_y
_atom_site_fract_z
_atom_site_U_iso_or_equiv
_atom_site_adp_type
_atom_site_calc_flag
_atom_site_refinement_flags
_atom_site_occupancy
_atom_site_type_symbol
Cl1 0.62533(10) 0.22167(9) 0.71577(8) 0.0494(2) Uani d . 1 Cl
Cl2 0.90837(8) 0.40072(9) 0.44203(9) 0.0514(2) Uani d . 1 Cl
Cl3 0.56776(10) 0.54946(9) 0.10422(8) 0.0524(3) Uani d . 1 Cl
Cl4 0.28444(8) 0.37288(9) 0.37968(10) 0.0509(2) Uani d . 1 Cl
O1 0.3625(3) 0.2190(3) 0.6379(3) 0.0593(6) Uani d . 1 O
O2 0.8352(3) 0.5353(3) 0.1783(3) 0.0567(6) Uani d . 1 O
C1 0.4694(3) 0.2927(3) 0.5337(3) 0.0375(6) Uani d . 1 C
C2 0.6176(3) 0.3066(3) 0.5444(3) 0.0357(5) Uani d . 1 C
C3 0.7371(3) 0.3827(3) 0.4291(3) 0.0355(5) Uani d . 1 C
C4 0.7275(3) 0.4612(3) 0.2832(3) 0.0378(6) Uani d . 1 C
C5 0.5793(3) 0.4530(3) 0.2726(3) 0.0360(6) Uani d . 1 C
C6 0.4592(3) 0.3764(3) 0.3887(3) 0.0360(6) Uani d . 1 C
Cl5 0.18982(7) -0.02746(8) 0.47005(8) 0.0404(2) Uani d . 1 Cl
Cl6 0.45974(8) 0.17181(8) 0.20078(7) 0.0403(2) Uani d . 1 Cl
O3 0.2721(2) -0.1912(2) 0.7276(2) 0.0392(4) Uani d . 1 O
C7 0.3764(3) -0.1000(3) 0.6231(3) 0.0300(5) Uani d . 1 C
C8 0.3624(3) -0.0133(3) 0.4835(3) 0.0307(5) Uani d . 1 C
C9 0.4786(3) 0.0790(3) 0.3676(3) 0.0301(5) Uani d . 1 C
N1 -0.1383(3) 0.1739(3) 0.9122(3) 0.0483(6) Uani d P 0.5 N
N2 -0.0619(6) -0.2102(5) 0.8571(6) 0.103(2) Uani d P 0.5 N
H2A -0.117 -0.2915 0.919 0.124 Uiso calc PR 0.5 H
H2B 0.0109 -0.2091 0.7856 0.124 Uiso calc PR 0.5 H
C10 -0.0215(3) 0.1724(4) 0.7998(3) 0.0475(7) Uani d D 1 C
H10 0.0421 0.2588 0.7358 0.057 Uiso calc R 1 H
C11 0.0023(4) 0.0488(4) 0.7809(3) 0.0528(8) Uani d . 1 C
H11 0.0829 0.0514 0.7044 0.063 Uiso calc R 1 H
C12 -0.0899(3) -0.0826(3) 0.8723(3) 0.0491(7) Uani d P 0.5 C
C14 -0.2293(4) 0.0430(4) 1.0048(4) 0.0531(8) Uani d D 1 C
H14 -0.3088 0.0406 1.082 0.064 Uiso calc R 1 H
C13 -0.2061(3) -0.0817(4) 0.9862(3) 0.0497(7) Uani d . 1 C
H13 -0.2692 -0.1682 1.0511 0.06 Uiso calc R 1 H
C15 -0.1614(6) 0.3010(6) 0.9335(6) 0.113(2) Uani d P 0.5 C
H15A -0.0875 0.3803 0.8589 0.17 Uiso calc PR 0.5 H
H15B -0.1551 0.2852 1.0258 0.17 Uiso calc PR 0.5 H
H15C -0.2575 0.3255 0.9306 0.17 Uiso calc PR 0.5 H
C15B -0.0619(6) -0.2102(5) 0.8571(6) 0.103(2) Uani d P 0.5 C
H15D 0.0355 -0.1961 0.7895 0.155 Uiso calc PR 0.5 H
H15E -0.1332 -0.2367 0.8222 0.155 Uiso calc PR 0.5 H
H15F -0.0683 -0.2873 0.9488 0.155 Uiso calc PR 0.5 H
C12B -0.1383(3) 0.1739(3) 0.9122(3) 0.0483(6) Uani d PD 0.5 C
N2B -0.1614(6) 0.3010(6) 0.9335(6) 0.113(2) Uani d PD 0.5 N
N1B -0.0899(3) -0.0826(3) 0.8723(3) 0.0491(7) Uani d P 0.5 N
H2C -0.246(3) 0.301(4) 0.986(5) 0.059 Uiso d PD 0.5 H
H2D -0.086(3) 0.362(5) 0.898(6) 0.059 Uiso d PD 0.5 H
loop_
_atom_site_aniso_label
_atom_site_aniso_U_11
_atom_site_aniso_U_22
_atom_site_aniso_U_33
_atom_site_aniso_U_12
_atom_site_aniso_U_13
_atom_site_aniso_U_23
Cl1 0.0627(5) 0.0540(5) 0.0342(4) 0.0048(4) -0.0197(3) -0.0184(3)
Cl2 0.0385(4) 0.0552(5) 0.0630(5) -0.0039(3) -0.0244(3) -0.0218(4)
Cl3 0.0669(5) 0.0456(4) 0.0423(4) -0.0017(3) -0.0286(4) -0.0082(3)
Cl4 0.0343(4) 0.0561(5) 0.0714(6) 0.0103(3) -0.0238(4) -0.0312(4)
O1 0.0369(11) 0.0804(17) 0.0429(12) -0.0068(11) 0.0014(9) -0.0193(12)
O2 0.0452(12) 0.0581(14) 0.0440(12) -0.0181(10) -0.0067(10) -0.0050(10)
C1 0.0332(13) 0.0410(14) 0.0342(13) -0.0002(11) -0.0046(11) -0.0165(12)
C2 0.0400(14) 0.0370(13) 0.0325(12) 0.0018(11) -0.0118(11) -0.0173(11)
C3 0.0341(13) 0.0348(13) 0.0406(14) -0.0001(10) -0.0144(11) -0.0174(11)
C4 0.0358(13) 0.0350(13) 0.0347(13) -0.0077(10) -0.0060(11) -0.0112(11)
C5 0.0414(14) 0.0313(12) 0.0351(13) 0.0002(10) -0.0149(11) -0.0121(10)
C6 0.0327(13) 0.0364(13) 0.0434(14) 0.0044(10) -0.0139(11) -0.0203(11)
Cl5 0.0280(3) 0.0483(4) 0.0468(4) 0.0028(3) -0.0144(3) -0.0203(3)
Cl6 0.0451(4) 0.0426(4) 0.0305(4) 0.0036(3) -0.0151(3) -0.0110(3)
O3 0.0302(9) 0.0440(11) 0.0315(9) -0.0043(8) -0.0008(7) -0.0112(8)
C7 0.0273(12) 0.0298(12) 0.0273(11) -0.0007(9) -0.0022(9) -0.0116(10)
C8 0.0266(11) 0.0328(12) 0.0334(12) 0.0021(9) -0.0082(10) -0.0160(10)
C9 0.0317(12) 0.0295(11) 0.0266(11) 0.0017(9) -0.0071(9) -0.0112(9)
N1 0.0396(14) 0.0536(16) 0.0421(14) -0.0052(12) -0.0026(11) -0.0189(12)
N2 0.094(3) 0.051(2) 0.094(3) 0.010(2) 0.042(3) -0.015(2)
C10 0.0412(15) 0.0535(17) 0.0339(13) -0.0101(13) -0.0028(12) -0.0117(12)
C11 0.0460(16) 0.0599(19) 0.0347(14) -0.0001(14) 0.0026(12) -0.0142(14)
C12 0.0440(15) 0.0499(16) 0.0411(14) 0.0012(12) -0.0026(11) -0.0158(12)
C14 0.0376(15) 0.063(2) 0.0454(16) -0.0065(14) 0.0047(12) -0.0231(15)
C13 0.0358(14) 0.0513(17) 0.0431(15) -0.0030(12) -0.0007(12) -0.0106(13)
C15 0.101(3) 0.100(3) 0.103(4) -0.055(3) 0.054(3) -0.073(3)
C15B 0.094(3) 0.051(2) 0.094(3) 0.010(2) 0.042(3) -0.015(2)
C12B 0.0396(14) 0.0536(16) 0.0421(14) -0.0052(12) -0.0026(11) -0.0189(12)
N2B 0.101(3) 0.100(3) 0.103(4) -0.055(3) 0.054(3) -0.073(3)
N1B 0.0440(15) 0.0499(16) 0.0411(14) 0.0012(12) -0.0026(11) -0.0158(12)
loop_
_atom_type_symbol
_atom_type_description
_atom_type_scat_dispersion_real
_atom_type_scat_dispersion_imag
_atom_type_scat_source
C C 0.0181 0.0091 'International Tables Vol C Tables 4.2.6.8 and 6.1.1.4'
N N 0.0311 0.018 'International Tables Vol C Tables 4.2.6.8 and 6.1.1.4'
O O 0.0492 0.0322 'International Tables Vol C Tables 4.2.6.8 and 6.1.1.4'
H H 0 0 'International Tables Vol C Tables 4.2.6.8 and 6.1.1.4'
Cu Cu -1.9646 0.5888 'International Tables Vol C Tables 4.2.6.8 and 6.1.1.4'
Cl Cl 0.3639 0.7018 'International Tables Vol C Tables 4.2.6.8 and 6.1.1.4'
loop_
_geom_angle_atom_site_label_1
_geom_angle_atom_site_label_2
_geom_angle_atom_site_label_3
_geom_angle
_geom_angle_site_symmetry_1
_geom_angle_site_symmetry_3
O1 C1 C2 122.3(3) . .
O1 C1 C6 122.5(3) . .
C2 C1 C6 115.2(2) . .
C3 C2 C1 122.6(2) . .
C3 C2 Cl1 122.5(2) . .
C1 C2 Cl1 114.9(2) . .
C2 C3 C4 121.9(2) . .
C2 C3 Cl2 122.6(2) . .
C4 C3 Cl2 115.5(2) . .
O2 C4 C5 121.8(3) . .
O2 C4 C3 122.2(3) . .
C5 C4 C3 115.8(2) . .
C6 C5 C4 122.2(2) . .
C6 C5 Cl3 122.2(2) . .
C4 C5 Cl3 115.6(2) . .
C5 C6 C1 122.1(2) . .
C5 C6 Cl4 122.7(2) . .
C1 C6 Cl4 115.1(2) . .
O3 C7 C8 122.7(2) . .
O3 C7 C9 122.3(2) . 2_656
C8 C7 C9 114.9(2) . 2_656
C9 C8 C7 122.5(2) . .
C9 C8 Cl5 120.9(2) . .
C7 C8 Cl5 116.56(19) . .
C8 C9 C7 122.5(2) . 2_656
C8 C9 Cl6 120.9(2) . .
C7 C9 Cl6 116.55(18) 2_656 .
C10 N1 C14 117.3(3) . .
C10 N1 C15 121.3(3) . .
C14 N1 C15 121.4(3) . .
C12 N2 H2A 120 . .
C12 N2 H2B 120 . .
H2A N2 H2B 120 . .
C11 C10 N1 121.3(3) . .
C11 C10 H10 119.4 . .
N1 C10 H10 119.4 . .
C10 C11 C12 121.8(3) . .
C10 C11 H11 119.1 . .
C12 C11 H11 119.1 . .
N2 C12 C13 121.0(3) . .
N2 C12 C11 121.8(3) . .
C13 C12 C11 117.0(3) . .
C13 C14 N1 121.7(3) . .
C13 C14 H14 119.1 . .
N1 C14 H14 119.1 . .
C14 C13 C12 120.9(3) . .
C14 C13 H13 119.5 . .
C12 C13 H13 119.5 . .
N1 C15 H15A 109.5 . .
N1 C15 H15B 109.5 . .
H15A C15 H15B 109.5 . .
N1 C15 H15C 109.5 . .
H15A C15 H15C 109.5 . .
H15B C15 H15C 109.5 . .
N1 C15 H2C 115(2) . .
H15A C15 H2C 131.3 . .
H15B C15 H2C 73 . .
H15C C15 H2C 37.5 . .
N1 C15 H2D 115(3) . .
H15A C15 H2D 24 . .
H15B C15 H2D 86.1 . .
H15C C15 H2D 124.5 . .
H2C C15 H2D 130(3) . .
loop_
_geom_bond_atom_site_label_1
_geom_bond_atom_site_label_2
_geom_bond_site_symmetry_2
_geom_bond_distance
Cl1 C2 . 1.714(3)
Cl2 C3 . 1.710(3)
Cl3 C5 . 1.711(3)
Cl4 C6 . 1.712(3)
O1 C1 . 1.220(4)
O2 C4 . 1.228(3)
C1 C2 . 1.475(4)
C1 C6 . 1.476(4)
C2 C3 . 1.344(4)
C3 C4 . 1.476(4)
C4 C5 . 1.468(4)
C5 C6 . 1.352(4)
Cl5 C8 . 1.719(3)
Cl6 C9 . 1.721(3)
O3 C7 . 1.261(3)
C7 C8 . 1.446(4)
C7 C9 2_656 1.449(4)
C8 C9 . 1.371(4)
C9 C7 2_656 1.449(4)
N1 C10 . 1.375(4)
N1 C14 . 1.380(4)
N1 C15 . 1.387(5)
N2 C12 . 1.367(5)
N2 H2A . 0.86
N2 H2B . 0.86
C10 C11 . 1.341(5)
C10 H10 . 0.93
C11 C12 . 1.386(4)
C11 H11 . 0.93
C12 C13 . 1.382(4)
C14 C13 . 1.348(5)
C14 H14 . 0.93
C13 H13 . 0.93
C15 H15A . 0.96
C15 H15B . 0.96
C15 H15C . 0.96
C15 H2C . 0.837(19)
C15 H2D . 0.836(19)
loop_
_geom_torsion_atom_site_label_1
_geom_torsion_atom_site_label_2
_geom_torsion_atom_site_label_3
_geom_torsion_atom_site_label_4
_geom_torsion
_geom_torsion_site_symmetry_1
_geom_torsion_site_symmetry_4
O1 C1 C2 C3 177.3(3) . .
C6 C1 C2 C3 -3.8(4) . .
O1 C1 C2 Cl1 -4.1(4) . .
C6 C1 C2 Cl1 174.79(19) . .
C1 C2 C3 C4 1.5(4) . .
Cl1 C2 C3 C4 -177.1(2) . .
C1 C2 C3 Cl2 179.2(2) . .
Cl1 C2 C3 Cl2 0.6(4) . .
C2 C3 C4 O2 177.3(3) . .
Cl2 C3 C4 O2 -0.5(4) . .
C2 C3 C4 C5 1.1(4) . .
Cl2 C3 C4 C5 -176.74(19) . .
O2 C4 C5 C6 -177.4(3) . .
C3 C4 C5 C6 -1.1(4) . .
O2 C4 C5 Cl3 1.6(4) . .
C3 C4 C5 Cl3 177.81(19) . .
C4 C5 C6 C1 -1.5(4) . .
Cl3 C5 C6 C1 179.7(2) . .
C4 C5 C6 Cl4 176.8(2) . .
Cl3 C5 C6 Cl4 -2.0(4) . .
O1 C1 C6 C5 -177.3(3) . .
C2 C1 C6 C5 3.8(4) . .
O1 C1 C6 Cl4 4.3(4) . .
C2 C1 C6 Cl4 -174.59(19) . .
O3 C7 C8 C9 -175.9(2) . .
C9 C7 C8 C9 1.6(4) 2_656 .
O3 C7 C8 Cl5 5.8(3) . .
C9 C7 C8 Cl5 -176.74(17) 2_656 .
C7 C8 C9 C7 -1.7(4) . 2_656
Cl5 C8 C9 C7 176.55(18) . 2_656
C7 C8 C9 Cl6 176.10(18) . .
Cl5 C8 C9 Cl6 -5.6(3) . .
C14 N1 C10 C11 0.3(5) . .
C15 N1 C10 C11 178.7(5) . .
N1 C10 C11 C12 0.6(5) . .
C10 C11 C12 N2 -177.0(4) . .
C10 C11 C12 C13 -1.4(5) . .
C10 N1 C14 C13 -0.4(5) . .
C15 N1 C14 C13 -178.8(5) . .
N1 C14 C13 C12 -0.5(6) . .
N2 C12 C13 C14 176.9(5) . .
C11 C12 C13 C14 1.3(5) . .
