#------------------------------------------------------------------------------
#$Date: 2019-11-08 01:56:59 +0200 (Fri, 08 Nov 2019) $
#$Revision: 224627 $
#$URL: file:///home/coder/svn-repositories/cod/cif/7/23/30/7233001.cif $
#------------------------------------------------------------------------------
#
# This file is available in the Crystallography Open Database (COD),
# http://www.crystallography.net/
#
# All data on this site have been placed in the public domain by the
# contributors.
#
data_7233001
loop_
_publ_author_name
'Liang, Yaofeng'
'Teng, Lili'
'Wang, Yajun'
'He, Qiuxing'
'Cao, Hua'
_publ_section_title
;
 A visible-light-induced intermolecular [3 + 2] alkenylation--cyclization
 strategy: metal-free construction of pyrrolo[2,1,5-cd]indolizine rings
;
_journal_issue                   15
_journal_name_full               'Green Chemistry'
_journal_page_first              4025
_journal_paper_doi               10.1039/C9GC01766F
_journal_volume                  21
_journal_year                    2019
_chemical_formula_moiety         'C19 H15 N O2'
_chemical_formula_sum            'C19 H15 N O2'
_chemical_formula_weight         289.32
_space_group_crystal_system      monoclinic
_space_group_IT_number           4
_space_group_name_Hall           'P 2yb'
_space_group_name_H-M_alt        'P 1 21 1'
_symmetry_space_group_name_Hall  'P 2yb'
_symmetry_space_group_name_H-M   'P 1 21 1'
_atom_sites_solution_hydrogens   geom
_atom_sites_solution_primary     dual
_audit_creation_date             2019-03-10
_audit_creation_method
;
Olex2 1.2
(compiled 2018.05.29 svn.r3508 for OlexSys, GUI svn.r5506)
;
_audit_update_record
;
2019-06-13 deposited with the CCDC.    2019-07-01 downloaded from the CCDC.
;
_cell_angle_alpha                90
_cell_angle_beta                 97.305(5)
_cell_angle_gamma                90
_cell_formula_units_Z            2
_cell_length_a                   3.9198(2)
_cell_length_b                   25.3323(11)
_cell_length_c                   7.1542(3)
_cell_measurement_reflns_used    2410
_cell_measurement_temperature    100.00(10)
_cell_measurement_theta_max      73.2820
_cell_measurement_theta_min      6.4760
_cell_volume                     704.63(6)
_computing_cell_refinement       'CrysAlisPro 1.171.38.43f (Rigaku OD, 2015)'
_computing_data_collection       'CrysAlisPro 1.171.38.43f (Rigaku OD, 2015)'
_computing_data_reduction        'CrysAlisPro 1.171.38.43f (Rigaku OD, 2015)'
_computing_molecular_graphics    'Olex2 (Dolomanov et al., 2009)'
_computing_publication_material  'Olex2 (Dolomanov et al., 2009)'
_computing_structure_refinement  'ShelXL (Sheldrick, 2015)'
_computing_structure_solution    'ShelXT (Sheldrick, 2015)'
_diffrn_ambient_environment      N~2~
_diffrn_ambient_temperature      100.00(10)
_diffrn_detector                 'CCD plate'
_diffrn_detector_area_resol_mean 5.2684
_diffrn_detector_type            AtlasS2
_diffrn_measured_fraction_theta_full 0.996
_diffrn_measured_fraction_theta_max 0.976
_diffrn_measurement_details
;
List of Runs (angles in degrees, time in seconds):

  # Type    Start    End  Width  t~exp~   \w     \q     \k     \f   Frames
#--------------------------------------------------------------------------
  1  \w     17.00  82.00   1.00    1.00    --   40.73  38.00-120.00   65
  2  \w     95.00 135.00   1.00    1.00    --  106.95 125.00 -30.00   40
  3  \w    135.00 173.00   1.00    1.00    --  106.95  45.00  30.00   38
  4  \w     99.00 160.00   1.00    1.00    --  106.95 125.00-150.00   61
  5  \w     84.00 132.00   1.00    1.00    --  106.95 -30.00-150.00   48
  6  \w     51.00  92.00   1.00    1.00    --  106.95 -95.00 -30.00   41
  7  \w     76.00 112.00   1.00    1.00    --  106.95 -45.00  30.00   36
  8  \w     43.00 115.00   1.00    1.00    --  106.95 -30.00 -60.00   72
  9  \w     36.00  82.00   1.00    1.00    --  106.95 -30.00-150.00   46
 10  \w      4.00  36.00   1.00    1.00    --   40.73 -99.00 -30.00   32
 11  \w    -65.00 -13.00   1.00    1.00    --  -40.73 -57.00  90.00   52
 12  \w   -110.00 -70.00   1.00    1.00    --  -40.73 -57.00  90.00   40
 13  \w    -82.00  29.00   1.00    1.00    --  -41.23  19.00-180.00  111
 14  \w     76.00 104.00   1.00    1.00    --   41.23  38.00 150.00   28
 15  \w     33.00  59.00   1.00    1.00    --   41.23  38.00 150.00   26
 16  \w     21.00  47.00   1.00    1.00    --   41.23 -99.00-120.00   26
 17  \w     74.00 133.00   1.00    1.00    --  106.95  77.00  90.00   59
 18  \w     81.00 108.00   1.00    1.00    --  106.95  77.00  60.00   27
;
_diffrn_measurement_device       'four-circle diffractometer'
_diffrn_measurement_device_type  'SuperNova, Dual, Cu at zero, AtlasS2'
_diffrn_measurement_method       '\w scans'
_diffrn_orient_matrix_type
'CrysAlisPro convention (1999,Acta A55,543-557)'
_diffrn_orient_matrix_UB_11      0.2770233000
_diffrn_orient_matrix_UB_12      0.0040857000
_diffrn_orient_matrix_UB_13      0.1725799000
_diffrn_orient_matrix_UB_21      0.2115052000
_diffrn_orient_matrix_UB_22      0.0372737000
_diffrn_orient_matrix_UB_23      -0.1106706000
_diffrn_orient_matrix_UB_31      -0.1884228000
_diffrn_orient_matrix_UB_32      0.0478868000
_diffrn_orient_matrix_UB_33      0.0713890000
_diffrn_radiation_monochromator  mirror
_diffrn_radiation_probe          x-ray
_diffrn_radiation_type           CuK\a
_diffrn_radiation_wavelength     1.54184
_diffrn_reflns_av_R_equivalents  0.0177
_diffrn_reflns_av_unetI/netI     0.0212
_diffrn_reflns_Laue_measured_fraction_full 0.996
_diffrn_reflns_Laue_measured_fraction_max 0.976
_diffrn_reflns_limit_h_max       4
_diffrn_reflns_limit_h_min       -4
_diffrn_reflns_limit_k_max       30
_diffrn_reflns_limit_k_min       -31
_diffrn_reflns_limit_l_max       8
_diffrn_reflns_limit_l_min       -6
_diffrn_reflns_number            3274
_diffrn_reflns_point_group_measured_fraction_full 0.820
_diffrn_reflns_point_group_measured_fraction_max 0.790
_diffrn_reflns_theta_full        67.684
_diffrn_reflns_theta_max         73.339
_diffrn_reflns_theta_min         6.237
_diffrn_source                   'micro-focus sealed X-ray tube'
_diffrn_source_type              'SuperNova (Cu) X-ray Source'
_exptl_absorpt_coefficient_mu    0.709
_exptl_absorpt_correction_T_max  1.00000
_exptl_absorpt_correction_T_min  0.41660
_exptl_absorpt_correction_type   multi-scan
_exptl_absorpt_process_details
;
CrysAlisPro 1.171.38.43f (Rigaku Oxford Diffraction, 2015)
Empirical absorption correction using spherical harmonics,
 implemented in SCALE3 ABSPACK scaling algorithm.
;
_exptl_crystal_colour            black
_exptl_crystal_colour_primary    black
_exptl_crystal_density_diffrn    1.364
_exptl_crystal_description       block
_exptl_crystal_F_000             304
_exptl_crystal_size_max          0.13
_exptl_crystal_size_mid          0.12
_exptl_crystal_size_min          0.11
_refine_diff_density_max         0.195
_refine_diff_density_min         -0.290
_refine_diff_density_rms         0.078
_refine_ls_abs_structure_details
;
 Flack x determined using 767 quotients [(I+)-(I-)]/[(I+)+(I-)]
 (Parsons, Flack and Wagner, Acta Cryst. B69 (2013) 249-259).
;
_refine_ls_abs_structure_Flack   -0.08(15)
_refine_ls_extinction_method     none
_refine_ls_goodness_of_fit_ref   1.067
_refine_ls_hydrogen_treatment    constr
_refine_ls_matrix_type           full
_refine_ls_number_parameters     201
_refine_ls_number_reflns         2230
_refine_ls_number_restraints     1
_refine_ls_restrained_S_all      1.067
_refine_ls_R_factor_all          0.0385
_refine_ls_R_factor_gt           0.0367
_refine_ls_shift/su_max          0.000
_refine_ls_shift/su_mean         0.000
_refine_ls_structure_factor_coef Fsqd
_refine_ls_weighting_details
'w=1/[\s^2^(Fo^2^)+(0.0543P)^2^+0.2345P] where P=(Fo^2^+2Fc^2^)/3'
_refine_ls_weighting_scheme      calc
_refine_ls_wR_factor_gt          0.0949
_refine_ls_wR_factor_ref         0.0966
_reflns_Friedel_coverage         0.583
_reflns_Friedel_fraction_full    0.636
_reflns_Friedel_fraction_max     0.596
_reflns_number_gt                2173
_reflns_number_total             2230
_reflns_threshold_expression     'I > 2\s(I)'
_iucr_refine_instructions_details
;
TITL 157_a.res in P2(1)
    157.res
    created by SHELXL-2018/3 at 15:11:23 on 10-Mar-2019
REM Old TITL 157 in P2(1)
REM SHELXT solution in P2(1): R1 0.076, Rweak 0.031, Alpha 0.005
REM <I/s> 1.057 for 14 systematic absences, Orientation as input
REM Flack x = 0.304 ( 0.164 ) from 384 Parsons' quotients
REM Formula found by SHELXT: C19 N O2
CELL 1.54184 3.919757 25.33234 7.15417 90 97.3048 90
ZERR 2 0.000203 0.001094 0.000313 0 0.0048 0
LATT -1
SYMM -X,0.5+Y,-Z
SFAC C H N O
UNIT 38 30 2 4

L.S. 10
PLAN  20
SIZE 0.11 0.12 0.13
BOND
list 4
fmap 2
acta
REM <olex2.extras>
REM <HklSrc "%.\\157.hkl">
REM </olex2.extras>

WGHT    0.054279    0.234519
FVAR      12.66022
O2    4    0.838389    0.341752    0.353920    11.00000    0.04045    0.01953 =
         0.02710   -0.00267    0.00783    0.00223
O1    4    0.694554    0.303669    0.617946    11.00000    0.04892    0.01850 =
         0.03419    0.00192    0.00938   -0.00132
N1    3    0.451811    0.461270    0.741347    11.00000    0.02301    0.02161 =
         0.01828    0.00004    0.00183   -0.00057
C11   1    0.560265    0.583558    0.485096    11.00000    0.02136    0.02134 =
         0.02250   -0.00018   -0.00165   -0.00096
C12   1    0.694897    0.572798    0.318207    11.00000    0.02779    0.02097 =
         0.02663   -0.00141    0.00462    0.00039
AFIX  43
H12   2    0.744423    0.538075    0.289136    11.00000   -1.20000
AFIX   0
C1    1    0.554816    0.485361    0.587083    11.00000    0.02346    0.02105 =
         0.01807    0.00086   -0.00044   -0.00050
C18   1    0.722630    0.343184    0.524176    11.00000    0.02678    0.02037 =
         0.02376   -0.00099   -0.00009   -0.00157
C13   1    0.756637    0.612754    0.194512    11.00000    0.02908    0.02866 =
         0.02466    0.00021    0.00471   -0.00005
AFIX  43
H13   2    0.846715    0.604348    0.084099    11.00000   -1.20000
AFIX   0
C3    1    0.637615    0.396133    0.578774    11.00000    0.02339    0.02390 =
         0.02037   -0.00008   -0.00064   -0.00160
C2    1    0.675370    0.443790    0.482184    11.00000    0.02290    0.02233 =
         0.01840    0.00028    0.00184   -0.00053
AFIX  43
H2    2    0.764719    0.447243    0.368445    11.00000   -1.20000
AFIX   0
C16   1    0.491320    0.636341    0.523682    11.00000    0.03103    0.02335 =
         0.02616   -0.00305    0.00381    0.00286
AFIX  43
H16   2    0.403818    0.644841    0.634768    11.00000   -1.20000
AFIX   0
C10   1    0.492501    0.541027    0.613830    11.00000    0.01928    0.02200 =
         0.02125   -0.00058   -0.00101   -0.00110
C9    1    0.354791    0.545857    0.783197    11.00000    0.02519    0.02167 =
         0.02354   -0.00139    0.00107   -0.00101
AFIX  43
H9    2    0.289759    0.577458    0.834601    11.00000   -1.20000
AFIX   0
C6    1    0.259465    0.415372    1.038997    11.00000    0.02787    0.03568 =
         0.02020    0.00294    0.00222   -0.00320
AFIX  43
H6    2    0.189587    0.399175    1.144433    11.00000   -1.20000
AFIX   0
C8    1    0.328682    0.495165    0.865609    11.00000    0.02165    0.02750 =
         0.01975   -0.00366   -0.00049    0.00008
C4    1    0.493562    0.407816    0.746996    11.00000    0.02115    0.02370 =
         0.02083    0.00241   -0.00255   -0.00315
C14   1    0.686007    0.665401    0.232712    11.00000    0.02413    0.02544 =
         0.02949    0.00459   -0.00353   -0.00243
C5    1    0.388915    0.383733    0.905671    11.00000    0.02658    0.02391 =
         0.02318    0.00296   -0.00042   -0.00283
AFIX  43
H5    2    0.405394    0.347355    0.921853    11.00000   -1.20000
AFIX   0
C7    1    0.228414    0.470640    1.023030    11.00000    0.02721    0.03438 =
         0.01909   -0.00166    0.00453   -0.00111
AFIX  43
H7    2    0.142277    0.490298    1.116336    11.00000   -1.20000
AFIX   0
C15   1    0.551024    0.676085    0.399524    11.00000    0.03447    0.01849 =
         0.03381   -0.00068   -0.00049    0.00234
AFIX  43
H15   2    0.499820    0.710779    0.428090    11.00000   -1.20000
AFIX   0
C19   1    0.928187    0.290159    0.290700    11.00000    0.03897    0.02510 =
         0.03785   -0.00936    0.00981    0.00272
AFIX 137
H19A  2    1.009776    0.293129    0.170172    11.00000   -1.50000
H19B  2    0.729126    0.267752    0.279771    11.00000   -1.50000
H19C  2    1.105474    0.275228    0.380048    11.00000   -1.50000
AFIX   0
C17   1    0.754302    0.709247    0.100465    11.00000    0.03892    0.02929 =
         0.03822    0.00952    0.00145   -0.00277
AFIX 137
H17A  2    0.930284    0.732014    0.161310    11.00000   -1.50000
H17B  2    0.547281    0.729178    0.066862    11.00000   -1.50000
H17C  2    0.828905    0.694517   -0.011137    11.00000   -1.50000
AFIX   0
HKLF 4




REM  157_a.res in P2(1)
REM wR2 = 0.0966, GooF = S = 1.067, Restrained GooF = 1.067 for all data
REM R1 = 0.0367 for 2173 Fo > 4sig(Fo) and 0.0385 for all 2230 data
REM 201 parameters refined using 1 restraints

END  
     
WGHT      0.0512      0.2056 

REM Highest difference peak  0.195,  deepest hole -0.290,  1-sigma level  0.078
Q1    1  -0.0008  0.4132  0.8246  11.00000  0.05    0.20
Q2    1   0.9644  0.5808  0.5227  11.00000  0.05    0.19
Q3    1  -0.0051  0.4878  0.9166  11.00000  0.05    0.19
Q4    1   1.0729  0.3422  0.4479  11.00000  0.05    0.19
Q5    1  -0.0643  0.4020  1.2487  11.00000  0.05    0.19
Q6    1   0.8072  0.4801  0.7379  11.00000  0.05    0.18
Q7    1   0.0433  0.6264  0.4515  11.00000  0.05    0.18
Q8    1   1.0033  0.5942  0.2946  11.00000  0.05    0.18
Q9    1   0.8303  0.5213  0.5743  11.00000  0.05    0.18
Q10   1   0.8930  0.5467  0.4421  11.00000  0.05    0.18
Q11   1  -0.0351  0.4725  1.2175  11.00000  0.05    0.17
Q12   1   0.9486  0.4732  0.3761  11.00000  0.05    0.17
Q13   1   0.0589  0.3713  1.1245  11.00000  0.05    0.17
Q14   1   1.0559  0.4008  0.3983  11.00000  0.05    0.17
Q15   1   1.1280  0.6702  0.2887  11.00000  0.05    0.17
Q16   1   0.0013  0.5072  1.2000  11.00000  0.05    0.17
Q17   1   0.0477  0.3980  1.1441  11.00000  0.05    0.17
Q18   1   1.0045  0.2493  0.4958  11.00000  0.05    0.17
Q19   1   0.8579  0.4424  0.5826  11.00000  0.05    0.16
Q20   1   1.0498  0.5774  0.3959  11.00000  0.05    0.16

  REM The information below was added by Olex2.
  REM
  REM R1 = 0.0367 for 2173 Fo > 4sig(Fo) and 0.0385 for all 3298 data
  REM n/a parameters refined using n/a restraints
  REM Highest difference peak 0.20, deepest hole -0.29
  REM Mean Shift 0, Max Shift 0.000.

  REM +++ Tabular Listing of Refinement Information +++
  REM R1_all = 0.0385
  REM R1_gt = 0.0367
  REM wR_ref = 0.0966
  REM GOOF = 1.067
  REM Shift_max = 0.000
  REM Shift_mean = 0
  REM Reflections_all = 3298
  REM Reflections_gt = 2173
  REM Parameters = n/a
  REM Hole = -0.29
  REM Peak = 0.20
  REM Flack = -0.08(15)

  
;
_cod_data_source_file            c9gc01766f2.cif
_cod_data_source_block           157
_cod_depositor_comments          'Adding full bibliography for 7233001.cif.'
_cod_original_cell_volume        704.62(6)
_cod_database_code               7233001
_shelx_shelxl_version_number     2018/3
_shelx_space_group_comment
;
The symmetry employed for this shelxl refinement is uniquely defined
by the following loop, which should always be used as a source of
symmetry information in preference to the above space-group names.
They are only intended as comments.
;
_shelx_estimated_absorpt_t_max   0.926
_shelx_estimated_absorpt_t_min   0.913
_reflns_odcompleteness_completeness 99.55
_reflns_odcompleteness_iscentric 1
_reflns_odcompleteness_theta     66.97
_olex2_refinement_description
;
1. Fixed Uiso
 At 1.2 times of:
  All C(H) groups
 At 1.5 times of:
  All C(H,H,H) groups
2.a Aromatic/amide H refined with riding coordinates:
 C12(H12), C13(H13), C2(H2), C16(H16), C9(H9), C6(H6), C5(H5), C7(H7), C15(H15)
2.b Idealised Me refined as rotating group:
 C19(H19A,H19B,H19C), C17(H17A,H17B,H17C)
;
_olex2_date_sample_data_collection 2019-03-06
_olex2_submission_special_instructions 'No special instructions were received'
_oxdiff_exptl_absorpt_empirical_details
;
Empirical correction (ABSPACK) includes:
- Absorption correction using spherical harmonics
- Frame scaling
;
_oxdiff_exptl_absorpt_empirical_full_max 3.457
_oxdiff_exptl_absorpt_empirical_full_min 0.687
loop_
_space_group_symop_operation_xyz
'x, y, z'
'-x, y+1/2, -z'
loop_
_atom_site_label
_atom_site_type_symbol
_atom_site_fract_x
_atom_site_fract_y
_atom_site_fract_z
_atom_site_U_iso_or_equiv
_atom_site_adp_type
_atom_site_occupancy
_atom_site_site_symmetry_order
_atom_site_calc_flag
_atom_site_refinement_flags_posn
O2 O 0.8384(5) 0.34175(8) 0.3539(3) 0.0287(5) Uani 1 1 d .
O1 O 0.6946(6) 0.30367(8) 0.6179(3) 0.0335(5) Uani 1 1 d .
N1 N 0.4518(6) 0.46127(9) 0.7413(3) 0.0210(5) Uani 1 1 d .
C11 C 0.5603(7) 0.58356(10) 0.4851(4) 0.0221(6) Uani 1 1 d .
C12 C 0.6949(8) 0.57280(11) 0.3182(4) 0.0250(6) Uani 1 1 d .
H12 H 0.744423 0.538075 0.289136 0.030 Uiso 1 1 calc R
C1 C 0.5548(7) 0.48536(10) 0.5871(4) 0.0211(6) Uani 1 1 d .
C18 C 0.7226(7) 0.34318(11) 0.5242(4) 0.0239(6) Uani 1 1 d .
C13 C 0.7566(8) 0.61275(12) 0.1945(4) 0.0274(6) Uani 1 1 d .
H13 H 0.846715 0.604348 0.084099 0.033 Uiso 1 1 calc R
C3 C 0.6376(7) 0.39613(11) 0.5788(4) 0.0228(6) Uani 1 1 d .
C2 C 0.6754(7) 0.44379(11) 0.4822(3) 0.0213(5) Uani 1 1 d .
H2 H 0.764719 0.447243 0.368445 0.026 Uiso 1 1 calc R
C16 C 0.4913(8) 0.63634(11) 0.5237(4) 0.0268(6) Uani 1 1 d .
H16 H 0.403818 0.644841 0.634768 0.032 Uiso 1 1 calc R
C10 C 0.4925(7) 0.54103(11) 0.6138(4) 0.0212(6) Uani 1 1 d .
C9 C 0.3548(7) 0.54586(11) 0.7832(4) 0.0236(6) Uani 1 1 d .
H9 H 0.289759 0.577458 0.834601 0.028 Uiso 1 1 calc R
C6 C 0.2595(8) 0.41537(13) 1.0390(4) 0.0280(6) Uani 1 1 d .
H6 H 0.189587 0.399175 1.144433 0.034 Uiso 1 1 calc R
C8 C 0.3287(7) 0.49517(12) 0.8656(4) 0.0232(6) Uani 1 1 d .
C4 C 0.4936(7) 0.40782(11) 0.7470(4) 0.0223(6) Uani 1 1 d .
C14 C 0.6860(7) 0.66540(11) 0.2327(4) 0.0270(6) Uani 1 1 d .
C5 C 0.3889(7) 0.38373(12) 0.9057(4) 0.0249(6) Uani 1 1 d .
H5 H 0.405394 0.347355 0.921853 0.030 Uiso 1 1 calc R
C7 C 0.2284(8) 0.47064(13) 1.0230(4) 0.0268(6) Uani 1 1 d .
H7 H 0.142277 0.490298 1.116336 0.032 Uiso 1 1 calc R
C15 C 0.5510(8) 0.67608(12) 0.3995(4) 0.0293(6) Uani 1 1 d .
H15 H 0.499820 0.710779 0.428090 0.035 Uiso 1 1 calc R
C19 C 0.9282(9) 0.29016(12) 0.2907(4) 0.0335(7) Uani 1 1 d .
H19A H 1.009776 0.293129 0.170172 0.050 Uiso 1 1 calc GR
H19B H 0.729126 0.267752 0.279771 0.050 Uiso 1 1 calc GR
H19C H 1.105474 0.275228 0.380048 0.050 Uiso 1 1 calc GR
C17 C 0.7543(9) 0.70925(13) 0.1005(5) 0.0358(7) Uani 1 1 d .
H17A H 0.930284 0.732014 0.161310 0.054 Uiso 1 1 calc GR
H17B H 0.547281 0.729178 0.066862 0.054 Uiso 1 1 calc GR
H17C H 0.828905 0.694517 -0.011137 0.054 Uiso 1 1 calc GR
loop_
_atom_site_aniso_label
_atom_site_aniso_U_11
_atom_site_aniso_U_22
_atom_site_aniso_U_33
_atom_site_aniso_U_23
_atom_site_aniso_U_13
_atom_site_aniso_U_12
O2 0.0405(12) 0.0195(10) 0.0271(10) -0.0027(8) 0.0078(9) 0.0022(9)
O1 0.0489(14) 0.0185(10) 0.0342(11) 0.0019(9) 0.0094(10) -0.0013(9)
N1 0.0230(12) 0.0216(11) 0.0183(11) 0.0000(9) 0.0018(9) -0.0006(9)
C11 0.0214(13) 0.0213(14) 0.0225(13) -0.0002(10) -0.0017(11) -0.0010(11)
C12 0.0278(15) 0.0210(13) 0.0266(14) -0.0014(11) 0.0046(12) 0.0004(11)
C1 0.0235(14) 0.0210(14) 0.0181(12) 0.0009(10) -0.0004(11) -0.0005(11)
C18 0.0268(14) 0.0204(13) 0.0238(13) -0.0010(11) -0.0001(11) -0.0016(11)
C13 0.0291(15) 0.0287(14) 0.0247(13) 0.0002(12) 0.0047(12) 0.0000(13)
C3 0.0234(14) 0.0239(15) 0.0204(12) -0.0001(11) -0.0006(11) -0.0016(11)
C2 0.0229(13) 0.0223(14) 0.0184(11) 0.0003(11) 0.0018(10) -0.0005(12)
C16 0.0310(16) 0.0233(14) 0.0262(14) -0.0031(11) 0.0038(12) 0.0029(12)
C10 0.0193(13) 0.0220(13) 0.0212(13) -0.0006(11) -0.0010(11) -0.0011(11)
C9 0.0252(14) 0.0217(14) 0.0235(13) -0.0014(11) 0.0011(11) -0.0010(11)
C6 0.0279(15) 0.0357(16) 0.0202(12) 0.0029(11) 0.0022(11) -0.0032(12)
C8 0.0216(14) 0.0275(15) 0.0198(13) -0.0037(11) -0.0005(11) 0.0001(11)
C4 0.0212(13) 0.0237(14) 0.0208(13) 0.0024(11) -0.0026(11) -0.0031(11)
C14 0.0241(15) 0.0254(15) 0.0295(14) 0.0046(12) -0.0035(12) -0.0024(12)
C5 0.0266(15) 0.0239(14) 0.0232(13) 0.0030(11) -0.0004(11) -0.0028(11)
C7 0.0272(16) 0.0344(16) 0.0191(12) -0.0017(12) 0.0045(11) -0.0011(12)
C15 0.0345(16) 0.0185(13) 0.0338(15) -0.0007(12) -0.0005(13) 0.0023(12)
C19 0.0390(19) 0.0251(15) 0.0379(17) -0.0094(13) 0.0098(14) 0.0027(13)
C17 0.0389(18) 0.0293(16) 0.0382(17) 0.0095(13) 0.0015(14) -0.0028(14)
loop_
_atom_type_symbol
_atom_type_description
_atom_type_scat_dispersion_real
_atom_type_scat_dispersion_imag
_atom_type_scat_source
C C 0.0181 0.0091 'International Tables Vol C Tables 4.2.6.8 and 6.1.1.4'
H H 0.0000 0.0000 'International Tables Vol C Tables 4.2.6.8 and 6.1.1.4'
N N 0.0311 0.0180 'International Tables Vol C Tables 4.2.6.8 and 6.1.1.4'
O O 0.0492 0.0322 'International Tables Vol C Tables 4.2.6.8 and 6.1.1.4'
loop_
_geom_angle_atom_site_label_1
_geom_angle_atom_site_label_2
_geom_angle_atom_site_label_3
_geom_angle
C18 O2 C19 115.5(2)
C1 N1 C8 114.2(2)
C4 N1 C1 114.9(2)
C4 N1 C8 130.9(2)
C12 C11 C16 117.4(3)
C12 C11 C10 121.0(2)
C16 C11 C10 121.6(2)
C13 C12 C11 121.4(3)
N1 C1 C2 104.5(2)
N1 C1 C10 104.8(2)
C2 C1 C10 150.7(3)
O2 C18 C3 112.5(2)
O1 C18 O2 122.5(3)
O1 C18 C3 125.0(2)
C12 C13 C14 121.2(3)
C2 C3 C18 128.3(2)
C2 C3 C4 108.3(2)
C4 C3 C18 123.4(2)
C3 C2 C1 108.4(2)
C15 C16 C11 121.1(3)
C1 C10 C11 125.9(2)
C9 C10 C11 127.2(2)
C9 C10 C1 106.9(2)
C10 C9 C8 109.7(2)
C5 C6 C7 123.5(3)
N1 C8 C9 104.3(2)
N1 C8 C7 114.0(3)
C7 C8 C9 141.7(3)
N1 C4 C3 103.9(2)
N1 C4 C5 114.3(3)
C5 C4 C3 141.8(3)
C13 C14 C17 121.8(3)
C15 C14 C13 117.4(3)
C15 C14 C17 120.9(3)
C6 C5 C4 118.5(3)
C8 C7 C6 118.7(3)
C16 C15 C14 121.5(3)
loop_
_geom_bond_atom_site_label_1
_geom_bond_atom_site_label_2
_geom_bond_distance
O2 C18 1.353(3)
O2 C19 1.441(3)
O1 C18 1.218(3)
N1 C1 1.366(3)
N1 C8 1.367(3)
N1 C4 1.364(4)
C11 C12 1.392(4)
C11 C16 1.399(4)
C11 C10 1.463(4)
C12 C13 1.386(4)
C1 C2 1.409(4)
C1 C10 1.448(4)
C18 C3 1.448(4)
C13 C14 1.396(4)
C3 C2 1.408(4)
C3 C4 1.424(4)
C16 C15 1.382(4)
C10 C9 1.393(4)
C9 C8 1.422(4)
C6 C5 1.390(4)
C6 C7 1.409(4)
C8 C7 1.386(4)
C4 C5 1.396(4)
C14 C15 1.392(4)
C14 C17 1.505(4)
loop_
_refln_index_h
_refln_index_k
_refln_index_l
_refln_F_squared_meas
_refln_F_squared_sigma
_refln_scale_group_code
0 -31 0 2147.53 379.324 17
0 -30 1 7563.89 490.863 17
0 -30 2 3347.18 225.493 17
0 -29 1 2334.57 653.471 17
0 -29 2 1307.64 277.992 17
0 -29 3 3406.79 178.542 17
0 -28 2 5518.69 534.799 17
0 -28 3 -267.428 210.015 17
0 -27 2 3257.08 696.535 17
0 -27 4 460.878 83.3476 17
0 -26 2 3178.06 870.732 17
0 -26 3 2215.42 360.738 17
0 -26 4 7827.87 295.735 17
0 -25 3 688.312 390.987 17
0 -25 5 580.631 81.4589 17
0 -24 3 1589.53 488.652 17
0 -24 4 1698.02 254.834 17
0 -24 5 2525.91 164.682 17
0 -23 3 26788.9 1140.04 17
0 -23 5 3232.95 199.043 17
0 -22 3 8759.09 849.052 17
0 -22 4 15617.1 635.716 17
0 -22 5 1513.94 155.539 17
0 -21 0 -62.0133 111.38 15
0 -21 1 82743.9 1257.84 15
0 -21 3 29389.5 1342.78 17
0 -21 4 3627.85 395.74 17
0 -21 5 462.662 118.373 17
0 -21 6 4700.15 207.988 17
0 -20 0 36541.3 803.438 15
0 -20 1 68914.8 1111.92 15
0 -20 1 67482.1 1092.28 11
0 -20 2 33153.8 789.962 15
0 -20 2 33029.5 800.153 11
0 -20 3 7328.11 842.706 17
0 -20 4 7435.36 514.037 17
0 -20 5 4450.56 280.571 17
0 -20 6 3495.35 194.682 17
0 -19 1 8161.34 377.198 11
0 -19 1 8143.13 380.775 15
0 -19 2 3477.27 264.818 11
0 -19 2 3415.47 261.965 15
0 -19 3 11033.4 981.168 17
0 -19 4 1475.55 336.565 17
0 -19 5 3307.65 259.54 17
0 -19 6 2730.34 185.335 17
0 -18 0 30865.6 655.712 11
0 -18 1 25338.7 637.249 15
0 -18 1 24962.5 634.688 11
0 -18 2 18479.3 577.942 11
0 -18 2 18428.9 559.548 15
0 -18 3 18775.3 1187.95 17
0 -18 3 27274.1 719.707 11
0 -18 4 20293.2 798.109 17
0 -18 5 2230.15 225.978 17
0 -18 6 2710.87 196.563 17
0 -17 0 37.9988 57.8472 11
0 -17 1 9899 388.934 15
0 -17 1 9873.7 388.681 11
0 -17 2 73001.4 1097.18 11
0 -17 2 73653.6 1075.12 15
0 -17 3 11323.1 943.523 17
0 -17 3 18422.8 583.5 11
0 -17 4 26827.9 893.708 17
0 -17 5 30891.3 770.01 17
0 -17 6 6616.31 314.678 17
0 -16 0 81028.9 994.567 11
0 -16 1 4692.52 260.676 11
0 -16 1 4635.35 258.723 15
0 -16 2 25545.1 625.127 11
0 -16 2 26234.2 620.087 15
0 -16 3 17691.5 549.503 11
0 -16 3 9795.39 872.605 17
0 -16 4 28762.2 906.721 17
0 -16 4 25600.2 686.828 11
0 -16 5 59730.8 1076.32 17
0 -16 6 5292.35 292.533 17
0 -15 0 35.9589 54.0993 11
0 -15 1 2860.36 198.953 15
0 -15 1 2734.14 194.479 11
0 -15 2 98.1608 77.9537 15
0 -15 2 114.401 71.8458 11
0 -15 3 14618.3 484.429 11
0 -15 3 8284.2 775.681 17
0 -15 4 16991.5 705.598 17
0 -15 4 14627.7 511.181 11
0 -15 5 12333.2 505.914 17
0 -15 6 14139.1 482.035 17
0 -15 7 489.013 93.7662 17
0 -14 0 40244.8 641.343 11
0 -14 1 8549.6 339.584 11
0 -14 1 7722.29 301.851 15
0 -14 2 14423.9 427.519 15
0 -14 2 16190.4 488.908 11
0 -14 3 5919.82 298.309 11
0 -14 4 467.487 114.869 11
0 -14 4 596.825 243.489 17
0 -14 5 59064.1 1073.3 17
0 -14 6 19368.5 573.298 17
0 -14 7 397.608 91.1941 17
0 -13 0 16.767 43.6277 11
0 -13 -1 165355 1111.15 11
0 -13 1 164831 1348.1 11
0 -13 2 111325 1175.7 11
0 -13 2 106340 1098.08 15
0 -13 3 3762.84 240.066 11
0 -13 4 48767.7 878.635 11
0 -13 4 53943.6 1151.09 17
0 -13 5 19531.8 623.608 17
0 -13 6 11910.5 468.302 17
0 -13 7 6001.14 280.545 17
0 -12 0 85417.7 888.528 11
0 -12 1 10847.7 332.929 11
0 -12 -1 10761.1 272.638 11
0 -12 2 6313.54 260.888 15
0 -12 2 6535.99 276.67 11
0 -12 3 4548.28 258.586 11
0 -12 4 1721.52 170.395 11
0 -12 4 1575.36 245.339 17
0 -12 5 2748.66 241.565 14
0 -12 5 2771.19 250.287 17
0 -12 6 15997.7 537.69 17
0 -12 7 6666.5 303.359 17
0 -11 0 84.0547 46.9448 11
0 -11 -1 47788.6 541.327 11
0 -11 1 47099.8 656.747 11
0 -11 2 2562.85 168.226 15
0 -11 2 2088.61 159.112 11
0 -11 3 71402.7 929.143 11
0 -11 4 2469.88 192.968 11
0 -11 4 2689.01 279.768 17
0 -11 5 10958 460.059 17
0 -11 5 10770.4 455.329 14
0 -11 6 8237.64 395.254 17
0 -11 6 9866.83 376.398 5
0 -11 7 10425.6 360.948 5
0 -11 7 8336.14 354.197 17
0 -10 0 56421.7 624.176 11
0 -10 1 69212.5 753.549 11
0 -10 -1 70369.7 614.797 11
0 -10 2 7745.73 265.337 15
0 -10 2 7716.05 276.757 11
0 -10 3 7634.28 295.518 11
0 -10 4 38390 702.308 11
0 -10 5 1557.01 198.246 17
0 -10 5 1560.98 165.904 9
0 -10 5 1595.7 189.248 14
0 -10 6 16396.5 550.106 17
0 -10 6 18192.6 514.056 5
0 -10 7 26507.6 587.748 5
0 -9 0 30.2945 33.296 11
0 -9 1 52751.3 624.024 11
0 -9 -1 52495 491.722 11
0 -9 2 170471 1219.79 11
0 -9 2 170170 1155.68 15
0 -9 3 85176.2 936.589 11
0 -9 4 1180.16 128.224 11
0 -9 5 5000.74 308.12 17
0 -9 5 5224.04 312.567 14
0 -9 5 5452.62 281.407 9
0 -9 6 5219.72 286.191 5
0 -9 6 5059.52 314.293 17
0 -9 7 2420.42 199.023 5
0 -9 8 2585 163.102 5
0 -8 0 105778 752.096 11
0 -8 -1 86156.5 577.91 11
0 -8 1 85957.8 756.14 11
0 -8 2 63745 711.503 11
0 -8 2 62484.8 671.418 15
0 -8 3 52701.8 709.889 11
0 -8 4 7788.05 324.198 14
0 -8 4 7937.82 302.909 11
0 -8 5 20860.5 593.587 14
0 -8 5 20402.9 603.729 17
0 -8 5 21117.2 534.407 9
0 -8 6 24098.2 665.857 17
0 -8 7 6599.48 315.752 5
0 -8 8 3095.79 184.753 5
0 -7 0 10.0907 33.1617 11
0 -7 1 24240.3 377.169 11
0 -7 -1 23397.2 272.71 11
0 -7 2 32116.7 482.639 11
0 -7 2 32026.4 451.547 15
0 -7 3 67247.2 767.61 11
0 -7 4 3379.43 194.184 11
0 -7 4 3332.5 213.213 14
0 -7 5 7139.35 313.997 9
0 -7 5 7772.36 360.768 14
0 -7 5 6631.04 346.726 17
0 -7 6 48719.6 930.255 17
0 -7 7 16331.8 492.764 5
0 -7 8 3053.86 188.276 5
0 -6 0 40935.6 398.614 11
0 -6 1 81306.8 646.344 11
0 -6 1 81401.6 603.093 15
0 -6 -1 79787 448.779 11
0 -6 2 759.577 80.3113 11
0 -6 2 831.522 80.2255 15
0 -6 3 4146.43 188.296 11
0 -6 4 95582.9 1067.13 14
0 -6 4 100584 984.105 11
0 -6 5 12588.4 459.244 17
0 -6 5 12692.7 412.73 9
0 -6 5 12916.2 455.203 14
0 -6 6 8500.99 406.697 17
0 -6 7 1894 188.553 5
0 -6 8 5754.33 259.852 5
0 -5 0 14.4055 20.8297 11
0 -5 -1 9221.12 132.339 11
0 -5 1 9245.49 205.006 11
0 -5 2 32085.3 435.724 11
0 -5 3 15234 337.123 11
0 -5 4 31119.9 585.406 14
0 -5 4 31325.9 528.985 11
0 -5 5 22047.9 572.481 14
0 -5 5 21969.8 535.693 9
0 -5 5 21525 579.093 17
0 -5 6 17545 572.8 17
0 -5 7 6367.57 320.07 5
0 -5 8 656.967 110.405 5
0 -4 0 71046.3 423.056 11
0 -4 1 275848 1031.54 11
0 -4 2 74686 622.448 11
0 -4 3 30649.5 453.809 11
0 -4 4 56818.2 673.672 11
0 -4 4 54070.3 758.867 14
0 -4 5 3419.76 220.446 9
0 -4 5 3660.42 251.694 17
0 -4 5 3501.84 234.409 14
0 -4 6 26378.1 696.949 17
0 -4 7 23481.2 603.627 5
0 -4 8 2564.43 187.961 5
0 -3 0 42.4946 15.044 11
0 -3 2 5233.75 155.496 11
0 -3 3 112402 911.737 14
0 -3 3 111549 812.551 11
0 -3 4 3665.29 202.864 14
0 -3 -5 11430.3 408.705 13
0 -3 5 11271.5 406.385 14
0 -3 5 11198.2 379.032 9
0 -3 5 11301.7 415.628 17
0 -3 6 24661.8 699.803 10
0 -3 6 27081.7 693.332 17
0 -3 7 20814.1 572.608 5
0 -3 8 1758.76 163.905 5
0 -2 1 8160.75 147.168 11
0 -2 2 30981.3 344.045 11
0 -2 3 85011.9 751.905 14
0 -2 3 84053.3 667.006 11
0 -2 -4 36704.4 625.779 13
0 -2 4 37309.6 608.872 14
0 -2 5 3295.97 214.338 9
0 -2 -5 3473.54 239.703 13
0 -2 5 3300.61 233.136 17
0 -2 5 2921.77 218.504 10
0 -2 6 3994.24 286.576 10
0 -2 7 5137.92 302.111 5
0 -2 8 2618.65 196.681 5
0 -1 1 211438 640.879 11
0 -1 2 11813.7 228.119 14
0 -1 2 11660 192.977 11
0 -1 3 36081.6 401.197 11
0 -1 3 35888.7 486.676 14
0 -1 4 71802.5 837.659 14
0 -1 -4 71673.2 878.218 13
0 -1 5 10643 402.264 10
0 -1 5 11698.5 385.397 9
0 -1 -5 11998.5 433.538 13
0 -1 6 3378.89 268.73 10
0 -1 7 64229 1013.54 5
0 -1 8 1271.52 153.83 5
0 0 1 381808 847.378 14
0 0 2 12442.9 177.322 11
0 0 2 11991.5 225.501 14
0 0 3 76.6235 47.3105 14
0 0 3 91.0327 30.0577 11
0 0 -4 1030.25 139.492 13
0 0 4 1356.59 130.379 14
0 0 -5 1151.1 159.474 13
0 0 5 1164.67 148.741 10
0 0 5 1133.61 136.932 9
0 0 6 4644.47 270.966 5
0 0 6 3861.37 285.909 10
0 0 7 5950.79 332.489 5
0 0 8 15486.7 456.123 5
0 1 1 211922 623.508 14
0 1 2 11686.4 145.403 11
0 1 2 11777 221.317 14
0 1 3 35905.6 488.471 14
0 1 3 35776.6 515.464 10
0 1 3 35955 301.842 11
0 1 4 64890.4 833.656 10
0 1 -4 71554.8 912.993 13
0 1 5 10465.6 397.315 10
0 1 5 10940.4 375.208 9
0 1 6 3895.07 288.469 10
0 1 6 4076.66 255.522 5
0 1 7 63133.8 1013.62 5
0 1 8 1369.64 154.58 5
0 2 1 8968.19 80.4778 1
0 2 -1 7971.74 155.548 13
0 2 2 33093.6 381.26 10
0 2 -2 31491.3 410.829 13
0 2 3 81815 778.815 10
0 2 -3 84578.8 843.675 13
0 2 -4 36562.5 667.214 13
0 2 4 36743.9 640.958 10
0 2 5 3014.77 203.493 9
0 2 -5 3199.56 249.759 13
0 2 5 3027.04 225.985 10
0 2 6 4728.78 275.876 5
0 2 -6 4513.99 323.545 13
0 2 6 4142.39 306.72 10
0 2 7 4548.96 289.501 5
0 2 8 2703.47 200.944 5
0 3 0 25.7807 16.4639 13
0 3 -1 542513 1379.85 13
0 3 2 5219.32 92.4012 1
0 3 2 5341.57 161.523 10
0 3 -2 5323.95 184.1 13
0 3 -3 111560 992.83 13
0 3 3 114138 572.746 1
0 3 -4 3428.3 221.297 13
0 3 4 3621.27 210.416 10
0 3 5 10064.7 396.634 10
0 3 -5 11330.2 447.202 13
0 3 -6 25050.8 733.028 13
0 3 6 24710.9 715.195 10
0 3 6 26251.5 633.394 5
0 3 7 20598.4 577.927 5
0 3 8 1907.72 173.951 5
0 4 0 71223.9 408.753 13
0 4 -1 277028 1062.88 13
0 4 -2 76396.2 703.519 13
0 4 2 78920.3 644.059 10
0 4 3 29988.9 494.663 10
0 4 -3 30634.7 536.108 13
0 4 4 51804.4 778.318 10
0 4 -4 53251.9 838.545 13
0 4 -5 2992.77 247.303 13
0 4 5 3340 239.061 10
0 4 -6 27152.7 771.662 13
0 4 6 27107.6 645.613 5
0 4 7 23263.2 613.93 5
0 4 8 2739.72 198.85 5
0 5 0 50.0828 27.4152 13
0 5 -1 9369.82 212.77 13
0 5 2 33161.5 445.543 10
0 5 -2 31872.7 481.907 13
0 5 3 14789.7 362.062 10
0 5 -3 15225.2 393.378 13
0 5 -4 29224.4 636.264 13
0 5 4 29099.8 605.075 10
0 5 5 20672.4 507.377 5
0 5 5 19771.5 584.093 10
0 5 -5 21038.1 620.855 13
0 5 6 17748.5 529.269 5
0 5 7 6097.44 322.599 5
0 5 8 864.745 123.86 5
0 6 0 41055.3 381.682 13
0 6 1 79274.2 468.994 13
0 6 -1 79970.9 648.999 13
0 6 -2 889.197 99.3279 13
0 6 3 4607.4 214.339 10
0 6 -3 4428.45 226.309 13
0 6 -4 95773.4 1168.42 13
0 6 4 92597.7 1106.59 10
0 6 5 12166.5 393.203 5
0 6 -5 12420 485.265 13
0 6 6 8516.06 373.787 5
0 6 7 1856.48 191.04 5
0 6 8 6338.33 283.1 5
0 7 0 29.2944 41.3147 13
0 7 -1 23325.8 374.878 13
0 7 1 23749.7 276.09 13
0 7 -2 33804.3 521.318 13
0 7 -3 68263.9 871.442 13
0 7 -4 3304.45 233.955 13
0 7 5 6754.77 300.526 5
0 7 -5 7201.44 382.091 13
0 7 6 48615.2 873.977 5
0 7 7 15662.5 498.976 5
0 7 8 3184.18 200.118 5
0 8 0 104368 706.329 13
0 8 -1 86077.4 754.044 13
0 8 1 85128.6 559.35 13
0 8 -2 64746.7 753.505 13
0 8 -3 52979.8 791.73 13
0 8 -4 7543.7 349.594 13
0 8 5 18562.4 503.562 5
0 8 -5 19906.5 632.275 13
0 8 6 23804.3 611.855 5
0 8 7 6085.58 314.76 5
0 8 7 5670.96 314.888 6
0 8 8 2818.74 183.465 5
0 9 0 9.0304 34.0162 13
0 9 1 52091.9 469.848 13
0 9 -1 52187.1 620.645 13
0 9 -2 172414 1274.52 13
0 9 -3 83026.6 1022.7 13
0 9 -4 1277.18 164.096 13
0 9 -5 4952.83 331.549 13
0 9 5 4787.93 265.126 5
0 9 -5 5434.19 297.733 7
0 9 6 4950.13 288.933 5
0 9 7 2369.92 201.825 5
0 9 7 1992.15 195.448 6
0 9 8 2559.02 167.602 5
0 9 8 2473.53 163.26 8
0 10 0 55818.6 581.982 13
0 10 -1 70122.9 741.707 13
0 10 1 69742.6 574.361 13
0 10 -2 8016.35 294.798 13
0 10 -3 7987.73 332.314 13
0 10 -4 38758.3 814.081 13
0 10 -5 1277.91 193.644 13
0 10 -5 1473.11 171.358 7
0 10 5 1457.79 158.335 5
0 10 6 16698.1 516.531 5
0 10 6 15929.2 556.947 6
0 10 7 25253.1 601.236 5
0 10 7 24057.3 600.113 6
0 10 8 1747.11 128.933 8
0 11 0 5.4302 42.9986 13
0 11 1 47674.1 503.549 13
0 11 -1 47454.6 644.088 13
0 11 -2 1828.46 161.066 13
0 11 -3 70413.4 1002.89 13
0 11 -4 3062.6 247.552 13
0 11 -5 10194.9 405.26 7
0 11 -5 10326.2 484.113 13
0 11 5 10415.7 452.24 6
0 11 -6 8797.11 373.407 7
0 11 6 8386.06 409.161 6
0 11 7 8654.64 359.444 6
0 12 0 81539.9 779.29 13
0 12 1 10809.8 254.227 13
0 12 -1 10700.7 319.276 13
0 12 -2 6633.28 291.647 13
0 12 -3 4364.75 267.167 13
0 12 -4 1690.48 198.583 13
0 12 4 1519.4 178.371 6
0 12 -5 2685.8 266.714 13
0 12 -5 2814.86 229.144 7
0 12 5 2743.54 253.779 6
0 12 6 15948.7 552.694 6
0 12 -6 15681.8 487.537 7
0 12 7 6646.64 302.613 8
0 12 7 6763.11 309.185 6
0 13 0 10.7971 46.0878 13
0 13 1 164973 1022.35 13
0 13 -1 164230 1278.63 13
0 13 -2 111027 1189.21 13
0 13 -3 3995.68 267.878 13
0 13 4 48327.6 940.012 6
0 13 -4 49793.4 1004.43 13
0 13 -5 18257.2 550.264 7
0 13 5 18816.4 614.257 6
0 13 -6 11687.9 419.492 7
0 13 6 12238.3 477.326 6
0 13 7 6270.01 282.951 6
0 13 7 6428.32 280.71 8
0 14 0 42134.1 609.479 13
0 14 1 7988.6 237.04 13
0 14 -1 7832.16 295.177 13
0 14 -2 14984.9 458.45 13
0 14 -3 6409.34 341.108 13
0 14 -4 517.878 146.549 13
0 14 4 851.144 162.07 6
0 14 -5 57853.2 983.15 7
0 14 5 55474.2 1045.12 6
0 14 6 20690 570.165 8
0 14 -6 19276.3 525.875 7
0 14 6 19741.8 593.533 6
0 14 7 341.583 87.1424 6
0 15 0 31.543 53.4015 13
0 15 -1 2940.09 190.418 13
0 15 -2 56.2461 75.3243 13
0 15 -3 15432.2 533.909 13
0 15 3 15217.8 505.205 6
0 15 -4 15119.9 577.803 13
0 15 4 14660.1 539.184 6
0 15 -5 10882.6 441.776 7
0 15 5 11765.8 492.117 6
0 15 -6 13908.3 440.784 7
0 15 6 14095.2 486.394 6
0 15 7 540.889 95.1401 6
0 16 0 84664 900.018 13
0 16 -1 4766.95 248.435 13
0 16 -2 25944 632.906 13
0 16 -3 17600 507.441 4
0 16 -3 18276.5 593.478 13
0 16 3 17513.6 554.718 6
0 16 4 25807.5 702.415 6
0 16 -4 27299.9 782.789 13
0 16 5 54886.3 1020.53 6
0 16 -5 55372.4 975.157 7
0 16 -6 5109.85 271.214 7
0 16 6 5189.68 294.034 6
0 16 7 273.732 77.954 6
0 17 0 19.2635 55.0529 13
0 17 -1 9828.26 365.422 13
0 17 2 72164.2 970.514 4
0 17 -2 73717.1 1035.24 4
0 17 -2 73177.7 1083.58 13
0 17 2 70460.6 1040.95 6
0 17 3 17307.6 553.132 6
0 17 -3 18869.5 530.706 4
0 17 -3 18805.1 613.422 13
0 17 4 25138.9 695.321 6
0 17 5 31010.6 753.296 6
0 17 -5 31024 727.189 7
0 17 -6 6661.89 295.774 7
0 17 6 6853.6 315.584 6
0 18 0 30214.1 673.008 4
0 18 -1 25280.6 626.194 4
0 18 1 25149 602.663 4
0 18 1 24729.6 609.788 6
0 18 -1 26331.7 606.473 13
0 18 2 18170.1 507.315 4
0 18 -2 18256.2 553.835 13
0 18 2 17571.5 531.991 6
0 18 -2 18261.5 540.598 4
0 18 3 26515.4 690.947 6
0 18 -3 27930.4 751.158 13
0 18 -3 26883.9 643.662 4
0 18 4 19381.2 604.335 6
0 18 -5 1779.13 199.208 7
0 18 5 1757.5 198.629 6
0 18 -6 2667.08 187.588 7
0 18 6 2545.24 191.193 6
0 19 0 9.7088 114.453 4
0 19 -1 8578.55 354.234 13
0 19 1 8361.54 368.519 4
0 19 -1 8183.13 376.242 4
0 19 -2 3137.55 252.587 4
0 19 2 3492.25 252.368 6
0 19 -2 3602.87 265.105 13
0 19 2 3298.07 241.334 4
0 19 -3 15535.7 565.534 13
0 19 -3 14976.4 490.408 4
0 19 3 14422.4 516.595 6
0 19 4 1696.7 205.152 6
0 19 -5 3376.97 247.432 7
0 19 5 3031.49 238.484 6
0 19 -6 2774.1 183.414 7
0 19 6 2863.71 185.46 6
0 20 0 36232.1 775.941 4
0 20 -1 67187.6 1068.89 4
0 20 1 69058.1 1046.07 4
0 20 2 32151.1 690.26 4
0 20 -2 33326.3 755.059 4
0 20 2 32442.9 742.186 6
0 20 -2 34450.4 792.343 13
0 20 3 7990.99 385.172 6
0 20 -3 8419.35 380.468 4
0 20 4 7911.34 378.582 6
0 20 5 4633.71 269.885 6
0 20 -5 4698.73 275.929 7
0 20 6 3642.28 193.741 6
0 20 -6 3602.36 192.595 7
0 21 0 119.909 131.628 4
0 21 -1 79775.3 1185.68 4
0 21 1 78779.2 1142.07 4
0 21 2 11282 420.588 4
0 21 -2 11688.4 462.949 4
0 21 -3 31964.8 707.693 4
0 21 3 31181.3 739.332 6
0 21 3 33624.3 674.44 4
0 21 4 3974.12 272.97 6
0 21 5 558.429 109.426 6
0 21 -5 625.074 122.38 7
0 21 -6 4726.11 200.925 7
0 22 0 54984 987.782 4
0 22 -1 50420.2 953.878 4
0 22 1 50644.5 925.937 4
0 22 2 5551.6 306.199 4
0 22 -2 5475.87 330.012 4
0 22 -3 8773.59 378.521 4
0 22 4 15821.8 498.957 6
0 22 -5 1630.2 160.764 7
0 22 -6 1026.12 93.5416 7
0 23 0 40.6763 132.819 4
0 23 -1 4120.41 300.858 4
0 23 1 3657.53 272.45 4
0 23 2 11637.5 424.787 4
0 23 -2 11251.4 451.207 4
0 23 -3 25467.1 609.501 4
0 23 -4 299.821 117.1 7
0 23 -5 3430.51 202.692 7
0 24 0 39414.4 835.062 4
0 24 1 6435.36 339.278 4
0 24 -1 6239.32 353.457 4
0 24 2 16792.6 499.563 4
0 24 -2 16987.6 533.866 4
0 24 -3 1268.62 162.736 4
0 24 -4 3201.38 223.57 7
0 24 -5 2838.79 170.751 7
0 25 0 111.956 130.114 4
0 25 1 1922.89 205.927 4
0 25 -1 2031.75 221.524 4
0 25 -2 2003.6 204.674 4
0 25 2 1909.03 187.006 4
0 25 -3 945.839 139.478 4
0 25 -4 87.7487 79.912 7
0 25 -5 648.483 86.9512 7
0 26 0 9614.88 399.281 4
0 26 1 2518.92 214.553 4
0 26 -1 2477.54 224.208 4
0 26 2 2594.97 201.541 4
0 26 -2 2396.11 205.194 4
0 26 -3 2573.83 177.574 4
0 26 -4 8210.06 289.955 7
0 27 0 -7.8697 115.562 4
0 27 1 918.584 147.556 4
0 27 -1 742.958 145.694 4
0 27 -2 2513.55 191.801 4
0 27 -3 287.445 93.5865 7
0 27 -3 431.796 94.296 4
0 27 -4 539.457 83.5312 7
0 28 0 546.835 124.955 4
0 28 1 4566.57 244.955 4
0 28 -1 4336.71 243.554 4
0 28 -2 4441.53 222.618 4
0 28 -3 715.817 98.5499 7
0 28 -3 634.165 89.8293 4
0 28 -4 4909.84 171.605 7
0 29 0 28.4211 93.8446 4
0 29 1 1380.44 140.882 4
0 29 -1 1355.92 140.099 4
0 29 -2 1455.2 123.995 7
0 29 -2 1508.35 129.418 4
0 29 -3 3984.59 169.076 7
0 30 0 32770.9 532.949 4
0 30 -1 7201.06 249.308 4
0 30 -1 5226.45 196.117 7
0 30 -2 4002.01 162.79 4
0 30 -2 3440.36 154.5 7
-1 -30 2 477.177 139.748 17
-1 -30 1 2111.47 295.144 17
-1 -30 0 4194.5 207.119 18
-1 -30 0 7382.5 563.65 17
-1 -30 -1 6850.69 286.508 18
-1 -29 3 1471.11 152.114 17
-1 -29 2 562.598 242.208 17
-1 -29 1 8108.79 619.21 17
-1 -29 1 4419.08 230.419 18
-1 -29 0 7947.66 369.247 18
-1 -29 -1 7520.23 413.421 18
-1 -28 3 3280.44 254.444 17
-1 -28 2 -51.8366 126.233 18
-1 -28 2 573.49 360.691 17
-1 -28 1 2659.6 245.791 18
-1 -28 0 1600.1 330.167 18
-1 -27 4 521.942 88.2005 17
-1 -27 3 4764.56 346.62 17
-1 -27 2 2593.21 582.558 17
-1 -27 2 292.901 138.405 18
-1 -27 1 4276.1 379.255 18
-1 -26 4 139.245 125.876 17
-1 -26 3 159.319 368.588 17
-1 -26 2 994.281 196.554 18
-1 -26 2 3255.18 873.375 17
-1 -26 1 9393.75 581.526 18
-1 -25 5 1445.97 121.048 17
-1 -25 4 1077.79 233.756 17
-1 -25 3 2430.7 485.214 17
-1 -25 2 6017.4 1131.76 17
-1 -25 2 4057.08 334.764 18
-1 -25 1 1801.31 452.74 18
-1 -24 5 384.089 87.2161 17
-1 -24 3 2392.56 603.104 17
-1 -24 3 1719.56 202.483 18
-1 -24 2 4089.32 392.04 18
-1 -23 5 1229.28 139.077 17
-1 -23 4 86.1082 417.405 17
-1 -23 3 14189 512.795 18
-1 -23 3 13183.8 910.864 17
-1 -23 2 2901.68 393.312 18
-1 -22 6 1079.41 107.042 17
-1 -22 5 5357.47 282.574 17
-1 -22 3 223.566 162.389 18
-1 -22 3 990.472 774.581 17
-1 -22 2 24680 931.72 18
-1 -21 6 1882.37 150.713 17
-1 -21 5 2995.02 230.829 17
-1 -21 4 3164.09 442.779 17
-1 -21 3 27005.3 1382.29 17
-1 -21 3 32939.7 838.961 18
-1 -21 2 10506.8 674.128 18
-1 -20 6 2087.99 170.845 17
-1 -20 5 2965.87 247.954 17
-1 -20 4 1199.31 435.402 17
-1 -20 3 3682.1 957.357 17
-1 -20 3 3931.51 339.174 18
-1 -20 2 27889.4 1066.7 18
-1 -20 1 6001.92 342.069 12
1 -20 1 6994.19 381.214 11
-1 -19 7 2435.49 135.089 17
-1 -19 6 3096.18 213.862 17
-1 -19 5 8264.28 407.629 17
-1 -19 4 6799.43 586.198 17
-1 -19 3 32719 871.787 18
-1 -19 3 23259.2 1458.96 17
-1 -19 2 6159.09 357.107 12
-1 -19 2 6304.71 361.192 15
-1 -19 1 8512.8 400.346 12
-1 -19 0 51003.6 898.733 12
1 -19 0 53488.1 948.688 11
1 -19 1 17791.9 569.752 11
1 -19 2 34493.5 825.801 11
-1 -18 7 2615.98 156.478 17
-1 -18 6 2633.82 210.627 17
-1 -18 5 9060.21 448.951 17
-1 -18 4 25130.2 957.819 17
-1 -18 3 11053.7 534.218 18
-1 -18 3 10192.5 446.164 15
-1 -18 3 9842.91 444.644 12
-1 -18 2 20892.4 630.53 12
-1 -18 2 21515.1 638.617 15
-1 -18 1 73910.6 1121.96 12
-1 -18 0 2958.88 219.291 12
1 -18 0 3109.54 231.067 11
1 -18 1 4475.17 286.656 11
1 -18 2 12147.9 487.316 11
-1 -17 7 1188.07 126.767 17
-1 -17 6 686.463 133.641 17
-1 -17 5 2980.21 282.494 17
-1 -17 4 16807.6 808.047 17
-1 -17 3 10855.5 536.947 18
-1 -17 3 10786.7 448.598 15
-1 -17 3 10861.8 461.776 12
-1 -17 2 26823.2 697.135 12
-1 -17 2 27716.7 698.664 15
-1 -17 1 11930.1 443.801 12
-1 -17 0 8164.93 338.293 12
1 -17 0 8265.27 353.346 11
1 -17 1 34473.9 751.738 11
1 -17 2 12469.4 480.549 11
1 -17 3 8831.35 409.573 14
1 -17 3 8862.71 430.077 11
-1 -16 7 6564.38 277.501 17
-1 -16 6 1858.56 197.886 17
-1 -16 5 36968.9 903.868 17
-1 -16 4 93185.4 1705.18 17
-1 -16 3 15572.7 614.136 18
-1 -16 3 14527.5 507.191 15
-1 -16 3 14269.6 512.888 12
-1 -16 2 27733.2 679.587 15
-1 -16 2 26731.5 673.994 12
-1 -16 1 2734.61 214.408 12
1 -16 0 1035.75 131.075 11
-1 -16 0 956.599 127.342 12
1 -16 1 2260.89 196.716 11
1 -16 2 10596.3 432.035 11
1 -16 3 38808.3 830.391 14
1 -16 3 41287.8 893.688 11
-1 -15 7 1358.17 148.198 17
-1 -15 6 487.673 135.964 17
-1 -15 5 2064.48 252.576 17
-1 -15 4 5896.54 523.857 17
-1 -15 4 5497.13 323.274 12
-1 -15 3 29290.1 711.798 12
-1 -15 3 30706.7 713.801 15
-1 -15 2 35902.9 746.232 15
-1 -15 2 35901.8 757.062 12
1 -15 -1 3784.05 209.068 11
-1 -15 1 3500.27 230.089 12
1 -15 0 4496.04 245.006 11
-1 -15 0 4741.93 247.58 12
-1 -15 -1 43172.6 692.308 12
1 -15 1 38201.6 739.648 11
1 -15 2 180.273 84.2529 11
1 -15 3 3196.98 244.409 14
1 -15 3 3240.36 257.273 11
-1 -14 7 -30.97 79.2312 17
-1 -14 6 1800.96 206.308 17
-1 -14 5 26587.8 777.011 17
-1 -14 4 12266.8 467.215 12
-1 -14 4 13132.8 683.421 17
-1 -14 3 1157.83 197.99 18
-1 -14 3 942.66 142.927 15
-1 -14 3 876.522 138.783 12
-1 -14 3 1564.08 618.177 17
-1 -14 2 32742.9 686.596 15
-1 -14 2 31889.6 682.752 12
-1 -14 1 6337.9 294.694 12
1 -14 -1 6353.3 258.55 11
1 -14 0 29084.7 591.53 11
-1 -14 0 29452.4 584.381 12
1 -14 1 2732.41 202.761 11
-1 -14 -1 2834.18 179.27 12
1 -14 2 33614.3 719.013 11
1 -14 3 33860.9 737.398 14
1 -14 3 35169.8 788.289 11
1 -14 4 1499.99 188.437 14
1 -14 4 1543.95 191.693 11
-1 -13 7 140.894 64.5519 5
-1 -13 7 130.117 89.0423 17
-1 -13 6 1172.56 187.468 17
-1 -13 6 1074.89 140.225 9
-1 -13 5 28694.1 634.497 9
-1 -13 5 29362.4 795.808 17
-1 -13 4 80496.8 1163.54 12
-1 -13 4 84910.8 1501.07 17
-1 -13 3 22827.2 577.402 15
-1 -13 3 21555.8 572.738 12
-1 -13 2 12484.1 412.225 15
-1 -13 2 12152.6 409.914 12
-1 -13 1 62283.2 866.408 12
1 -13 -1 61489.1 760.874 11
1 -13 0 31007 598.508 11
1 -13 0 31409.8 474.537 15
-1 -13 0 30412.7 571.431 12
1 -13 1 32427.3 655.291 11
-1 -13 -1 32777.8 564.561 12
1 -13 2 13030.1 439.293 11
1 -13 3 4926.79 294.767 11
1 -13 3 4772.17 274.832 14
1 -13 4 11990.3 475.967 14
1 -13 4 12368.9 489.539 11
-1 -12 7 1677.15 179.857 17
-1 -12 6 21858.4 548.277 9
-1 -12 6 21316.3 647.299 17
-1 -12 5 25181.2 719.35 17
-1 -12 5 24994.8 602.635 9
-1 -12 4 5777.13 294.336 9
-1 -12 4 5105.83 416.666 17
-1 -12 4 5266.28 296.399 12
-1 -12 3 7045.32 315.037 15
-1 -12 3 6476.01 308.322 12
-1 -12 2 44676.8 746.488 12
1 -12 -1 42382.5 622.757 11
-1 -12 1 42132.5 684.913 12
1 -12 0 70669.7 667.766 15
1 -12 0 68465.1 845.908 11
-1 -12 0 69811.7 825.938 12
-1 -12 -1 772.084 94.9182 12
1 -12 1 898.766 117.246 11
1 -12 2 49536.7 830.89 11
1 -12 3 15251.3 470.492 14
1 -12 3 15796.1 501.26 11
1 -12 4 6673.98 353.34 14
1 -12 4 6968.15 362.977 11
-1 -11 8 712.686 81.2129 5
-1 -11 7 1249.63 163.669 17
-1 -11 6 23650 581.602 9
-1 -11 6 24099.2 690.811 17
-1 -11 5 24909.5 605.398 9
-1 -11 5 24698.8 664.615 14
-1 -11 5 25994 717.966 17
-1 -11 4 1342.03 155.215 12
-1 -11 4 887.582 231.996 17
-1 -11 3 30059.1 609.309 15
-1 -11 3 29187.1 621.921 12
-1 -11 2 9746.09 339.405 12
-1 -11 1 70172.1 846.765 12
1 -11 -1 69254.5 759.353 11
-1 -11 0 29818 517.579 12
1 -11 0 29779.4 535.037 11
1 -11 0 30194.6 411.423 15
-1 -11 -1 54581.1 673.225 12
1 -11 1 54779.7 780.95 11
1 -11 2 45560.4 775.604 11
1 -11 3 9343.49 361.238 14
1 -11 3 10157.9 396.9 11
1 -11 4 96.8175 88.9041 14
1 -11 4 79.3407 77.9086 11
-1 -10 8 109.114 56.4538 5
-1 -10 7 3253.76 246.987 17
-1 -10 6 30689.4 668.619 9
-1 -10 6 29888.4 766.095 17
-1 -10 5 3534.6 243.568 9
-1 -10 5 3451.02 256.188 14
-1 -10 5 3417.75 277.426 17
-1 -10 4 11444.3 523.165 17
-1 -10 4 11248.2 402.905 12
-1 -10 3 1999.79 167.278 12
-1 -10 3 2022.97 166.286 15
-1 -10 2 173818 1360.16 12
1 -10 -1 36614.7 383.907 1
1 -10 -1 36233.8 361.523 15
-1 -10 1 36172.3 582.82 12
1 -10 0 24006.4 344.801 15
-1 -10 0 23414.6 437.992 12
-1 -10 -1 33027.5 502.587 12
1 -10 2 47917.2 764.218 11
1 -10 3 2747.1 196.531 14
1 -10 3 2927.08 214.221 11
1 -10 4 34645.5 757.288 14
1 -10 4 34124 752.389 11
-1 -9 8 2314.09 146.786 5
-1 -9 7 4938.39 258.762 9
-1 -9 7 5333.69 312.439 17
-1 -9 6 28450.8 739.131 17
-1 -9 6 28202.9 647.517 9
-1 -9 5 36854.7 737.218 9
-1 -9 5 37667.1 852.587 17
-1 -9 5 38630.7 785.775 14
-1 -9 4 10458.9 374.85 12
-1 -9 3 14936.6 395.842 15
-1 -9 3 14707.3 414.427 12
-1 -9 2 43851.3 655.683 12
1 -9 -1 95125.6 523.335 15
1 -9 -1 94149.9 601.748 1
-1 -9 0 31657.5 484.227 12
-1 -9 -1 8823.86 251.173 12
1 -9 2 19744 474.904 11
1 -9 3 12351.4 416.458 11
1 -9 3 11540 376.379 14
1 -9 4 2536.77 214.525 14
1 -9 4 2579.33 210.033 11
1 -9 6 1029.86 159.795 5
-1 -8 8 407.749 81.2946 5
-1 -8 7 3506.11 264.93 17
-1 -8 7 3177.19 218.424 9
-1 -8 6 5485.1 296.844 9
-1 -8 6 5318.25 336.361 17
-1 -8 5 73050.9 1022.03 9
-1 -8 5 74024.2 1045.38 14
-1 -8 5 74661.6 1162.23 17
-1 -8 4 32512.5 631.838 12
-1 -8 3 14355.6 396.781 12
-1 -8 3 14441.4 373.044 15
-1 -8 2 58425.5 728.255 12
1 -8 -1 31027.4 336.194 1
1 -8 -1 30965.5 264.862 15
-1 -8 1 30263.4 488.712 12
-1 -8 0 21002.1 377.512 12
-1 -8 -1 26334.1 416.875 12
1 -8 2 7612.18 257.511 14
1 -8 3 57945.2 819.426 14
1 -8 3 60154.2 878.635 11
1 -8 4 3840.47 251.714 14
1 -8 4 4000.09 247.707 11
1 -8 5 659.157 141.784 14
1 -8 5 581.727 124.409 5
1 -8 6 4272.24 287.443 5
1 -8 7 7179.3 337.932 5
-1 -7 8 7228.41 266.191 5
-1 -7 7 14967.5 454.948 9
-1 -7 7 14697.3 512.483 17
-1 -7 6 8924.69 421.615 17
-1 -7 6 8887.27 373.678 9
-1 -7 5 12603.9 435.271 9
-1 -7 5 12907.8 483.245 17
-1 -7 5 12826.8 425.61 14
-1 -7 4 8631.42 316.588 12
-1 -7 3 72410.4 777.891 15
-1 -7 3 73956.4 863.937 12
-1 -7 2 14165.5 346.981 12
1 -7 -1 9965.48 188.084 1
-1 -7 1 9991.84 268.993 12
-1 -7 0 92104.6 763.12 12
-1 -7 -1 38120.2 480.417 12
1 -7 2 9976.4 284.817 14
1 -7 3 39856.1 697.471 11
1 -7 3 36790 640.429 14
1 -7 4 24412.6 606.889 14
1 -7 4 26231.8 604.824 11
1 -7 5 19944.5 559.909 5
1 -7 5 19410.3 572.869 1
1 -7 6 5732.52 337.807 5
1 -7 7 24706.6 627.116 5
-1 -6 8 2738.35 175.463 5
-1 -6 7 2849.08 216.058 9
-1 -6 6 1944.13 193.595 9
-1 -6 6 1775.27 213.217 17
-1 -6 5 4021.74 252.644 9
-1 -6 5 3973.58 239.008 14
-1 -6 5 3931.34 273.912 17
-1 -6 4 6567.22 266.047 12
-1 -6 3 62089.9 690.215 15
-1 -6 3 64270.6 771.698 12
-1 -6 2 12190.7 210.349 16
-1 -6 2 11533.7 302.004 12
1 -6 -1 56905.1 437.851 1
-1 -6 1 57097.3 607.414 12
-1 -6 0 14684.8 294.05 12
1 -6 2 4305.7 183.751 14
1 -6 3 5485.91 248.692 14
1 -6 3 5893.33 262.138 11
1 -6 4 56979.4 911.793 14
1 -6 4 61437.6 907.977 11
1 -6 5 18758.3 547.048 5
1 -6 5 18689.7 553.37 1
1 -6 6 25680.5 692.243 5
1 -6 7 14659.8 495.352 5
1 -6 8 2682 160.363 5
-1 -5 8 4673.52 228.457 5
-1 -5 7 443.263 116.247 9
-1 -5 6 48316.9 854.304 9
-1 -5 6 47636.6 947.215 17
-1 -5 5 28302.1 631.915 9
-1 -5 5 28628.3 696.128 17
-1 -5 4 14168.9 368.789 12
-1 -5 3 184912 1237.81 12
-1 -5 2 16564.7 257.611 16
-1 -5 2 16696.1 316.621 15
-1 -5 2 16252.1 339.407 12
1 -5 -1 9543.07 179.931 1
-1 -5 1 9581.19 239.215 12
1 -5 0 42961.7 331.622 14
-1 -5 0 42807.1 477.56 12
1 -5 1 9535.22 216.314 14
1 -5 2 52454.8 613.363 14
1 -5 3 23016.6 491.759 14
1 -5 4 10062.1 388.535 14
1 -5 4 10274.1 364.213 11
1 -5 5 3531.18 243.092 1
1 -5 5 3427.43 247.36 5
1 -5 6 5974.05 348.089 5
1 -5 7 12871.6 472.771 5
1 -5 8 1127.07 122.108 5
-1 -4 8 2701.08 181.922 5
-1 -4 7 3334.51 237.006 9
-1 -4 6 41202.8 790.651 9
-1 -4 6 38913.5 861.725 17
-1 -4 5 25499.8 597.919 9
-1 -4 5 26477.1 662.399 17
-1 -4 4 29336.8 501.422 12
-1 -4 4 28741.2 510.181 14
-1 -4 3 37189.8 534.348 12
-1 -4 2 31677 401.075 15
-1 -4 2 32043.2 454.922 12
1 -4 -1 24545.2 287.905 1
-1 -4 1 24815.2 365.718 12
1 -4 0 99227.9 637.159 1
1 -4 0 98848.4 472.074 14
1 -4 1 11608.1 230.717 14
1 -4 2 49847.1 590.43 14
1 -4 3 5079.22 232.166 14
1 -4 4 36230.9 721.52 14
1 -4 4 38956.9 689.106 11
1 -4 5 6180.25 313.134 1
1 -4 5 6115.05 321.247 5
1 -4 6 10252.3 449.638 5
1 -4 7 26759 684.163 5
1 -4 8 4623.72 230.588 5
-1 -3 8 1090.93 127.745 5
-1 -3 7 6499.79 315.624 9
-1 -3 6 11626.2 427.559 9
-1 -3 6 11626.2 482.306 17
-1 -3 5 8225.69 343.265 9
-1 -3 5 8724.09 385.259 17
-1 -3 4 6051.4 230.33 14
-1 -3 3 73403.2 696.536 12
-1 -3 2 28322.2 345.225 15
-1 -3 2 28513.6 367.268 16
1 -3 -1 26861.7 305.593 1
-1 -3 1 27070.8 369.059 12
1 -3 0 636363 1587.18 1
1 -3 0 634192 1161.05 14
-1 -3 0 634049 1733.02 12
1 -3 1 100859 663.367 14
1 -3 2 8486.77 243.715 14
1 -3 3 13606.4 368.77 14
1 -3 4 22044.9 505.88 1
1 -3 5 18646.4 546.896 5
1 -3 6 5509.71 336.577 5
1 -3 7 17630.2 562.416 5
1 -3 8 18136.7 451.9 5
-1 -2 8 1186.14 133.151 5
-1 -2 7 948.438 161.273 9
-1 -2 6 46556.3 839.181 9
-1 -2 6 47200.3 936.247 17
-1 -2 5 22048.4 625.56 10
-1 -2 5 22670.4 558.812 9
-1 -2 5 23589.5 613.011 17
-1 -2 4 29904.9 489.871 14
1 -2 -3 9222.13 219.583 13
-1 -2 3 9515.85 245.514 12
-1 -2 2 77356.4 628.208 16
-1 -2 2 77650.6 530.876 15
-1 -2 2 78292.5 648.25 12
1 -2 -2 78767.3 472.569 13
-1 -2 1 6636.97 179.808 12
1 -2 -1 6942.17 159.719 1
1 -2 0 318702 1121.68 1
1 -2 1 393151 1400.69 1
1 -2 1 393370 1309.18 14
1 -2 2 8749.2 249.332 14
1 -2 3 4481.01 218.607 14
1 -2 4 34061.6 608.7 1
1 -2 5 8900.91 383.814 5
1 -2 6 2346.25 231.237 5
1 -2 7 11327.1 457.618 5
1 -2 8 7736.8 307.931 5
-1 -1 8 3336.92 206.054 5
-1 -1 7 35781.8 723.775 9
-1 -1 6 6598.73 327.602 9
-1 -1 5 3758.75 263.218 10
-1 -1 5 4397.14 250.165 9
-1 -1 5 4423.32 277.741 17
-1 -1 4 8076.2 251.401 14
-1 -1 3 23811.4 348.68 14
1 -1 -3 23179.4 376.029 13
-1 -1 2 30752.1 410.008 16
1 -1 -2 30010.2 340.168 13
-1 -1 2 29576.8 380.911 12
-1 -1 1 46405.5 453.667 12
1 -1 -1 45307.8 338.574 13
1 -1 0 43057.7 417.733 1
1 -1 2 52348.1 577.438 1
1 -1 3 9398.92 231.211 10
1 -1 3 9208.99 278.487 1
1 -1 4 10242.3 337.494 1
1 -1 5 9455.61 397.723 5
1 -1 6 2391.07 233.285 5
1 -1 7 8797.18 409.412 5
1 -1 8 5895.21 280.595 5
-1 0 8 2719.34 186.93 5
-1 0 6 54294.8 894.08 9
-1 0 5 4995.46 308.713 10
-1 0 5 4473.77 250.627 9
-1 0 5 4590.35 283.368 17
1 0 -4 20648.4 438.787 13
-1 0 4 21832.7 538.061 10
1 0 -3 222995 1222.03 13
-1 0 3 222137 1053.88 12
-1 0 2 148388 928.039 16
1 0 -2 148003 825.954 13
-1 0 2 146696 812.083 12
1 0 -1 15468.7 257.34 1
1 0 -1 15261.3 223.566 13
-1 0 0 768305 854.432 10
1 0 1 999999 2201.95 1
1 0 2 9087.04 163.643 10
1 0 2 6707.35 214.197 1
1 0 3 2785.43 159.671 1
1 0 3 2407.37 120.951 10
1 0 4 1636.66 142.935 1
1 0 5 18589 549.827 5
-1 0 -5 18471.7 604.55 13
1 0 6 5951.56 351.087 5
1 0 7 895.371 163.244 5
1 0 8 53325.8 806.025 5
-1 1 8 3417.23 207.905 5
-1 1 6 6598.08 326.611 9
-1 1 5 3889.95 279.587 10
-1 1 5 4532.13 247.785 9
-1 1 5 4395.65 279.052 17
-1 1 4 8035.77 325.5 10
1 1 -4 7356.39 281.154 13
-1 1 3 22346.9 457.665 10
-1 1 3 23423.4 310.42 14
1 1 -3 22942.1 416.842 13
-1 1 2 29719.2 242.081 14
1 1 -2 29498.4 399.831 13
-1 1 2 30328.3 433.327 16
-1 1 1 46868.2 396.575 10
1 1 -1 46601.1 459.892 1
1 1 -1 45963.4 421.096 13
1 1 0 45366.2 407.912 13
1 1 2 51250.8 395.719 10
1 1 2 51504.8 568.245 1
1 1 3 9594.72 234.945 10
1 1 3 9003.85 269.76 1
1 1 4 10261.6 326.463 1
1 1 5 9187.15 396.111 5
-1 1 -5 9235.62 440.337 13
1 1 6 2482.73 241.352 5
1 1 7 8465.32 410.146 5
1 1 8 4899.01 256.483 5
-1 2 8 1212.73 132.061 5
-1 2 6 46572.8 816.543 9
-1 2 5 21661.6 623.077 10
-1 2 5 23226.8 542.639 9
-1 2 4 27904.1 616.402 10
1 2 -4 27933.8 557.972 13
-1 2 3 11598.1 332.223 10
1 2 -3 9306.65 279.88 13
-1 2 2 79733.5 692.565 10
1 2 -2 76988.6 682.416 13
-1 2 1 6756.84 160.121 10
-1 2 1 7098.91 201.431 16
1 2 -1 6959.28 182.711 13
1 2 0 318633 1145.16 13
1 2 1 396139 1386.23 1
1 2 2 8077.61 226.76 1
1 2 3 4489.87 168.629 10
1 2 3 4551.53 192.267 1
1 2 4 36267.6 595.497 1
1 2 5 9200.5 398.616 5
-1 2 -5 8888.21 437.317 13
1 2 6 2433.24 238.841 5
1 2 7 11685.6 480.357 5
1 2 8 7976.06 316.666 5
-1 3 8 1121.07 125.756 5
-1 3 6 11040.4 405.606 9
-1 3 5 8476.19 330.335 9
-1 3 5 8402.72 401.97 10
1 3 -5 8862.99 373.924 13
-1 3 4 5792.64 282.854 10
1 3 -4 6133.01 277.765 13
-1 3 3 69089.2 814.728 10
1 3 -3 70955.7 792.502 13
-1 3 2 28471.1 417.804 10
1 3 -2 29101.7 443.068 13
-1 3 1 29021.9 345.247 10
-1 3 1 28047.3 401.355 16
1 3 0 633016 1754.47 1
1 3 0 635246 1694.24 13
1 3 1 101796 727.105 1
1 3 2 8611.29 228.446 1
1 3 3 13751.5 325.678 1
1 3 5 18599.6 565.179 5
-1 3 -5 18266.5 622.62 13
1 3 6 5450.21 342.6 5
1 3 7 17540.2 580.396 5
1 3 8 18741 469.647 5
-1 4 8 2902.87 183.364 5
-1 4 7 3132.47 215.823 5
-1 4 6 39344.7 740.675 9
-1 4 5 25056.6 688.297 10
-1 4 5 24897.4 549.35 9
1 4 -5 26758.9 657.001 13
-1 4 4 26713.5 610.66 10
1 4 -4 28549.7 603.995 13
-1 4 3 37590.4 606.609 10
1 4 -3 36077.5 586.563 13
-1 4 2 33824.2 472.52 10
1 4 -2 32305.6 489.383 13
-1 4 1 25200.6 395.71 16
1 4 -1 24038.1 376.615 13
1 4 0 102065 714.258 13
1 4 0 101438 719.988 1
1 4 1 11636.9 250.498 1
1 4 2 50434.1 557.855 1
1 4 3 5062.63 200.056 1
-1 4 -4 36390.8 752.243 13
1 4 5 6297.47 340.025 5
-1 4 -5 6136.42 372.234 13
1 4 6 9985.69 457.488 5
1 4 7 27031.1 714.551 5
1 4 8 4651.69 239.605 5
-1 5 8 4645.75 223.459 5
-1 5 7 389.351 97.553 5
-1 5 6 47022.1 798.576 9
-1 5 5 26622.8 725.022 10
-1 5 5 27420.8 570.069 9
-1 5 4 12976 434.406 10
1 5 -4 13616.3 431.004 13
-1 5 3 181924 1354.66 10
1 5 -3 181822 1365.89 13
-1 5 2 17110.5 354.381 10
1 5 -2 16381.9 363.723 13
-1 5 1 9953.98 256.918 16
1 5 -1 9624.14 253.337 13
1 5 0 43545.7 494.175 1
1 5 0 42730.7 487.218 13
1 5 1 9544.39 234.575 1
1 5 2 53211.9 576.342 1
1 5 3 24366.1 433.226 1
-1 5 -4 10308 418.984 13
1 5 5 3488.65 261.5 5
-1 5 -5 3759.38 276.655 7
-1 5 -5 3267.31 284.082 13
1 5 6 6312.64 370.532 5
1 5 7 12732.9 491.145 5
1 5 8 1044.56 123.133 5
-1 6 8 2879.16 174.405 5
-1 6 8 2717.66 200.569 6
-1 6 7 2741.38 200.161 5
-1 6 5 3697.09 287.566 10
-1 6 5 3823.36 221.687 9
1 6 -5 4359.41 292.879 13
-1 6 4 6789.94 326.376 10
1 6 -4 5946.51 297.351 13
-1 6 3 61276.2 817.035 10
1 6 -3 62769.4 833.949 13
1 6 -2 11358 315.938 13
1 6 -1 56182.5 631.934 13
-1 6 1 56265.3 622.225 16
-1 6 0 14720.7 297.522 16
-1 6 0 14540.2 231.077 13
1 6 0 14093.1 295.117 13
1 6 1 3461.02 148.836 1
1 6 2 4191.43 168.406 1
-1 6 -3 5458.87 267.529 13
1 6 3 5626.3 212.452 1
-1 6 -4 58753.6 996.288 13
1 6 5 19266.6 595.276 5
-1 6 -5 17848 628.981 13
-1 6 -5 18809.9 579.09 7
1 6 6 25337.1 718.379 5
1 6 7 14759.9 519.893 5
1 6 8 2905.42 176.313 8
1 6 8 2834.93 177.336 5
-1 7 8 7388.82 260.662 5
-1 7 8 6822.89 297.721 6
-1 7 7 14578.4 431.551 5
-1 7 5 12241.1 377.606 9
1 7 -5 12512.9 490.826 13
1 7 -4 8521.86 362.819 13
1 7 -3 73747.5 933.367 13
1 7 -2 14092.5 364.865 13
1 7 -1 9929.1 280.863 13
-1 7 0 94490.3 612.438 13
1 7 0 94085.2 783.551 13
-1 7 0 95272.8 771.853 16
-1 7 -1 38404.9 518.63 13
1 7 1 37709.1 489.134 1
1 7 2 10062.4 263.049 1
-1 7 -2 10136.3 314.649 13
-1 7 -3 38051.2 714.054 13
-1 7 -4 25491.4 665.666 13
-1 7 -4 24770.5 597.392 7
1 7 5 19897.6 611.509 5
-1 7 -5 18627.9 576.106 7
-1 7 -5 19637.6 667.681 13
1 7 6 5821.14 357.435 5
1 7 7 24290.3 656.089 5
1 7 8 2547.95 162.468 8
-1 8 8 388.135 97.2801 6
-1 8 7 3300.39 207.359 5
-1 8 6 4918.95 255.085 5
1 8 -5 72117.2 1180.8 13
1 8 -4 31985.9 719.128 13
1 8 -3 14317.1 427.912 13
1 8 -2 55882.7 750.619 13
1 8 -1 31325.9 517.279 13
-1 8 0 22286.7 381.859 16
1 8 0 21686 394.458 13
-1 8 0 21376 300.035 13
-1 8 -1 26673.4 443.339 13
-1 8 -1 26880.1 398.938 16
1 8 1 25835.9 426.467 13
1 8 2 7677.11 236.128 1
-1 8 -2 7651.05 286.425 13
-1 8 -3 59366.1 904.062 13
1 8 4 3783.9 255.75 5
-1 8 -4 3828.76 276.626 13
-1 8 -4 3795.16 247.965 7
1 8 5 789.225 153.664 5
-1 8 -5 813.654 155.419 7
-1 8 -5 682.04 162.326 13
1 8 6 4031.37 302.534 5
1 8 7 6935.74 351.517 5
1 8 8 4711.46 201.713 8
-1 9 8 2354.21 171.428 6
1 9 -5 37635 871.121 13
1 9 -4 10018 415.388 13
1 9 -3 14802.2 452.896 13
1 9 -2 43308.3 683.769 13
1 9 -1 97382.9 937.134 13
-1 9 0 31937.9 379.635 13
1 9 0 31823.7 498.479 13
-1 9 0 32935.7 471.994 16
-1 9 -1 8420.71 230.207 16
1 9 1 8753.68 261.048 13
-1 9 -1 8729.62 266.005 13
-1 9 -2 19385.5 461.701 13
-1 9 -3 11964.1 423.577 13
1 9 4 3402.39 246.425 5
-1 9 -4 2605.72 241.982 13
-1 9 -4 3028.44 229.82 7
1 9 5 9001.51 426.421 5
-1 9 -5 8075.34 439.395 13
-1 9 -5 8421.07 395.183 7
1 9 6 789.082 163.618 5
1 9 7 5939 313.435 5
1 9 8 10805.9 281.564 8
-1 10 8 113.051 72.4897 6
-1 10 7 3299.5 260.373 6
1 10 -5 3752.9 298.293 13
1 10 -4 10937.2 444.529 13
1 10 -3 1946.55 181.592 13
1 10 -2 173913 1415.63 13
1 10 -1 36512.5 599.786 13
-1 10 0 24850.4 352.153 13
1 10 0 23661.8 446.783 13
-1 10 -1 32541.7 446.489 16
-1 10 -1 32779.7 520.216 13
1 10 1 32805 519.819 13
-1 10 -2 47630.5 745.693 13
-1 10 -3 2930.99 225.381 13
1 10 4 34292.7 773.302 5
-1 10 -4 33134.3 807.302 13
-1 10 -4 33662.9 730.026 7
1 10 5 3045.56 261.855 5
-1 10 -5 3074.26 253.574 7
1 10 6 7764.25 403.103 5
1 10 7 464.556 127.638 8
1 10 7 578.197 117.848 5
-1 11 8 671.696 98.6317 6
-1 11 7 1253.71 177.295 6
1 11 -5 25410 735.488 13
1 11 -4 1198.17 168.698 13
1 11 -3 29765.7 670.693 13
1 11 -2 9119.22 338.804 13
1 11 -1 71052 874.19 13
1 11 0 30254.1 527.922 13
-1 11 -1 54046.1 690.565 13
1 11 1 54165.1 690.927 13
-1 11 -2 45416.3 743.722 13
-1 11 -3 9868.6 406.8 13
1 11 4 30.864 95.0994 5
-1 11 -4 62.5063 95.3166 7
-1 11 -4 67.5858 102.225 13
1 11 5 16276.8 577.154 5
-1 11 -5 15296.9 531.545 7
1 11 6 1916.53 215.277 5
1 11 7 9685.44 364.286 8
-1 12 8 1954.37 134.51 6
-1 12 7 1735.13 192.94 6
-1 12 6 22377 696.027 6
1 12 -4 5527.32 333.673 13
1 12 -3 6852.35 337.107 13
1 12 -2 44369 762.259 13
1 12 -1 43589.1 716.475 13
1 12 0 70362.5 828.707 13
-1 12 -1 685.779 95.7468 13
1 12 1 790.617 102.344 13
-1 12 -2 48696.9 785.139 13
-1 12 -3 16762.4 501.933 7
-1 12 -3 15585.2 513.528 13
1 12 4 7150.05 373.723 5
-1 12 -4 6723.08 384.604 13
-1 12 -4 7018.01 354.884 7
1 12 5 6622.04 372.366 5
-1 12 -5 6462.45 357.363 7
1 12 6 820.992 164.501 8
-1 12 -6 494.642 130.405 7
1 12 6 852.853 148.757 5
1 12 7 6003.65 281.098 8
-1 13 8 2802.71 143.614 6
-1 13 7 173.456 99.099 6
-1 13 6 1232.45 196.497 6
-1 13 5 28619.5 790.588 6
1 13 -4 83806.2 1283.99 13
-1 13 4 81477.5 1258.25 6
1 13 -3 21883.9 608.852 13
1 13 -2 12374.9 420.333 13
1 13 -1 62003.3 862.55 13
1 13 0 31459.4 576.36 13
-1 13 -1 32778.8 572.8 13
1 13 1 32491.4 574.672 13
-1 13 -2 13275.9 427.555 13
1 13 3 5053.08 300.814 8
-1 13 -3 4933.27 302.656 13
-1 13 -3 5138.75 293.379 7
1 13 4 12157.1 489.963 8
-1 13 -4 11530.1 498.015 13
-1 13 -4 11589.4 461.547 7
1 13 5 12611.2 506.727 8
-1 13 -5 12571.2 493.136 7
1 13 5 12923.2 502.118 5
1 13 6 4949.3 314.435 8
-1 13 -6 4574.12 284.602 7
1 13 7 11731.3 367.566 8
-1 14 7 56.763 88.489 6
-1 14 6 1748.86 217.84 6
-1 14 5 25727.3 750.675 6
1 14 -4 12855.4 518.776 13
-1 14 4 13663.1 525.868 6
1 14 -3 856.586 150.285 13
-1 14 3 929.237 147.036 6
1 14 -2 33150.3 710.836 13
1 14 -1 6543.77 295.227 13
1 14 0 30605.5 589.531 13
-1 14 -1 2931.52 188.197 13
1 14 1 2830.84 181.441 13
-1 14 -2 34728.9 707.605 13
1 14 3 34555.9 780.585 8
-1 14 -3 34559.1 794.009 13
-1 14 -3 36633.9 772.665 7
1 14 4 1607.42 204.895 8
-1 14 -4 1558.84 208.066 13
-1 14 -4 1626.3 196.315 7
1 14 5 40592.1 884.478 8
-1 14 -5 40513.2 866.361 7
1 14 6 52061.4 917.211 8
-1 14 -6 49299.1 861.523 7
1 14 7 13981.3 374.176 8
-1 15 7 1309.7 147.345 6
-1 15 6 403.29 132.737 6
-1 15 5 2390.79 253.893 6
1 15 -4 5095.22 339.223 13
-1 15 4 6317.29 370.429 6
1 15 -3 30179.7 753.085 13
-1 15 3 29962.8 729.27 6
1 15 -2 37253.3 778.777 13
1 15 -1 3555.43 227.883 13
1 15 0 5000.4 255.121 13
1 15 1 39996.8 674.289 13
1 15 2 157.218 96.8095 8
-1 15 -2 135.032 88.327 13
-1 15 -3 3294.59 253.42 7
1 15 3 3211.82 261.614 8
-1 15 -3 3226.68 264.481 13
1 15 4 2176.31 232.876 8
-1 15 -4 2373.5 232.136 7
1 15 5 405.639 148.256 8
-1 15 -5 267.815 148.81 7
1 15 6 2279.69 214.913 8
-1 15 -6 2258.63 205.204 7
1 15 7 1519.67 127.157 8
-1 16 7 6825.43 282.951 6
-1 16 6 1960.19 211.968 6
-1 16 5 34642.1 860.363 6
-1 16 4 86476.4 1326.23 6
1 16 -3 14697.1 541.917 13
-1 16 3 14006.9 507.497 6
1 16 -2 27067 650.49 8
1 16 -2 27980.5 696.574 13
-1 16 2 26517 635.287 6
1 16 -1 2952.43 217.034 13
1 16 0 1126.8 137.123 13
1 16 1 2607.56 185.67 13
1 16 2 10109 416.829 8
1 16 3 39240.8 861.074 8
-1 16 -3 39234.3 882.432 13
-1 16 -3 40543.9 843.176 7
1 16 4 5787.43 350.811 8
-1 16 -4 5701.64 340.071 7
1 16 5 31587 761.647 8
-1 16 -5 31647.6 755.809 7
1 16 6 16677 486.96 8
-1 16 -6 16557.6 475.889 7
-1 17 7 1238.95 126.149 6
-1 17 6 637.785 135.747 6
-1 17 5 3434.47 284.797 6
-1 17 4 17087.1 595.665 6
1 17 -4 16109.4 509.178 4
1 17 -3 10967.4 485.409 13
-1 17 3 10184 439.691 6
-1 17 2 24467.3 592.511 4
1 17 -2 26257.3 653.381 8
-1 17 2 25541.3 638.274 6
1 17 -1 12693.7 451.754 8
1 17 -1 12489.2 439.69 13
-1 17 1 11604.4 408.579 4
-1 17 1 12050 416.083 6
1 17 -1 12515.1 450.011 4
1 17 0 8367.34 372.341 8
-1 17 0 8427.99 350.08 4
1 17 0 8496.09 372.81 4
1 17 0 8074.81 337.943 13
1 17 1 35892.5 760.642 8
1 17 1 34771.3 702.334 4
-1 17 -1 35600.9 705.514 4
1 17 2 12493.7 470.321 8
1 17 3 8842.58 418.045 8
-1 17 -3 9305.75 417.958 7
1 17 4 15146.2 548.052 8
-1 17 -4 15368.3 544.193 7
1 17 5 31778.9 743.976 8
-1 17 -5 31944.3 745.654 7
1 17 6 14533.8 423.393 8
-1 17 -6 14501.7 427.459 7
-1 18 7 2810.99 159.134 6
-1 18 6 2661.88 214.289 6
-1 18 5 8287.18 409.411 6
1 18 -4 23291.9 614.712 4
-1 18 4 24260.1 695.61 6
1 18 -3 8993.14 406.03 4
-1 18 3 9761.99 430.516 6
-1 18 2 18556 540.644 4
1 18 -2 20284.7 588.766 8
1 18 -2 21005.3 621.191 13
1 18 -2 19585.4 583.755 4
-1 18 2 19686.3 572.644 6
-1 18 1 71743 1034.75 4
1 18 -1 73569.2 1081.82 13
1 18 -1 75520.9 1092.64 8
-1 18 1 72472.3 1038.81 6
1 18 -1 75581.2 1133.05 4
-1 18 0 3358.09 241.506 4
1 18 0 3255.97 256.088 4
1 18 0 3281.07 226.853 13
1 18 0 3664.09 259.699 8
1 18 1 4466.82 292.851 8
-1 18 -1 4468.35 274.073 4
1 18 1 4551.83 280.004 4
-1 18 -2 12920.4 429.793 4
1 18 2 12077 465.092 8
-1 18 -3 5746.35 335.11 7
1 18 3 5507.94 332.959 8
1 18 4 4413.59 306.878 8
-1 18 -4 4440.05 306.759 7
1 18 5 1891.52 200.795 8
-1 18 -5 1997 212.145 7
1 18 6 16621.5 416.09 8
-1 18 -6 16586.8 432.519 7
-1 19 7 2445.26 130.343 6
-1 19 6 2974.47 213.693 6
1 19 -5 6693.96 304.198 7
-1 19 5 8191.58 389.205 6
1 19 -4 6865.37 342.868 4
-1 19 4 7951.19 399.575 6
1 19 -3 28234.9 706.006 4
-1 19 3 29603.6 737.668 6
-1 19 2 6870.7 345.845 4
1 19 -2 6056.58 333.317 8
1 19 -2 6696.76 359.698 13
1 19 -2 6496.61 360.675 4
-1 19 2 6233.59 333.717 6
1 19 -1 8458.73 382.075 8
1 19 -1 8776.33 411.237 4
1 19 -1 8631.75 387.176 13
-1 19 1 8314.48 373.944 4
1 19 0 49792.4 905.147 8
-1 19 0 49739.2 880.098 4
1 19 0 49916.1 926.641 4
1 19 0 49025.5 850.729 13
1 19 1 16903.3 545.018 8
-1 19 -1 16985.4 518.11 4
1 19 1 17387.8 532.04 4
1 19 2 34829.6 791.063 8
-1 19 -2 37374.6 724.432 4
1 19 3 14892.3 530.776 8
-1 19 -3 16356 553.846 7
1 19 4 12452.6 473.696 8
-1 19 -4 12964.7 492.375 7
1 19 5 1533.25 171.631 8
-1 19 -5 1603.94 184.387 7
1 19 6 662.065 102.84 8
-1 20 6 2480.34 180.733 6
1 20 -5 2323.25 182.766 7
-1 20 5 2726.52 227.687 6
1 20 -4 2481.63 222.538 4
-1 20 4 2761.12 242.275 6
1 20 -3 3183.55 266.706 4
-1 20 3 3235.14 261.432 6
-1 20 2 32156.8 724.626 4
1 20 -2 33227.3 786.934 4
-1 20 2 32809 744.518 6
-1 20 1 5829.13 326.519 4
1 20 -1 5573.95 315.721 8
1 20 -1 5922.92 353.492 4
1 20 -1 5743.27 324.831 13
-1 20 0 2804.3 244.238 4
1 20 0 2673.33 232.668 8
1 20 0 2760.07 248.193 4
1 20 0 2834.75 224.672 13
-1 20 -1 6788.72 344.052 4
1 20 1 6697.95 346.391 4
1 20 1 6805.96 358.463 8
1 20 2 67438.6 1090.46 8
-1 20 -2 69938 994.813 4
1 20 3 28366.9 713.586 8
-1 20 -3 29608 732.691 7
1 20 4 18365.3 548.854 8
-1 20 -4 18948.6 574.341 7
1 20 5 1998.17 177.531 8
-1 20 -5 2138.59 191.114 7
-1 21 6 1990.12 149.975 6
1 21 -5 2790.54 190.951 7
-1 21 5 3192.54 227.621 6
1 21 -4 4498.27 266.615 4
-1 21 4 5326.49 315.717 6
-1 21 3 28967.1 712.801 6
1 21 -3 27293.6 693.65 4
-1 21 2 10974.2 434.494 4
-1 21 2 11031.2 440.388 6
1 21 -2 10800.5 469.417 4
1 21 -1 22068.8 602.906 8
1 21 -1 23753.8 675.815 4
-1 21 1 23670.6 632.9 4
1 21 0 42228 832.753 8
-1 21 0 43037.2 849.862 4
1 21 0 42370.3 874.021 4
1 21 1 48236.1 909.419 8
-1 21 -1 48631.3 884.594 4
1 21 1 49448.8 896.739 4
-1 21 -2 51386.1 855.42 4
1 21 2 48350.5 918.937 8
1 21 3 5083.95 308.202 8
-1 21 -3 5249.57 317.962 7
-1 21 -4 5575.03 313.813 7
1 21 4 5165.82 291.675 8
-1 21 -5 2819.74 201.781 7
1 21 5 2716.16 183.924 8
1 22 -5 4691.84 227.169 7
-1 22 5 5492.47 273.444 6
1 22 -4 777.891 136.993 4
-1 22 4 1013.45 153.593 6
1 22 -3 329.362 144.505 4
-1 22 3 369.14 127.922 6
1 22 -2 24678.8 679.508 4
1 22 -1 29854.9 692.768 8
-1 22 1 30982.9 735.085 4
1 22 -1 31334.3 768.978 4
-1 22 0 52621.7 945.738 4
1 22 0 50239.1 892.925 8
1 22 0 52615.1 972.846 4
1 22 1 18778.7 558.134 8
-1 22 -1 18981.2 561.41 4
1 22 1 19439.6 572.274 4
1 22 2 353.541 122.786 8
-1 22 -2 522.133 139.929 4
1 22 3 639.446 140.983 8
-1 22 -3 488.955 135.505 7
1 22 4 24634.3 565.864 8
-1 22 -4 24606.2 603.954 7
-1 22 -5 1202.38 133.46 7
1 23 -5 1194.97 118.541 7
1 23 -4 1981.86 174.146 4
-1 23 4 2576.62 207.864 6
1 23 -3 11853.2 438.176 4
1 23 -2 2551.32 251.078 4
-1 23 1 10241.2 430.651 4
1 23 -1 9246.13 384.645 8
1 23 -1 9713.88 440.324 4
1 23 0 43956.5 818.473 8
-1 23 0 46339.8 884.286 4
1 23 0 45513.6 899.789 4
1 23 1 6414.13 329.283 8
-1 23 -1 6507.58 338.1 4
1 23 1 7255.59 354.873 4
-1 23 -2 1628.4 181.543 4
-1 23 -2 1575.48 184.229 7
1 23 2 1735.01 186.181 8
1 23 3 14444.9 454.124 8
-1 23 -3 14315.7 477.159 7
-1 23 -4 10066.1 370.533 7
-1 23 -5 4711.91 214.139 7
1 24 -5 393.017 75.7415 7
1 24 -4 553.407 109.978 4
1 24 -3 1759.04 189.287 4
1 24 -2 3167.48 262.097 4
1 24 -1 18865.7 585.616 4
-1 24 1 18612.7 554.915 4
1 24 0 3354.14 233.117 8
-1 24 0 3550.16 271.655 4
1 24 0 3361.48 268.379 4
-1 24 -1 9147.81 390.053 4
1 24 1 9457.24 393.082 4
1 24 1 9000.52 364.427 8
-1 24 -2 1152.11 156.811 4
1 24 2 1120.81 150.57 8
-1 24 -2 1066.01 152.548 7
-1 24 -3 2018.11 187.152 7
-1 24 -4 3568.86 211.64 7
-1 24 -5 12.4214 52.4142 7
1 25 -4 2952.32 171.72 4
1 25 -3 2452.51 200.115 4
1 25 -2 3443.91 258.859 4
1 25 -1 1814.08 212.496 4
1 25 0 867.816 166.633 4
-1 25 0 620.073 153.512 4
-1 25 -1 15469.5 478.745 4
1 25 1 16907.5 493.204 4
-1 25 -1 16107.3 470.186 7
-1 25 -2 815.25 133.628 4
-1 25 -2 964.624 138.963 7
-1 25 -3 2263.76 180.567 7
-1 25 -4 3768.39 197.459 7
1 26 -4 38.1063 61.2842 7
1 26 -4 65.376 71.4545 4
1 26 -3 1502.1 154.025 4
1 26 -2 1132.56 165.171 4
1 26 -1 10155.8 405.405 4
-1 26 0 225.224 122.747 4
1 26 0 205.385 121.53 4
-1 26 -1 407.785 102.019 7
-1 26 -1 384.453 121.572 4
1 26 1 365.606 118.045 4
-1 26 -2 5931.82 274.415 7
-1 26 -3 3404.34 197.224 7
-1 26 -4 1764.99 126.934 7
1 27 -4 500.401 73.5668 7
1 27 -3 5821.59 242.074 4
1 27 -2 749.282 132.078 4
1 27 -1 4219.96 254.504 4
1 27 0 8042.03 332.628 4
1 27 1 1690.98 155.426 4
-1 27 -2 2958.8 179.021 7
-1 27 -3 383.814 79.9347 7
1 28 -3 4241.5 183.058 4
1 28 -2 459.185 104.225 4
1 28 -1 2525.08 188.868 4
1 28 0 427.761 110.601 4
1 28 1 3534 190.663 4
-1 28 -2 321.724 74.5535 7
-1 28 -3 1891.6 115.268 7
1 29 -3 2313.56 123.72 7
1 29 -2 1156.87 116.79 4
1 29 -1 4764.64 218.527 4
1 29 0 8119.05 274.121 4
1 29 1 8059.45 244.585 4
1 30 -2 1357.61 100.465 4
1 30 -1 625.021 89.5146 4
1 30 0 4415.58 181.846 4
-2 -28 1 391.135 103.248 18
-2 -28 0 2170.63 166.559 18
-2 -28 -1 9582.88 290.567 18
-2 -27 2 217.122 134.974 17
-2 -27 1 -104.756 140.43 18
-2 -27 1 925.288 212.067 17
-2 -27 0 3887.54 256.235 18
-2 -27 0 4811.24 372.921 17
-2 -27 -1 2583.01 249.157 18
-2 -27 -2 5710.69 267.455 18
-2 -26 3 1354.95 117.889 17
-2 -26 2 1715.52 185.878 18
-2 -26 2 2237.07 227.229 17
-2 -26 1 9272 471.32 17
-2 -26 1 6205.51 325.063 18
-2 -26 0 9858.97 428.195 18
-2 -26 0 10893.9 665.413 17
-2 -26 -1 7859.98 421.23 18
-2 -26 -2 5496.42 367.066 18
-2 -25 4 8567.41 232.898 17
-2 -25 2 2872.51 322.899 17
-2 -25 2 2174.94 226.932 18
-2 -25 1 4386.09 333.364 18
-2 -25 1 7903.89 596.144 17
-2 -25 0 12839.9 561.793 18
-2 -24 4 1122.96 108.62 17
-2 -24 3 1487.23 221.112 17
-2 -24 2 194.84 234.726 18
-2 -24 2 2578.29 372.279 17
-2 -24 1 2164.59 326.065 18
-2 -24 1 6966.69 706.031 17
-2 -24 0 5818.25 510.014 18
-2 -23 5 661.636 74.706 17
-2 -23 4 66.8213 68.2793 17
-2 -23 3 -142.503 215.184 17
-2 -23 3 -29.6773 182.311 18
-2 -23 2 1873.18 276.911 18
-2 -23 2 5680.9 498.402 17
-2 -23 1 3138.79 427.301 18
-2 -22 5 3368.44 170.544 17
-2 -22 4 444.835 103.485 17
-2 -22 3 -119.462 241.97 17
-2 -22 2 18896.4 858.184 17
-2 -22 2 16533.2 620.755 18
-2 -22 1 3182.71 495.388 18
-2 -21 5 1989.85 149.089 17
-2 -21 4 3655.11 241.608 17
-2 -21 3 36.3197 316.531 17
-2 -21 2 3756.79 659.234 17
-2 -21 2 53.4637 307.652 18
-2 -21 1 33520.3 1067.17 18
-2 -20 6 39.3454 44.4973 17
-2 -20 5 1304.19 135.437 17
-2 -20 4 1724.98 247.98 17
-2 -20 3 3097.45 309.917 18
-2 -20 3 2968.45 412.735 17
-2 -20 2 24620.9 818.999 18
-2 -20 2 22435.9 1119.9 17
-2 -20 1 5638.58 627.305 18
-2 -19 6 862.115 95.8201 17
-2 -19 5 6116.26 281.719 17
-2 -19 3 24243.6 849.716 17
-2 -19 3 25960.4 752.323 18
-2 -19 2 13139.7 648.479 18
-2 -19 2 14662.1 1030 17
-2 -19 1 7029.94 667.232 18
-2 -18 6 4163.44 201.673 17
-2 -18 5 5427.35 277.607 17
-2 -18 4 12547 544.12 17
-2 -18 3 38030.6 1055.11 17
-2 -18 3 40577.5 946.683 18
-2 -18 2 23539.9 843.557 18
-2 -18 2 18635.4 1117.65 17
-2 -17 6 1652.45 144.782 17
-2 -17 5 2047.62 191.114 17
-2 -17 4 7107.74 435.898 17
-2 -17 3 19511.4 677.526 18
-2 -17 3 20385.3 816.472 17
-2 -17 2 8623.03 974.375 17
-2 -17 2 6948.52 535.769 18
-2 -17 1 14925.2 553.993 12
2 -17 0 811.587 162.48 11
-2 -16 6 586.272 106.25 17
-2 -16 5 989.728 128.219 9
-2 -16 5 791.761 137.828 17
-2 -16 4 31901 676.871 9
-2 -16 4 29508.5 819.03 17
-2 -16 3 11074.4 646.551 17
-2 -16 3 10655.2 517.464 18
-2 -16 2 12900.8 454.248 3
-2 -16 2 13075.1 662.712 18
-2 -16 2 13055.1 503.12 15
-2 -16 2 12616.6 507.829 12
-2 -16 1 16316.2 570.695 12
2 -16 0 1334.13 189.987 11
2 -16 1 2384.82 239.273 11
-2 -15 6 3697.88 194.07 9
-2 -15 6 3193.06 210.373 17
-2 -15 5 366.005 106.706 9
-2 -15 5 385.14 115.069 17
-2 -15 4 6887.32 337.03 9
-2 -15 4 5037.26 398.797 17
-2 -15 3 20566.2 572.095 3
-2 -15 3 21794.9 826.77 17
-2 -15 3 21344.2 702.41 18
-2 -15 2 727.216 151.783 3
-2 -15 2 916.097 157.323 12
-2 -15 1 39489 857.442 12
2 -15 0 10807.2 467.338 11
2 -15 1 10024.8 385.982 1
2 -15 1 10544.9 472.824 11
2 -15 2 4096.28 278.444 1
-2 -14 6 2389.65 172.338 9
-2 -14 6 2165.87 182.91 17
-2 -14 5 668.832 132.747 9
-2 -14 5 648.919 136.298 17
-2 -14 4 5772.01 322.817 9
-2 -14 4 6070.04 317.357 3
-2 -14 3 2780.89 240.036 3
-2 -14 3 2916.01 241.412 15
-2 -14 3 3651.52 436.991 17
-2 -14 3 3331.48 318.816 18
-2 -14 3 3212.35 263.514 12
-2 -14 2 1673.12 338.492 18
-2 -14 2 1053.15 174.423 3
-2 -14 2 1303.02 175.844 12
-2 -14 1 27128.7 693.482 12
2 -14 -1 22763.8 663.114 11
2 -14 0 5137.81 314.176 11
2 -14 1 9550.65 373.507 1
2 -14 1 9420.01 439.756 11
2 -14 2 14456.8 501.967 1
2 -14 2 15983.4 601.35 11
-2 -13 7 6583.88 225.125 9
-2 -13 6 821.983 121.947 9
-2 -13 6 706.631 124.153 17
-2 -13 5 9965.06 402.081 9
-2 -13 5 9831.33 420.025 17
-2 -13 4 37769.2 810.096 9
-2 -13 4 39646.9 916.222 17
-2 -13 4 37546 762.255 3
-2 -13 3 27799.9 669.356 3
-2 -13 3 28153.3 868.837 17
-2 -13 3 28577.3 674.058 15
-2 -13 3 28690.9 776.357 18
-2 -13 3 28198 734.89 12
-2 -13 2 25223.2 838.861 18
-2 -13 2 26571.6 638.339 3
-2 -13 2 27391 695.554 12
-2 -13 1 22754.2 619.858 12
2 -13 1 9324.56 366.855 1
2 -13 2 5313.85 312.596 1
2 -13 2 5980.11 368.278 11
-2 -12 7 174.68 66.9967 9
-2 -12 6 4961.71 264.026 9
-2 -12 6 4832.48 274.456 17
-2 -12 5 7942.4 368.819 9
-2 -12 5 7933.49 380.422 17
-2 -12 4 37346.1 843.325 12
-2 -12 4 37842.3 870.187 17
-2 -12 4 35417.5 753.473 3
-2 -12 3 46819.7 862.517 3
-2 -12 3 51597.7 1098.73 17
-2 -12 3 49609.5 859.144 15
-2 -12 3 50372.7 1003.34 18
-2 -12 3 48506.5 935.477 12
-2 -12 2 13944.5 612.139 18
-2 -12 2 13045.4 447.638 3
-2 -12 2 14003.5 485.492 12
-2 -12 1 3138.29 236.395 12
2 -12 0 10337.1 345.549 1
2 -12 1 13861.6 443.597 1
2 -12 2 11498 444.101 1
2 -12 2 11918.3 505.266 11
2 -12 3 4177.69 330.008 11
-2 -11 7 246.718 75.4768 9
-2 -11 6 3077.52 220.094 9
-2 -11 6 2768.28 217.592 17
-2 -11 5 46184.6 873.885 9
-2 -11 5 45388.1 887.252 17
-2 -11 4 10907.6 456.606 17
-2 -11 4 10605.4 448.806 12
-2 -11 4 10247.5 419.353 3
-2 -11 3 8432.43 375.483 3
-2 -11 3 8089.26 417.01 18
-2 -11 3 7766 444.889 17
-2 -11 3 8135.37 383.333 12
-2 -11 2 571.886 247.85 18
-2 -11 2 380.957 104.605 12
-2 -11 1 68004.5 1014.98 12
2 -11 0 45103.5 713.691 1
2 -11 1 6209.08 297.881 1
2 -11 2 18612.8 553.066 1
2 -11 3 40860.7 888.677 1
2 -11 3 43285.1 1002.36 11
-2 -10 7 1510.66 137.972 9
-2 -10 6 436.58 117.885 9
-2 -10 6 384.639 108.882 17
-2 -10 5 27465.1 679.83 9
-2 -10 5 27214.9 686.584 17
-2 -10 4 42332.2 849.796 17
-2 -10 4 42865.6 877.946 12
-2 -10 4 41370.5 831.669 3
-2 -10 3 1231.44 167.318 3
-2 -10 3 1538.79 206.216 18
-2 -10 3 1265.23 161.454 12
-2 -10 2 9073.54 374.65 12
-2 -10 1 47255.7 835.931 12
2 -10 0 10348.7 342.565 1
2 -10 1 26573.9 599.098 1
2 -10 2 10819.8 418.861 1
2 -10 3 8455.07 405.638 1
2 -10 3 8790.69 452.489 11
-2 -9 8 1545.52 100.549 5
-2 -9 7 937.166 122.922 9
-2 -9 6 2785.08 225.094 9
-2 -9 6 2712.51 225.17 17
-2 -9 5 32794.9 746.054 9
-2 -9 5 32171.9 741.178 17
-2 -9 4 45770.8 865.303 3
-2 -9 4 45304.3 849.663 17
-2 -9 4 47379.4 904.904 12
-2 -9 3 19214.9 546.816 3
-2 -9 3 20444 595.585 18
-2 -9 3 19288.3 558.149 12
-2 -9 2 2551.21 204.459 12
2 -9 -1 17441.9 396.344 1
-2 -9 1 17813.1 499.768 12
2 -9 0 2928.58 187.157 1
2 -9 1 10089.2 367.335 1
2 -9 2 14721.1 480.845 1
2 -9 3 1583.53 190.635 1
-2 -8 8 2131.56 123.842 5
-2 -8 7 6762.38 288.575 9
-2 -8 6 20051 559.5 9
-2 -8 6 18447 560.02 17
-2 -8 5 22720.8 629.545 9
-2 -8 5 23739.5 633.642 17
-2 -8 4 12388.5 458.775 3
-2 -8 4 12064.4 436.462 17
-2 -8 4 12934.5 471.432 12
-2 -8 3 13447.2 455.31 12
-2 -8 2 49469.8 831.447 12
2 -8 -1 9589.98 296.129 1
-2 -8 1 9753.07 362.711 12
2 -8 0 36417.9 624.178 1
2 -8 1 8765.75 338.247 1
2 -8 2 790.6 130.22 1
2 -8 3 866.287 147.232 1
-2 -7 8 2305.04 134.398 5
-2 -7 7 1594.23 160.418 9
-2 -7 6 3853.93 264.852 9
-2 -7 6 3371.35 251.318 17
-2 -7 5 2364.84 222.944 9
-2 -7 5 1985.3 205.241 17
-2 -7 4 640.763 149.187 3
-2 -7 4 753.418 137.371 17
-2 -7 4 405.373 108.997 12
-2 -7 3 9212.21 376.092 12
-2 -7 2 59186.2 895.624 12
2 -7 -1 10968.1 317.42 1
-2 -7 1 10955 373.916 12
2 -7 0 17858.1 435.021 1
2 -7 1 8322.8 326.914 1
2 -7 2 9799.15 384.208 1
2 -7 3 1725.81 190.17 1
2 -7 4 29631.3 815.676 11
-2 -6 7 4984.62 261.166 9
-2 -6 6 4921.83 297.945 9
-2 -6 6 4458.84 286.865 17
-2 -6 5 25424.1 659.229 9
-2 -6 5 24377.5 633.798 17
-2 -6 4 15741.7 509.631 3
-2 -6 4 15628.3 486.37 17
-2 -6 4 15743.9 485.422 12
-2 -6 3 5889.72 293.323 12
-2 -6 2 48761.1 721.508 16
-2 -6 2 47577.6 782.037 12
2 -6 -1 11066.8 317.001 1
2 -6 0 1698.57 141.685 1
2 -6 1 6325.37 280.172 1
2 -6 2 6509.62 308.359 1
2 -6 3 8968.82 393.689 1
2 -6 4 8990.65 400.413 5
2 -6 4 9709.32 442.045 1
2 -6 4 10093.2 474.946 11
2 -6 5 26693.1 717.82 5
-2 -5 7 6905.06 308.317 9
-2 -5 6 8889.92 392.125 9
-2 -5 6 7760.01 371.966 17
-2 -5 5 75740.2 1126.48 9
-2 -5 5 75758.7 1096.43 17
-2 -5 4 20697.3 569.018 3
-2 -5 3 14321.4 436.51 12
2 -5 -2 15220.4 355.94 1
-2 -5 2 14646.5 403.069 16
-2 -5 2 14682.9 425.158 12
2 -5 -1 13036 344.497 1
2 -5 0 24258.2 491.065 1
2 -5 1 46177.5 730.836 1
2 -5 2 7987.15 338.481 1
2 -5 3 3570.03 251.367 1
2 -5 4 3028.04 255.986 5
2 -5 4 3298.35 264.52 1
2 -5 5 15289.7 567.546 5
2 -5 6 1640.7 195.173 5
-2 -4 7 1275.53 157.068 9
-2 -4 6 1473.95 187.005 9
-2 -4 6 1078.36 159.701 17
-2 -4 5 4736.44 307.832 9
-2 -4 5 4074.88 277.32 17
-2 -4 4 4217 271.197 3
2 -4 -2 98818.3 914.643 1
-2 -4 2 99246.6 1047.13 16
2 -4 -1 6459.6 245.535 1
2 -4 0 7561.6 277.818 1
2 -4 1 92137.1 1025.21 1
2 -4 2 14548.4 446.299 1
2 -4 3 2014.54 193.743 1
2 -4 4 4208.04 300.144 5
2 -4 4 3959.07 284.774 1
2 -4 5 12685.3 534.583 5
2 -4 6 1720.06 205.479 5
-2 -3 7 2321.2 193.394 9
-2 -3 6 7914.31 369.914 9
-2 -3 5 33793 827.699 10
-2 -3 5 34475.5 760.776 9
-2 -3 5 35125.6 750.828 17
-2 -3 4 17435.2 532.319 10
-2 -3 4 18024.7 516.02 3
-2 -3 2 39073.3 665.108 16
2 -3 -1 3839.43 193.505 1
2 -3 0 1342.96 128.611 1
2 -3 1 22335.9 510.274 1
2 -3 2 102897 1151.51 1
2 -3 3 3514.88 242.778 1
2 -3 4 1535.06 202.431 5
2 -3 4 1617.03 195.116 1
2 -3 5 14520.4 577.761 5
2 -3 6 355.816 133.416 5
-2 -2 7 759.65 128.623 9
-2 -2 6 46083.9 858.199 9
-2 -2 5 303.379 142.735 10
-2 -2 5 340.02 129.228 17
-2 -2 4 8901.83 377.078 10
-2 -2 4 10292.6 392.736 3
-2 -2 3 6269.98 281.703 10
-2 -2 2 25699 460.307 10
-2 -2 2 24833.8 535.515 16
2 -2 -1 6017.24 241.232 1
2 -2 0 18776 435.102 1
2 -2 1 274972 1714.5 1
2 -2 2 376451 2189.11 1
2 -2 3 1144.35 149.504 1
2 -2 4 8678.62 435.284 5
2 -2 4 8305.66 392.901 1
2 -2 5 1620.11 227.092 5
2 -2 6 6854.74 384.919 5
2 -2 7 4587 214.197 8
-2 -1 8 1589.72 124.724 5
-2 -1 7 1159.47 146.561 9
-2 -1 6 13273.6 467.952 9
-2 -1 5 24646.9 699.174 10
-2 -1 5 26239.9 656.177 9
-2 -1 5 26734.3 654.624 17
-2 -1 4 14661.4 490.1 10
-2 -1 4 15135.6 463.108 3
-2 -1 3 11974.7 377.081 10
-2 -1 2 34218.6 520.016 10
-2 -1 2 33328.5 624.191 16
2 -1 -1 20538.1 448.388 1
2 -1 0 9929.93 320.692 1
2 -1 1 236895 1593.08 1
2 -1 2 67621.5 921.139 1
2 -1 3 2659.92 209.188 1
2 -1 4 2166.51 238.4 5
2 -1 4 1751.67 197.024 1
2 -1 5 8303.15 457.286 5
2 -1 6 3037.47 275.662 5
2 -1 7 2081.5 167.283 8
-2 0 8 317.181 69.4857 5
-2 0 7 3192.51 213.857 9
-2 0 6 36209.9 747.087 9
-2 0 5 1983.4 226.58 10
-2 0 5 2616.97 232.119 9
-2 0 4 1582.38 180.049 10
-2 0 4 2436.7 206.511 3
-2 0 3 21883.2 511.966 10
-2 0 2 54503.4 656.177 10
-2 0 2 52217 788.725 16
2 0 -1 20423 449.016 1
2 0 0 27517.3 524.368 1
2 0 1 128870 1192.74 1
2 0 2 90349.5 1055.49 1
2 0 3 6153.13 306.721 1
2 0 4 771.28 166.78 5
2 0 4 706.049 143.121 1
2 0 5 5140.16 369.007 5
2 0 6 7713.27 415.754 5
2 0 7 4277.81 220.585 8
-2 1 8 1531.33 118.496 5
-2 1 7 1205.39 142.054 9
-2 1 6 12304.6 438.656 9
-2 1 5 24606.1 715.619 10
-2 1 5 26363.5 647.367 9
-2 1 4 14521.9 486.778 10
-2 1 3 11932.6 378.527 10
-2 1 2 34486.9 527.211 10
2 1 -2 34694.7 474.233 13
2 1 -1 20014.6 450.658 1
2 1 0 9504.71 318.283 1
2 1 1 236144 1627.49 1
2 1 2 68056.7 928.14 1
2 1 3 2727.29 246.184 5
2 1 3 2699.09 211.422 1
2 1 4 2022.32 237.421 5
2 1 4 1810.11 202.819 1
2 1 5 8309.06 459.969 5
2 1 6 3192.9 282.833 5
2 1 7 2189.29 170.32 8
-2 2 8 3223.32 161.375 5
-2 2 7 917.169 124.214 9
-2 2 6 46004.1 818.719 9
-2 2 5 274.271 124.256 10
-2 2 5 624.629 147.902 9
-2 2 4 9511.33 402.442 10
-2 2 4 9961.98 384.044 9
-2 2 3 6309.46 282.797 10
-2 2 2 25128.5 459.333 10
-2 2 2 24189.6 553.519 16
2 2 -2 25126.8 435.558 13
2 2 -1 5788.57 252.022 1
2 2 0 18181.7 440.729 1
2 2 1 279771 1750.29 1
2 2 2 376779 2198.74 1
2 2 3 1097.91 171.478 5
2 2 3 1101.14 144.534 1
2 2 4 9205.06 469.96 5
2 2 5 1653.32 244.867 5
2 2 6 6612.74 390.292 5
2 2 7 4561.64 229.689 8
-2 3 8 3706.95 168.139 5
-2 3 7 2123.79 168.991 9
-2 3 6 7403.72 330.497 9
-2 3 5 34604.6 865.858 10
-2 3 5 33401.9 702.185 9
-2 3 4 17282.8 539.568 10
-2 3 3 54316.5 815.67 10
2 3 -3 56477.3 712.338 13
-2 3 2 43379 617.563 10
2 3 -2 41731.6 597.32 13
2 3 -1 3630.2 205.048 1
-2 3 1 3954.44 223.642 16
2 3 -1 4028.05 194.358 13
2 3 0 1523.46 140.162 1
2 3 1 22302.9 511.625 1
2 3 2 100232 1128.54 1
2 3 3 2745.62 245.475 5
2 3 3 2481.02 204.62 1
2 3 4 1761.1 234.07 5
2 3 5 14696.3 606.288 5
2 3 6 535.831 154.495 5
2 3 7 3324.74 201.774 8
-2 4 8 2004.96 122.436 5
-2 4 7 1179.54 130.416 9
-2 4 6 1074.13 142.496 9
-2 4 5 4259.6 325.2 10
-2 4 5 4232.05 258.641 9
-2 4 4 4219.56 279.02 10
-2 4 4 3725.17 234.007 9
-2 4 3 5956.38 283.155 10
2 4 -3 5759.5 249.155 13
-2 4 2 96643.5 1128.21 16
2 4 -2 100828 977.836 13
-2 4 1 6531.13 288.734 16
2 4 -1 6675.33 254.823 13
2 4 0 6784.02 280.042 1
2 4 1 89946.8 1016.46 1
2 4 2 13969 429.819 1
2 4 3 1942.53 209.378 5
2 4 3 1835.49 179.866 1
2 4 4 4108.21 328.386 5
-2 4 -4 3782.32 294.62 13
2 4 5 13230.2 574.481 5
2 4 6 1620.59 214.071 5
2 4 7 3308.71 208.204 8
-2 5 8 77.0457 70.016 6
-2 5 6 8307.2 328.705 9
-2 5 5 74317.4 986.498 9
-2 5 4 20761.8 612.226 10
2 5 -3 14048.3 400.171 13
-2 5 2 14058.3 440.747 16
2 5 -2 14871 395.999 13
2 5 -1 13854.7 374.17 13
-2 5 1 13277.8 412.359 16
2 5 0 24147.2 526.258 1
2 5 1 45384.6 738.568 1
2 5 2 8011.22 330.138 1
-2 5 -3 4043.43 269.111 2
2 5 3 3515.65 238.872 1
2 5 3 3875.2 290.417 5
2 5 4 3424.41 299.597 5
-2 5 -4 3204.54 271.893 13
2 5 5 15261.4 613.502 5
2 5 7 14609.2 393.521 8
-2 6 8 963.453 115.465 6
-2 6 6 4716.16 244.953 9
2 6 -3 5351.31 259.405 13
-2 6 2 45569.8 793.627 16
2 6 -2 47507.1 732.466 13
-2 6 1 11799 394.429 16
2 6 -1 11554.7 351.941 13
2 6 0 1580.33 149.196 1
2 6 1 6051.06 279.817 1
2 6 2 6575.67 305.81 1
-2 6 -3 9107.05 387.687 7
2 6 3 9239.37 382.568 1
2 6 3 9426.26 442.794 5
2 6 4 9640.46 479.253 5
-2 6 -4 8992.57 444.347 13
2 6 5 27091.6 796.99 5
2 6 6 455.113 144.036 8
2 6 7 5138.86 242.665 8
-2 7 8 2157.59 152.866 6
2 7 -4 611.232 128.105 13
2 7 -3 8725.17 343.077 13
2 7 -2 56587.8 823.029 13
-2 7 1 10245.4 373.3 16
2 7 -1 11064.5 352.559 13
-2 7 0 18476.1 490.587 16
2 7 1 7714.94 318.168 1
2 7 2 9008.12 359.94 1
2 7 3 1604.76 193.347 8
-2 7 -3 1765.71 188.299 7
-2 7 -3 1351.18 173.951 13
2 7 3 1689.07 206.892 5
-2 7 -4 25972.1 742.777 13
2 7 4 27825.9 802.43 5
2 7 5 7923.23 443.879 5
2 7 6 11602.1 442.465 8
2 7 7 8996.12 302.768 8
-2 8 8 2053.81 143.483 6
-2 8 7 7151.22 347.585 6
2 8 -4 13007.9 461.669 13
2 8 -3 13267.5 431.319 13
2 8 -2 48080 784.792 13
-2 8 1 10138.9 377.863 16
2 8 -1 9663.44 343.847 13
-2 8 0 38578.9 711.712 16
2 8 2 756.158 123.44 1
-2 8 -2 740.504 122.791 13
2 8 3 679.02 149.412 8
-2 8 -3 791.455 143.584 7
-2 8 -3 745.073 148.804 13
2 8 4 4315.36 314.123 8
2 8 4 4295.44 329.495 5
2 8 5 833.053 178.958 8
2 8 6 1713.67 194.88 8
2 8 7 393.083 94.4593 8
-2 9 8 1597.51 121.537 6
-2 9 7 932.092 147.513 6
2 9 -4 47430.8 890.812 13
2 9 -3 19239.3 535.231 13
2 9 -2 2502.33 198.473 13
-2 9 1 18008.1 502.644 16
2 9 -1 17246.3 467.421 13
-2 9 0 3079.54 216.018 16
2 9 0 2970.58 198.179 13
-2 9 -1 10592.4 380.679 16
2 9 2 14813.7 505.359 8
-2 9 -2 14139 459.625 13
2 9 3 1313.9 189.434 8
-2 9 -3 1476.31 182.723 7
-2 9 -3 1168.89 175.659 13
2 9 4 1428.03 204.238 8
-2 9 -4 1509.02 196.169 7
2 9 5 8682.34 421.829 8
2 9 6 1983.13 201.171 8
2 9 7 558.074 97.4408 8
-2 10 7 1764.68 178.91 6
-2 10 6 429.099 138.919 6
2 10 -4 44005.9 878.823 13
2 10 -3 1347.68 162.408 13
2 10 -2 9746.66 377.781 13
2 10 -1 46194.5 777.171 13
2 10 0 10358.7 362.995 13
-2 10 0 9894 372.35 16
-2 10 -1 26979.2 603.456 16
2 10 2 10790 444.573 8
-2 10 -2 10378.1 400.492 13
-2 10 -2 11173.5 411.266 7
2 10 3 7862.47 402.886 8
-2 10 -3 8326.4 394.006 7
-2 10 -3 7523.4 385.745 13
2 10 4 8656.06 432.216 8
-2 10 -4 9129.11 429.302 7
2 10 5 2870.86 264.697 8
2 10 6 4075.09 268.383 8
2 10 7 735.071 95.6224 8
-2 11 7 255.618 94.2942 6
-2 11 6 3211.22 268.956 6
-2 11 5 49638.6 1004.03 6
2 11 -4 10743.5 453.662 13
-2 11 4 10651.7 455.902 6
2 11 -3 8303.11 377.459 13
-2 11 3 8354.26 374.986 6
2 11 -2 505.721 115.69 13
2 11 -1 66867.1 957.819 13
-2 11 0 45418.3 789.666 16
2 11 0 46957.6 782.523 13
-2 11 -1 6659.14 306.676 16
2 11 2 18333.6 583.622 8
-2 11 -2 19386.9 547.687 7
2 11 3 38639.5 887.781 8
-2 11 -3 40951.4 851.194 7
-2 11 -3 38395.2 862.843 13
2 11 4 5768.12 363.435 8
-2 11 -4 5722.28 347.295 7
2 11 5 2465.03 249.228 8
2 11 6 9412.14 375.439 8
-2 12 7 172.617 89.8083 6
-2 12 6 5383.93 329.51 6
-2 12 5 8543.41 431.37 6
2 12 -4 37156.2 837.705 13
-2 12 4 38182.6 851.683 6
2 12 -3 48481.4 912.689 13
-2 12 3 49942.8 906.564 6
2 12 -2 12963.7 453.105 8
2 12 -2 13672 472.658 13
2 12 -1 3320.86 231.668 13
2 12 0 10901.5 389.241 13
2 12 1 15232.4 517.9 8
-2 12 -1 14907 491.68 2
2 12 2 11502.2 477.5 8
-2 12 -2 11593.3 430.4 7
2 12 3 3747.38 298.158 8
-2 12 -3 4181.58 288.384 7
2 12 4 408.894 153 8
-2 12 -4 405.336 143.877 7
2 12 5 4716.5 319.527 8
2 12 6 488.322 126.373 8
-2 13 7 6943 289.194 6
-2 13 6 954.998 156.005 6
-2 13 5 11123 478.938 6
-2 13 4 40470.8 879.448 6
2 13 -3 28690.2 719.89 13
-2 13 3 29089.8 702.466 6
2 13 -2 26812 668.249 8
2 13 -2 27398 679.712 13
2 13 -1 22865.7 620.289 8
2 13 -1 22799 591.378 13
2 13 0 6153.55 339.489 8
2 13 0 5912.38 300.324 13
2 13 1 9978.5 435.133 8
2 13 2 5868.29 354.551 8
-2 13 -2 6090.61 320.174 7
2 13 3 3977.53 307.192 8
-2 13 -3 3645.58 273.394 7
2 13 4 8371.8 434.337 8
-2 13 -4 8534.85 413.93 7
2 13 5 2692.42 252.282 8
2 13 6 6135.59 289.051 8
-2 14 7 983.375 119.579 6
-2 14 6 2523.88 223.394 6
-2 14 5 839.413 164.334 6
-2 14 4 5674.86 343.557 6
2 14 -3 2882.43 249.588 13
-2 14 3 3390.73 256.491 6
2 14 -2 1216.16 178.254 8
2 14 -2 1301.55 173.581 13
2 14 -1 28030.4 705.807 8
2 14 -1 27308.3 662.632 13
2 14 0 5297.41 329.919 8
2 14 0 4969.3 285.366 13
2 14 1 9924.41 446.917 8
2 14 2 14997.3 548.251 8
-2 14 -2 15112.7 496.436 7
2 14 3 17043.4 600.214 8
-2 14 -3 17273.1 560.935 7
2 14 4 16002.4 582.461 8
-2 14 -4 15728.1 544.326 7
2 14 5 11238.6 451.484 8
2 14 6 17032.9 439.247 8
-2 15 7 2752.79 165.984 6
-2 15 6 3974.54 254.927 6
-2 15 5 478.774 137.216 6
-2 15 4 7462.31 387.944 6
-2 15 3 20721.8 596.149 6
2 15 -2 779.738 163.396 8
2 15 -2 898.136 158.416 13
2 15 -1 39702.8 851.375 8
2 15 -1 40224 819.981 13
2 15 0 11117.5 472.878 8
2 15 0 10349.1 409.86 13
2 15 1 10767.1 466.947 8
2 15 2 4861.47 333.661 8
-2 15 -2 4716.85 287.48 7
2 15 3 555.547 164.526 8
-2 15 -3 563.588 142.135 7
2 15 4 1206.57 200.648 8
-2 15 -4 1216.98 184.856 7
2 15 5 156.828 114.412 8
2 15 6 35595.9 589.02 8
-2 16 7 960.169 95.9672 6
-2 16 6 774.081 128.34 6
-2 16 5 891.796 151.006 6
-2 16 4 33083.3 771.77 6
-2 16 3 11124.6 437.116 6
2 16 -2 12575.9 490.271 8
2 16 -2 13229.4 510.004 13
2 16 -1 16373 567.162 8
2 16 -1 16143.2 535.944 13
2 16 0 1126.82 192.714 8
2 16 1 2460.41 248.175 8
2 16 2 21535 662.083 8
-2 16 -2 20347.5 575.874 7
2 16 3 15381.8 568.022 8
-2 16 -3 15716.1 529.961 7
2 16 4 2721.56 254.642 8
-2 16 -4 3033.33 248.804 7
2 16 5 2994.58 228.557 8
2 16 6 12267.4 327.88 8
-2 17 6 1710.58 159.773 6
2 17 -5 1758.17 174.438 4
-2 17 5 2485.19 213.439 6
-2 17 4 8697.23 397.379 6
-2 17 3 19123.2 569.803 6
2 17 -2 6515.68 364.001 8
-2 17 2 6604.68 322.386 6
2 17 -1 15178.6 544.448 8
2 17 -1 15113.2 527.1 13
2 17 0 642.785 161.258 8
2 17 0 382.867 136.906 4
2 17 1 1154.97 189.511 8
2 17 2 3842.11 305.483 8
-2 17 -2 3890.67 264.302 7
2 17 3 8633.95 430.912 8
-2 17 -3 8189.38 384.189 7
2 17 4 10414.3 441.463 8
-2 17 -4 10836.9 425.918 7
2 17 5 2530.81 202.905 8
-2 18 6 5082.94 237.442 6
2 18 -5 4763.94 248.306 4
-2 18 5 5742.6 300.1 6
-2 18 4 14769.7 497.892 6
-2 18 3 39869.9 798.189 6
2 18 -2 23354 668.143 8
-2 18 2 24245.2 600.766 6
2 18 -1 20603.3 628.175 8
2 18 0 8874.27 430.81 8
2 18 0 9155.04 404.756 4
2 18 1 23163.2 692.15 8
2 18 2 5678.06 362.433 8
-2 18 -2 5606.07 306.546 7
2 18 3 23227.3 674.85 8
-2 18 -3 23042.7 615.912 7
2 18 4 6935.31 356.673 8
-2 18 -4 7328.67 342.474 7
2 18 5 6316.43 283.169 8
-2 19 6 1041.02 109.877 6
2 19 -5 5501.39 253.65 4
-2 19 5 7110.91 310.577 6
-2 19 4 825.901 136.837 6
2 19 -4 675.624 144.842 4
-2 19 3 25731.9 632.066 6
2 19 -2 14185.7 518.958 8
2 19 -1 6104.91 356.388 8
2 19 -1 5953.79 348.731 4
2 19 0 15640.7 559.091 8
2 19 0 15011.3 512.978 4
2 19 1 1412.55 207.904 8
2 19 2 22037.2 663.301 8
-2 19 -2 20722.6 563.872 7
2 19 3 31010.8 757.022 8
-2 19 -3 30735.9 690.468 7
2 19 4 16186 501.058 8
-2 19 -4 16455.8 479.326 7
2 19 5 5296.26 243.469 8
-2 20 6 150.975 59.2597 6
2 20 -5 1232.2 130.921 4
-2 20 5 1423.85 143.231 6
2 20 -4 3688.87 249.879 4
-2 20 4 4186.87 250.48 6
-2 20 3 4791.89 274.777 6
2 20 -3 4363.79 299.455 4
2 20 -2 26005.9 683.956 8
2 20 -2 25448.4 683.506 4
2 20 -1 2725.84 256.045 8
2 20 -1 2393.12 251.158 4
2 20 0 16792.1 540.723 4
2 20 0 17346.9 584.722 8
2 20 1 19898.5 627.21 8
2 20 2 28039.7 733.941 8
-2 20 -2 27405.7 634.726 7
2 20 3 18528.9 569.759 8
-2 20 -3 18517.3 518.3 7
2 20 4 6737.4 314.775 8
-2 20 -4 6668.98 296.362 7
2 20 5 3872.95 190.803 8
2 21 -5 1822.69 138.416 4
-2 21 5 2468.21 165.777 6
2 21 -4 3721.65 237.973 4
-2 21 4 4565.89 248.878 6
2 21 -3 794.148 162.421 4
2 21 -2 282.691 156.263 4
2 21 -1 38914.8 827.659 8
2 21 -1 38197 826.442 4
2 21 0 5964.27 325.452 4
2 21 0 5777.95 344.642 8
2 21 1 676.083 164.365 8
2 21 2 26846.7 690.542 8
-2 21 -2 27648.9 613.917 7
2 21 3 5309.69 304.634 8
-2 21 -3 5359.84 274.935 7
2 21 4 3700.45 224.248 8
2 22 -5 3105.41 153.511 4
2 22 -4 370.091 111.256 4
2 22 -3 379.432 132.895 4
2 22 -2 17600.6 551.373 4
2 22 -1 268.758 130.278 8
2 22 -1 233.552 142.96 4
2 22 0 39576 819.991 8
2 22 0 38698.3 765.067 4
2 22 1 27999.7 694.214 8
2 22 2 5097.31 302.427 8
-2 22 -2 5394.41 267.054 7
2 22 3 4682.63 265.136 8
-2 22 -3 4933.67 247.63 7
2 22 4 7400.01 275.827 8
2 23 -4 80.3859 80.6134 4
2 23 -3 191.722 113.45 4
2 23 -2 2667.96 229.721 4
2 23 -1 914.077 160.103 8
2 23 -1 1104.72 170.078 4
2 23 0 26404 643.397 8
2 23 0 25797.7 600.58 4
2 23 1 19173.1 545.001 8
2 23 2 2211.57 199.412 8
2 23 3 465.618 108.024 8
-2 23 -3 442.186 89.9334 7
2 23 4 2568.3 148.489 8
2 24 -4 1220.91 123.012 4
2 24 -3 3314.05 214.825 4
2 24 -2 1163.25 161.682 4
2 24 -1 9.4322 103.357 8
2 24 -1 61.265 110.777 4
2 24 0 570.897 131.617 8
2 24 0 863.161 142.889 4
2 24 1 19007.2 512.989 8
2 24 2 3234.13 212.472 8
2 24 3 1899.82 149.958 8
2 25 -4 9132.75 247.702 4
2 25 -3 646.553 113.728 4
2 25 -2 3612.46 224.104 4
2 25 -1 3912.55 235.571 4
2 25 0 8967.89 336.696 8
2 25 0 9149.26 322.987 4
2 25 1 1953.78 171.391 8
2 25 2 1930.16 155.778 8
2 25 3 304.229 70.9263 8
2 26 -3 1677.59 136.148 4
2 26 -2 3200.99 195.959 4
2 26 -1 6741.34 272.777 4
2 26 0 7129.01 261.024 4
2 26 1 3868.12 201.264 8
2 26 2 2313.69 146.057 8
2 27 -3 448.855 76.2449 4
2 27 -2 1229.72 121.888 4
2 27 -1 226.177 86.1658 4
2 27 0 2883.06 156.052 4
2 28 -2 985.959 93.4953 4
2 28 -1 1060.96 98.3613 4
-3 -23 0 1218.46 136.46 18
-3 -22 1 1474.41 157.263 18
-3 -22 0 7291 298.051 18
-3 -22 -1 14887.6 368.429 18
-3 -21 1 9463.54 356.095 18
-3 -21 0 2419.81 160.024 3
-3 -21 0 2243.28 213.534 18
-3 -21 -1 2444.27 202.719 18
-3 -21 -1 2882.28 165.442 3
-3 -20 2 12676.7 340.627 3
-3 -20 1 3157.78 194.609 3
-3 -20 1 2560.23 231.435 18
-3 -20 0 3012.3 251.891 18
-3 -20 0 2945.61 188.464 3
-3 -20 -1 8912.39 358.792 18
-3 -19 3 8807.66 280.629 3
-3 -19 2 23924.4 509.998 3
-3 -19 2 22421 566.578 18
-3 -19 1 17854.5 456.982 3
-3 -19 1 18569.1 550.037 18
-3 -19 0 8662.71 407.214 18
-3 -19 0 7888.07 312.638 3
-3 -19 -1 1138.49 218.525 18
-3 -18 3 8578.32 299.605 9
-3 -18 3 10787 342.307 3
-3 -18 2 10367 368.292 3
-3 -18 2 10575.3 420.752 18
-3 -18 1 10369 374.623 3
-3 -18 1 9956.48 438.765 18
-3 -18 0 12598.8 497.465 18
-3 -17 4 3113.29 176.329 9
-3 -17 3 6753.4 299.083 3
-3 -17 2 4013.27 252.847 3
-3 -17 2 2863.67 269.797 18
-3 -17 1 10171.4 455.779 18
-3 -17 1 10288.6 387.925 3
-3 -17 0 3869.82 326.962 18
-3 -16 5 436.13 76.1645 9
-3 -16 4 336.294 88.2191 9
-3 -16 3 5989.98 300.744 3
-3 -16 2 1908.64 196.416 3
-3 -16 2 1355.66 213.483 18
-3 -16 1 302.733 198.768 18
-3 -16 1 664.221 148.252 3
-3 -16 0 16148.4 580.763 18
-3 -15 5 198.052 71.9172 9
-3 -15 4 4979.25 265.636 9
-3 -15 4 5459.13 267.326 3
-3 -15 3 18859.5 531.74 3
-3 -15 2 17535.2 526.974 3
-3 -15 2 17099.4 572.196 18
-3 -15 1 2070.77 270.272 18
-3 -15 1 2465.01 223.225 3
-3 -15 0 6696.97 415.687 18
-3 -14 6 615.728 74.8032 9
-3 -14 5 1652.08 144.912 9
-3 -14 4 182.69 101.164 9
-3 -14 4 53.8389 97.8057 3
-3 -14 3 7672.71 364.827 3
-3 -14 2 900.14 167.803 3
-3 -14 2 580.356 172.589 18
-3 -14 1 14392.4 553.712 18
-3 -14 0 22763.8 692.571 18
-3 -14 -5 225.767 73.5149 2
-3 -13 6 173.467 62.2675 9
-3 -13 5 10105.7 351.158 9
-3 -13 4 495.186 138.661 3
-3 -13 3 4392.36 295.719 3
-3 -13 2 -233.156 206.269 18
-3 -13 2 248.608 136.266 3
-3 -13 1 2249.02 277.443 18
-3 -13 -5 5389.06 228.047 2
-3 -12 6 3416.38 175.885 9
-3 -12 5 2678.15 202.259 9
-3 -12 4 25150.5 632.036 3
-3 -12 3 21303.2 614.397 3
-3 -12 2 17955.7 562.335 3
-3 -12 2 18445.2 595.932 18
-3 -12 1 8973.78 444.686 18
-3 -11 6 548.494 91.3942 9
-3 -11 5 1483.68 167.83 9
-3 -11 4 10937.2 443.602 3
-3 -11 3 52201.4 954.503 3
-3 -11 2 11642.1 477.329 18
-3 -11 2 12165.1 468.396 3
-3 -11 1 4080.47 316.323 18
-3 -10 7 985.116 80.2093 9
-3 -10 6 306.237 86.172 9
-3 -10 5 3583.73 246.294 9
-3 -10 4 55414.4 968.153 3
-3 -10 3 13191.3 502.487 3
-3 -10 2 15245 520.612 3
-3 -9 7 3679.03 153.277 9
-3 -9 6 4817.9 241.007 9
-3 -9 5 3979.75 266.97 9
-3 -9 4 9784.78 441.638 3
-3 -9 3 3349.52 275.582 3
-3 -9 2 5302.24 318.776 3
3 -9 0 1546.35 185.437 1
-3 -8 7 2339.96 132.636 9
-3 -8 6 2432.73 187.038 9
-3 -8 5 12160.9 457.598 9
-3 -8 4 27584.4 709.951 3
-3 -8 3 211.588 137.604 3
-3 -8 2 8712.4 397.001 3
3 -8 0 8996.29 410.963 1
-3 -8 -5 540.9 127.939 2
-3 -7 7 75.9473 54.1531 9
-3 -7 6 3133.28 210.803 9
-3 -7 5 10594.2 434.602 9
-3 -7 4 35029.7 798.886 3
-3 -7 3 2928.71 253.525 3
-3 -7 2 7765.99 372.243 3
3 -7 0 1345.9 178.768 1
3 -7 1 13800.9 540.924 1
-3 -7 -5 4643.68 263.373 2
-3 -6 7 154.989 62.7008 9
-3 -6 6 3979.23 236.87 9
-3 -6 5 691.26 155.388 9
-3 -6 4 41230.1 854.232 3
-3 -6 3 15379.1 531.43 3
-3 -6 2 3279.69 258.489 3
3 -6 -1 11976 453.061 1
-3 -6 0 1458.42 196.334 2
3 -6 0 1381.38 180.205 1
3 -6 1 11301.2 489.27 1
-3 -6 -5 3590.15 238.475 2
-3 -5 7 1688.15 127.201 9
-3 -5 6 252.88 103.215 9
-3 -5 5 13310.8 483.377 9
-3 -5 4 10850.7 458.88 3
-3 -5 3 846.029 169.146 3
-3 -5 2 11089.9 433.697 3
-3 -5 2 11245.4 466.765 16
3 -5 -1 17869.2 555.831 1
-3 -5 0 5228.75 326.828 2
3 -5 0 4828.17 311.099 1
3 -5 1 9554.75 450.409 1
-3 -5 -5 4629.99 264.977 2
-3 -4 7 6293.21 228.972 9
-3 -4 6 1124.83 144.265 9
-3 -4 5 3286.5 264.346 9
-3 -4 4 8469.58 397.303 3
-3 -4 3 5704.7 330.25 3
-3 -4 2 3901.61 272.495 3
-3 -4 2 4422.35 303.055 16
3 -4 -1 1701.86 194.876 1
-3 -4 1 1693.53 201.9 2
-3 -4 0 2171.36 233.86 2
3 -4 0 2333.43 228.549 1
3 -4 1 1742.02 208.438 1
-3 -4 -5 2845.88 219.472 2
-3 -3 7 4324.18 191.126 9
-3 -3 6 5433.41 275.8 9
-3 -3 5 41994.9 830.06 9
-3 -3 4 3359.89 264.76 3
-3 -3 3 7045.43 359.611 3
-3 -3 2 13600.2 469.014 3
-3 -3 2 11435.8 474.446 16
3 -3 -1 8553.05 395.683 1
-3 -3 1 9389.38 402.821 2
-3 -3 0 8347.45 405.617 2
3 -3 0 8442.53 406.935 1
3 -3 1 154.691 110.363 1
-3 -3 -5 4635.82 262.388 2
-3 -2 7 645.1 89.7267 9
-3 -2 6 2213.43 183.68 9
-3 -2 5 17944.2 548.571 9
-3 -2 4 17045.4 531.298 3
-3 -2 3 8103.64 377.539 3
-3 -2 3 7518.96 392.602 16
-3 -2 2 30903.3 687.299 3
-3 -2 2 28228.4 737.304 16
3 -2 -1 47469.7 927.693 1
-3 -2 1 47350.3 883.962 2
-3 -2 0 2199.17 233.062 2
3 -2 0 2181.65 226.447 1
-3 -2 -1 896.011 195.624 2
3 -2 1 611.294 153.133 1
-3 -2 -4 1200.74 198.238 2
-3 -2 -5 212.61 112.017 2
-3 -1 7 1923.97 130.164 9
-3 -1 6 405.347 103.942 9
-3 -1 5 19699.7 561.558 9
-3 -1 4 1483.53 201.49 3
-3 -1 3 2757.67 242.838 3
-3 -1 2 5968.78 321.37 3
-3 -1 2 5706.97 349.291 16
3 -1 -1 674.64 146.497 1
-3 -1 1 1044.22 207.509 2
-3 -1 0 384.03 138.29 2
3 -1 0 630.188 142.624 1
-3 -1 -1 23640.3 706.745 2
3 -1 1 22173.8 669.8 1
-3 -1 -2 86343.1 1388.3 2
-3 -1 -3 26096.8 775.957 2
-3 -1 -4 730.928 173.811 2
-3 -1 -5 88.7194 92.5349 2
-3 0 7 350.259 71.0874 9
-3 0 6 106.895 79.8149 9
-3 0 5 17122.8 514.201 9
-3 0 4 8068.39 362.223 3
-3 0 3 14217 480.773 3
-3 0 2 89.3443 131.552 2
-3 0 2 181.019 125.425 3
-3 0 2 143.759 123.866 16
-3 0 1 150.245 125.109 2
-3 0 1 163.268 118.013 3
-3 0 1 200.957 122.304 16
3 0 -1 77.8998 100.158 1
-3 0 0 408.84 137.704 2
3 0 0 482.547 132.422 1
-3 0 -1 11009.2 494.564 2
3 0 1 10894.1 478.105 1
-3 0 -2 4362.07 407.007 2
-3 0 -3 6488.81 418.818 2
-3 0 -4 3993.3 294.928 2
-3 0 -5 1423.74 151.305 2
-3 1 7 1949.4 123.381 9
-3 1 6 315.748 89.2007 9
-3 1 5 19655.3 538.87 9
-3 1 3 2882.35 241.005 3
-3 1 2 5342.25 298.221 3
-3 1 2 5074.01 331.593 16
-3 1 2 5485.19 329.796 2
-3 1 1 638.796 146.501 3
-3 1 1 1085.97 187.721 16
-3 1 1 775.111 170.538 2
3 1 0 805.887 155.749 1
-3 1 0 950.878 172.226 2
-3 1 -1 22161.6 676.601 2
3 1 1 21148.1 659.488 1
-3 1 -2 81087.9 1320.46 2
-3 1 -3 24332.1 724.839 2
-3 1 -4 733.116 163.56 2
-3 1 -5 132.65 91.6294 2
-3 2 7 565.95 78.7352 9
-3 2 6 1815.37 152.235 9
-3 2 5 16286 482.997 9
-3 2 3 7865.42 353.982 3
-3 2 2 30110.4 652.093 3
-3 2 2 29453.8 768.058 16
-3 2 2 30598.3 731.343 2
-3 2 1 46703.4 964.612 16
-3 2 1 48588.2 926.673 2
3 2 0 1600.68 201.062 1
-3 2 0 1618.34 208.07 2
-3 2 -1 1070.39 203.722 2
3 2 1 673.203 158.605 1
-3 2 -2 109844 1510.7 2
-3 2 -3 23208.4 704.961 2
-3 2 -4 1073.17 173.798 2
-3 3 6 4954.06 228.459 9
-3 3 5 40149.5 730.17 9
-3 3 4 3314.65 242.113 9
-3 3 3 7111.54 330.4 3
-3 3 2 13174.8 500.367 2
-3 3 2 12264.9 506.044 16
-3 3 1 9334.72 448.038 16
-3 3 1 9429.32 434.106 2
3 3 0 7603.87 394.832 1
-3 3 0 7907.94 402.799 2
3 3 1 180.873 114.302 1
-3 3 -1 194.328 141.531 2
-3 3 -2 75814.2 1249.19 2
-3 3 -3 47510.1 967.687 2
-3 3 -4 232.035 120.48 2
-3 4 5 2915.15 207.489 9
-3 4 2 4398.77 315.543 16
-3 4 1 1704.86 215.039 16
-3 4 1 1682.37 217.754 2
-3 4 0 2068.87 227.869 16
-3 4 0 2008.82 229.799 2
3 4 1 1973.39 224.613 1
-3 4 -1 2427.96 251.536 2
-3 4 -2 14149.1 560.048 2
-3 4 -3 29423.3 761.79 2
-3 4 -4 282.082 119.908 2
-3 5 2 11396.6 493.009 16
-3 5 1 17749.4 613.046 16
-3 5 1 18615 615.674 2
-3 5 0 4738.89 334.538 16
-3 5 0 4953.73 332.277 2
3 5 1 8808.7 440.087 1
-3 5 -1 9235.78 449.524 2
-3 5 -2 9426 454.894 2
-3 5 -3 8372.32 417.041 2
-3 5 -4 151.295 101.534 2
3 5 4 381.647 124.307 8
-3 6 2 3122.02 272.941 16
-3 6 1 10997.1 493.124 16
-3 6 1 11974.1 495.922 2
-3 6 0 1322.94 198.566 16
-3 6 0 1421.54 204.867 2
-3 6 -1 9767.85 462.977 16
-3 6 -1 10473.7 478.016 2
-3 6 -2 14387.2 548.646 2
3 6 3 8184.28 387.887 8
-3 6 -3 6931.94 371.892 2
3 6 4 1200.05 166.366 8
-3 6 -4 1051.3 150.142 2
3 6 5 3926.03 219.369 8
-3 7 1 5586.74 362.201 16
-3 7 1 5652.12 358.938 2
-3 7 0 1132.48 185.789 16
-3 7 0 1487.64 212.512 2
-3 7 -1 12639.5 527.34 16
-3 7 -1 13196.4 530.195 2
3 7 2 1355.18 189.59 8
-3 7 -2 1113.04 196.126 2
3 7 3 2097.47 218.067 8
-3 7 -3 1770.13 207.723 2
3 7 4 1625.36 185.349 8
3 7 5 5209.59 245.422 8
-3 8 1 21072.2 668.488 2
-3 8 1 19825.9 662.85 16
-3 8 0 8665.75 443.189 16
-3 8 0 9687.01 460.334 2
-3 8 -1 5215.72 355.285 16
-3 8 -1 5836.34 369.709 2
3 8 2 4380.42 301.057 8
-3 8 -2 4030.69 305.427 2
3 8 3 4984.7 313.888 8
-3 8 -3 4548.18 299.327 2
3 8 4 1134.95 164.757 8
3 8 5 546.451 113.023 8
3 9 -2 4858.53 277.223 8
3 9 -1 23748.9 595.442 8
-3 9 1 24207 728.012 16
3 9 0 1940.38 210.944 8
-3 9 0 1412.51 198.279 16
-3 9 0 1747.57 225.545 2
3 9 1 7490.02 385.131 8
-3 9 -1 7082.71 401.046 2
3 9 2 6118.95 353.8 8
-3 9 -2 6208.37 362.814 2
3 9 3 2625.35 240.116 8
-3 9 -3 2135.7 210.952 2
3 9 4 3147.57 237.012 8
3 9 5 6976.13 275.952 8
3 10 -2 14225.3 465.215 8
3 10 -1 1614.68 187.652 8
3 10 0 7852.13 382.087 8
-3 10 0 7500.88 414.161 2
3 10 1 4853.27 323.715 8
-3 10 -1 4410.29 325.862 2
-3 10 -2 700.846 162.089 2
3 10 2 856.469 173.027 8
3 10 3 4151.17 288.642 8
-3 10 -3 3549.31 250.529 2
3 10 4 6226.18 312.055 8
3 10 5 511.384 106.395 8
3 11 -2 11342.1 426.084 8
3 11 -1 3988.1 275.175 8
3 11 0 29955.6 736.588 8
3 11 1 11788.9 486.433 8
-3 11 -1 11735.2 497.593 2
3 11 2 7924.12 398.639 8
-3 11 -2 7354.03 377.895 2
3 11 3 8491.14 395.98 8
3 11 4 626.299 135.746 8
3 11 5 1423.56 135.769 8
3 12 -2 17352.8 531.288 8
3 12 -1 8314.5 391.077 8
3 12 0 1676.55 208.552 8
3 12 1 739.52 164.222 8
3 12 2 1770.63 217.224 8
3 12 3 3611.12 269.196 8
3 12 4 6282.4 304.126 8
3 12 5 1784.56 138.884 8
3 13 -2 256.813 122.033 8
3 13 -1 2684.37 241.932 8
3 13 0 8666.9 416.33 8
3 13 1 1426.83 204.416 8
3 13 2 6418.33 362.629 8
3 13 3 220.252 122.434 8
3 13 4 301.776 109.915 8
3 13 5 5379.09 207.514 8
3 14 -6 352.902 77.226 4
3 14 -2 886.572 160.01 8
3 14 -1 15187.2 525.155 8
3 14 0 20712 629.789 8
3 14 1 1226.61 193.586 8
3 14 2 3897.7 289.559 8
3 14 3 6297.54 330.537 8
3 14 4 4939.01 255.802 8
3 15 -2 18047.4 550.689 8
3 15 -1 2530.29 239.456 8
3 15 0 6129.17 357.89 8
3 15 1 6880.17 374.54 8
3 15 2 1131.33 175.855 8
3 15 3 12836.9 446.652 8
3 15 4 7068.48 290.139 8
3 16 -2 2242.86 219.563 8
3 16 -1 624.468 159.325 8
3 16 0 14509.7 524.037 8
3 16 1 4404.78 303.087 8
3 16 2 6493.81 346.922 8
3 16 3 4880.65 279.819 8
3 16 4 13048.3 364.256 8
3 17 -5 1276.69 129.063 4
3 17 -1 11848.5 457.074 8
3 17 0 3430.13 268.439 8
3 17 1 121.494 121.556 8
3 17 2 6055.2 321.967 8
3 17 3 2461.2 197.798 8
3 17 4 4195.92 201.346 8
3 18 -5 627.324 95.5406 4
3 18 -4 6711.23 289.127 4
3 18 -1 12350 456.928 8
3 18 -1 11275.9 403.45 4
3 18 0 12964 470.799 8
3 18 1 2207.87 216.493 8
3 18 2 1779.57 185.18 8
3 18 3 12110.4 378.884 8
3 18 4 11911.3 292.898 8
3 19 -5 634.896 83.8859 4
3 19 -4 1576.62 151.538 4
3 19 -3 8377.98 336.99 4
3 19 -2 24195.1 577.681 4
3 19 -1 20596.8 566.819 8
3 19 -1 19229.5 501.561 4
3 19 0 8737.63 377.726 8
3 19 1 728.396 151.903 8
3 19 2 9348.05 353.371 8
3 19 3 21780.9 465.151 8
3 20 -4 3730.77 197.247 4
3 20 -3 1824.91 172.609 4
3 20 -2 12578.3 401.041 4
3 20 -1 3500.82 242.625 8
3 20 -1 3437.09 220.078 4
3 20 0 3367.2 237.042 8
3 20 1 8881.48 352.028 8
3 20 2 1688.17 161.895 8
3 20 3 13724.3 342.306 8
3 21 -4 506.61 91.2327 4
3 21 -3 920.514 124.634 4
3 21 -2 1843.69 166.605 4
3 21 -1 10682.3 372.63 8
3 21 -1 10376.2 326.151 4
3 21 0 2728.48 202.974 8
3 21 1 3349.13 211.95 8
3 21 2 3213.27 191.374 8
3 21 3 3534.05 159.955 8
3 22 -3 313.032 87.5536 4
3 22 -2 199.779 87.5325 4
3 22 -1 1982.79 148.971 4
3 22 0 8046.62 303.333 8
3 22 1 15211.3 391.498 8
3 22 2 290.534 82.5346 8
3 23 -3 2386.41 136.191 4
3 23 -2 465.514 90.88 4
3 23 -1 565.475 91.6231 4
3 23 0 1846.97 147.933 8
3 23 1 13741.4 337.451 8
3 24 1 21188.3 363.472 8
-4 -17 2 2340.36 117.574 3
-4 -17 1 2919.16 140.884 3
-4 -17 0 2620.12 134.913 3
-4 -16 2 155.482 68.2954 3
-4 -16 1 5541.34 207.294 3
-4 -16 0 5006.46 199.014 3
-4 -16 -1 1196.76 102.183 3
-4 -15 3 2088.23 117.953 9
-4 -15 3 3133.08 143.004 3
-4 -15 2 2920.32 161.129 3
-4 -15 1 933.781 112.456 3
-4 -15 0 4481.06 201.346 3
-4 -15 -1 5542.46 209.283 3
-4 -14 3 3285.25 163.465 9
-4 -14 3 4185.5 176.975 3
-4 -14 2 7328.44 258.733 3
-4 -14 1 5606.16 239.671 3
-4 -14 0 5314.06 230.438 3
-4 -14 -1 3531.36 183.076 3
-4 -14 -2 1923.35 123.39 3
-4 -13 4 2814.02 132.122 9
-4 -13 3 1139.99 119.254 3
-4 -13 2 6449.64 256.729 3
-4 -13 1 490.478 108.003 3
-4 -13 0 6626.58 266.014 3
-4 -13 -1 2009.95 152.498 3
-4 -13 -2 101.032 69.0781 3
-4 -12 4 3331.06 155.176 9
-4 -12 3 792.231 116.163 3
-4 -12 2 1565.7 157.158 3
-4 -12 1 1355.64 148.56 3
-4 -12 0 167.978 102.307 3
-4 -12 -1 3444.51 200.143 3
-4 -12 -2 457.832 89.9954 2
-4 -11 4 658.957 88.942 9
-4 -11 3 32886 567.717 3
-4 -11 2 28240.7 563.418 3
-4 -11 1 2783.58 202.876 3
-4 -11 0 11014.1 361.315 3
-4 -11 -1 2845.39 190.846 3
-4 -11 -1 2290.13 164.51 2
-4 -11 -2 2112.41 151.215 2
-4 -10 5 3041.72 131.202 9
-4 -10 4 338.173 78.1833 9
-4 -10 3 2830.78 203.26 3
-4 -10 2 4004.84 241.98 3
-4 -10 1 3904.09 243.06 3
-4 -10 0 4308.18 245.775 3
-4 -10 -1 5586.91 257.811 2
-4 -10 -2 4550.59 223.14 2
-4 -10 -3 832.62 98.4846 2
-4 -9 5 409.517 65.5347 9
-4 -9 4 6661.66 256.996 9
-4 -9 3 20205 483.684 3
-4 -9 2 2021.27 188.866 3
-4 -9 1 12817.5 414.609 3
-4 -9 0 5183.51 269.068 3
-4 -9 -1 3189.02 211.897 2
-4 -9 -2 995.571 131.335 2
-4 -9 -3 622.07 98.1682 2
-4 -8 5 1940.86 122.377 9
-4 -8 4 9007.69 305.826 9
-4 -8 3 30284.2 598.886 3
-4 -8 2 663.668 135.006 3
-4 -8 1 5985.75 297.817 3
-4 -8 0 1688.08 177.671 3
-4 -8 0 1488.5 161.394 2
-4 -8 -1 554.854 120.994 2
-4 -8 -2 1167.43 145.964 2
-4 -8 -3 1384.32 132.218 2
-4 -7 5 803.107 90.4439 9
-4 -7 4 6218.42 266.149 9
-4 -7 3 12596.1 401.654 3
-4 -7 2 3343.59 230.502 3
-4 -7 1 1526.04 178.592 3
-4 -7 0 5383.37 280.966 3
-4 -7 0 4567.38 257.871 2
-4 -7 -1 813.547 142.182 2
-4 -7 -2 901.871 143.712 2
-4 -7 -3 3391.57 196.421 2
-4 -6 5 2142.27 135.251 9
-4 -6 4 3073.74 198.322 9
-4 -6 3 9052.37 349.931 3
-4 -6 2 105.667 109.093 3
-4 -6 1 5254.71 287.087 3
-4 -6 0 3502.9 237.861 3
-4 -6 0 2991.74 221.555 2
-4 -6 -1 2150.59 199.078 2
-4 -6 -2 13719.3 436.675 2
-4 -6 -3 2199.78 174.538 2
-4 -5 5 1834.11 129.424 9
-4 -5 4 17333.8 445.205 9
-4 -5 3 2033.59 185.789 3
-4 -5 2 5613.53 291.798 3
-4 -5 1 623.349 142.445 3
-4 -5 0 3818.43 245.244 3
-4 -5 0 3547.28 250.205 2
-4 -5 -1 390.836 137.163 2
-4 -5 -1 414.623 116.842 3
-4 -5 -2 1474.62 185.916 2
-4 -5 -3 7441.04 297.342 2
-4 -4 5 323.59 73.623 9
-4 -4 4 12120.5 376.85 9
-4 -4 3 1224.71 153.416 3
-4 -4 2 1910.81 191.029 3
-4 -4 1 10778.2 395.693 3
-4 -4 1 10594.5 392.615 2
-4 -4 0 2402.32 203.532 3
-4 -4 0 2084.1 206.49 2
-4 -4 -1 5047.81 258.535 3
-4 -4 -1 4188.19 278.769 2
-4 -4 -2 2028.14 201.635 2
-4 -4 -3 23540.8 525.167 2
-4 -3 5 113.159 60.8941 9
-4 -3 4 13678.3 394.143 9
-4 -3 3 3070.1 211.171 3
-4 -3 2 1162.93 161.036 3
-4 -3 1 1098.5 165.509 3
-4 -3 1 1467.21 189.708 2
-4 -3 0 3248.97 225.594 3
-4 -3 0 3090.96 251.35 2
-4 -3 -1 330.919 154.616 2
-4 -3 -1 226.621 106.219 3
-4 -3 -2 2323.52 218.694 2
-4 -3 -3 46150.4 738.407 2
-4 -3 -4 2018.66 134.759 2
-4 -2 5 5396.44 204.91 9
-4 -2 4 15753.5 416.645 9
-4 -2 3 696.362 131.054 3
-4 -2 2 2032.25 191.235 3
-4 -2 1 14059.8 442.728 3
-4 -2 1 12280.3 444.033 2
-4 -2 0 3315.92 226.726 3
-4 -2 0 3157.95 260.085 2
-4 -2 -1 958.743 171.195 2
-4 -2 -2 1514.83 203.522 2
-4 -2 -3 32543.1 633.291 2
-4 -2 -4 3046.72 158.174 2
-4 -1 5 1252.21 106.425 9
-4 -1 4 8402.96 300.959 9
-4 -1 3 5068.4 252.587 3
-4 -1 2 5960.93 288.68 3
-4 -1 1 9414.7 358.219 3
-4 -1 1 8315.11 376.987 2
-4 -1 0 5077.52 325.012 2
-4 -1 -1 419.39 147.064 2
-4 -1 -2 13360.6 467.172 2
-4 -1 -3 7754.91 331.687 2
-4 -1 -4 3260.21 161.552 2
-4 0 5 726.548 85.6887 9
-4 0 4 4080.23 209.61 9
-4 0 2 728.683 138.048 3
-4 0 1 904.219 185.023 2
-4 0 0 10738.5 461.954 2
-4 0 -1 139.802 123.717 2
-4 0 -2 7695.09 378.403 2
-4 0 -3 1255.48 171.795 2
-4 1 4 6944.66 255.376 9
-4 1 1 8261.67 387.58 2
-4 1 0 5412.47 349.773 2
-4 1 -1 439.033 150.725 2
-4 1 -2 14694.2 493.707 2
-4 1 -3 4906.81 269.101 2
-4 2 1 12409.2 472.92 2
-4 2 0 3241.81 276.436 2
-4 2 -1 1021.2 181.509 2
-4 2 -2 2234.36 241.522 2
-4 2 -3 29674.4 603.976 2
-4 3 0 3150.76 269.846 2
-4 3 -1 172.332 141.584 2
-4 3 -2 2227.4 220.74 2
-4 3 -3 45905 730.648 2
-4 4 0 2169.2 233.328 2
-4 4 -1 4799.9 315.555 2
-4 4 -2 1924.54 204.453 2
-4 4 -3 24205.7 525.482 2
-4 5 0 3847.96 287.167 2
-4 5 -1 401.898 154.458 2
-4 5 -2 1273.22 175.503 2
-4 5 -3 7454.1 289.123 2
-4 6 -1 2741.02 243.796 2
-4 6 -2 14832.3 468.261 2
4 14 -4 2855.87 140.037 4
4 14 -2 7347.34 248.218 4
4 15 -3 3118.25 155.957 4
