#------------------------------------------------------------------------------
#$Date: 2019-07-10 06:30:08 +0300 (Wed, 10 Jul 2019) $
#$Revision: 216916 $
#$URL: file:///home/coder/svn-repositories/cod/cif/7/23/30/7233046.cif $
#------------------------------------------------------------------------------
#
# This file is available in the Crystallography Open Database (COD),
# http://www.crystallography.net/
#
# All data on this site have been placed in the public domain by the
# contributors.
#
data_7233046
loop_
_publ_author_name
'Schlachter, Adrien Camille'
'Bonnot, Antoine'
'Fortin, Daniel'
'Karsenti, Paul-Ludovic'
'Knorr, Michael'
'Harvey, Pierre D.'
_publ_section_title
;
 Unusual Triplet-Triplet Annihilation in a 3D Copper Chloride Coordination
 Polymer
;
_journal_name_full               'Physical Chemistry Chemical Physics'
_journal_paper_doi               10.1039/C9CP02891A
_journal_year                    2019
_chemical_formula_moiety         'C4 H9 Cl Cu S'
_chemical_formula_sum            'C4 H9 Cl Cu S'
_chemical_formula_weight         188.16
_space_group_IT_number           14
_space_group_name_Hall           '-P 2yn'
_space_group_name_H-M_alt        'P 1 21/n 1'
_symmetry_cell_setting           monoclinic
_symmetry_Int_Tables_number      14
_symmetry_space_group_name_Hall  '-P 2yn'
_symmetry_space_group_name_H-M   'P 1 21/n 1'
_atom_sites_solution_hydrogens   geom
_atom_sites_solution_primary     'direct - structure invariant direct methods'
_atom_sites_solution_secondary   'direct - structure invariant direct methods'
_audit_conform_dict_location     ftp://ftp.iucr.org/pub/cif_core.dic
_audit_conform_dict_name         cif_core.dic
_audit_conform_dict_version      2.4.3
_audit_creation_date             2018-10-31T09:00:25-00:00
_audit_creation_method           'WinGX routine CIF_UPDATE'
_audit_update_record
;
2019-05-21 deposited with the CCDC.    2019-07-09 downloaded from the CCDC.
;
_cell_angle_alpha                90
_cell_angle_beta                 109.008(2)
_cell_angle_gamma                90
_cell_formula_units_Z            4
_cell_length_a                   8.9360(9)
_cell_length_b                   6.7693(7)
_cell_length_c                   10.9057(11)
_cell_measurement_reflns_used    9076
_cell_measurement_temperature    151(2)
_cell_measurement_theta_max      26.4
_cell_measurement_theta_min      2.57
_cell_measurement_wavelength     0.71073
_cell_volume                     623.72(11)
_computing_cell_refinement       'SAINT V8.34A integration software'
_computing_data_collection       'Bruker APEX2 software'
_computing_data_reduction        'SORTAV (Blessing, 1995)'
_computing_molecular_graphics    'Ortep for Windows (Farrugia, 2012)'
_computing_publication_material  'WinGX publication routines (Farrugia, 2012)'
_computing_structure_refinement  'SHELXL-2016/6 (Sheldrick, 2016)'
_computing_structure_solution    'SHELXS-2013/1 (Sheldrick, 2008)'
_diffrn_ambient_temperature      151(2)
_diffrn_detector                 'APEX-II CCD'
_diffrn_measured_fraction_theta_full 0.997
_diffrn_measured_fraction_theta_max 0.998
_diffrn_measurement_device       '\k-geometry diffractometer'
_diffrn_measurement_device_type  'Bruker APEX-II'
_diffrn_measurement_method       '\f or \w oscillation scans'
_diffrn_orient_matrix_UB_11      -0.008951
_diffrn_orient_matrix_UB_12      -0.146969
_diffrn_orient_matrix_UB_13      0.003761
_diffrn_orient_matrix_UB_21      -0.070007
_diffrn_orient_matrix_UB_22      0.014612
_diffrn_orient_matrix_UB_23      0.054695
_diffrn_orient_matrix_UB_31      -0.095017
_diffrn_orient_matrix_UB_32      0.003079
_diffrn_orient_matrix_UB_33      -0.080001
_diffrn_radiation_monochromator  graphite
_diffrn_radiation_probe          x-ray
_diffrn_radiation_type           MoK\a
_diffrn_radiation_wavelength     0.71073
_diffrn_reflns_av_unetI/netI     0.0429
_diffrn_reflns_Laue_measured_fraction_full 0.997
_diffrn_reflns_Laue_measured_fraction_max 0.998
_diffrn_reflns_limit_h_max       11
_diffrn_reflns_limit_h_min       -11
_diffrn_reflns_limit_k_max       8
_diffrn_reflns_limit_k_min       -8
_diffrn_reflns_limit_l_max       13
_diffrn_reflns_limit_l_min       -13
_diffrn_reflns_number            10303
_diffrn_reflns_point_group_measured_fraction_full 0.997
_diffrn_reflns_point_group_measured_fraction_max 0.998
_diffrn_reflns_theta_full        25
_diffrn_reflns_theta_max         26.41
_diffrn_reflns_theta_min         2.571
_diffrn_source                   'sealed x-ray tube'
_diffrn_standards_number         0
_exptl_absorpt_coefficient_mu    4.131
_exptl_absorpt_correction_T_max  0.745
_exptl_absorpt_correction_T_min  0.611
_exptl_absorpt_correction_type   multi-scan
_exptl_absorpt_process_details
;
SADABS-2014/5 - Bruker AXS area detector scaling and absorption correction
;
_exptl_crystal_density_diffrn    2.004
_exptl_crystal_density_method    'not measured'
_exptl_crystal_description       Needle
_exptl_crystal_F_000             380
_exptl_crystal_size_max          0.33
_exptl_crystal_size_mid          0.1
_exptl_crystal_size_min          0.04
_refine_diff_density_max         0.825
_refine_diff_density_min         -1.169
_refine_diff_density_rms         0.131
_refine_ls_extinction_method     none
_refine_ls_goodness_of_fit_ref   1.062
_refine_ls_hydrogen_treatment    constr
_refine_ls_matrix_type           full
_refine_ls_number_constraints    0
_refine_ls_number_parameters     66
_refine_ls_number_reflns         10303
_refine_ls_number_restraints     0
_refine_ls_restrained_S_all      1.062
_refine_ls_R_factor_all          0.04
_refine_ls_R_factor_gt           0.0334
_refine_ls_shift/su_max          0.001
_refine_ls_shift/su_mean         0
_refine_ls_structure_factor_coef Fsqd
_refine_ls_weighting_details
'w=1/[\s^2^(Fo^2^)+3.2749P] where P=(Fo^2^+2Fc^2^)/3'
_refine_ls_weighting_scheme      calc
_refine_ls_wR_factor_gt          0.0792
_refine_ls_wR_factor_ref         0.0817
_reflns_Friedel_coverage         0
_reflns_number_gt                9122
_reflns_number_total             10303
_reflns_threshold_expression     'I > 2\s(I)'
_iucr_refine_instructions_details
;
TITL mo_Harvey_AS_CP2_151K_0m in P2(1)/n
    shelx.res
    created by SHELXL-2016/6 at 08:58:57 on 31-Oct-2018
CELL  0.71073   8.9360   6.7693  10.9057   90.000  109.008   90.000
ZERR     4.00   0.0009   0.0007   0.0011    0.000    0.002    0.000
LATT   1
SYMM  1/2 - X, 1/2 + Y, 1/2 - Z
SFAC  C    H    S    CL   CU
UNIT  16 36 4 4 4
MERG   0
EQIV $2 -x+3/2, y+1/2, -z+1/2
HTAB C1 Cl1_$2
EQIV $5 -x+2, -y+1, -z+1
HTAB C4 Cl1_$5
HTAB C1 Cl1_$2
HTAB C4 Cl1_$5
FMAP   2
PLAN    2
SIZE     0.040   0.100   0.330
ACTA    50.00
BOND
CONF
L.S.  20
TEMP  -121.83
WGHT    0.000000    3.274900
BASF   0.13528
FVAR       0.22427
MOLE    1
C1    1    0.845370    0.859891    0.055245    11.00000    0.01114    0.00878 =
         0.00879    0.00297    0.00167    0.00135
AFIX  23
H1A   2    0.828080    0.746379   -0.005019    11.00000   -1.20000
H1B   2    0.759949    0.956775    0.016799    11.00000   -1.20000
AFIX   0
C2    1    1.003555    0.955603    0.065201    11.00000    0.01285    0.01120 =
         0.01177    0.00007    0.00381   -0.00131
AFIX  23
H2A   2    1.028269    1.060475    0.132102    11.00000   -1.20000
H2B   2    1.088715    0.855322    0.091610    11.00000   -1.20000
AFIX   0
C3    1    1.010449    0.633811    0.278120    11.00000    0.00870    0.01092 =
         0.01093    0.00344   -0.00052    0.00273
AFIX  23
H3A   2    1.101027    0.726455    0.299168    11.00000   -1.20000
H3B   2    1.009171    0.573085    0.360355    11.00000   -1.20000
AFIX   0
C4    1    1.036389    0.472485    0.190496    11.00000    0.01578    0.01109 =
         0.01860    0.00204    0.00604    0.00469
AFIX 137
H4A   2    0.943008    0.386753    0.162467    11.00000   -1.50000
H4B   2    1.129365    0.394077    0.238072    11.00000   -1.50000
H4C   2    1.053543    0.532464    0.114375    11.00000   -1.50000
AFIX   0
S1    3    0.828161    0.773357    0.208427    11.00000    0.00820    0.00849 =
         0.00775    0.00025    0.00273   -0.00014
CL1   4    0.868553    0.865158    0.552061    11.00000    0.01144    0.01763 =
         0.01249    0.00428    0.00281   -0.00334
CU1   5    0.867104    1.035628    0.356309    11.00000    0.01037    0.01433 =
         0.01083   -0.00031    0.00335    0.00263
HKLF    5
 
 
 
 
REM  mo_Harvey_AS_CP2_151K_0m in P2(1)/n
REM R1 =  0.0334 for    9122 Fo > 4sig(Fo)  and  0.0400 for all   10303 data
REM     66 parameters refined using      0 restraints
 
END
 
WGHT      0.0000      3.2683
 
REM Highest difference peak  0.825,  deepest hole -1.169,  1-sigma level  0.131
Q1    1   0.9470  0.5276  0.4321  11.00000  0.05    0.82
Q2    1   0.8253  1.1251  0.1357  11.00000  0.05    0.61
;
_cod_data_source_file            c9cp02891a2.cif
_cod_data_source_block           shelx_CCDC5
_cod_original_sg_symbol_H-M      'P 21/n'
_cod_database_code               7233046
_shelx_estimated_absorpt_t_min   0.343
_shelx_estimated_absorpt_t_max   0.852
_iucr_refine_reflections_details
;
  -1   0   0    0.03    0.17
  -1   0   0   -0.19    0.14
  -1   0   0   -0.05    0.09
  -1   0   0    0.06    0.10
  -1   0   0   -0.04    0.07
   1   0   0   -0.06    0.07
   1   0   0    0.04    0.11
   1   0   0   -0.03    0.09
   2   0   0    5.40    0.40
   2   0   0    4.67    0.38
  -2   0   0    5.24    0.38
   2   0   0    6.25    0.38
  -2   0   0    5.33    0.46
  -2   0   0    5.50    0.59
  -3   0   0   -0.31    0.41
   3   0   0   -0.40    0.26
  -3   0   0   -0.09    0.57
  -3   0   0    0.06    0.27
   3   0   0    0.22    0.30
  -4   0   0  616.53   17.46
   4   0   0  590.22   17.33
   4   0   0  595.35   17.32
  -4   0   0  583.72   17.32
  -4   0   0  654.75   17.60
  -5   0   0    0.12    0.30
  -5   0   0   -0.48    0.72
  -5   0   0   -0.01    0.34
  -5   0   0   -0.55    0.52
   5   0   0   -0.01    0.38
  -6   0   0  269.93    7.96
   6   0   0  265.82    7.91
  -6   0   0  257.38    8.04
  -6   0   0  272.89    8.31
  -7   0   0    0.01    0.68
  -7   0   0   -0.22    0.50
  -7   0   0   -0.79    0.92
   7   0   0   -0.57    0.55
  -8   0   0  160.84    5.58
   8   0   0  154.05    5.27
   8   0   0  156.65    5.10
  -8   0   0  158.57    5.03
  -8   0   0  152.29    5.19
  -9   0   0   -0.43    0.72
   9   0   0    0.73    0.86
   9   0   0    0.41    0.71
  -9   0   0    0.28    0.85
  -9   0   0   -0.20    0.64
 -10   0   0   36.80    2.70
  10   0   0   38.76    2.30
 -10   0   0   30.77    1.89
  10   0   0   37.37    2.02
   0  -1   0    0.25    0.16
   0  -1   0   -0.13    0.17
   0  -1   0    0.03    0.22
   0  -1   0   -0.29    0.21
   0   1   0   -0.15    0.21
   0   1   0   -0.19    0.17
   0   1   0   -0.09    0.17
   1  -1   0  383.26   10.67
  -1  -1   0  379.31   10.71
   1  -1   0  382.64   10.71
  -1  -1   0  369.84   10.76
   1  -1   0  374.71   10.69
  -1  -1   0  367.89   10.78
  -1   1   0  368.97   10.69
   1   1   0  366.17   10.66
  -1   1   0  383.44   10.70
   1   1   0  380.45   10.71
   1   1   0  373.97   10.71
  -1   1   0  382.49   10.73
  -2  -1   0  225.39    6.84
  -2  -1   0  227.70    6.66
   2  -1   0  230.82    6.63
  -2  -1   0  225.30    6.73
   2  -1   0  227.52    6.64
   2  -1   0  255.19    6.73
  -2   1   0  230.90    6.62
   2   1   0  225.73    6.65
   2   1   0  234.10    6.63
   2   1   0  229.55    6.58
  -2   1   0  229.21    6.63
   2   1   0  220.82    6.61
  -2   1   0  235.56    6.65
  -3  -1   0  673.75   18.52
  -3  -1   0  613.73   18.70
   3  -1   0  633.04   18.48
  -3  -1   0  630.01   18.60
   3   1   0  667.10   18.50
  -3   1   0  681.21   18.44
  -3   1   0  666.28   18.60
  -3   1   0  629.56   18.49
  -3   1   0  669.23   18.57
   3   1   0  660.79   18.52
  -3   1   0  646.26   18.53
   3   1   0  646.00   18.44
   3   1   0  641.12   18.42
   4  -1   0  101.68    3.31
  -4  -1   0  106.64    3.35
  -4  -1   0  105.07    3.18
  -4  -1   0  115.46    3.76
  -4  -1   0  118.15    3.51
  -4   1   0  104.94    3.44
   4   1   0  112.04    3.37
  -4   1   0  104.68    3.30
   4   1   0  110.52    3.23
  -4   1   0  104.90    3.44
   4   1   0  105.97    3.35
  -4   1   0  107.07    3.19
  -5  -1   0   92.39    2.94
  -5  -1   0   87.83    3.40
   5  -1   0   91.53    2.91
  -5  -1   0   92.86    3.03
  -5   1   0   90.50    3.07
   5   1   0   88.51    2.94
   5   1   0   91.31    2.78
  -5   1   0   88.50    2.89
  -5   1   0   88.81    3.03
   5   1   0   90.24    2.97
  -6  -1   0    1.98    0.64
   6  -1   0    2.61    0.56
  -6  -1   0    1.69    0.54
  -6  -1   0    0.55    0.72
   6   1   0    2.40    0.57
   6   1   0    2.41    0.38
  -6   1   0    2.03    0.71
  -6   1   0    2.71    0.78
   6   1   0    1.27    0.60
  -7  -1   0  235.83    7.18
  -7  -1   0  238.56    7.30
   7  -1   0  235.30    7.15
  -7  -1   0  238.57    7.74
   7   1   0  232.71    7.20
   7   1   0  233.88    6.94
  -7   1   0  231.55    7.03
   7   1   0  236.75    7.18
  -7   1   0  232.71    7.30
  -7   1   0  239.84    7.44
  -8  -1   0   24.15    1.52
   8  -1   0   21.54    1.44
  -8  -1   0   23.89    2.03
  -8  -1   0   21.07    1.40
   8   1   0   22.16    1.49
  -8   1   0   21.19    1.81
   8   1   0   23.53    1.47
  -8   1   0   23.40    1.71
  -9  -1   0   13.82    1.22
   9  -1   0   14.46    1.24
  -9  -1   0   12.25    1.74
  -9  -1   0   15.50    1.24
   9   1   0   12.53    1.17
  -9   1   0   14.60    1.36
   9   1   0   14.90    1.26
  -9   1   0   15.56    1.48
  10  -1   0   11.23    1.22
 -10  -1   0   13.73    1.87
 -10  -1   0   11.41    1.06
 -10   1   0   11.67    1.33
 -10   1   0   11.97    1.43
  10   1   0   12.40    1.26
   0  -2   0  215.27    6.27
   0  -2   0  209.81    6.32
   0  -2   0  215.38    6.34
   0  -2   0  223.95    6.33
   0   2   0  218.02    6.35
   0   2   0  217.34    6.34
   0   2   0  214.18    6.30
  -1  -2   0   47.30    1.59
  -1  -2   0   45.87    1.60
   1  -2   0   47.68    1.68
   1  -2   0   47.97    1.62
   1  -2   0   46.30    1.38
  -1  -2   0   44.73    1.73
  -1  -2   0   46.59    1.73
   1  -2   0   46.85    1.57
   1   2   0   46.44    1.59
   1   2   0   48.59    1.67
  -1   2   0   45.60    1.60
  -1   2   0   46.24    1.57
   1   2   0   46.54    1.56
  -1   2   0   47.19    1.66
   2  -2   0   87.63    2.58
  -2  -2   0   81.74    2.80
  -2  -2   0   85.10    2.69
   2  -2   0   85.95    2.64
   2  -2   0   84.17    2.69
  -2  -2   0   85.26    2.67
  -2  -2   0   80.50    2.81
   2   2   0   81.57    2.69
  -2   2   0   84.08    2.64
   2   2   0   87.02    2.67
   2   2   0   85.18    2.57
  -2   2   0   83.79    2.69
   3  -2   0    0.46    0.44
  -3  -2   0    1.06    0.38
  -3   2   0    0.40    0.42
   3   2   0    0.92    0.36
  -3   2   0    0.65    0.24
   3   2   0    1.44    0.30
   4  -2   0   47.39    1.59
  -4  -2   0   39.91    1.97
   4  -2   0   44.59    1.70
  -4  -2   0   54.97    1.77
  -4  -2   0   42.45    1.79
  -4   2   0   46.97    1.78
  -4   2   0   45.39    1.70
   4   2   0   41.72    1.47
  -4   2   0   42.04    1.54
   4   2   0   41.21    1.55
  -4   2   0   54.90    1.64
  -5  -2   0   10.73    1.11
  -5  -2   0   11.63    1.02
  -5  -2   0    9.80    0.81
  -5  -2   0   10.00    0.59
   5  -2   0   10.51    0.93
  -5   2   0    9.60    0.80
   5   2   0   10.87    0.85
  -5   2   0   10.87    0.64
  -5   2   0   10.04    0.74
   5   2   0   10.39    0.61
  -5   2   0   10.61    0.86
  -6  -2   0    2.53    1.15
  -6  -2   0    2.58    0.62
   6  -2   0    1.60    0.62
  -6  -2   0    1.78    0.47
  -6   2   0    2.54    0.58
  -6   2   0    2.26    0.70
  -6   2   0    2.47    0.62
   6   2   0    2.10    0.62
   6   2   0    1.90    0.35
  -7  -2   0    7.52    0.86
   7  -2   0    6.74    0.86
  -7  -2   0    6.98    1.43
  -7  -2   0    6.68    0.85
  -7   2   0    7.73    0.86
   7   2   0   10.10    0.88
   7   2   0    6.78    0.88
  -7   2   0    6.34    0.81
   7   2   0    8.61    0.77
  -8  -2   0  133.38    5.19
  -8  -2   0  125.92    4.33
   8  -2   0  127.92    4.31
  -8  -2   0  126.17    4.44
  -8   2   0  127.03    4.38
   8   2   0  125.75    4.35
  -8   2   0  128.62    4.49
  -9  -2   0    1.74    0.88
  -9  -2   0    1.68    1.05
   9  -2   0    0.83    0.80
  -9  -2   0    0.97    0.77
   9   2   0   -0.30    0.78
  -9   2   0    1.95    0.91
  10  -2   0    5.30    1.03
 -10  -2   0    6.65    1.11
 -10  -2   0    8.54    1.81
 -10  -2   0    4.94    0.99
 -10   2   0    5.35    0.91
  10   2   0    5.85    1.09
   0  -3   0   -0.29    0.31
   0  -3   0    0.03    0.53
   0  -3   0   -0.24    0.30
   0  -3   0   -0.24    0.32
   0   3   0   -0.41    0.32
   0   3   0   -0.45    0.44
   0   3   0   -0.10    0.35
  -1  -3   0    8.09    0.75
   1  -3   0    8.81    0.73
   1  -3   0    8.29    0.77
  -1  -3   0    9.63    0.72
   1  -3   0    8.72    0.69
  -1  -3   0    8.19    0.70
   1  -3   0    9.23    0.47
  -1  -3   0    9.26    0.69
   1   3   0    8.62    0.70
  -1   3   0    8.54    0.66
   1   3   0    8.74    0.65
  -1   3   0    7.42    0.61
   1   3   0    8.91    0.70
  -1   3   0   10.95    0.89
  -2  -3   0  114.83    3.71
  -2  -3   0  113.92    3.62
   2  -3   0  116.11    3.60
  -2  -3   0  109.49    3.70
  -2  -3   0  109.50    3.58
   2  -3   0  114.76    3.56
   2  -3   0  114.58    3.48
   2   3   0  115.96    3.50
   2   3   0  112.27    3.62
  -2   3   0  111.41    3.57
  -2   3   0  113.32    3.59
   2   3   0  113.83    3.57
   3  -3   0    5.48    0.55
  -3  -3   0    3.48    0.48
   3  -3   0    2.45    0.38
  -3  -3   0    2.81    0.45
   3  -3   0    3.01    0.52
  -3  -3   0    3.13    0.68
  -3   3   0    3.16    0.50
   3   3   0    3.19    0.41
   3   3   0    3.01    0.45
   4  -3   0   41.88    1.72
  -4  -3   0   38.48    1.66
  -4  -3   0   36.34    1.45
  -4  -3   0   38.51    2.19
  -4  -3   0   40.03    1.77
   4  -3   0   36.85    1.48
   4   3   0   38.06    1.53
   4   3   0   38.82    1.39
  -4   3   0   36.06    1.51
  -4   3   0   39.88    1.68
   4   3   0   40.87    1.61
  -5  -3   0    5.02    0.98
  -5  -3   0    6.43    0.83
  -5  -3   0    5.57    0.76
   5  -3   0    6.86    0.84
  -5  -3   0    6.25    0.65
  -5   3   0    4.86    0.77
  -5   3   0    5.51    0.78
   5   3   0    5.33    0.58
  -5   3   0    6.43    0.64
   5   3   0    6.12    0.80
  -5   3   0    4.73    0.47
   5   3   0    6.65    0.50
  -6  -3   0    6.30    1.07
   6  -3   0    6.65    0.76
  -6  -3   0    7.00    0.88
  -6  -3   0    7.02    1.14
  -6   3   0    6.84    0.79
   6   3   0    8.17    0.92
  -6   3   0    6.56    0.86
   6   3   0    7.42    0.55
  -6   3   0    8.03    0.69
   7  -3   0   31.59    1.77
  -7  -3   0   34.52    2.33
  -7  -3   0   33.89    1.77
  -7  -3   0   35.38    1.87
   7   3   0   33.84    1.78
  -7   3   0   30.75    1.82
  -7   3   0   33.55    1.74
  -8  -3   0   12.38    1.23
  -8  -3   0   12.43    1.18
   8  -3   0   13.41    1.25
  -8  -3   0   15.13    1.96
  -8   3   0   10.81    1.07
   8   3   0   10.44    1.14
  -9  -3   0   27.01    2.63
  -9  -3   0   18.62    1.60
   9  -3   0   19.45    1.42
  -9  -3   0   18.74    1.59
  -9   3   0   19.28    1.50
   9   3   0   20.26    1.65
   0  -4   0   57.84    2.26
   0  -4   0   58.55    2.06
   0  -4   0   57.87    2.29
   0  -4   0   60.00    2.24
   0   4   0   59.63    2.21
   0   4   0   59.71    2.18
   0   4   0   58.90    2.19
   1  -4   0  200.62    6.18
  -1  -4   0  198.22    6.24
  -1  -4   0  197.45    6.14
  -1  -4   0  199.76    6.16
   1  -4   0  204.89    6.12
   1  -4   0  200.26    5.86
  -1  -4   0  198.05    6.13
   1  -4   0  199.34    6.12
  -1   4   0  201.04    6.18
   1   4   0  200.45    6.17
  -1   4   0  202.19    6.11
   1   4   0  199.03    6.05
  -1   4   0  198.95    6.15
   1   4   0  201.25    6.13
   2  -4   0    8.85    0.95
  -2  -4   0   10.47    1.04
  -2  -4   0   10.76    0.83
   2  -4   0   10.12    0.85
  -2  -4   0    8.77    1.02
  -2  -4   0   10.07    0.92
   2  -4   0    9.06    0.76
  -2   4   0    9.42    0.94
  -2   4   0    9.25    0.85
   2   4   0    9.07    0.72
   2   4   0    9.59    0.90
   2   4   0    8.94    0.89
  -3  -4   0   71.78    2.58
  -3  -4   0   69.24    2.78
   3  -4   0   68.35    2.34
   3  -4   0   64.86    2.36
  -3  -4   0   68.37    2.73
   3  -4   0   68.83    2.62
  -3  -4   0   66.38    2.50
  -3   4   0   67.47    2.45
   3   4   0   65.72    2.57
   3   4   0   69.45    2.51
  -3   4   0   66.22    2.58
   3   4   0   69.84    2.35
  -4  -4   0    9.30    0.93
  -4  -4   0    7.40    1.06
  -4  -4   0   11.89    1.20
  -4  -4   0    8.30    0.75
   4  -4   0   11.08    1.03
   4   4   0   11.10    1.00
   4   4   0    7.42    0.64
  -4   4   0    9.12    0.98
   4   4   0    8.83    0.75
  -4   4   0   13.41    0.98
  -5  -4   0  113.79    4.00
   5  -4   0  126.06    4.13
  -5  -4   0  113.27    4.58
  -5  -4   0  124.32    4.17
  -5  -4   0  121.01    4.37
   5   4   0  115.11    4.09
   5   4   0  119.11    3.74
  -5   4   0  124.56    4.10
  -6  -4   0   12.48    1.09
  -6  -4   0   15.59    1.51
  -6  -4   0   14.78    1.77
   6  -4   0   19.82    1.49
  -6   4   0   12.68    1.15
   6   4   0   12.19    0.90
  -6   4   0   13.94    1.21
   6   4   0   13.63    1.23
   7  -4   0    6.81    1.04
  -7  -4   0    6.68    1.06
  -7  -4   0    7.24    1.37
  -7  -4   0    6.62    1.01
  -7   4   0    5.23    0.80
   7   4   0    4.88    0.98
  -7   4   0    6.57    0.99
  -8  -4   0    7.40    1.35
   8  -4   0    6.14    1.13
  -8  -4   0    7.84    0.98
  -8  -4   0   10.66    1.64
  -8   4   0    8.68    1.14
   8   4   0    9.51    1.22
  -8   4   0    8.76    1.13
  -9  -4   0   32.86    2.48
  -9  -4   0   37.76    2.20
   9  -4   0   37.97    2.27
  -9  -4   0   43.18    3.60
  -9   4   0   37.08    2.03
   9   4   0   36.17    2.24
   0  -5   0   -0.21    0.57
   0  -5   0    0.44    0.69
   0  -5   0    1.59    0.71
   0  -5   0   -0.04    0.44
   0   5   0    0.29    0.79
   0   5   0    1.41    0.75
   0   5   0    0.16    0.48
   1  -5   0   13.40    0.72
  -1  -5   0   12.27    1.14
  -1  -5   0   13.28    1.04
   1  -5   0   11.69    1.03
   1  -5   0   13.87    1.01
   1  -5   0   15.16    1.20
  -1  -5   0   12.90    1.10
  -1  -5   0   12.72    1.18
   1   5   0   11.75    1.03
   1   5   0   12.98    1.14
  -1   5   0   13.98    1.22
   1   5   0   13.54    1.17
  -1   5   0   12.97    1.01
  -1   5   0   13.50    1.12
  -2  -5   0  160.50    5.27
   2  -5   0  171.63    5.44
  -2  -5   0  162.02    5.36
   2  -5   0  168.21    5.25
  -2  -5   0  160.78    5.31
  -2  -5   0  169.43    5.47
   2  -5   0  164.03    5.24
  -2   5   0  169.44    5.42
   2   5   0  165.69    5.18
  -2   5   0  165.47    5.31
   2   5   0  165.26    5.38
   2   5   0  161.35    5.33
  -3  -5   0   29.35    1.65
   3  -5   0   26.14    1.49
  -3  -5   0   27.50    2.00
   3  -5   0   27.19    1.38
  -3  -5   0   26.82    1.64
  -3  -5   0   28.30    1.51
   3  -5   0   26.75    1.81
   3   5   0   28.17    1.44
  -3   5   0   26.01    1.55
  -3   5   0   29.54    1.78
   3   5   0   28.02    1.61
   3   5   0   25.30    1.48
   5  -5   0    4.39    0.79
  -5  -5   0    4.72    0.94
  -5  -5   0    2.56    1.24
  -5  -5   0    4.41    1.15
  -5   5   0    3.82    0.76
   5   5   0    3.38    0.93
   5   5   0    3.24    0.59
   6  -5   0  194.70    6.35
  -6  -5   0  194.14    6.97
  -6  -5   0  187.72    6.26
  -6  -5   0  195.31    6.68
   6   5   0  192.80    6.30
  -6   5   0  189.20    6.29
  -6   5   0  196.79    6.34
   7  -5   0    8.46    1.25
  -7  -5   0   13.97    2.00
  -7  -5   0    8.58    1.20
  -7  -5   0    9.91    1.28
  -7   5   0    7.66    1.15
  -7   5   0   10.66    1.25
   7   5   0    9.37    1.23
   8  -5   0    0.67    0.74
  -8  -5   0    0.53    1.14
  -8  -5   0    3.27    1.87
  -8  -5   0    0.64    0.70
  -8   5   0    0.69    0.90
   8   5   0    2.28    1.05
  -8   5   0    0.94    0.72
   0  -6   0    3.73    0.70
   0  -6   0    5.52    1.10
   0  -6   0    4.09    0.76
   0  -6   0    4.47    0.75
   0   6   0    5.75    0.99
   0   6   0    5.44    1.00
   0   6   0    3.49    1.02
  -1  -6   0   62.62    2.70
   1  -6   0   68.25    2.62
   1  -6   0   65.14    2.60
  -1  -6   0   67.56    2.79
  -1  -6   0   65.92    2.62
   1  -6   0   67.81    2.90
  -1  -6   0   66.54    2.84
   1   6   0   68.71    2.69
   1   6   0   64.03    2.80
  -1   6   0   63.98    2.75
   1   6   0   66.05    2.83
  -1   6   0   67.53    2.87
   2  -6   0    5.00    0.90
  -2  -6   0    3.19    0.79
  -2  -6   0    2.64    0.73
   2  -6   0    4.06    0.87
   2  -6   0    4.22    0.67
  -2  -6   0    4.14    0.92
  -2  -6   0    3.89    0.85
   2   6   0    3.41    0.94
   2   6   0    3.60    1.01
  -2   6   0    5.57    0.97
  -2   6   0    4.66    1.07
   2   6   0    3.46    0.83
   3  -6   0   88.01    3.76
  -3  -6   0   87.17    3.56
   3  -6   0   98.03    3.32
  -3  -6   0   86.97    3.43
  -3  -6   0   90.76    3.52
   3  -6   0   91.55    3.61
  -3  -6   0   92.77    3.69
  -3   6   0   92.27    3.41
  -3   6   0   91.04    3.44
   3   6   0   96.23    3.58
   3   6   0   86.97    3.42
   3   6   0   91.60    3.28
   4  -6   0    8.02    1.24
  -4  -6   0    5.58    0.91
  -4  -6   0    5.77    1.26
   4  -6   0    5.05    0.76
  -4  -6   0    7.54    1.34
   4   6   0    4.08    0.85
  -4   6   0    5.40    0.90
   4   6   0    4.61    0.79
  -5  -6   0   46.79    2.31
  -5  -6   0   48.95    2.56
   5  -6   0   50.40    2.57
  -5  -6   0   50.99    3.12
   5   6   0   50.04    2.06
  -5   6   0   50.70    2.35
   5   6   0   47.47    2.34
  -6  -6   0    2.31    1.25
  -6  -6   0    0.50    0.98
  -6  -6   0    4.49    1.56
   6  -6   0    2.33    1.09
  -6   6   0    2.00    1.02
   6   6   0    1.10    1.00
  -7  -6   0   39.43    2.78
  -7  -6   0   31.84    2.29
   7  -6   0   34.00    2.33
  -7  -6   0   38.51    2.08
   7   6   0   36.16    2.09
  -7   6   0   35.03    2.22
  -7   6   0   31.97    2.29
   0  -7   0    0.14    0.62
   0  -7   0    0.18    1.03
   0  -7   0    0.54    0.86
   0   7   0    0.00    0.70
   0   7   0    0.80    0.91
  -1  -7   0    1.28    0.70
  -1  -7   0    0.42    0.74
   1  -7   0    0.26    1.05
  -1  -7   0    0.70    0.69
  -1  -7   0   -0.37    0.91
   1  -7   0    1.82    0.88
   1  -7   0    1.47    0.90
   1   7   0    0.05    0.66
  -1   7   0    1.91    1.01
   1   7   0    0.99    1.00
   1   7   0    1.43    0.92
  -1   7   0    0.54    0.74
   2  -7   0  122.97    4.32
   2  -7   0  125.28    4.81
  -2  -7   0  122.33    4.46
  -2  -7   0  129.36    4.50
  -2  -7   0  121.12    4.40
   2  -7   0  125.81    4.64
  -2  -7   0  116.66    4.67
  -2   7   0  121.81    4.47
   2   7   0  127.09    4.39
   2   7   0  116.32    4.41
  -2   7   0  128.25    4.51
   2   7   0  121.31    4.51
  -3  -7   0    6.68    1.12
  -3  -7   0   11.06    1.35
   3  -7   0   10.83    1.45
  -3  -7   0    8.72    1.26
  -3   7   0   12.85    1.47
   3   7   0    8.19    1.30
   3   7   0   10.44    1.13
  -4  -7   0   25.93    2.29
   4  -7   0   24.54    1.92
  -4  -7   0   24.15    2.22
  -4  -7   0   25.76    1.97
   4   7   0   22.66    1.86
   4   7   0   21.15    1.38
  -4   7   0   24.33    1.75
  -5  -7   0   21.75    1.90
  -5  -7   0   22.62    1.88
   5  -7   0   22.78    1.80
  -5  -7   0   21.56    2.14
   5   7   0   24.63    2.10
  -5   7   0   26.37    2.17
   0  -8   0   19.65    1.85
   0  -8   0   21.66    1.79
   0  -8   0   19.94    1.63
   0   8   0   19.27    1.66
   0   8   0   19.27    1.65
   1  -8   0   45.29    2.52
  -1  -8   0   43.46    2.46
   1  -8   0   49.02    2.54
  -1  -8   0   44.18    2.47
  -1  -8   0   44.54    2.39
  -1   8   0   56.95    2.91
  -1   8   0   46.13    2.63
   1   8   0   52.16    2.76
   1   8   0   53.26    2.81
  -2  -8   0    0.80    1.15
  -2  -8   0    0.81    1.10
  -2  -8   0    1.43    0.90
   2  -8   0    1.62    0.96
   2  -8   0    1.43    0.92
   2   8   0    0.68    1.11
  -2   8   0    1.95    1.25
   3  -8   0    7.61    1.21
  -3  -8   0    9.83    1.28
   3  -8   0    7.86    1.02
  -3  -8   0    7.64    1.31
  -3  -8   0    6.44    1.48
  -3   8   0    9.84    1.56
   3   8   0    7.46    1.44
 -10   0   1   -1.14    0.96
 -10   0   1    0.32    0.78
  10   0  -1   -0.66    0.91
 -10   0   1    0.40    1.25
  10   0  -1    0.29    0.89
  -9   0   1   57.38    2.48
  -9   0   1   62.62    3.22
  -9   0   1   59.78    2.79
   9   0  -1   60.72    2.81
  -9   0   1   59.83    2.40
   9   0  -1   56.91    2.53
  -8   0   1    0.03    0.57
   8   0  -1    0.77    0.87
  -8   0   1    0.09    0.62
  -8   0   1    0.26    1.07
   8   0  -1   -0.64    0.65
   7   0  -1  107.68    3.76
   7   0  -1   96.14    3.42
  -7   0   1   98.26    3.51
  -7   0   1  116.05    4.06
  -7   0   1   96.40    3.66
  -6   0   1   -0.15    0.46
  -6   0   1   -0.62    0.91
   6   0  -1    0.10    0.55
  -5   0   1  918.15   27.28
  -5   0   1 1000.00   27.45
   5   0  -1  943.13   27.18
  -4   0   1   -0.18    0.35
   4   0  -1    0.52    0.32
  -4   0   1    0.17    0.49
   4   0  -1    0.42    0.40
  -4   0   1   -0.23    0.50
  -3   0   1  169.11    4.89
  -3   0   1  165.67    5.07
   3   0  -1  164.62    4.88
  -3   0   1  165.02    4.97
   3   0  -1  162.00    4.91
   2   0  -1   -0.06    0.31
   2   0  -1    0.16    0.32
  -2   0   1    0.25    0.24
  -2   0   1   -0.09    0.36
   1   0  -1  852.33   23.88
   1   0  -1  849.02   23.83
  -1   0   1  811.82   23.84
  -1   0   1  841.60   23.87
   1   0  -1  828.48   23.96
   0   0   1    0.03    0.06
   0   0  -1    0.04    0.05
   0   0  -1    0.12    0.07
   0   0   1   -0.03    0.06
   0   0  -1    0.06    0.12
   0   0  -1    0.04    0.05
   0   0  -1    0.13    0.17
   0   0  -1    0.11    0.08
   0   0   1    0.00    0.05
  -1   0  -1  137.82    3.94
  -1   0  -1  136.32    4.03
  -1   0  -1  138.04    3.92
  -1   0  -1  137.27    3.95
  -2   0  -1   -0.13    0.31
  -2   0  -1    0.12    0.28
  -2   0  -1    0.29    0.22
  -3   0  -1  303.03    8.97
  -3   0  -1  310.59    8.68
  -3   0  -1  307.96    8.84
  -3   0  -1  298.59    8.68
   3   0   1  299.54    8.67
   3   0   1  301.55    8.67
  -3   0  -1  315.81    8.79
  -4   0  -1   -0.17    0.40
  -4   0  -1    0.10    0.25
   4   0   1    0.00    0.27
   4   0   1    0.10    0.21
  -4   0  -1   -0.19    0.41
  -4   0  -1    0.05    0.29
   5   0   1   20.30    0.94
  -5   0  -1   19.87    0.96
  -5   0  -1   19.99    0.86
   5   0   1   19.19    0.94
  -5   0  -1   20.28    1.17
  -5   0  -1   19.03    1.47
  -6   0  -1   -0.62    0.55
   6   0   1    0.41    0.40
   6   0   1   -0.09    0.39
  -6   0  -1   -0.22    0.38
  -6   0  -1    0.40    0.35
  -6   0  -1   -0.05    0.54
  -7   0  -1   58.57    2.46
  -7   0  -1   61.26    2.62
  -7   0  -1   59.98    2.22
   7   0   1   63.16    2.25
  -8   0  -1    0.06    0.50
  -8   0  -1    0.01    0.68
   8   0   1    0.13    0.56
  -8   0  -1    0.37    0.47
   9   0   1    6.04    1.04
  -9   0  -1    6.16    0.83
   9   0   1    6.14    0.88
  -9   0  -1    6.84    1.31
 -10   0  -1    0.03    0.69
  10   0   1    1.34    0.80
 -10   0  -1    1.55    1.21
 -10  -1   1   -0.06    0.76
  10  -1  -1    0.76    0.90
 -10  -1   1    1.77    1.02
 -10  -1   1    0.85    0.81
  10  -1  -1    2.11    1.17
  10   1  -1    1.10    0.86
 -10   1   1    0.23    1.05
 -10   1   1    0.29    0.94
  -9  -1   1   41.08    2.07
  -9  -1   1   43.76    2.57
  -9  -1   1   42.91    2.03
   9  -1  -1   40.04    2.13
   9   1  -1   40.43    2.12
  -9   1   1   38.47    2.30
   9   1  -1   43.25    2.14
  -9   1   1   45.09    2.55
   8  -1  -1  174.36    5.59
  -8  -1   1  171.50    5.58
  -8  -1   1  178.95    6.23
  -8  -1   1  169.62    5.63
  -8   1   1  172.56    5.75
   8   1  -1  173.27    5.34
  -8   1   1  175.40    5.88
   8   1  -1  171.27    5.59
   8   1  -1  170.52    5.61
  -7  -1   1    8.58    0.94
  -7  -1   1   11.91    1.51
  -7  -1   1    9.40    0.98
   7  -1  -1   10.08    0.96
  -7  -1   1    9.97    0.96
  -7   1   1    9.60    0.94
   7   1  -1   10.88    0.77
   7   1  -1   10.55    1.01
   7   1  -1   10.87    0.94
  -7   1   1   12.18    1.26
  -6  -1   1   38.08    1.73
   6  -1  -1   38.57    1.69
  -6  -1   1   37.97    1.59
  -6  -1   1   41.83    1.87
  -6  -1   1   38.57    2.37
  -6   1   1   37.26    1.43
   6   1  -1   37.46    1.71
   6   1  -1   36.69    1.75
   6   1  -1   40.13    1.50
  -6   1   1   40.90    1.88
  -6   1   1   38.28    1.99
  -5  -1   1   74.01    2.60
   5  -1  -1   73.46    2.30
  -5  -1   1   77.08    2.61
   5  -1  -1   73.01    2.43
  -5  -1   1   83.95    3.05
  -5  -1   1   66.90    2.38
   5   1  -1   69.30    2.27
  -5   1   1   70.39    2.29
   5   1  -1   59.76    2.25
   5   1  -1   68.15    2.45
  -5   1   1   66.23    2.47
  -5   1   1   61.07    2.48
   5   1  -1   75.78    2.51
  -4  -1   1  410.45   11.73
   4  -1  -1  355.60   11.36
  -4  -1   1  393.64   11.41
   4  -1  -1  398.99   11.35
  -4  -1   1  393.83   11.49
   4   1  -1  376.74   11.33
   4   1  -1  383.78   11.31
  -4   1   1  405.30   11.34
   4   1  -1  392.23   11.42
  -4   1   1  399.41   11.48
  -4   1   1  423.31   11.51
   4   1  -1  394.99   11.42
   3  -1  -1   37.54    1.30
  -3  -1   1   35.54    1.38
  -3  -1   1   36.99    1.85
  -3  -1   1   36.09    1.47
   3  -1  -1   36.54    1.38
   3   1  -1   37.31    1.36
  -3   1   1   38.19    1.38
   3   1  -1   35.38    1.40
  -3   1   1   38.30    1.54
   3   1  -1   35.73    1.28
  -3   1   1   36.32    1.36
   3   1  -1   34.07    1.39
  -3   1   1   36.89    1.38
   2  -1  -1  220.58    6.35
  -2  -1   1  218.81    6.36
  -2  -1   1  215.61    6.57
   2  -1  -1  219.40    6.36
   2   1  -1  216.61    6.37
  -2   1   1  217.37    6.36
   2   1  -1  218.70    6.36
   2   1  -1  221.07    6.31
  -2   1   1  219.13    6.36
   1  -1  -1   41.82    1.38
  -1  -1   1   40.70    1.35
   1  -1  -1   40.66    1.35
   1  -1  -1   39.86    1.34
   1   1  -1   41.34    1.39
  -1   1   1   41.28    1.39
   1   1  -1   41.24    1.35
   1   1  -1   41.73    1.33
  -1   1   1   41.07    1.38
   0  -1  -1  229.26    6.85
   0  -1   1  246.99    6.85
   0  -1  -1  241.98    6.86
   0  -1  -1  234.47    6.89
   0  -1  -1  237.74    6.90
   0   1   1  241.64    6.86
   0   1  -1  246.49    6.86
   0   1   1  232.76    6.85
   0   1  -1  241.31    6.86
   0   1  -1  242.15    6.88
  -1  -1  -1    7.34    0.64
  -1  -1  -1    7.45    0.45
   1  -1   1    6.89    0.39
  -1  -1  -1    6.11    0.59
   1  -1   1    7.06    0.41
   1  -1   1    7.75    0.31
  -1  -1  -1    7.57    0.43
  -1  -1  -1    7.47    0.40
   1   1   1    6.83    0.38
   1   1   1    6.70    0.44
  -1   1  -1    7.28    0.43
  -1   1  -1    7.33    0.36
  -1   1  -1    7.15    0.39
  -1   1  -1    7.19    0.57
  -1   1  -1    6.99    0.41
   1   1   1    6.42    0.42
  -2  -1  -1  399.89   11.98
   2  -1   1  418.49   11.74
  -2  -1  -1  415.69   11.75
  -2  -1  -1  418.94   11.76
  -2  -1  -1  409.65   11.88
   2  -1   1  408.15   11.74
  -2   1  -1  393.22   11.74
  -2   1  -1  420.09   11.80
  -2   1  -1  398.84   11.81
   2   1   1  417.35   11.69
   2   1   1  432.74   11.76
  -2   1  -1  417.23   11.74
  -2   1  -1  411.15   11.80
   2   1   1  420.01   11.72
   2   1   1  419.20   11.75
  -3  -1  -1   -0.06    0.23
   3  -1   1    0.08    0.22
   3  -1   1   -0.04    0.26
  -3  -1  -1   -0.19    0.28
  -3  -1  -1    0.18    0.40
  -3  -1  -1   -0.03    0.43
  -3   1  -1   -0.09    0.14
  -3   1  -1   -0.33    0.34
   3   1   1   -0.24    0.10
   3   1   1    0.59    0.24
  -3   1  -1   -0.13    0.21
  -3   1  -1    0.19    0.23
  -3   1  -1    0.16    0.36
   3   1   1   -0.14    0.29
  -4  -1  -1  193.34    6.09
   4  -1   1  185.92    5.70
  -4  -1  -1  196.28    5.88
  -4  -1  -1  200.52    5.72
  -4  -1  -1  196.52    5.74
   4  -1   1  196.68    5.71
  -4   1  -1  198.45    5.64
  -4   1  -1  195.45    5.71
   4   1   1  199.53    5.59
   4   1   1  188.45    5.73
  -4   1  -1  192.23    5.85
  -4   1  -1  196.08    5.72
   4   1   1  192.17    5.73
  -4   1  -1  199.01    5.90
  -5  -1  -1   61.42    2.19
   5  -1   1   57.34    2.03
  -5  -1  -1   63.46    2.04
  -5  -1  -1   58.05    2.66
  -5  -1  -1   63.27    2.09
   5  -1   1   63.79    2.06
   5   1   1   61.59    2.06
   5   1   1   63.60    1.89
  -5   1  -1   61.66    2.05
  -5   1  -1   62.24    2.26
   5   1   1   60.43    2.16
  -5   1  -1   61.04    2.05
   5   1   1   60.02    2.08
  -5   1  -1   62.16    2.33
  -6  -1  -1   67.32    2.48
   6  -1   1   68.30    2.31
  -6  -1  -1   68.75    2.81
  -6  -1  -1   66.68    2.33
   6   1   1   68.15    2.09
  -6   1  -1   67.63    2.54
   6   1   1   66.86    2.34
  -6   1  -1   65.73    2.16
  -6   1  -1   64.02    2.43
   6   1   1   67.28    2.38
  -7  -1  -1   12.32    1.01
  -7  -1  -1   10.03    1.20
  -7  -1  -1   12.28    0.92
   7  -1   1   10.13    0.85
  -7   1  -1   11.40    0.77
  -7   1  -1   11.18    1.15
  -7   1  -1   10.23    1.04
   7   1   1   11.10    0.92
   7   1   1   11.33    1.00
  -8  -1  -1    8.12    1.17
  -8  -1  -1    6.94    0.88
   8  -1   1    7.87    0.85
  -8  -1  -1    6.57    0.81
   8   1   1    8.26    0.99
   8   1   1    8.69    0.91
  -8   1  -1    7.42    1.12
  -8   1  -1    8.60    1.03
   9  -1   1   15.75    1.30
  -9  -1  -1   13.91    1.75
  -9  -1  -1    9.18    1.00
   9   1   1   10.37    1.05
  -9   1  -1   12.12    1.37
  -9   1  -1   13.01    1.29
 -10  -1  -1   59.29    2.58
  10  -1   1   61.46    2.63
 -10  -1  -1   63.72    3.63
 -10   1  -1   57.81    2.82
 -10   1  -1   61.82    3.13
  10   1   1   60.55    2.64
 -10  -2   1    4.02    1.33
 -10  -2   1    3.41    1.03
 -10  -2   1    3.55    1.08
  10  -2  -1    4.44    1.09
 -10   2   1    4.13    1.10
  10   2  -1    2.52    0.83
  -9  -2   1   28.53    2.45
   9  -2  -1   28.41    1.64
  -9  -2   1   29.05    1.78
  -9  -2   1   29.42    1.83
  -9   2   1   31.32    1.92
   9   2  -1   29.30    1.92
  -9   2   1   31.17    2.03
  -8  -2   1   37.65    2.87
  -8  -2   1   41.88    2.20
   8  -2  -1   35.42    1.92
  -8  -2   1   37.25    1.78
   8   2  -1   34.71    1.94
  -8   2   1   39.66    1.94
  -8   2   1   37.77    1.99
  -7  -2   1   23.43    1.91
  -7  -2   1   23.38    1.49
   7  -2  -1   23.57    1.53
  -7  -2   1   21.61    1.31
   7   2  -1   21.23    1.50
  -7   2   1   24.85    1.64
  -7   2   1   25.24    1.54
   7   2  -1   25.35    1.11
  -6  -2   1    1.52    0.60
  -6  -2   1    1.30    0.64
  -6  -2   1    1.78    1.21
   6  -2  -1    2.50    0.69
   6   2  -1    0.73    0.38
  -6   2   1    0.67    0.50
  -6   2   1    0.37    0.58
  -6   2   1    0.71    0.60
   6   2  -1    0.64    0.63
  -6   2   1    1.16    0.56
  -5  -2   1   92.44    3.25
   5  -2  -1   95.65    3.14
   5  -2  -1   90.32    2.99
  -5  -2   1   94.17    3.15
  -5  -2   1   97.77    3.54
   5   2  -1   90.53    2.92
  -5   2   1   91.90    3.00
  -5   2   1   92.35    3.05
  -5   2   1   98.28    3.24
   5   2  -1   89.05    2.98
   5   2  -1   90.75    3.15
  -5   2   1   95.71    3.13
  -4  -2   1   10.37    1.02
   4  -2  -1   10.73    0.77
  -4  -2   1    9.01    0.72
  -4  -2   1   11.11    0.96
   4  -2  -1   10.20    0.78
   4   2  -1    9.68    0.65
  -4   2   1   10.29    0.81
   4   2  -1    8.34    0.54
   4   2  -1   10.34    0.74
  -4   2   1    9.72    0.77
  -4   2   1    9.44    0.79
  -4   2   1   10.43    0.76
   3  -2  -1   37.42    1.39
  -3  -2   1   36.96    1.92
   3  -2  -1   39.85    1.53
  -3  -2   1   37.55    1.55
  -3  -2   1   38.13    1.51
   3   2  -1   36.65    1.51
   3   2  -1   37.17    1.35
   3   2  -1   38.08    1.41
  -3   2   1   37.03    1.47
  -3   2   1   38.90    1.51
   2  -2  -1   17.82    0.79
  -2  -2   1   14.71    1.05
   2  -2  -1   16.55    0.81
  -2  -2   1   16.15    1.36
   2  -2  -1   17.83    1.01
  -2  -2   1   18.66    0.96
   2   2  -1   18.78    0.98
  -2   2   1   17.55    0.96
  -2   2   1   17.43    0.97
   2   2  -1   17.82    0.85
   2   2  -1   16.62    0.83
   1  -2  -1   43.45    1.41
  -1  -2   1   43.83    1.57
   1  -2  -1   41.74    1.54
   1  -2  -1   41.57    1.51
   1  -2  -1   46.01    1.58
  -1  -2   1   45.84    1.77
  -1  -2   1   43.28    1.65
   1   2  -1   42.63    1.58
   1   2  -1   41.82    1.48
  -1   2   1   41.42    1.60
   1   2  -1   42.64    1.54
  -1   2   1   45.69    1.54
   0  -2   1   61.18    1.97
   0  -2  -1   57.40    2.04
   0  -2   1   60.09    1.96
   0  -2  -1   56.79    1.94
   0  -2  -1   60.32    1.94
   0  -2  -1   57.51    1.95
   0  -2   1   60.41    1.96
   0   2  -1   58.81    1.97
   0   2  -1   60.59    2.00
   0   2   1   59.90    2.00
   0   2   1   59.66    1.99
   0   2  -1   58.14    1.95
   1  -2   1    4.35    0.42
  -1  -2  -1    3.56    0.47
   1  -2   1    4.33    0.36
  -1  -2  -1    5.02    0.42
  -1  -2  -1    3.68    0.38
  -1  -2  -1    2.71    0.56
   1   2   1    3.64    0.40
  -1   2  -1    3.51    0.53
  -1   2  -1    3.53    0.50
  -1   2  -1    4.41    0.38
   1   2   1    4.60    0.38
   1   2   1    4.35    0.40
  -2  -2  -1    1.66    0.39
   2  -2   1    2.08    0.32
  -2  -2  -1    1.82    0.49
   2  -2   1    2.00    0.21
   2  -2   1    2.03    0.44
  -2  -2  -1    2.58    0.36
   2   2   1    1.88    0.41
  -2   2  -1    2.19    0.32
  -2   2  -1    1.58    0.48
   2   2   1    1.91    0.35
   2   2   1    1.94    0.28
  -2   2  -1    1.85    0.32
  -3  -2  -1  372.07   11.11
   3  -2   1  381.29   10.93
  -3  -2  -1  361.76   11.22
  -3  -2  -1  382.00   10.95
  -3   2  -1  394.01   10.83
  -3   2  -1  386.36   10.94
  -3   2  -1  374.79   10.83
   3   2   1  385.02   10.78
   3   2   1  375.11   10.95
   4  -2   1   38.49    1.47
  -4  -2  -1   39.61    1.48
  -4  -2  -1   39.90    1.63
  -4  -2  -1   37.49    1.84
   4   2   1   40.54    1.20
  -4   2  -1   39.36    1.47
  -4   2  -1   34.31    1.52
   4   2   1   38.00    1.48
  -4   2  -1   36.85    1.39
   5  -2   1    2.20    0.51
  -5  -2  -1    1.83    0.49
  -5  -2  -1    2.95    1.05
  -5  -2  -1    1.65    0.53
  -5   2  -1    1.92    0.46
  -5   2  -1    1.84    0.39
   5   2   1    1.94    0.22
  -5   2  -1    1.90    0.46
  -5   2  -1    2.40    0.20
   5   2   1    1.40    0.49
  -6  -2  -1    7.10    0.94
  -6  -2  -1    8.45    0.74
  -6  -2  -1    8.92    1.16
   6  -2   1    8.32    0.77
   6   2   1    8.41    0.80
  -6   2  -1    6.66    0.71
  -6   2  -1    8.89    0.79
  -6   2  -1    9.01    0.91
  -7  -2  -1  186.39    5.85
   7  -2   1  190.55    5.83
  -7  -2  -1  188.10    6.43
  -7  -2  -1  181.15    6.01
  -7   2  -1  186.96    5.95
  -7   2  -1  183.10    5.79
  -7   2  -1  190.24    5.94
   7   2   1  192.30    5.91
  -8  -2  -1   37.62    1.94
   8  -2   1   43.42    1.95
  -8  -2  -1   42.97    1.94
  -8  -2  -1   40.08    2.51
  -8   2  -1   44.74    2.06
   8   2   1   38.52    1.94
  -8   2  -1   44.62    1.99
   9  -2   1   57.72    2.42
  -9  -2  -1   55.21    2.58
  -9  -2  -1   51.01    2.36
  -9  -2  -1   58.37    3.14
   9   2   1   56.59    2.46
  -9   2  -1   53.93    2.58
  10  -3  -1   19.58    1.71
 -10  -3   1   21.39    2.66
 -10  -3   1   19.85    1.67
 -10  -3   1   20.61    1.89
  10   3  -1   18.31    1.65
 -10   3   1   19.72    1.59
   9  -3  -1   19.08    1.55
  -9  -3   1   16.87    1.47
  -9  -3   1   19.10    2.04
  -9  -3   1   19.21    1.58
   9   3  -1   18.06    1.53
  -9   3   1   16.33    1.51
   8  -3  -1    2.82    0.93
  -8  -3   1    5.68    0.95
  -8  -3   1    4.21    1.10
  -8  -3   1    4.40    1.60
  -8   3   1    2.61    0.93
   8   3  -1    2.17    0.88
  -7  -3   1   52.16    2.85
  -7  -3   1   54.14    2.24
   7  -3  -1   56.25    2.37
  -7  -3   1   59.72    2.67
  -7   3   1   54.58    2.31
  -7   3   1   50.85    2.27
   7   3  -1   49.03    2.33
   7   3  -1   52.09    1.89
  -6  -3   1   37.21    1.73
  -6  -3   1   37.82    1.94
   6  -3  -1   40.29    1.92
  -6  -3   1   34.35    2.59
   6   3  -1   37.15    1.52
  -6   3   1   39.19    1.86
  -6   3   1   38.98    1.94
   6   3  -1   38.44    1.89
  -6   3   1   39.77    1.52
  -5  -3   1    3.19    1.19
  -5  -3   1    1.97    0.67
  -5  -3   1    3.54    0.89
  -5  -3   1    2.39    0.62
   5  -3  -1    2.79    0.59
  -5   3   1    1.27    0.50
  -5   3   1    1.95    0.73
   5   3  -1    2.05    0.70
   5   3  -1    1.27    0.56
  -5   3   1    1.87    0.36
   4  -3  -1    3.09    0.58
  -4   3   1    6.99    0.70
  -4   3   1    3.31    0.56
  -4   3   1    6.09    0.44
  -3  -3   1  270.48    8.28
  -3  -3   1  277.81    8.13
  -3  -3   1  270.15    8.33
   3  -3  -1  277.18    8.09
   3  -3  -1  278.77    8.15
   3  -3  -1  271.82    8.03
  -3   3   1  278.24    8.15
   3   3  -1  264.43    7.99
  -3   3   1  277.88    8.09
   3   3  -1  270.76    8.13
   3   3  -1  266.68    8.09
   2  -3  -1   68.08    2.26
  -2  -3   1   65.32    2.44
  -2  -3   1   65.67    2.52
   2  -3  -1   66.34    2.29
  -2  -3   1   65.48    2.32
   2  -3  -1   66.55    2.36
  -2   3   1   65.41    2.28
   2   3  -1   67.27    2.29
  -2   3   1   62.63    2.24
   2   3  -1   64.99    2.23
   2   3  -1   67.83    2.29
   1  -3  -1   97.45    3.13
  -1  -3   1   96.45    3.16
   1  -3  -1   97.56    3.16
   1  -3  -1   96.66    2.93
  -1  -3   1   97.74    3.12
  -1  -3   1   94.31    3.17
   1  -3  -1   98.26    3.12
   1   3  -1   91.22    3.08
   1   3  -1   99.54    3.12
  -1   3   1   95.91    3.10
   1   3  -1   94.54    3.08
  -1   3   1   94.15    3.12
   0  -3  -1   18.30    1.10
   0  -3  -1   19.12    0.96
   0  -3   1   21.11    0.95
   0  -3  -1   19.11    1.13
   0  -3   1   19.35    1.16
   0  -3   1   20.18    0.95
   0  -3  -1   19.13    0.97
   0  -3   1   20.59    0.94
   0   3   1   20.71    1.10
   0   3  -1   18.93    1.05
   0   3   1   19.29    1.10
   0   3  -1   19.45    0.95
   0   3   1   18.62    0.91
   0   3  -1   19.76    1.12
   1  -3   1   99.21    3.22
   1  -3   1   99.89    3.16
  -1  -3  -1  101.30    3.36
  -1  -3  -1   99.92    3.31
   1  -3   1  103.02    2.98
   1  -3   1  101.68    3.15
  -1  -3  -1   99.89    3.25
  -1  -3  -1   98.09    3.18
  -1   3  -1  102.54    3.23
  -1   3  -1  101.04    3.23
   1   3   1   99.81    3.14
   1   3   1   98.93    3.23
  -1   3  -1  102.30    3.20
   1   3   1  103.25    3.26
   2  -3   1  123.37    3.93
  -2  -3  -1  130.59    3.94
   2  -3   1  124.02    3.76
  -2  -3  -1  125.53    4.09
   2  -3   1  122.65    3.81
   2   3   1  126.77    3.85
  -2   3  -1  125.05    3.93
   2   3   1  125.18    3.93
  -2   3  -1  120.10    3.81
   2   3   1  124.27    3.77
   3  -3   1  158.47    4.96
   3  -3   1  165.49    4.87
   3  -3   1  167.21    5.10
  -3  -3  -1  160.44    4.98
  -3  -3  -1  164.88    5.31
  -3  -3  -1  167.55    5.37
  -3  -3  -1  177.26    5.13
  -3   3  -1  159.89    5.08
   3   3   1  163.15    5.00
   3   3   1  175.98    5.13
   3   3   1  167.35    4.90
  -3   3  -1  166.73    4.97
  -4  -3  -1   28.30    1.48
  -4  -3  -1   27.85    1.14
  -4  -3  -1   27.66    1.93
   4  -3   1   28.29    1.28
  -4  -3  -1   28.55    1.36
   4   3   1   29.33    1.40
   4   3   1   28.70    1.04
  -4   3  -1   28.12    1.37
  -4   3  -1   27.00    1.15
   5  -3   1    4.72    0.73
  -5  -3  -1    5.76    0.63
  -5  -3  -1    3.87    0.90
  -5   3  -1    5.04    0.73
  -5   3  -1    3.67    0.71
   5   3   1    5.04    0.73
   5   3   1    5.04    0.41
  -5   3  -1    5.53    0.47
  -6  -3  -1  114.36    3.97
  -6  -3  -1  107.94    3.74
  -6  -3  -1  115.39    4.47
   6  -3   1  109.38    3.72
  -6   3  -1  107.80    3.62
  -6   3  -1  107.01    3.69
  -6   3  -1  109.92    3.78
   6   3   1  116.49    3.78
  -7  -3  -1   14.22    1.16
  -7  -3  -1   13.72    1.36
   7  -3   1   11.87    1.08
  -7  -3  -1   13.75    1.58
  -7   3  -1   15.76    1.25
   7   3   1   14.38    1.27
  -7   3  -1   15.86    1.20
  -8  -3  -1    3.57    0.99
  -8  -3  -1    3.41    0.83
   8  -3   1    2.29    0.81
  -8  -3  -1    4.07    1.19
   8   3   1    1.58    0.79
  -8   3  -1    3.40    0.86
  -8   3  -1    4.84    0.84
  -9  -3  -1    3.01    1.01
  -9  -3  -1    2.49    1.28
   9  -3   1    2.48    0.91
  -9  -3  -1    2.48    0.84
  -9   3  -1    2.46    0.69
   9   3   1    3.00    0.88
   9  -4  -1    7.25    1.27
  -9  -4   1    6.87    1.17
  -9  -4   1    9.05    2.12
  -9  -4   1    6.78    1.19
   9   4  -1    8.26    1.26
  -9   4   1    7.45    1.25
   8  -4  -1    5.02    0.90
  -8  -4   1    6.52    0.93
  -8  -4   1   11.48    1.94
  -8  -4   1    6.66    1.13
  -8   4   1    3.57    1.02
  -8   4   1    5.65    1.05
   8   4  -1    6.38    0.93
  -7  -4   1    0.02    1.44
  -7  -4   1   -0.11    0.78
  -7  -4   1    1.12    0.78
   7  -4  -1    0.73    0.85
  -7   4   1   -0.28    0.56
  -7   4   1   -0.16    0.79
   7   4  -1   -0.49    0.85
  -6  -4   1  110.98    4.37
   6  -4  -1  114.68    3.96
  -6  -4   1  107.36    4.20
  -6  -4   1  111.85    3.88
  -6   4   1  112.03    3.93
  -6   4   1  112.60    3.88
   6   4  -1  105.06    3.86
   6   4  -1  109.24    3.55
  -5  -4   1  130.75    4.35
  -5  -4   1  137.11    4.78
   5  -4  -1  141.87    4.42
  -5  -4   1  137.99    4.47
   5  -4  -1  133.70    4.45
  -5  -4   1  133.58    5.01
   5   4  -1  120.76    4.29
  -5   4   1  138.82    4.35
  -5   4   1  132.53    4.43
   5   4  -1  132.88    4.21
   5   4  -1  134.65    4.54
  -4  -4   1   99.31    3.43
  -4  -4   1  101.21    3.90
   4  -4  -1  100.09    3.52
  -4  -4   1   94.11    3.46
   4  -4  -1   99.70    3.36
  -4  -4   1  102.30    3.72
   4   4  -1  101.03    3.51
  -4   4   1  101.03    3.51
   4   4  -1   96.41    3.34
   4   4  -1  100.44    3.27
  -4   4   1   97.44    3.36
  -3  -4   1    9.59    0.98
  -3  -4   1    8.79    0.91
   3  -4  -1    9.21    0.78
  -3  -4   1    7.73    0.90
   3  -4  -1    8.17    0.84
  -3  -4   1    9.01    0.98
   3  -4  -1    9.24    1.01
  -3   4   1    9.54    1.00
   3   4  -1    9.20    0.75
   3   4  -1    9.79    0.96
   3   4  -1   10.55    0.98
  -3   4   1    9.28    0.90
   2  -4  -1  139.39    4.60
  -2  -4   1  140.23    4.69
  -2  -4   1  141.30    4.59
  -2  -4   1  144.27    4.59
  -2  -4   1  143.66    4.69
   2  -4  -1  145.73    4.55
   2  -4  -1  145.12    4.52
   2   4  -1  141.69    4.44
  -2   4   1  142.89    4.56
   2   4  -1  141.14    4.58
   2   4  -1  138.71    4.58
  -2   4   1  142.17    4.60
  -1  -4   1  100.18    3.54
  -1  -4   1  105.67    3.51
   1  -4  -1  102.01    3.25
   1  -4  -1  106.99    3.45
  -1  -4   1  103.40    3.42
   1  -4  -1  103.36    3.48
   1  -4  -1  103.02    3.51
  -1  -4   1  107.67    3.54
   1   4  -1  108.97    3.56
  -1   4   1  107.96    3.55
   1   4  -1  104.49    3.52
   1   4  -1  106.00    3.47
  -1   4   1  105.22    3.52
   0  -4  -1  116.98    3.77
   0  -4   1  117.04    3.82
   0  -4   1  118.10    3.85
   0  -4  -1  114.41    3.82
   0  -4  -1  121.08    3.89
   0  -4   1  117.38    3.82
   0  -4  -1  118.67    3.90
   0  -4   1  120.14    3.70
   0   4   1  121.90    3.91
   0   4   1  123.20    3.91
   0   4  -1  118.61    3.82
   0   4  -1  120.59    3.93
   0   4   1  115.82    3.82
   0   4  -1  115.62    3.86
  -1  -4  -1  170.88    5.33
  -1  -4  -1  167.16    5.39
  -1  -4  -1  174.47    5.34
   1  -4   1  168.13    5.24
   1  -4   1  174.60    5.25
  -1  -4  -1  166.11    5.30
   1  -4   1  173.44    4.99
   1  -4   1  168.63    5.35
  -1   4  -1  169.07    5.27
   1   4   1  168.96    5.31
   1   4   1  173.46    5.22
  -1   4  -1  168.58    5.34
  -1   4  -1  171.69    5.36
   1   4   1  168.58    5.34
  -2  -4  -1    6.48    0.78
  -2  -4  -1    8.09    0.82
   2  -4   1    7.91    0.65
  -2  -4  -1    6.41    0.68
   2  -4   1    8.07    0.73
   2  -4   1    6.82    0.90
  -2  -4  -1    8.26    0.84
   2   4   1    8.00    0.67
  -2   4  -1    7.66    0.76
   2   4   1    7.93    0.80
  -2   4  -1    7.53    0.89
   2   4   1    7.42    0.74
  -2   4  -1    8.07    0.89
  -3  -4  -1   19.09    1.17
  -3  -4  -1   19.16    1.42
   3  -4   1   19.00    0.96
  -3  -4  -1   20.51    1.13
   3  -4   1   17.83    1.37
   3  -4   1   18.97    0.91
  -3   4  -1   18.96    1.34
   3   4   1   20.15    1.18
   3   4   1   18.24    1.30
  -4  -4  -1   88.25    3.43
  -4  -4  -1   92.05    3.33
  -4  -4  -1   88.29    3.13
   4  -4   1   87.26    3.16
  -4  -4  -1   87.06    2.93
  -4   4  -1   89.97    3.15
   4   4   1   87.91    3.15
   4   4   1   89.58    2.81
  -4   4  -1   81.91    2.88
   5  -4   1   75.07    2.81
  -5  -4  -1   73.95    2.77
  -5  -4  -1   70.86    3.15
   5   4   1   72.14    2.69
   5   4   1   69.87    2.32
  -5   4  -1   76.11    2.79
  -6  -4  -1    8.38    0.98
  -6  -4  -1    7.05    1.44
   6  -4   1    7.45    1.00
  -6  -4  -1    7.19    1.19
  -6   4  -1    9.04    0.98
   6   4   1    7.87    0.99
  -6   4  -1    6.46    0.80
  -7  -4  -1    3.21    0.85
  -7  -4  -1    1.36    1.11
   7  -4   1    3.06    0.89
  -7  -4  -1    2.35    0.81
  -7   4  -1    2.27    0.81
  -7   4  -1    3.30    0.83
   7   4   1    3.19    0.89
   8  -4   1    5.38    1.03
  -8  -4  -1    5.27    1.25
  -8  -4  -1    6.55    1.04
  -8  -4  -1    3.39    1.76
   8   4   1    5.22    1.03
  -8   4  -1    6.27    0.86
  -8   4  -1    4.11    0.95
   9  -4   1   21.11    1.77
  -9  -4  -1   15.65    1.45
  -9  -4  -1   18.57    1.79
  -9  -4  -1   24.84    2.84
  -9   4  -1   22.49    1.68
  -9   4  -1   15.00    1.45
   9   4   1   17.39    1.55
  -8  -5   1   22.14    2.29
   8  -5  -1   20.62    1.73
  -8  -5   1   17.21    1.69
  -8  -5   1   16.72    1.48
  -8   5   1   21.77    1.84
   8   5  -1   19.15    1.70
  -8   5   1   17.73    1.47
  -7  -5   1   56.84    3.01
  -7  -5   1   56.06    3.16
  -7  -5   1   53.98    2.62
   7  -5  -1   56.82    2.50
  -7   5   1   50.98    2.41
   7   5  -1   50.32    2.61
  -7   5   1   51.72    2.60
   6  -5  -1    9.26    1.22
  -6  -5   1    7.83    1.18
  -6  -5   1    8.30    1.34
  -6  -5   1    8.01    0.97
   6   5  -1    8.44    0.81
   6   5  -1    7.77    0.99
  -6   5   1    8.32    1.16
  -5  -5   1   12.95    1.13
  -5  -5   1   15.06    1.20
  -5  -5   1   11.54    1.24
  -5  -5   1    9.87    1.54
   5  -5  -1   13.34    1.29
   5   5  -1   12.26    0.95
   5   5  -1   10.53    1.05
  -5   5   1   12.82    1.27
   4  -5  -1   19.31    1.20
  -4  -5   1   16.09    1.54
  -4  -5   1   16.77    1.48
  -4  -5   1   17.43    1.27
  -4  -5   1   17.00    1.48
   4  -5  -1   20.77    1.36
   4  -5  -1   19.08    1.66
   4   5  -1   17.33    1.22
   4   5  -1   17.95    1.08
   4   5  -1   17.78    1.42
  -4   5   1   16.53    1.31
  -4   5   1   19.23    1.20
   3  -5  -1   48.29    2.00
   3  -5  -1   48.33    1.94
  -3  -5   1   46.55    2.21
   3  -5  -1   48.35    2.31
  -3  -5   1   46.76    2.46
  -3  -5   1   44.80    2.20
  -3  -5   1   46.79    2.07
   3   5  -1   48.57    2.10
  -3   5   1   47.56    2.16
  -3   5   1   49.43    2.30
   3   5  -1   49.66    2.22
   3   5  -1   48.09    1.91
   2  -5  -1   82.15    2.95
  -2  -5   1   85.32    3.09
   2  -5  -1   83.82    3.03
  -2  -5   1   77.89    3.18
  -2  -5   1   83.03    3.11
  -2  -5   1   81.90    3.03
   2  -5  -1   82.26    2.92
   2   5  -1   85.25    2.98
   2   5  -1   81.67    3.10
  -2   5   1   78.18    3.12
   2   5  -1   82.99    3.09
  -2   5   1   79.59    3.05
   1  -5  -1   22.13    1.06
  -1  -5   1   24.29    1.27
   1  -5  -1   23.85    1.48
  -1  -5   1   23.19    1.49
  -1  -5   1   22.71    1.38
  -1  -5   1   22.88    1.65
   1  -5  -1   24.18    1.68
   1  -5  -1   23.69    1.32
   1   5  -1   23.61    1.55
   1   5  -1   23.35    1.39
   1   5  -1   23.53    1.47
  -1   5   1   24.97    1.55
  -1   5   1   21.05    1.58
   0  -5  -1   -0.10    0.50
   0  -5   1    0.06    0.85
   0  -5  -1   -0.17    0.48
   0  -5  -1    0.74    0.79
   0  -5   1    0.47    0.44
   0  -5  -1   -0.08    0.48
   0  -5   1    1.30    0.69
   0  -5   1   -0.59    0.63
   0   5  -1    0.01    0.57
   0   5   1    0.67    0.76
   0   5   1   -0.40    0.76
   0   5  -1    0.17    0.67
   0   5  -1    0.82    0.54
   1  -5   1  184.48    5.73
  -1  -5  -1  179.19    5.78
  -1  -5  -1  182.42    5.80
  -1  -5  -1  181.68    5.95
   1  -5   1  178.62    5.73
   1  -5   1  181.65    5.86
   1  -5   1  180.89    5.38
  -1  -5  -1  190.27    5.81
  -1   5  -1  181.80    5.82
   1   5   1  183.24    5.79
   1   5   1  179.99    5.79
  -1   5  -1  181.41    5.76
  -1   5  -1  181.14    5.86
   1   5   1  184.99    5.67
   2  -5   1   60.16    2.33
  -2  -5  -1   60.50    2.62
  -2  -5  -1   60.52    2.43
  -2  -5  -1   60.32    2.68
  -2  -5  -1   60.91    2.38
   2  -5   1   60.34    2.27
   2  -5   1   61.34    2.58
  -2   5  -1   59.00    2.37
  -2   5  -1   58.42    2.53
   2   5   1   61.14    2.43
  -2   5  -1   59.22    2.54
   2   5   1   60.49    2.21
   2   5   1   60.12    2.51
   3  -5   1   47.52    2.08
  -3  -5  -1   62.12    2.72
   3  -5   1   64.10    2.59
  -3  -5  -1   63.95    2.82
  -3  -5  -1   55.24    2.33
   3   5   1   61.44    2.19
  -3   5  -1   61.14    2.32
  -3   5  -1   60.76    2.55
   4  -5   1   12.09    1.07
  -4  -5  -1   11.24    1.13
  -4  -5  -1   11.94    1.34
  -4  -5  -1   12.17    1.42
   4  -5   1   10.31    0.75
  -4   5  -1    9.38    0.97
   4   5   1    9.15    1.08
   4   5   1   10.66    0.88
  -5  -5  -1  132.06    4.50
  -5  -5  -1  130.43    4.87
  -5  -5  -1  133.55    5.15
   5  -5   1  130.47    4.56
  -5   5  -1  132.10    4.56
   5   5   1  132.90    4.51
  -6  -5  -1   12.36    1.27
  -6  -5  -1   14.68    1.60
   6  -5   1   14.14    1.36
  -6  -5  -1   15.42    1.92
   6   5   1   14.99    1.36
  -6   5  -1   15.42    1.22
  -6   5  -1   14.19    1.32
  -7  -5  -1    0.23    1.09
  -7  -5  -1    0.66    1.06
   7  -5   1    0.86    0.94
  -7  -5  -1    0.08    0.59
   7   5   1    0.25    0.61
  -7   5  -1    0.22    0.60
  -7   5  -1    0.90    0.89
  -8  -5  -1    8.30    1.25
  -8  -5  -1   12.46    2.31
  -8  -5  -1    8.34    1.23
   8  -5   1    8.92    1.31
  -8   5  -1   10.96    1.31
   8   5   1    6.70    1.21
  -8   5  -1    7.64    1.15
  -7  -6   1    1.71    0.82
  -7  -6   1    2.94    1.65
   7  -6  -1    0.71    1.12
  -7  -6   1    1.47    0.94
   7   6  -1    0.99    0.75
  -7   6   1    2.36    1.09
  -7   6   1    1.88    1.15
  -6  -6   1   19.98    1.69
  -6  -6   1   18.22    1.88
  -6  -6   1   21.35    1.92
   6  -6  -1   17.01    1.65
  -6   6   1   17.64    1.62
   6   6  -1   18.62    1.70
  -5  -6   1    0.25    1.08
   5  -6  -1    0.45    1.05
  -5  -6   1   -0.64    0.62
  -5  -6   1    0.29    1.22
  -5   6   1    0.05    0.97
   5   6  -1    0.50    0.68
   5   6  -1   -0.81    0.58
   4  -6  -1   16.69    1.28
  -4  -6   1   15.25    1.38
  -4  -6   1   15.71    1.31
  -4  -6   1   14.99    1.64
  -4  -6   1   16.91    1.53
   4  -6  -1   17.21    1.57
  -4   6   1   15.60    1.48
  -4   6   1   16.78    1.27
   4   6  -1   17.43    1.35
   4   6  -1   15.65    1.48
  -3  -6   1    5.06    0.94
   3  -6  -1    4.33    0.88
  -3  -6   1    5.68    1.13
  -3  -6   1    6.82    1.09
   3  -6  -1    6.51    0.87
  -3  -6   1    5.09    1.05
   3  -6  -1    6.92    1.01
   3   6  -1    5.46    0.91
   3   6  -1    4.52    1.04
  -3   6   1    7.03    1.16
  -3   6   1    5.15    0.99
   3   6  -1    5.60    0.88
  -2  -6   1  118.72    4.20
  -2  -6   1  118.33    4.23
   2  -6  -1  116.87    4.11
  -2  -6   1  113.95    4.16
   2  -6  -1  116.08    4.25
  -2  -6   1  121.01    4.25
   2  -6  -1  115.72    4.14
   2   6  -1  116.34    4.07
  -2   6   1  113.91    4.06
   2   6  -1  115.80    4.11
   2   6  -1  119.85    4.24
  -2   6   1  117.03    4.25
  -1  -6   1    0.81    0.58
   1  -6  -1    0.27    0.39
   1  -6  -1    0.17    0.78
  -1  -6   1    0.69    0.64
   1  -6  -1    0.38    0.55
  -1  -6   1   -0.09    0.79
  -1  -6   1    1.33    0.70
   1  -6  -1   -0.98    0.88
  -1   6   1   -0.54    0.88
   1   6  -1   -0.13    0.77
   1   6  -1   -0.65    0.78
   1   6  -1    0.11    0.89
  -1   6   1   -0.91    0.81
   0  -6   1    1.00    0.55
   0  -6  -1    1.94    0.87
   0  -6  -1    0.48    0.53
   0  -6  -1    0.71    0.65
   0  -6   1    0.96    0.56
   0  -6  -1    0.34    0.80
   0  -6   1   -0.02    0.74
   0   6   1    1.25    0.90
   0   6  -1    0.67    0.58
   0   6  -1    1.83    0.85
   0   6  -1    0.71    0.90
   0   6   1   -0.01    0.58
  -1  -6  -1   13.99    1.26
  -1  -6  -1   17.23    1.40
   1  -6   1   14.94    1.46
  -1  -6  -1   15.27    1.14
   1  -6   1   17.07    1.35
  -1  -6  -1   14.72    1.22
   1  -6   1   14.76    1.16
  -1   6  -1   14.74    1.28
  -1   6  -1   15.88    1.25
   1   6   1   15.92    1.26
  -1   6  -1   14.04    1.38
   1   6   1   15.94    1.39
   2  -6   1   89.22    3.16
   2  -6   1   87.41    3.43
  -2  -6  -1   86.31    3.30
   2  -6   1   87.57    3.21
  -2  -6  -1   85.68    3.52
  -2  -6  -1   87.04    3.26
  -2  -6  -1   83.27    3.29
   2   6   1   85.22    3.38
  -2   6  -1   84.58    3.13
   2   6   1   87.61    3.19
  -2   6  -1   83.76    3.27
  -3  -6  -1    9.88    1.29
   3  -6   1    7.84    1.00
  -3  -6  -1    9.04    1.18
   3  -6   1   10.75    0.92
  -3  -6  -1    9.55    1.10
  -3  -6  -1    8.43    1.32
  -3   6  -1   10.90    1.30
   3   6   1    7.14    1.15
   3   6   1    9.46    0.94
  -4  -6  -1   68.47    2.81
   4  -6   1   69.16    2.85
  -4  -6  -1   69.47    3.14
  -4  -6  -1   72.66    3.25
   4   6   1   69.83    2.83
   4   6   1   62.75    2.52
  -4   6  -1   66.44    2.81
   5  -6   1    1.55    1.01
  -5  -6  -1    1.04    0.69
  -5  -6  -1    2.56    1.01
  -5  -6  -1    0.79    0.81
   5   6   1    1.35    0.73
  -5   6  -1    0.99    0.74
  -6  -6  -1  108.12    4.30
  -6  -6  -1  104.36    4.53
  -6  -6  -1  101.10    4.05
   6  -6   1  109.38    4.13
   6   6   1  106.24    4.11
  -6   6  -1  104.49    4.08
  -7  -6  -1   21.49    1.93
   7  -6   1   19.01    1.72
  -7  -6  -1   24.43    2.64
  -7  -6  -1   17.00    1.65
  -7   6  -1   19.45    1.71
   7   6   1   21.83    1.79
  -7   6  -1   17.54    1.47
  -6  -7   1    3.66    1.59
  -6  -7   1    5.43    1.24
  -6  -7   1    4.65    1.04
   6  -7  -1    5.29    1.37
   6   7  -1    5.91    1.35
  -6   7   1    6.75    1.44
  -5  -7   1   11.18    1.43
  -5  -7   1   10.34    1.40
   5  -7  -1    9.98    1.26
  -5  -7   1   10.07    1.45
   5   7  -1    8.62    1.07
   5   7  -1   10.16    1.45
  -5   7   1    8.31    1.43
  -4  -7   1    4.80    1.19
  -4  -7   1    3.70    1.26
   4  -7  -1    7.98    1.39
  -4  -7   1    3.65    0.93
   4  -7  -1    7.28    1.03
   4   7  -1    2.35    0.65
   4   7  -1    4.95    1.18
  -4   7   1    5.58    1.04
  -3  -7   1   97.27    3.92
  -3  -7   1   94.64    3.89
   3  -7  -1   96.43    3.79
  -3  -7   1   99.83    3.88
   3  -7  -1   98.63    3.72
  -3  -7   1   97.25    4.07
  -3   7   1   94.46    3.92
  -3   7   1  100.57    3.85
   3   7  -1  117.19    4.49
   3   7  -1   93.76    3.76
   3   7  -1   93.63    3.66
   2  -7  -1   17.71    1.42
   2  -7  -1   22.00    1.74
  -2  -7   1   17.82    1.60
  -2  -7   1   17.97    1.52
   2  -7  -1   15.74    1.43
  -2  -7   1   19.62    1.72
  -2  -7   1   21.18    1.78
   2   7  -1   15.85    1.34
  -2   7   1   18.96    1.68
   2   7  -1   19.31    1.65
  -2   7   1   22.45    1.69
   2   7  -1   17.40    1.60
   1  -7  -1    2.95    1.04
   1  -7  -1    4.54    1.02
   1  -7  -1    4.02    0.91
  -1  -7   1    5.71    1.23
  -1  -7   1    3.33    0.77
  -1  -7   1    4.02    0.88
  -1  -7   1    3.33    1.02
   1   7  -1    3.94    1.08
   1   7  -1    4.41    0.90
  -1   7   1    4.80    1.19
  -1   7   1    4.19    0.88
   1   7  -1    3.02    0.78
   0  -7  -1   15.47    1.55
   0  -7   1   17.24    1.48
   0  -7   1   18.07    1.60
   0  -7  -1   16.08    1.53
   0  -7   1   17.80    1.56
   0  -7  -1   17.11    1.50
   0   7   1   17.97    1.59
   0   7  -1   17.44    1.40
   0   7  -1   16.63    1.50
   0   7  -1   15.80    1.58
   0   7   1   18.06    1.57
   1  -7   1  100.14    3.73
  -1  -7  -1   98.34    4.05
  -1  -7  -1  100.98    3.74
   1  -7   1  101.57    3.81
  -1  -7  -1  106.12    3.82
  -1  -7  -1  100.77    3.91
   1  -7   1  100.23    3.86
  -1   7  -1  101.16    4.01
   1   7   1  102.17    3.94
   1   7   1  103.33    3.97
  -1   7  -1  103.91    3.88
  -1   7  -1  102.18    3.96
  -2  -7  -1   13.46    1.35
  -2  -7  -1   13.08    1.46
   2  -7   1   11.36    1.27
   2  -7   1   13.96    1.22
  -2  -7  -1   12.52    1.37
  -2  -7  -1   12.03    1.51
  -2   7  -1   10.01    1.44
  -2   7  -1   12.91    1.30
   2   7   1   12.91    1.45
  -3  -7  -1    6.60    1.02
  -3  -7  -1    5.47    1.08
   3  -7   1    5.94    1.31
   3  -7   1    8.59    0.95
  -3  -7  -1    5.71    1.21
  -3   7  -1    7.18    1.28
   3   7   1    5.46    1.21
  -4  -7  -1   38.79    2.11
  -4  -7  -1   40.81    2.63
  -4  -7  -1   38.54    2.35
   4  -7   1   33.55    2.43
   4   7   1   39.30    2.37
  -4   7  -1   36.89    2.15
  -5  -7  -1   20.82    1.94
   5  -7   1   27.32    2.20
  -5  -7  -1   29.29    2.73
  -5  -7  -1   26.47    2.09
  -5   7  -1   23.31    1.81
   5   7   1   28.10    2.15
  -3  -8   1    2.53    1.06
  -3  -8   1    4.88    1.38
   3  -8  -1    2.47    0.99
  -3  -8   1    2.78    1.21
   3  -8  -1    1.76    0.98
   3   8  -1    2.61    0.81
   3   8  -1    2.04    0.93
  -3   8   1    1.43    1.25
  -2  -8   1   25.00    1.82
  -2  -8   1   25.46    1.89
   2  -8  -1   28.37    2.02
   2  -8  -1   25.70    1.93
   1  -8  -1    1.82    1.06
  -1  -8   1    1.85    1.07
  -1  -8   1   -1.53    1.19
  -1  -8   1    0.63    1.09
   1  -8  -1    1.81    1.26
   1  -8  -1    2.85    0.86
   1   8  -1    2.12    0.92
  -1   8   1    1.04    1.12
   1   8  -1    1.20    0.80
  -1   8   1    2.47    0.93
   1   8  -1    1.12    1.11
   0  -8   1   67.63    3.17
   0  -8  -1   66.23    3.09
   0  -8  -1   74.38    3.42
   0  -8   1   72.99    3.28
   0  -8  -1   71.52    3.13
   0   8   1   76.79    3.41
   0   8  -1   67.13    3.06
   0   8  -1   81.27    3.49
   0   8   1   73.41    3.37
  -1  -8  -1    2.20    1.17
  -1  -8  -1    2.09    1.16
   1  -8   1    0.74    0.94
  -1  -8  -1    2.85    1.13
   1  -8   1    1.60    0.72
  -1   8  -1    3.92    1.27
   1   8   1    2.75    1.21
   2  -8   1    2.20    0.88
   2  -8   1    2.26    0.99
  -2  -8  -1    1.07    0.86
  -2  -8  -1    1.35    0.72
  -2  -8  -1    0.58    0.77
   2   8   1    3.39    1.21
  -2   8  -1    0.30    1.22
  -3  -8  -1    3.91    1.08
   3  -8   1    2.57    1.34
  -3  -8  -1    5.02    1.06
  -3  -8  -1    5.43    1.20
   3   8   1    3.95    1.02
  -3   8  -1    4.29    1.08
  10   0  -2   50.59    2.69
 -10   0   2   50.77    2.47
 -10   0   2   46.73    2.21
 -10   0   2   44.14    3.07
 -10   0   2   42.95    2.31
  10   0  -2   46.71    2.44
   9   0  -2   -0.60    0.63
  -9   0   2    0.38    0.76
  -9   0   2   -0.99    0.82
  -9   0   2   -1.33    0.89
  -9   0   2    0.46    0.79
   9   0  -2   -0.27    0.81
  -8   0   2   34.34    1.71
  -8   0   2   42.33    2.63
   8   0  -2   34.71    1.92
   8   0  -2   37.61    2.18
  -8   0   2   36.45    2.11
  -7   0   2    0.23    0.57
   7   0  -2   -0.03    0.84
   7   0  -2    0.07    0.66
  -7   0   2   -0.80    0.80
   6   0  -2  195.89    6.07
  -6   0   2  189.35    6.16
  -6   0   2  214.10    6.52
   6   0  -2  208.03    6.19
   6   0  -2  175.87    5.88
  -5   0   2    0.37    0.67
   5   0  -2    0.62    0.46
  -5   0   2    0.36    0.62
   5   0  -2   -0.40    0.65
  -5   0   2   -0.01    0.49
   5   0  -2    0.40    0.54
  -4   0   2    2.65    0.74
  -4   0   2    2.00    0.60
   4   0  -2    2.54    0.53
   4   0  -2    2.56    0.56
  -4   0   2    1.89    0.53
   4   0  -2    3.09    0.52
   3   0  -2   -0.65    0.32
   3   0  -2   -0.58    0.58
  -3   0   2   -0.78    0.48
  -3   0   2    0.51    0.51
   3   0  -2   -0.31    0.32
   2   0  -2   67.72    2.20
   2   0  -2   71.50    2.21
  -2   0   2   69.71    2.27
   2   0  -2   68.45    2.33
  -2   0   2   67.87    2.18
  -1   0   2    0.06    0.18
   1   0  -2   -0.22    0.21
   1   0  -2   -0.19    0.33
  -1   0   2   -0.06    0.28
   1   0  -2    0.16    0.36
  -1   0   2    0.12    0.22
   1   0  -2    0.07    0.22
   0   0  -2   40.59    1.27
   0   0  -2   40.76    1.19
   0   0   2   39.00    1.22
   0   0   2   40.90    1.22
   0   0  -2   40.44    1.23
   0   0   2   40.09    1.22
   0   0  -2   40.82    1.23
  -1   0  -2   -0.25    0.22
  -1   0  -2   -0.03    0.17
  -1   0  -2   -0.53    0.41
  -2   0  -2   75.51    2.22
  -2   0  -2   76.03    2.29
  -2   0  -2   73.38    2.47
  -3   0  -2    0.16    0.24
  -3   0  -2    0.06    0.29
  -3   0  -2    0.26    0.38
  -4   0  -2   29.14    1.26
  -4   0  -2   31.59    1.00
   4   0   2   31.72    1.00
  -4   0  -2   30.97    1.59
  -4   0  -2   30.51    1.00
  -4   0  -2   32.12    1.17
  -5   0  -2   -0.05    0.31
   5   0   2    0.19    0.28
  -5   0  -2    0.39    0.72
  -5   0  -2    0.52    0.47
   5   0   2    0.33    0.29
  -5   0  -2    0.08    0.22
   6   0   2    9.25    0.68
  -6   0  -2    8.77    1.15
  -6   0  -2    8.42    0.67
  -6   0  -2   11.42    0.90
  -6   0  -2    9.78    0.74
  -7   0  -2    1.02    0.90
  -7   0  -2    0.61    0.47
   7   0   2    0.22    0.51
   8   0   2   25.75    1.33
  -8   0  -2   24.20    2.06
  -9   0  -2    0.51    0.56
  -9   0  -2    0.63    1.05
   9   0   2   -0.37    0.57
 -10  -1   2   19.31    1.59
  10  -1  -2   18.99    1.85
  10  -1  -2   17.74    1.44
 -10  -1   2   17.43    1.57
 -10  -1   2   18.43    1.92
 -10   1   2   18.54    1.76
  10   1  -2   15.86    1.47
  10   1  -2   15.74    1.50
 -10   1   2   19.72    1.69
  -9  -1   2   73.88    3.37
  -9  -1   2   77.62    3.14
  -9  -1   2   80.37    3.29
  -9  -1   2   81.61    3.69
   9  -1  -2   82.65    3.59
   9  -1  -2   83.70    3.23
  -9   1   2   76.66    3.19
   9   1  -2   80.43    3.24
   9   1  -2   83.00    3.23
   9   1  -2   78.18    2.84
  -9   1   2   79.84    3.56
  -8  -1   2    2.68    1.00
  -8  -1   2    1.32    0.79
  -8  -1   2    1.40    0.64
   8  -1  -2    3.32    0.88
  -8  -1   2    2.51    0.99
   8   1  -2    2.43    0.86
  -8   1   2    2.23    0.71
   8   1  -2    1.84    0.82
   8   1  -2    1.88    0.61
  -8   1   2    3.86    0.89
  -7  -1   2    8.15    1.54
  -7  -1   2    9.48    1.12
  -7  -1   2    6.82    0.91
   7  -1  -2    7.56    0.95
   7   1  -2    8.71    0.78
   7   1  -2    6.94    0.96
  -7   1   2    7.31    1.05
   7   1  -2    8.28    0.96
  -7   1   2    9.28    1.28
   6  -1  -2    1.03    0.63
   6  -1  -2    1.00    0.48
  -6  -1   2   -1.04    1.16
  -6  -1   2    0.85    0.62
  -6  -1   2    0.78    0.73
   6   1  -2    1.39    0.50
  -6   1   2    0.48    0.67
   6   1  -2    1.30    0.65
   6   1  -2    0.53    0.34
  -6   1   2    1.13    0.52
  -6   1   2    0.82    0.52
   6   1  -2    0.99    0.66
   5  -1  -2   55.13    2.01
  -4  -1   2   41.00    1.67
   4  -1  -2   36.72    1.55
  -4  -1   2   37.38    1.57
  -4  -1   2   36.88    2.18
  -4  -1   2   41.07    1.58
   4  -1  -2   36.77    1.44
   4   1  -2   37.74    1.59
   4   1  -2   37.54    1.52
   4   1  -2   40.78    1.55
   4   1  -2   37.26    1.46
  -4   1   2   37.41    1.54
  -4   1   2   36.83    1.55
  -3  -1   2  147.30    4.54
   3  -1  -2  147.24    4.52
  -3  -1   2  149.37    4.53
  -3  -1   2  154.75    4.58
   3  -1  -2  152.38    4.54
   3   1  -2  150.09    4.53
   3   1  -2  150.21    4.52
  -3   1   2  149.83    4.58
   3   1  -2  148.15    4.49
   3   1  -2  142.70    4.57
  -3   1   2  155.18    4.56
  -2  -1   2    8.83    0.73
   2  -1  -2    7.89    0.61
  -2  -1   2    8.64    0.61
  -2  -1   2    7.57    0.59
   2  -1  -2    8.29    0.66
   2   1  -2    7.83    0.60
   2   1  -2    9.32    0.82
   2   1  -2    7.70    0.59
  -2   1   2    7.64    0.65
   1  -1  -2  358.47   10.55
   1  -1  -2  363.53   10.60
  -1  -1   2  361.57   10.56
  -1  -1   2  381.83   10.55
   1  -1  -2  370.67   10.54
   1   1  -2  381.57   10.55
   1   1  -2  363.24   10.56
  -1   1   2  362.21   10.54
   1   1  -2  371.26   10.56
   0  -1  -2  263.43    7.67
   0  -1   2  276.80    7.66
   0  -1  -2  254.05    7.67
   0  -1   2  260.68    7.69
   0  -1  -2  265.27    7.76
   0  -1   2  274.04    7.67
   0  -1  -2  263.59    7.80
   0  -1  -2  269.07    7.67
   0   1  -2  269.81    7.69
   0   1  -2  275.39    7.72
   0   1   2  260.55    7.72
   0   1  -2  277.82    7.66
   0   1   2  263.92    7.68
  -1  -1  -2    0.78    0.52
  -1  -1  -2    0.35    0.29
   1  -1   2    0.37    0.20
  -1  -1  -2    0.32    0.19
   1  -1   2    0.52    0.21
  -1  -1  -2    0.35    0.25
  -1   1  -2    0.32    0.20
  -1   1  -2    0.76    0.35
   1   1   2    0.60    0.20
   1   1   2    0.63    0.21
  -1   1  -2    0.73    0.21
  -2  -1  -2   56.75    1.68
  -2  -1  -2   55.22    1.67
   2  -1   2   54.35    1.64
  -2  -1  -2   54.29    2.09
  -2  -1  -2   54.74    1.86
  -2   1  -2   55.68    1.65
  -2   1  -2   53.77    1.72
   2   1   2   56.01    1.67
  -2   1  -2   58.04    1.87
  -2   1  -2   56.32    1.81
  -2   1  -2   54.74    1.65
   2   1   2   54.38    1.67
  -3  -1  -2   10.72    0.50
  -3  -1  -2    9.82    0.93
  -3  -1  -2   10.52    0.77
  -3  -1  -2   10.53    0.47
   3  -1   2   10.72    0.47
  -3   1  -2   10.06    0.46
  -3   1  -2   12.23    0.67
  -3   1  -2   10.41    0.64
   3   1   2   10.91    0.49
  -3   1  -2   10.43    0.78
  -3   1  -2   10.57    0.47
   3   1   2   10.91    0.50
  -4  -1  -2  181.30    5.27
  -4  -1  -2  180.57    5.49
  -4  -1  -2  176.66    5.72
   4  -1   2  176.12    5.24
   4  -1   2  181.43    5.24
  -4  -1  -2  187.07    5.26
  -4   1  -2  180.59    5.55
  -4   1  -2  181.50    5.26
  -4   1  -2  184.74    5.25
  -4   1  -2  178.22    5.39
   4   1   2  176.17    5.27
  -4   1  -2  181.40    5.17
  -5  -1  -2  140.33    4.17
   5  -1   2  136.68    4.16
  -5  -1  -2  139.77    4.41
  -5  -1  -2  137.85    4.80
  -5  -1  -2  141.27    4.20
   5  -1   2  139.25    4.18
  -5   1  -2  142.52    4.54
  -5   1  -2  137.03    4.18
   5   1   2  141.01    4.21
  -5   1  -2  139.75    4.36
  -5   1  -2  139.17    4.07
  -5   1  -2  139.13    4.17
   6  -1   2   94.70    3.00
  -6  -1  -2   95.14    3.21
  -6  -1  -2   94.69    3.04
  -6  -1  -2   93.06    3.56
   6   1   2   91.85    3.03
  -6   1  -2   95.03    3.41
  -6   1  -2   93.51    2.97
  -6   1  -2   93.68    2.84
  -6   1  -2   92.90    3.15
   6   1   2   91.48    3.09
   7  -1   2   39.00    1.68
  -7  -1  -2   39.64    2.45
  -7  -1  -2   37.83    1.68
  -7  -1  -2   42.60    1.71
  -7   1  -2   42.98    2.10
  -7   1  -2   38.33    1.73
   7   1   2   39.04    1.79
   7   1   2   40.36    1.71
  -8  -1  -2   11.68    1.00
  -8  -1  -2   10.78    1.52
   8  -1   2   11.70    0.92
  -8  -1  -2   10.93    0.98
  -8   1  -2   11.31    0.98
  -8   1  -2   11.51    1.27
   8   1   2   12.31    0.96
  -9  -1  -2   16.71    1.83
  -9  -1  -2   14.97    1.20
   9  -1   2   18.25    1.27
   9   1   2   15.81    1.27
  -9   1  -2   11.48    1.11
  -9   1  -2   15.12    1.50
  10  -2  -2   34.24    2.17
 -10  -2   2   34.50    2.10
 -10  -2   2   32.09    2.25
 -10  -2   2   30.83    2.87
  10   2  -2   29.12    2.12
 -10   2   2   34.19    2.04
   9  -2  -2   42.58    2.27
  -9  -2   2   41.27    3.36
  -9  -2   2   45.22    2.26
  -9  -2   2   45.31    2.50
   9   2  -2   45.73    2.15
  -9   2   2   43.64    2.44
  -9   2   2   44.08    2.38
   8  -2  -2    2.45    0.70
  -8  -2   2    3.66    0.83
  -8  -2   2    2.34    0.66
  -8  -2   2    3.99    1.52
  -8   2   2    3.69    0.78
   8   2  -2    3.57    0.92
   8   2  -2    3.22    0.68
  -8   2   2    2.70    0.96
  -7  -2   2   24.43    1.83
   7  -2  -2   27.72    1.65
  -7  -2   2   26.70    1.46
  -7  -2   2   28.99    2.29
   7   2  -2   24.54    1.64
  -7   2   2   27.35    1.78
  -7   2   2   29.03    1.60
   7   2  -2   28.22    1.32
   6  -2  -2   25.73    1.24
  -6  -2   2   29.37    1.57
  -6  -2   2   25.70    2.40
  -6  -2   2   28.85    1.59
   6  -2  -2   29.27    1.59
  -6   2   2   28.68    1.50
  -6   2   2   27.18    1.40
   6   2  -2   28.19    1.58
   6   2  -2   27.96    1.28
  -6   2   2   27.98    1.69
   6   2  -2   29.20    1.38
   5  -2  -2  104.89    3.34
   5  -2  -2   90.39    3.33
  -5  -2   2  104.31    3.40
  -5  -2   2  101.06    3.53
  -5  -2   2  105.46    4.03
  -5   2   2  105.41    3.52
  -5   2   2  104.77    3.48
   5   2  -2  109.34    3.39
  -5   2   2  101.98    3.36
   5   2  -2  101.53    3.26
   5   2  -2   93.10    3.36
  -4  -2   2    5.03    0.90
   4  -2  -2    2.77    0.63
   4  -2  -2    4.12    0.61
  -4  -2   2    3.35    0.51
   4   2  -2    3.82    0.50
  -4   2   2    3.95    0.57
  -4   2   2    4.34    0.52
   4   2  -2    3.65    0.50
  -4   2   2    3.41    0.62
   4   2  -2    3.02    0.63
  -3  -2   2   24.06    1.89
   3  -2  -2   27.01    1.16
   3  -2  -2   25.71    1.19
  -3  -2   2   25.96    1.23
   3   2  -2   25.44    1.24
   3   2  -2   24.45    1.13
   3   2  -2   25.19    1.12
  -3   2   2   24.39    1.21
  -3   2   2   25.27    1.23
   2  -2  -2  455.35   12.78
  -2  -2   2  449.56   12.78
   2  -2  -2  433.26   12.77
   2  -2  -2  443.51   12.78
   2   2  -2  439.83   12.79
   2   2  -2  446.93   12.73
  -2   2   2  441.65   12.78
   2   2  -2  445.06   12.79
  -2   2   2  432.63   12.77
   1  -2  -2  540.38   15.61
  -1  -2   2  559.21   15.57
   1  -2  -2  547.10   15.57
   1  -2  -2  546.13   15.55
   1  -2  -2  531.12   15.56
  -1   2   2  542.55   15.57
   1   2  -2  540.14   15.58
  -1   2   2  543.17   15.57
   1   2  -2  549.79   15.56
   1   2  -2  539.49   15.56
   0  -2   2    5.74    0.46
   0  -2  -2    6.28    0.55
   0  -2   2    6.50    0.53
   0  -2  -2    6.24    0.55
   0  -2  -2    5.40    0.54
   0  -2  -2    5.09    0.50
   0   2   2    6.37    0.55
   0   2  -2    5.65    0.50
   0   2  -2    6.21    0.58
   0   2  -2    6.20    0.52
   0   2   2    5.86    0.56
  -1  -2  -2   61.73    1.90
   1  -2   2   58.04    1.86
  -1  -2  -2   56.28    2.14
   1  -2   2   60.18    1.84
  -1  -2  -2   58.35    2.11
  -1  -2  -2   56.66    1.90
  -1   2  -2   58.49    1.86
  -1   2  -2   57.72    1.94
   1   2   2   59.46    1.90
  -1   2  -2   58.73    1.98
   1   2   2   61.76    1.96
  -2  -2  -2  592.72   16.84
  -2  -2  -2  597.34   17.03
  -2  -2  -2  567.63   16.74
   2  -2   2  607.42   16.69
  -2  -2  -2  613.57   17.15
  -2   2  -2  602.81   16.84
   2   2   2  581.44   16.84
  -2   2  -2  557.05   16.71
  -2   2  -2  597.10   16.84
  -2   2  -2  588.36   16.93
   3  -2   2  221.80    6.42
  -3  -2  -2  227.60    6.44
   3  -2   2  220.08    6.41
  -3  -2  -2  219.70    6.64
  -3  -2  -2  218.69    6.44
  -3  -2  -2  220.32    6.81
   3   2   2  216.46    6.43
  -3   2  -2  215.82    6.40
  -3   2  -2  216.42    6.42
  -3   2  -2  219.67    6.53
  -3   2  -2  220.51    6.42
  -3   2  -2  214.53    6.44
  -4  -2  -2   45.03    2.27
  -4  -2  -2   44.85    1.65
  -4  -2  -2   48.44    1.65
   4  -2   2   46.38    1.64
  -4  -2  -2   47.57    1.86
   4  -2   2   44.29    1.61
  -4   2  -2   48.38    1.64
  -4   2  -2   45.73    1.62
   4   2   2   46.76    1.65
  -4   2  -2   44.56    1.71
  -4   2  -2   46.70    1.68
  -5  -2  -2    6.82    0.61
  -5  -2  -2    5.41    0.92
   5  -2   2    6.17    0.57
   5  -2   2    6.68    0.67
  -5  -2  -2    5.94    0.59
  -5  -2  -2    6.16    0.84
  -5   2  -2    6.66    0.59
  -5   2  -2    6.06    0.64
  -5   2  -2    6.74    0.60
   5   2   2    6.25    0.60
  -5   2  -2    5.48    0.66
  -6  -2  -2  157.36    4.89
  -6  -2  -2  159.40    5.59
  -6  -2  -2  155.17    5.14
   6  -2   2  159.81    4.87
  -6   2  -2  149.93    4.97
   6   2   2  162.76    4.90
  -6   2  -2  157.02    4.84
  -6   2  -2  156.52    5.01
  -7  -2  -2  138.86    4.39
  -7  -2  -2  130.60    4.60
  -7  -2  -2  131.33    5.01
   7  -2   2  139.18    4.35
   7   2   2  143.80    4.42
  -7   2  -2  139.52    4.34
  -7   2  -2  131.43    4.52
  -7   2  -2  133.34    4.51
  -8  -2  -2  114.82    4.47
  -8  -2  -2  109.38    3.86
   8  -2   2  109.94    3.69
  -8  -2  -2  105.91    3.69
   8   2   2  110.39    3.72
  -8   2  -2  105.59    3.89
  -8   2  -2  102.85    3.82
  -9   2  -2    6.04    0.85
 -10  -3   2    5.91    1.00
 -10  -3   2   12.55    1.92
  10  -3  -2    9.88    1.37
 -10  -3   2    8.97    1.51
  10   3  -2    7.88    1.11
 -10   3   2    8.15    1.13
  -9  -3   2   25.22    1.80
   9  -3  -2   22.89    1.82
  -9  -3   2   19.30    1.68
  -9  -3   2   23.93    2.28
  -9   3   2   18.01    1.49
   9   3  -2   19.06    1.62
  -8  -3   2  168.09    5.81
  -8  -3   2  162.31    6.46
   8  -3  -2  169.80    5.64
  -8  -3   2  168.18    5.57
   8   3  -2  171.20    5.67
  -8   3   2  164.81    5.69
   8   3  -2  169.94    5.24
  -7  -3   2   80.46    3.13
   7  -3  -2   81.14    3.14
  -7  -3   2   78.20    3.36
  -7  -3   2   75.79    3.61
   7   3  -2   81.01    2.77
   7   3  -2   81.53    3.16
  -7   3   2   81.38    2.85
  -7   3   2   84.69    3.11
   6  -3  -2   24.79    1.44
  -6  -3   2   18.94    1.71
   6  -3  -2   22.53    1.54
   6   3  -2   16.34    1.44
  -6   3   2   18.95    1.28
  -6   3   2   19.93    1.56
  -6   3   2   17.96    1.42
   5  -3  -2  103.79    3.46
  -5  -3   2  103.52    3.61
  -5  -3   2  107.39    3.72
   5  -3  -2  108.60    3.63
  -5  -3   2  107.27    4.21
  -5   3   2  108.27    3.50
  -5   3   2  108.03    3.65
   5   3  -2  104.87    3.37
   5   3  -2   99.43    3.48
  -5   3   2  103.84    3.33
   5   3  -2  103.44    3.61
  -5   3   2   90.06    3.45
   4  -3  -2  302.54    8.90
   4  -3  -2  297.96    8.95
  -4  -3   2  300.54    9.28
  -4  -3   2  290.71    9.12
  -4  -3   2  303.89    8.99
  -4   3   2  302.02    8.92
   4   3  -2  296.82    8.93
  -4   3   2  307.78    8.96
   4   3  -2  297.11    8.82
   4   3  -2  297.29    8.96
  -3  -3   2  188.73    5.87
  -3  -3   2  191.83    6.02
   3  -3  -2  186.15    5.76
   3  -3  -2  192.19    5.74
  -3  -3   2  190.14    5.80
   3  -3  -2  186.61    5.74
  -3   3   2  187.79    5.73
   3   3  -2  189.19    5.80
   3   3  -2  188.02    5.68
   3   3  -2  180.80    5.73
  -3   3   2  186.88    5.75
   2  -3  -2  141.60    4.44
  -2  -3   2  139.43    4.43
  -2  -3   2  145.30    4.57
   2  -3  -2  147.00    4.51
  -2  -3   2  144.67    4.62
   2  -3  -2  144.88    4.44
  -2   3   2  150.06    4.50
   2   3  -2  141.75    4.42
   2   3  -2  139.19    4.47
   2   3  -2  138.77    4.45
  -2   3   2  139.52    4.44
  -1  -3   2   96.55    3.06
   1  -3  -2   88.89    2.94
   1  -3  -2   91.69    3.05
   1  -3  -2   91.51    3.09
  -1  -3   2   93.12    3.00
   1  -3  -2   94.16    3.03
  -1  -3   2   93.11    3.09
   1   3  -2   91.74    3.04
  -1   3   2   94.42    3.08
   1   3  -2   94.45    3.01
  -1   3   2   94.15    3.07
   1   3  -2   92.95    3.05
   0  -3  -2  107.73    3.36
   0  -3  -2  109.33    3.41
   0  -3  -2  101.28    3.43
   0  -3  -2  105.29    3.37
   0  -3   2  106.74    3.32
   0  -3   2  103.66    3.34
   0   3  -2  108.79    3.42
   0   3  -2  106.03    3.41
   0   3   2  103.47    3.36
   0   3  -2  105.42    3.35
   0   3   2  102.39    3.35
  -1  -3  -2  374.67   10.92
  -1  -3  -2  351.12   10.85
   1  -3   2  406.50   10.87
  -1  -3  -2  352.75   11.01
  -1  -3  -2  355.11   11.02
   1  -3   2  372.70   10.81
  -1   3  -2  365.31   10.92
   1   3   2  370.48   10.92
  -1   3  -2  397.12   10.98
  -1   3  -2  412.94   10.88
   1   3   2  363.39   10.86
   2  -3   2  107.90    3.38
  -2  -3  -2  101.90    3.25
  -2  -3  -2  103.89    3.64
  -2  -3  -2  105.78    3.35
  -2  -3  -2  106.18    3.56
   2  -3   2  106.04    3.15
   2  -3   2  100.47    3.21
  -2   3  -2  104.18    3.22
   2   3   2  100.85    3.25
  -2   3  -2  103.38    3.44
   2   3   2  106.41    3.36
  -2   3  -2  106.98    3.33
  -3  -3  -2    9.37    0.69
   3  -3   2    8.55    0.40
   3  -3   2    8.42    0.77
  -3  -3  -2   10.60    0.90
  -3  -3  -2    9.07    0.95
  -3  -3  -2    8.89    0.74
  -3   3  -2   10.22    0.58
   3   3   2    9.02    0.74
  -3   3  -2    7.90    0.84
  -3   3  -2    9.73    0.72
  -4  -3  -2   13.21    1.40
  -4  -3  -2   12.49    0.94
  -4  -3  -2   13.36    1.06
   4  -3   2   13.89    1.04
   4   3   2   12.37    0.98
  -4   3  -2   12.10    0.96
  -4   3  -2   13.21    0.83
  -5  -3  -2  320.98    9.74
   5  -3   2  323.85    9.42
  -5  -3  -2  302.15    9.96
  -5  -3  -2  324.60    9.45
   5   3   2  326.75    9.46
  -5   3  -2  313.21    9.44
  -5   3  -2  316.28    9.40
  -5   3  -2  314.42    9.24
   6  -3   2   12.38    0.97
  -6  -3  -2   11.92    0.88
  -6  -3  -2   11.11    1.21
  -6   3  -2   11.45    0.94
  -6   3  -2   10.47    0.90
   6   3   2   13.68    1.11
  -7  -3  -2    1.77    0.66
  -7  -3  -2    0.76    0.95
   7  -3   2    1.26    0.81
  -7  -3  -2    1.13    0.61
   7   3   2    1.92    0.67
  -7   3  -2    2.00    0.66
  -7   3  -2    1.54    0.69
  -8  -3  -2   16.84    1.80
  -8  -3  -2   16.62    1.53
  -8  -3  -2   18.11    1.33
   8  -3   2   15.23    1.35
  -8   3  -2   14.25    1.24
  -8   3  -2   15.89    1.26
   8   3   2   16.59    1.37
   9  -3   2   88.38    3.34
  -9  -3  -2   90.91    4.59
  -9  -3  -2   85.95    3.33
  -9  -3  -2   87.50    3.62
   9   3   2   85.57    3.36
   9  -4  -2   13.14    1.53
  -9  -4   2   16.00    1.43
  -9  -4   2   20.39    2.62
  -9  -4   2   17.12    1.82
  -9   4   2   15.94    1.57
   9   4  -2   16.92    1.49
  -8  -4   2    7.10    1.53
  -8  -4   2    6.55    1.36
  -8  -4   2    5.01    1.10
   8  -4  -2    5.86    1.16
  -8   4   2    6.79    1.16
   8   4  -2    5.66    1.15
   7  -4  -2   74.75    3.05
  -7  -4   2   73.50    2.90
  -7  -4   2   70.67    3.32
  -7  -4   2   73.02    3.98
  -7   4   2   69.03    2.89
   7   4  -2   73.05    2.60
  -7   4   2   72.58    2.99
   7   4  -2   69.68    2.88
   6  -4  -2  184.85    6.19
  -6  -4   2  188.66    6.39
  -6  -4   2  182.54    6.03
  -6  -4   2  188.12    6.22
  -6  -4   2  187.74    6.62
  -6   4   2  223.72    6.35
   6   4  -2  189.82    6.24
  -6   4   2  199.91    6.26
   6   4  -2  188.46    5.90
  -6   4   2  182.90    6.12
   5  -4  -2   42.55    2.04
  -5  -4   2   49.02    2.21
  -5  -4   2   47.84    2.53
  -5  -4   2   49.00    2.47
   5  -4  -2   49.50    2.03
   5   4  -2   43.32    2.20
  -5   4   2   46.84    2.06
   5   4  -2   49.91    1.92
   5   4  -2   48.07    2.12
  -5   4   2   42.61    2.00
   4  -4  -2  112.64    3.80
   4  -4  -2  114.28    3.89
  -4  -4   2  114.83    3.95
  -4  -4   2  117.36    4.41
  -4  -4   2  115.48    4.15
   4   4  -2  113.94    3.71
   4   4  -2  114.57    3.89
  -4   4   2  114.17    3.87
  -4   4   2  114.04    3.88
   4   4  -2  119.03    3.95
  -3  -4   2   11.24    0.95
   3  -4  -2   12.45    1.10
  -3  -4   2   11.75    1.04
   3  -4  -2   12.05    1.00
   3  -4  -2   10.61    0.87
  -3  -4   2   10.88    1.30
   3   4  -2    9.79    0.87
  -3   4   2   13.06    1.03
  -3   4   2   11.58    0.98
   3   4  -2   11.19    1.08
   3   4  -2   12.79    1.05
   2  -4  -2  323.83    9.81
  -2  -4   2  318.87    9.86
  -2  -4   2  330.02    9.92
  -2  -4   2  329.03    9.78
   2  -4  -2  335.46    9.80
   2  -4  -2  333.93    9.81
   2   4  -2  321.91    9.80
   2   4  -2  326.90    9.72
  -2   4   2  327.61    9.80
   2   4  -2  332.38    9.84
  -2   4   2  336.54    9.84
  -1  -4   2  135.81    4.25
   1  -4  -2  130.49    4.13
  -1  -4   2  135.94    4.30
   1  -4  -2  136.00    4.35
   1  -4  -2  133.83    4.25
   1  -4  -2  132.59    4.32
  -1  -4   2  133.58    4.24
  -1   4   2  128.10    4.25
   1   4  -2  134.24    4.28
   1   4  -2  126.56    4.26
  -1   4   2  133.10    4.26
   1   4  -2  131.02    4.35
   0  -4  -2  144.71    4.64
   0  -4   2  146.45    4.66
   0  -4   2  152.25    4.68
   0  -4   2  152.84    4.56
   0  -4  -2  150.73    4.72
   0  -4  -2  145.08    4.64
   0  -4  -2  143.29    4.75
   0   4  -2  150.48    4.76
   0   4  -2  149.86    4.67
   0   4   2  146.28    4.67
   0   4  -2  143.94    4.66
   0   4   2  147.56    4.69
   1  -4   2   11.28    0.70
   1  -4   2   11.72    1.01
   1  -4   2   12.35    0.90
  -1  -4  -2   13.00    1.07
  -1  -4  -2    9.13    0.89
  -1  -4  -2   10.44    0.98
  -1  -4  -2    9.82    0.84
   1  -4   2   11.66    0.86
  -1   4  -2   10.82    0.86
   1   4   2   10.55    0.82
  -1   4  -2    9.68    0.76
  -1   4  -2   12.02    0.99
   1   4   2   10.47    0.89
  -2  -4  -2   41.46    1.89
  -2  -4  -2   45.01    1.73
  -2  -4  -2   37.75    1.90
  -2  -4  -2   42.76    1.82
   2  -4   2   40.82    1.63
   2  -4   2   42.16    1.75
   2  -4   2   40.31    1.54
  -2   4  -2   43.44    1.67
   2   4   2   45.86    1.86
  -2   4  -2   38.49    1.71
   2   4   2   43.96    1.72
  -2   4  -2   41.23    1.78
   3  -4   2   16.22    0.76
  -3  -4  -2   19.57    1.23
  -3  -4  -2   14.67    1.36
   3  -4   2   16.99    0.92
  -3  -4  -2   19.67    1.30
  -3  -4  -2   14.49    1.00
   3  -4   2   16.79    1.32
  -3   4  -2   17.44    1.09
  -3   4  -2   16.25    1.15
   3   4   2   19.10    1.03
   3   4   2   19.36    1.27
  -3   4  -2   17.11    1.03
  -4  -4  -2   83.29    3.31
   4  -4   2   81.90    2.86
  -4  -4  -2   78.08    3.09
  -4  -4  -2   80.63    2.92
   4   4   2   80.75    2.94
  -4   4  -2   81.07    2.94
  -5  -4  -2    2.82    0.94
  -5  -4  -2    3.85    0.61
  -5  -4  -2    2.87    0.97
   5  -4   2    3.39    0.81
   5   4   2    2.80    0.76
  -5   4  -2    2.50    0.75
  -5   4  -2    3.34    0.57
   6  -4   2   14.28    1.16
  -6  -4  -2   12.31    1.38
  -6  -4  -2   12.83    1.74
  -6  -4  -2   12.91    1.10
   6   4   2   11.95    1.11
  -6   4  -2   13.97    1.14
  -6   4  -2   12.92    1.10
   7  -4   2    9.96    1.09
  -7  -4  -2    7.66    0.86
  -7  -4  -2    9.58    1.72
  -7  -4  -2    7.55    1.06
  -7   4  -2    8.64    1.02
  -7   4  -2    9.58    1.00
   7   4   2    9.50    1.10
  -8  -4  -2   11.39    1.99
  -8  -4  -2   14.06    1.54
   8  -4   2   11.58    1.21
  -8  -4  -2   10.41    1.13
  -8   4  -2   11.40    1.18
   8   4   2    9.75    1.17
  -8   4  -2   10.56    1.14
  -8  -5   2    0.10    0.85
  -8  -5   2    2.37    1.83
  -8  -5   2   -0.07    0.68
   8  -5  -2    1.89    1.11
  -8   5   2    0.40    0.74
  -8   5   2    2.47    1.05
   8   5  -2    1.18    1.05
  -7  -5   2   50.84    2.66
  -7  -5   2   53.84    3.54
  -7  -5   2   49.53    2.39
   7  -5  -2   51.34    2.41
  -7   5   2   47.78    2.56
   7   5  -2   51.33    2.42
  -7   5   2   50.16    2.38
   7   5  -2   49.80    2.10
   6  -5  -2   13.51    1.27
  -6  -5   2   15.85    1.44
  -6  -5   2   18.05    1.59
  -6  -5   2   16.10    1.93
   6   5  -2   16.96    1.24
  -6   5   2   15.50    1.35
   6   5  -2   16.14    1.46
  -5  -5   2   31.75    1.91
   5  -5  -2   34.43    1.82
  -5  -5   2   33.98    1.78
  -5  -5   2   34.86    2.24
  -5  -5   2   33.56    2.52
  -5   5   2   35.47    2.03
   5   5  -2   29.37    1.66
   5   5  -2   31.41    1.98
   5   5  -2   30.22    1.51
  -5   5   2   36.15    1.86
  -4  -5   2    9.58    1.00
  -4  -5   2    8.70    1.09
   4  -5  -2   10.97    1.22
  -4  -5   2   10.11    1.44
  -4  -5   2    9.13    1.11
   4  -5  -2    8.94    0.89
   4  -5  -2    9.06    0.94
  -4   5   2    9.42    1.00
   4   5  -2    9.21    1.12
   4   5  -2    9.22    1.15
   4   5  -2    9.66    0.86
  -4   5   2    8.82    1.05
  -3  -5   2   91.58    3.41
   3  -5  -2   87.94    3.25
   3  -5  -2   93.51    3.48
  -3  -5   2   88.45    3.55
  -3  -5   2   90.70    3.46
  -3  -5   2   90.28    3.47
   3  -5  -2   93.94    3.33
  -3   5   2   92.05    3.41
   3   5  -2   92.91    3.20
   3   5  -2   96.35    3.47
  -3   5   2   95.01    3.47
   3   5  -2   92.34    3.33
   2  -5  -2   60.50    2.56
   2  -5  -2   57.64    2.31
  -2  -5   2   60.46    2.58
  -2  -5   2   62.15    2.55
  -2  -5   2   57.63    2.57
  -2  -5   2   55.52    2.30
   2  -5  -2   55.95    2.40
  -2   5   2   57.71    2.36
  -2   5   2   58.25    2.34
   2   5  -2   59.06    2.53
   2   5  -2   58.27    2.34
   2   5  -2   57.89    2.38
   1  -5  -2   -0.01    0.44
  -1  -5   2    0.37    0.87
   1  -5  -2    0.93    0.82
  -1  -5   2    0.48    0.65
   1  -5  -2    0.63    0.52
  -1  -5   2   -0.14    0.46
  -1  -5   2    2.08    0.78
   1  -5  -2   -0.02    0.71
   1   5  -2    0.51    0.60
   1   5  -2    0.70    0.72
  -1   5   2    0.40    0.55
  -1   5   2    0.64    0.81
   1   5  -2    0.08    0.71
   0  -5   2   89.35    3.22
   0  -5   2   92.48    3.01
   0  -5  -2   92.72    3.22
   0  -5   2   90.36    3.39
   0  -5   2   90.50    3.17
   0  -5  -2   87.82    3.18
   0  -5  -2   88.56    3.11
   0  -5  -2   92.49    3.41
   0   5   2   89.91    3.28
   0   5  -2   90.45    3.17
   0   5   2   90.58    3.31
   0   5  -2   92.05    3.27
   0   5  -2   90.14    3.30
  -1  -5  -2   54.74    2.33
  -1  -5  -2   50.20    2.17
  -1  -5  -2   58.11    2.36
   1  -5   2   59.86    2.44
   1  -5   2   52.79    2.07
   1  -5   2   50.50    2.03
  -1  -5  -2   56.24    2.28
   1  -5   2   49.39    1.78
   1   5   2   48.18    2.09
  -1   5  -2   54.15    2.22
  -1   5  -2   62.03    2.45
  -1   5  -2   58.71    2.22
   1   5   2   51.53    2.32
  -2  -5  -2   36.47    2.03
  -2  -5  -2   34.70    2.02
   2  -5   2   34.81    1.93
   2  -5   2   33.50    1.60
  -2  -5  -2   37.36    1.84
  -2   5  -2   34.51    1.91
   2   5   2   33.37    1.83
  -2   5  -2   34.06    1.64
  -2   5  -2   36.45    1.92
   3  -5   2    8.62    0.71
  -3  -5  -2    8.52    0.79
  -3  -5  -2    8.14    1.00
  -3  -5  -2    6.37    0.96
  -3  -5  -2    7.22    1.02
   3  -5   2    6.29    1.06
  -3   5  -2    6.44    1.02
  -3   5  -2    6.74    0.92
   3   5   2    7.95    1.00
  -4  -5  -2   66.76    3.32
   4  -5   2   67.59    2.88
  -4  -5  -2   74.39    3.21
  -4  -5  -2   77.78    2.90
   4   5   2   78.50    2.94
  -4   5  -2   72.87    2.90
  -5  -5  -2   19.74    1.50
  -5  -5  -2   20.08    1.59
   5  -5   2   19.40    1.62
  -5  -5  -2   19.87    1.88
  -5   5  -2   20.48    1.55
   5   5   2   18.13    1.55
  -6  -5  -2   10.75    1.03
  -6  -5  -2   10.32    1.24
   6  -5   2   11.45    1.25
  -6  -5  -2   12.25    1.53
  -6   5  -2   10.81    1.19
  -6   5  -2   10.48    1.09
   6   5   2    9.42    1.16
  -7  -5  -2   -0.16    0.78
  -7  -5  -2    0.02    0.75
   7  -5   2    0.88    0.92
  -7  -5  -2   -0.42    1.47
  -7   5  -2   -0.78    0.69
   7   5   2    0.77    0.85
  -7   5  -2    1.24    0.89
  -7  -6   2   12.27    2.06
  -7  -6   2    9.32    1.37
   7  -6  -2    7.91    1.42
  -7  -6   2    8.43    1.62
  -7   6   2    6.70    1.05
   7   6  -2    9.33    1.43
  -7   6   2    7.43    1.36
  -6  -6   2    5.71    1.45
  -6  -6   2    9.02    1.75
  -6  -6   2    8.11    1.26
   6  -6  -2    5.48    1.27
   6   6  -2    6.76    1.25
  -6   6   2    5.52    1.27
   6   6  -2    5.82    0.91
  -5  -6   2   15.62    1.52
  -5  -6   2   19.77    1.73
   5  -6  -2   17.07    1.61
  -5  -6   2   15.70    1.59
  -5  -6   2   15.63    1.73
   5   6  -2   21.09    1.83
   5   6  -2   17.63    1.40
  -5   6   2   18.08    1.60
  -4  -6   2   19.55    1.59
   4  -6  -2   19.02    1.55
   4  -6  -2   19.19    1.30
  -4  -6   2   19.86    1.63
   4  -6  -2   21.19    1.40
  -4  -6   2   23.01    2.12
  -4  -6   2   20.91    1.51
  -4   6   2   17.95    1.50
  -4   6   2   21.16    1.70
   4   6  -2   20.21    1.62
   4   6  -2   21.02    1.32
   4   6  -2   23.69    1.84
  -3  -6   2   35.67    2.12
  -3  -6   2   31.56    2.15
   3  -6  -2   33.35    1.88
  -3  -6   2   32.93    1.79
  -3  -6   2   33.30    2.14
   3  -6  -2   33.26    2.15
   3  -6  -2   38.79    2.02
  -3   6   2   30.62    2.07
   3   6  -2   37.89    2.10
  -3   6   2   28.89    1.98
   3   6  -2   32.78    1.68
   3   6  -2   34.71    1.87
   2  -6  -2   -0.53    0.80
  -2  -6   2   -0.73    0.92
   2  -6  -2    1.07    0.97
  -2  -6   2   -0.13    0.61
   2  -6  -2    0.85    0.55
  -2  -6   2    0.98    0.80
  -2  -6   2    0.04    0.55
   2   6  -2   -0.14    0.90
  -2   6   2   -1.14    0.83
   2   6  -2    1.36    0.87
   2   6  -2    0.24    0.55
  -2   6   2   -0.28    0.59
   1  -6  -2    3.69    0.75
   1  -6  -2    3.75    0.60
   1  -6  -2    3.29    0.75
   1  -6  -2    3.17    0.80
  -1  -6   2    3.42    0.90
  -1  -6   2    4.70    0.96
  -1  -6   2    2.42    1.05
  -1  -6   2    2.41    0.73
  -1   6   2    6.26    1.09
   1   6  -2    2.27    0.92
   1   6  -2    1.85    0.67
   1   6  -2    3.10    0.82
   0  -6  -2   12.52    1.28
   0  -6   2   12.56    1.08
   0  -6  -2   12.79    1.17
   0  -6   2   12.88    0.95
   0  -6  -2   12.50    1.24
   0  -6   2   13.81    1.19
   0  -6   2   13.37    1.20
   0  -6  -2   11.67    1.28
   0   6  -2   13.57    1.38
   0   6  -2   12.28    1.10
   0   6   2   14.31    1.33
   0   6  -2   13.32    1.14
   0   6   2   13.57    1.29
   1  -6   2  128.56    4.22
   1  -6   2  117.57    4.13
  -1  -6  -2  118.89    4.25
   1  -6   2  126.09    4.43
  -1  -6  -2  124.40    4.30
  -1  -6  -2  129.14    4.56
  -1  -6  -2  111.42    4.26
   1   6   2  130.16    4.32
  -1   6  -2  112.12    4.26
  -1   6  -2  120.60    4.27
   1   6   2  130.25    4.41
  -1   6  -2  129.71    4.27
  -2  -6  -2   19.06    1.56
  -2  -6  -2   21.96    1.45
   2  -6   2   23.95    1.38
  -2  -6  -2   20.46    1.86
  -2  -6  -2   20.72    1.53
   2  -6   2   22.07    1.82
  -2   6  -2   23.01    1.50
  -2   6  -2   21.16    1.49
  -2   6  -2   25.22    1.80
   2   6   2   22.16    1.76
  -3  -6  -2   25.98    2.05
  -3  -6  -2   25.48    1.79
  -3  -6  -2   22.44    2.07
   3  -6   2   26.09    1.92
   3  -6   2   23.92    1.30
  -3   6  -2   26.55    1.89
   3   6   2   27.93    1.85
  -4  -6  -2    1.92    0.84
  -4  -6  -2    3.17    1.24
   4  -6   2    4.42    1.08
  -4  -6  -2    2.26    0.95
  -4   6  -2    3.03    1.02
   4   6   2    2.00    0.95
  -5  -6  -2   34.39    2.43
  -5  -6  -2   31.96    2.03
  -5  -6  -2   36.41    2.84
   5  -6   2   34.50    2.16
  -5   6  -2   30.44    2.07
   5   6   2   36.45    2.12
  -6  -6  -2    4.29    1.61
  -6  -6  -2    3.58    0.85
  -6  -6  -2    4.10    1.33
   6  -6   2    4.59    0.93
   6   6   2    3.32    1.10
  -6   6  -2    7.25    1.06
  -6   6  -2    3.13    0.82
   6  -7  -2    1.27    1.23
  -6  -7   2    0.15    1.13
  -6  -7   2    0.84    0.98
  -6  -7   2   -0.17    0.97
  -6   7   2    1.43    1.23
   6   7  -2    0.51    1.14
   6   7  -2    0.75    0.91
  -5  -7   2    4.46    1.40
   5  -7  -2    3.06    0.97
  -5  -7   2    0.94    1.28
  -5  -7   2    3.12    0.93
  -5   7   2    1.47    1.20
   5   7  -2    2.23    1.18
   5   7  -2    2.38    0.70
  -4  -7   2   62.92    3.15
   4  -7  -2   60.95    2.71
  -4  -7   2   51.63    2.85
   4  -7  -2   58.56    3.02
  -4  -7   2   59.35    3.14
  -4  -7   2   59.62    2.73
   4   7  -2   59.44    2.67
  -4   7   2   52.62    2.76
  -4   7   2   60.90    2.77
   4   7  -2   62.82    2.98
  -3  -7   2   60.95    3.06
  -3  -7   2   61.90    2.94
   3  -7  -2   59.30    2.66
   3  -7  -2   61.95    3.03
  -3  -7   2   59.85    2.87
  -3  -7   2   60.82    2.95
   3  -7  -2   61.28    2.79
   3   7  -2   59.99    2.58
  -3   7   2   62.27    2.93
   3   7  -2   58.64    2.92
   3   7  -2   60.56    2.74
  -3   7   2   64.14    2.80
  -2  -7   2    8.73    1.07
   2  -7  -2    8.13    1.32
  -2  -7   2    9.54    1.35
  -2  -7   2    8.37    1.37
   2  -7  -2    8.73    1.23
  -2  -7   2    7.90    1.11
   2  -7  -2   11.07    1.31
   2   7  -2    8.37    1.27
   2   7  -2    7.89    1.01
  -2   7   2    7.10    1.07
  -2   7   2    9.15    1.30
   2   7  -2    6.39    1.06
  -1  -7   2   25.45    1.74
   1  -7  -2   21.48    1.82
  -1  -7   2   21.97    1.51
   1  -7  -2   21.51    1.56
  -1  -7   2   18.87    1.76
   1  -7  -2   19.14    1.66
  -1   7   2   21.55    1.71
   1   7  -2   22.00    1.81
   1   7  -2   20.36    1.53
   1   7  -2   27.84    2.06
  -1   7   2   24.13    1.63
   0  -7   2   33.12    2.00
   0  -7  -2   38.00    2.24
   0  -7   2   31.37    2.31
   0  -7   2   30.88    1.99
   0  -7  -2   36.72    1.95
   0  -7  -2   33.76    2.24
   0  -7  -2   35.35    1.82
   0   7  -2   41.23    2.35
   0   7   2   35.73    2.17
   0   7  -2   30.99    2.14
   0   7   2   33.01    2.19
   0   7  -2   37.00    1.90
  -1  -7  -2   32.59    2.11
  -1  -7  -2   32.39    2.24
  -1  -7  -2   31.79    1.95
  -1  -7  -2   31.46    1.86
   1  -7   2   34.68    1.91
   1  -7   2   33.14    2.30
  -1   7  -2   34.41    2.24
  -1   7  -2   29.51    1.75
  -1   7  -2   35.23    1.94
   1   7   2   34.10    2.18
  -2  -7  -2    3.71    0.96
  -2  -7  -2    6.14    1.19
  -2  -7  -2    4.14    0.86
   2  -7   2    6.47    0.90
   2  -7   2    2.86    0.91
   2   7   2    6.32    1.19
  -2   7  -2    5.16    1.23
  -2   7  -2    5.44    1.24
   3  -7   2   12.53    1.58
  -3  -7  -2   11.10    1.35
  -3  -7  -2   15.57    1.54
  -3  -7  -2   12.82    1.53
  -3   7  -2   11.15    1.46
   3   7   2   14.12    1.48
  -4  -7  -2    9.55    1.56
   4  -7   2   17.60    1.66
  -4  -7  -2    6.94    1.30
  -4   7  -2   18.05    1.65
   4   7   2    9.57    1.39
  -5  -7  -2    3.37    1.13
  -5  -7  -2    3.22    1.14
  -5  -7  -2    4.33    1.13
   5  -7   2    2.88    1.26
   5   7   2    2.08    1.14
  -5   7  -2    5.86    1.36
  -3  -8   2    1.02    1.11
  -3  -8   2    3.44    1.07
  -3  -8   2    1.80    0.93
   3  -8  -2    1.41    1.01
  -3  -8   2    0.70    1.23
   3  -8  -2    2.16    1.31
   3   8  -2    0.61    0.73
  -3   8   2    2.22    0.89
   3   8  -2    4.10    1.25
  -3   8   2    5.48    1.39
   2  -8  -2   29.57    2.40
  -2  -8   2   29.14    2.22
   2  -8  -2   30.26    2.21
   2  -8  -2   34.31    2.27
  -2  -8   2   32.25    2.11
  -2  -8   2   30.33    2.32
  -2   8   2   29.63    2.03
   2   8  -2   28.18    2.37
  -2   8   2   35.63    2.42
   2   8  -2   31.04    2.00
   2   8  -2   34.39    2.23
   1  -8  -2  113.06    4.45
   1  -8  -2  118.66    4.63
  -1  -8   2  116.26    4.44
  -1  -8   2  119.28    4.70
   1  -8  -2  116.15    4.57
  -1   8   2  117.59    4.60
   1   8  -2  116.01    4.50
   1   8  -2  114.80    4.47
   1   8  -2  123.34    4.57
  -1   8   2  121.83    4.65
   0  -8   2    0.33    0.94
   0  -8  -2    0.41    1.13
   0  -8   2    0.32    0.88
   0  -8  -2   -0.23    0.73
   0  -8  -2    1.11    1.07
   0   8   2    1.79    1.19
   0   8  -2    0.56    0.73
   0   8  -2    1.25    1.25
   0   8  -2   -1.45    1.06
  -1  -8  -2   -0.50    0.77
   1  -8   2   -0.54    0.82
   1  -8   2    0.94    0.64
  -1  -8  -2   -0.41    0.72
  -1   8  -2    0.39    1.24
   1   8   2   -0.83    1.05
  -2  -8  -2   16.00    1.62
  -2  -8  -2   15.85    1.54
   2  -8   2   12.76    1.47
  -2  -8  -2   14.51    1.64
   2   8   2   16.33    1.51
  -2   8  -2   15.00    1.75
 -11   0   3   37.09    3.12
 -11   0   3   38.83    2.14
  11   0  -3   37.65    2.15
 -11   0   3   36.41    2.59
  11   0  -3   39.49    2.30
 -10   0   3   -0.95    1.00
 -10   0   3    0.90    1.03
 -10   0   3    1.42    0.93
  10   0  -3   -1.02    0.69
  10   0  -3   -0.48    0.99
  10   0  -3    0.70    0.94
 -10   0   3   -0.30    0.88
   9   0  -3   13.90    1.20
   9   0  -3   14.88    1.31
  -9   0   3   14.35    1.89
   9   0  -3   13.38    1.48
  -9   0   3   13.47    1.31
  -9   0   3   14.57    1.34
  -8   0   3    0.28    0.89
   8   0  -3    1.60    0.99
  -8   0   3    0.62    0.54
   8   0  -3    1.09    0.81
  -8   0   3    0.09    0.95
  -7   0   3  107.69    4.28
  -7   0   3  112.27    3.77
  -7   0   3  108.89    3.83
   7   0  -3  112.72    3.76
   7   0  -3  121.10    4.06
   7   0  -3  115.78    3.96
  -7   0   3  119.77    4.10
  -6   0   3    0.73    1.28
   6   0  -3    1.57    0.84
  -6   0   3    0.42    0.52
  -6   0   3   -0.62    0.61
   6   0  -3    0.54    0.67
   6   0  -3   -0.83    0.54
  -5   0   3   95.38    3.22
   5   0  -3   93.14    3.10
   5   0  -3   86.80    3.07
  -5   0   3   95.61    3.07
   5   0  -3   89.61    3.21
   4   0  -3    0.64    0.67
   4   0  -3   -0.09    0.52
   4   0  -3   -0.15    0.51
  -4   0   3   -0.59    0.54
  -4   0   3   -0.06    0.39
   3   0  -3   53.44    1.95
   3   0  -3   51.02    2.08
   3   0  -3   54.11    1.95
  -3   0   3   54.01    1.93
  -3   0   3   52.31    1.93
  -3   0   3   50.22    1.88
   2   0  -3   -0.11    0.47
  -2   0   3   -0.08    0.37
  -2   0   3    0.61    0.42
   2   0  -3    0.63    0.55
   2   0  -3    0.01    0.48
  -2   0   3    0.51    0.32
   1   0  -3   87.60    2.81
  -1   0   3   91.05    2.75
   1   0  -3   91.66    2.77
  -1   0   3   88.67    2.82
  -1   0   3   92.63    2.79
   1   0  -3   88.90    2.81
   0   0  -3    0.31    0.32
   0   0  -3    0.00    0.13
   0   0  -3    0.35    0.21
   0   0  -3   -0.16    0.21
   0   0   3    0.18    0.24
   0   0   3    0.00    0.26
  -1   0  -3    4.37    0.43
  -1   0  -3    4.13    0.63
  -1   0  -3    4.39    0.43
  -2   0  -3    0.05    0.19
  -2   0  -3   -0.14    0.51
  -2   0  -3    0.12    0.25
  -3   0  -3    7.62    0.77
  -3   0  -3    6.71    0.42
  -3   0  -3    6.36    0.49
  -4   0  -3    0.14    0.33
  -4   0  -3    1.21    0.67
  -5   0  -3   13.02    0.74
  -5   0  -3   12.64    0.57
  -5   0  -3   12.08    1.15
   5   0   3   13.29    0.57
   5   0   3   12.91    0.60
   6   0   3   -0.28    0.30
  -6   0  -3    0.72    0.54
  -6   0  -3   -0.09    0.32
  -6   0  -3    1.41    0.86
  -7   0  -3   34.45    2.19
   8   0   3    0.05    0.43
  -8   0  -3   -0.04    0.69
   9   0   3   40.53    1.95
  -9   0  -3   43.50    1.85
  -9   0  -3   49.81    2.88
 -11  -1   3   -0.82    1.01
 -11  -1   3   -0.63    0.97
  11  -1  -3   -0.10    1.07
  11  -1  -3    2.77    1.37
 -11  -1   3    1.33    1.69
 -11   1   3   -0.17    1.24
  11   1  -3    0.58    0.98
  11   1  -3   -0.07    1.05
 -11   1   3   -1.45    0.92
 -11   1   3   -0.72    0.80
 -10  -1   3   17.53    1.71
  10  -1  -3   17.19    1.84
 -10  -1   3   16.83    1.94
 -10  -1   3   15.73    1.60
 -10  -1   3   16.84    1.52
  10  -1  -3   18.81    1.64
 -10   1   3   19.18    1.99
  10   1  -3   21.49    1.83
  10   1  -3   18.49    1.61
  10   1  -3   18.09    1.52
 -10   1   3   16.11    1.48
  -9  -1   3    3.75    0.90
   9  -1  -3    4.69    0.86
  -9  -1   3    5.94    1.05
   9  -1  -3    5.51    1.30
  -9  -1   3    4.61    1.25
  -9  -1   3    2.09    0.79
  -9   1   3    3.55    0.85
  -9   1   3    4.13    1.33
   9   1  -3    4.43    0.79
   9   1  -3    5.90    1.06
   9   1  -3    4.64    1.05
   8  -1  -3   50.73    2.38
  -8  -1   3   52.59    2.21
  -8  -1   3   43.39    3.10
   8  -1  -3   50.85    2.50
  -8  -1   3   48.39    2.30
   8   1  -3   51.39    2.44
  -8   1   3   46.54    2.86
  -8   1   3   52.78    2.33
   8   1  -3   52.73    2.38
   8   1  -3   50.07    2.12
  -7  -1   3   44.87    2.05
  -7  -1   3   42.79    2.01
  -7  -1   3   39.85    2.49
   7  -1  -3   38.68    2.00
   7  -1  -3   46.71    2.11
   7   1  -3   42.07    1.84
  -7   1   3   45.69    1.89
   7   1  -3   42.76    1.86
   7   1  -3   42.28    2.06
  -7   1   3   40.45    2.59
   7   1  -3   42.29    1.97
  -7   1   3   45.81    2.21
  -6  -1   3   46.87    2.00
   6  -1  -3   47.80    1.94
   6  -1  -3   46.21    2.08
  -6  -1   3   48.34    2.54
  -6  -1   3   44.09    2.02
  -6  -1   3   48.19    2.01
   6   1  -3   45.44    1.90
   6   1  -3   46.47    1.95
  -6   1   3   44.99    1.98
  -6   1   3   46.31    2.61
   6   1  -3   52.14    2.18
  -6   1   3   45.64    1.96
   6   1  -3   48.95    2.09
  -5  -1   3   52.09    2.56
   5  -1  -3   53.59    2.15
  -5  -1   3   57.00    2.16
   5  -1  -3   54.75    2.10
  -5  -1   3   55.51    2.17
  -5  -1   3   55.94    2.22
   5   1  -3   54.22    2.02
   5   1  -3   52.22    2.16
   5   1  -3   51.79    2.22
   5   1  -3   55.23    2.05
  -5   1   3   54.37    2.04
  -5   1   3   57.18    2.25
   4  -1  -3   82.43    2.74
  -4  -1   3   77.29    2.73
   4  -1  -3   78.26    2.69
  -4  -1   3   76.11    2.66
  -4  -1   3   80.21    2.72
   4   1  -3   79.90    2.67
   4   1  -3   75.55    2.77
   4   1  -3   78.94    2.60
  -4   1   3   77.27    2.64
   4   1  -3   79.58    2.72
  -4   1   3   80.83    2.69
   3  -1  -3   28.47    1.18
  -3  -1   3   25.80    1.26
   3  -1  -3   26.62    1.18
  -3  -1   3   28.10    1.27
  -3  -1   3   28.27    1.38
  -3   1   3   28.10    1.18
   3   1  -3   26.33    1.30
  -3   1   3   25.88    1.31
   3   1  -3   27.19    1.14
   3   1  -3   26.39    1.29
   2  -1  -3    1.08    0.48
  -2  -1   3    1.15    0.32
   2  -1  -3    0.41    0.50
   2  -1  -3    1.34    0.49
  -2  -1   3    0.33    0.59
  -2  -1   3    0.65    0.44
   2   1  -3    1.29    0.41
   2   1  -3    0.68    0.47
  -2   1   3    1.77    0.41
   2   1  -3    0.56    0.46
   1  -1  -3  406.45   11.74
  -1  -1   3  395.62   11.67
   1  -1  -3  410.46   11.65
   1  -1  -3  402.66   11.65
   1  -1  -3  389.96   11.69
  -1  -1   3  420.29   11.63
   1   1  -3  400.46   11.67
   1   1  -3  407.76   11.67
   1   1  -3  416.21   11.63
  -1   1   3  408.85   11.65
   0  -1   3  337.82    9.15
   0  -1  -3  305.56    9.12
   0  -1   3  309.59    9.11
   0  -1  -3  351.35    9.16
   0  -1  -3  351.14    9.11
   0  -1   3  309.74    9.07
   0  -1  -3  305.40    9.25
   0  -1  -3  295.17    9.29
   0   1  -3  305.57    9.11
   0   1  -3  304.66    9.17
   0   1  -3  327.39    9.15
   0   1   3  350.07    9.22
   0   1   3  300.65    9.12
   0   1  -3  302.02    9.07
  -1  -1  -3    7.57    0.41
   1  -1   3    9.04    0.43
   1  -1   3    7.06    0.39
  -1  -1  -3    7.08    0.43
  -1  -1  -3    6.80    0.54
  -1  -1  -3    6.88    0.74
  -1   1  -3    8.46    0.41
  -1   1  -3    7.66    0.29
   1   1   3    6.71    0.43
  -1   1  -3    7.38    0.54
  -1   1  -3    7.28    0.36
  -2  -1  -3    4.41    0.27
  -2  -1  -3    4.33    0.22
   2  -1   3    4.13    0.24
   2  -1   3    4.17    0.23
  -2  -1  -3    4.50    0.52
  -2  -1  -3    3.85    0.56
  -2  -1  -3    3.72    0.28
  -2   1  -3    4.45    0.25
  -2   1  -3    4.05    0.32
   2   1   3    4.02    0.25
   2   1   3    4.32    0.30
  -2   1  -3    3.69    0.25
  -2   1  -3    4.40    0.55
  -2   1  -3    4.79    0.45
   3  -1   3  140.91    4.13
  -3  -1  -3  148.60    4.18
  -3  -1  -3  149.80    4.78
   3  -1   3  145.92    4.13
  -3  -1  -3  143.56    4.47
  -3  -1  -3  146.21    4.19
  -3   1  -3  145.70    4.52
   3   1   3  142.12    4.17
  -3   1  -3  143.42    4.28
  -3   1  -3  144.81    4.15
  -3   1  -3  142.71    4.15
   3   1   3  147.64    4.17
  -3   1  -3  146.93    4.36
   4  -1   3  162.44    4.78
  -4  -1  -3  164.95    5.46
  -4  -1  -3  168.72    5.09
  -4  -1  -3  169.18    4.82
  -4  -1  -3  165.97    4.83
  -4   1  -3  167.28    4.96
  -4   1  -3  163.29    5.22
  -4   1  -3  165.52    4.80
  -4   1  -3  166.77    4.79
   4   1   3  168.84    4.82
   4   1   3  163.65    4.80
  -5  -1  -3   51.91    1.67
   5  -1   3   48.95    1.64
  -5  -1  -3   51.07    1.95
  -5  -1  -3   50.17    2.49
   5  -1   3   52.04    1.64
  -5  -1  -3   51.31    1.67
   5   1   3   50.81    1.68
  -5   1  -3   50.19    2.17
  -5   1  -3   51.06    1.54
  -5   1  -3   51.42    1.65
  -5   1  -3   50.96    1.66
  -5   1  -3   47.36    1.84
   6  -1   3    0.67    0.32
  -6  -1  -3    0.10    0.94
  -6  -1  -3    0.29    0.32
  -6  -1  -3    1.11    0.51
  -6   1  -3    1.43    0.51
  -6   1  -3    0.17    0.51
   6   1   3    0.33    0.40
  -6   1  -3    0.54    0.36
  -7  -1  -3    8.23    0.83
  -7  -1  -3    7.31    1.11
   7  -1   3    7.15    0.69
  -7  -1  -3    7.68    0.65
  -7   1  -3    8.98    0.98
  -7   1  -3    8.89    0.87
   7   1   3    9.47    0.72
  -8  -1  -3   34.35    1.55
  -8  -1  -3   37.92    2.59
   8  -1   3   34.90    1.61
  -8   1  -3   38.76    2.26
   8   1   3   34.24    1.65
  -9  -1  -3    7.04    1.52
  -9  -1  -3    9.14    0.97
   9  -1   3    9.25    0.89
   9   1   3    7.45    0.96
  -9   1  -3    9.81    1.19
  10  -2  -3   10.89    1.74
 -10  -2   3    8.54    2.03
 -10  -2   3    5.38    1.13
  10  -2  -3    5.57    1.21
 -10  -2   3    6.68    1.35
 -10   2   3    6.57    1.27
  10   2  -3    6.38    1.25
  -9  -2   3    3.27    1.18
   9  -2  -3    4.69    1.12
  -9  -2   3    5.64    1.87
  -9  -2   3    4.73    0.88
   9   2  -3    4.74    0.89
   9   2  -3    5.05    0.79
  -9   2   3    3.71    1.15
  -9   2   3    3.72    1.14
  -8  -2   3   29.07    1.65
   8  -2  -3   34.05    1.96
  -8  -2   3   32.29    2.97
  -8  -2   3   28.67    1.83
   8   2  -3   29.80    1.69
  -8   2   3   28.80    1.75
   8   2  -3   30.21    1.55
  -8   2   3   31.00    2.15
  -7  -2   3   76.73    3.28
   7  -2  -3   85.03    3.13
  -7  -2   3   82.64    3.94
  -7  -2   3   78.93    2.99
  -7   2   3   79.97    2.90
  -7   2   3   79.00    3.05
   7   2  -3   80.49    3.01
  -7   2   3   78.74    3.29
   7   2  -3   81.66    2.85
  -6  -2   3   67.50    2.52
  -6  -2   3   66.24    3.09
   6  -2  -3   66.90    2.47
   6  -2  -3   63.31    2.47
   6   2  -3   65.59    2.39
   6   2  -3   67.11    2.52
   6   2  -3   62.49    2.48
  -6   2   3   58.38    2.60
  -6   2   3   69.20    2.57
  -6   2   3   68.71    2.52
   5  -2  -3   20.86    1.27
  -5  -2   3   24.44    1.99
   5  -2  -3   20.01    1.37
  -5  -2   3   21.17    1.37
  -5   2   3   19.52    1.16
   5   2  -3   20.22    1.37
  -5   2   3   20.37    1.44
   5   2  -3   21.04    1.33
   5   2  -3   20.57    1.16
   4  -2  -3  190.46    5.86
  -4  -2   3  185.04    6.39
   4  -2  -3  197.16    5.85
  -4  -2   3  195.54    5.91
   4   2  -3  191.11    5.81
   4   2  -3  191.55    5.91
  -4   2   3  191.18    5.88
   4   2  -3  191.09    5.89
  -4   2   3  190.98    5.92
   3  -2  -3  553.24   16.10
  -3  -2   3  562.67   16.13
   3  -2  -3  568.33   16.10
  -3  -2   3  562.14   16.11
  -3   2   3  552.00   16.09
   3   2  -3  552.65   16.11
   3   2  -3  555.06   16.05
   3   2  -3  559.33   16.11
  -2  -2   3   64.72    2.25
   2  -2  -3   62.91    2.19
  -2  -2   3   64.65    2.19
   2  -2  -3   67.29    2.31
   2  -2  -3   63.96    2.20
   2   2  -3   64.22    2.24
   2   2  -3   64.53    2.29
   2   2  -3   65.80    2.19
  -2   2   3   69.09    2.29
  -2   2   3   62.45    2.23
   1  -2  -3    0.13    0.44
   1  -2  -3   -0.07    0.42
   1  -2  -3    0.09    0.36
  -1  -2   3    0.06    0.36
   1  -2  -3    0.60    0.33
  -1  -2   3    0.81    0.58
  -1   2   3   -0.30    0.39
   1   2  -3   -0.20    0.46
   1   2  -3   -0.07    0.44
   1   2  -3   -0.15    0.38
  -1   2   3    0.88    0.48
   0  -2  -3   53.54    1.96
   0  -2  -3   51.89    1.94
   0  -2  -3   53.48    1.85
   0  -2   3   55.92    1.77
   0  -2  -3   54.28    1.84
   0   2  -3   56.01    1.88
   0   2  -3   53.86    1.88
   0   2  -3   56.38    1.80
   0   2   3   54.37    1.87
  -1  -2  -3  496.84   13.09
  -1  -2  -3  451.26   13.37
  -1  -2  -3  497.59   13.14
  -1  -2  -3  448.65   13.19
  -1  -2  -3  443.17   13.42
   1   2   3  457.37   13.20
  -1   2  -3  449.02   13.19
  -1   2  -3  448.93   13.09
  -1   2  -3  450.36   13.28
   2  -2   3  225.82    6.35
  -2  -2  -3  220.66    6.52
  -2  -2  -3  221.46    6.53
   2  -2   3  219.31    6.50
  -2  -2  -3  217.86    6.74
  -2  -2  -3  220.46    6.87
  -2   2  -3  221.34    6.50
  -2   2  -3  222.14    6.52
  -2   2  -3  218.10    6.62
   2   2   3  220.42    6.52
   2   2   3  246.64    6.64
   3  -2   3  148.24    4.42
  -3  -2  -3  148.19    4.44
  -3  -2  -3  150.85    4.70
  -3  -2  -3  147.48    4.89
  -3  -2  -3  154.36    4.46
  -3   2  -3  150.13    4.44
  -3   2  -3  149.18    4.41
  -3   2  -3  147.36    4.59
  -3   2  -3  148.05    4.55
  -3   2  -3  143.37    4.43
   3   2   3  147.57    4.44
   3   2   3  147.97    4.43
  -4  -2  -3   66.85    2.16
  -4  -2  -3   65.88    2.83
   4  -2   3   64.51    2.11
   4  -2   3   61.82    2.08
  -4  -2  -3   65.03    2.15
  -4  -2  -3   67.02    2.47
  -4   2  -3   66.04    2.30
   4   2   3   63.36    2.16
  -4   2  -3   65.18    2.18
  -4   2  -3   63.45    2.11
  -4   2  -3   64.04    2.30
  -4   2  -3   64.29    2.10
  -5  -2  -3   93.99    3.63
  -5  -2  -3   91.76    3.26
   5  -2   3   90.79    2.97
  -5  -2  -3   97.55    3.03
  -5   2  -3   94.06    3.21
  -5   2  -3   94.62    2.98
  -5   2  -3   93.56    3.09
   5   2   3   97.80    3.03
  -6  -2  -3   51.54    1.96
  -6  -2  -3   51.25    2.14
   6  -2   3   54.93    1.91
  -6  -2  -3   55.08    2.61
  -6   2  -3   51.35    2.02
   6   2   3   52.05    1.97
  -6   2  -3   51.03    2.17
  -6   2  -3   52.44    1.88
  -7  -2  -3  115.60    4.00
   7  -2   3  115.90    3.70
  -7  -2  -3  112.75    3.68
  -7  -2  -3  117.89    4.67
   7   2   3  110.72    3.69
  -7   2  -3  105.05    3.73
  -7   2  -3  113.21    3.98
  -7   2  -3  114.31    3.65
  -8  -2  -3    1.51    0.74
  -8  -2  -3    2.41    0.60
   8  -2   3    0.88    0.68
  -8  -2  -3    2.78    1.05
   8   2   3    1.99    0.60
   9  -2   3    5.18    0.94
  -9  -2  -3    4.81    0.76
  -9  -2  -3    3.61    1.61
   9   2   3    4.47    0.78
  10  -3  -3   49.21    2.71
 -10  -3   3   49.07    2.67
 -10  -3   3   48.16    4.02
 -10  -3   3   49.20    2.62
  10   3  -3   51.68    2.71
 -10   3   3   43.62    2.69
   9  -3  -3  125.83    4.58
  -9  -3   3  113.82    5.58
  -9  -3   3  121.69    4.85
  -9  -3   3  127.08    4.58
   9   3  -3  127.00    4.61
  -9   3   3  125.36    4.54
  -8  -3   3   29.84    1.90
  -8  -3   3   26.73    1.85
  -8  -3   3   27.42    2.53
   8  -3  -3   25.65    1.88
   8   3  -3   28.04    1.91
  -8   3   3   29.41    2.02
   8   3  -3   25.28    1.46
   7  -3  -3   10.18    1.01
   6  -3  -3  156.90    5.22
   6  -3  -3  159.04    5.09
  -6  -3   3  163.75    5.73
  -6  -3   3  164.50    5.27
  -6  -3   3  160.20    5.39
  -6   3   3  146.82    5.09
   6   3  -3  156.53    5.13
  -6   3   3  160.44    5.21
   6   3  -3  157.89    5.25
   6   3  -3  164.40    5.03
  -6   3   3  156.09    5.05
   5  -3  -3  104.55    3.58
  -5  -3   3   99.41    3.60
  -5  -3   3  103.47    3.78
  -5  -3   3  105.43    4.13
   5  -3  -3  106.05    3.70
  -5   3   3  110.98    3.69
  -5   3   3  107.80    3.56
  -5   3   3  104.42    3.71
   5   3  -3  107.22    3.51
   5   3  -3  104.22    3.66
   5   3  -3  107.53    3.72
  -4  -3   3   81.70    3.56
  -4  -3   3   75.73    3.03
   4  -3  -3   77.39    2.89
   4  -3  -3   76.82    2.73
  -4  -3   3   80.22    2.88
  -4   3   3   78.03    2.84
   4   3  -3   79.65    2.74
   4   3  -3   79.78    2.89
  -4   3   3   81.23    2.88
   4   3  -3   75.34    2.77
   3  -3  -3   49.24    2.03
   3  -3  -3   48.71    1.96
  -3  -3   3   47.47    2.13
   3  -3  -3   49.94    1.97
  -3  -3   3   48.32    1.88
  -3  -3   3   51.33    2.64
  -3   3   3   47.96    1.89
   3   3  -3   48.65    1.90
   3   3  -3   47.68    1.98
  -3   3   3   50.17    1.91
   3   3  -3   47.93    1.93
   2  -3  -3  122.22    3.92
  -2  -3   3  123.84    3.99
  -2  -3   3  117.84    3.83
   2  -3  -3  121.81    3.86
   2  -3  -3  120.66    3.91
   2   3  -3  121.37    3.89
  -2   3   3  120.09    3.87
  -2   3   3  119.02    3.85
   2   3  -3  123.72    3.84
   2   3  -3  118.85    3.88
   1  -3  -3   26.93    1.29
  -1  -3   3   26.40    1.16
   1  -3  -3   27.70    1.35
   1  -3  -3   27.19    1.40
   1  -3  -3   28.12    1.22
  -1  -3   3   26.13    1.22
  -1   3   3   26.68    1.20
   1   3  -3   29.80    1.36
   1   3  -3   26.08    1.26
  -1   3   3   28.26    1.25
   1   3  -3   25.95    1.37
   0  -3  -3  397.36   11.76
   0  -3   3  410.53   11.72
   0  -3  -3  387.70   11.84
   0  -3  -3  410.69   11.91
   0  -3  -3  410.72   11.75
   0  -3   3  416.53   11.74
   0   3  -3  401.65   11.78
   0   3   3  409.00   11.77
   0   3  -3  396.48   11.79
   0   3   3  395.34   11.72
   0   3  -3  413.28   11.72
  -1  -3  -3    6.91    0.59
   1  -3   3    6.77    0.49
  -1  -3  -3    6.84    0.72
  -1  -3  -3    8.55    0.73
   1  -3   3    6.63    0.57
  -1   3  -3    6.56    0.68
   1   3   3    9.63    0.70
  -1   3  -3    6.85    0.54
   1   3   3    6.75    0.68
  -1   3  -3    6.54    0.65
  -2  -3  -3  104.92    3.40
  -2  -3  -3  109.74    3.67
  -2  -3  -3  104.96    3.27
  -2  -3  -3  102.93    3.04
   2  -3   3  105.92    3.17
  -2  -3  -3  105.58    3.77
   2   3   3  106.53    3.37
  -2   3  -3  106.12    3.19
  -2   3  -3  103.02    3.45
  -2   3  -3  111.52    3.42
  -3  -3  -3   51.58    2.37
  -3  -3  -3   55.99    2.02
  -3  -3  -3   56.13    2.33
  -3   3  -3   54.72    2.02
  -3   3  -3   55.24    2.10
   3   3   3   60.57    2.06
  -4  -3  -3  159.03    4.89
  -4  -3  -3  155.64    5.38
   4  -3   3  159.30    4.90
  -4  -3  -3  162.26    5.23
   4   3   3  158.58    4.89
  -4   3  -3  160.04    4.88
  -4   3  -3  153.65    4.83
  -4   3  -3  154.89    4.98
  -5  -3  -3    3.50    0.59
   5  -3   3    4.87    0.68
  -5  -3  -3    6.34    0.83
  -5  -3  -3    3.97    1.23
  -5   3  -3    4.86    0.65
  -5   3  -3    4.66    0.65
   5   3   3    5.29    0.69
  -6  -3  -3    2.91    1.24
   6  -3   3    1.53    0.61
  -6  -3  -3    1.15    0.62
  -6  -3  -3    1.73    0.57
  -6   3  -3    1.16    0.55
   6   3   3    1.54    0.59
  -6   3  -3    1.97    0.58
  -7  -3  -3   57.76    2.69
  -7  -3  -3   58.53    3.10
  -7  -3  -3   57.57    2.32
   7  -3   3   61.17    2.42
  -7   3  -3   55.91    2.36
  -7   3  -3   62.44    2.31
   7   3   3   61.19    2.36
  -8  -3  -3   60.23    2.82
  -8  -3  -3   65.50    3.76
  -8  -3  -3   61.21    2.49
   8  -3   3   59.91    2.58
   8   3   3   63.32    2.61
  -8   3  -3   62.86    2.45
   9  -4  -3    1.68    1.07
  -9  -4   3    0.11    0.84
  -9  -4   3   -0.88    1.33
  -9  -4   3   -0.04    1.00
  -9   4   3   -0.47    0.98
   9   4  -3    0.36    1.00
  -8  -4   3    8.23    1.11
   8  -4  -3    8.66    1.29
  -8  -4   3    6.92    1.97
  -8  -4   3   11.10    1.35
   8   4  -3    7.57    1.07
   8   4  -3    8.67    0.91
  -8   4   3   10.00    1.36
   7  -4  -3  174.67    5.61
  -7  -4   3  155.39    5.54
  -7  -4   3  167.56    6.37
  -7  -4   3  157.13    5.70
   7   4  -3  164.06    5.21
   7   4  -3  162.87    5.58
  -7   4   3  158.02    5.56
   6  -4  -3   89.86    3.37
  -6  -4   3   82.50    3.71
   6  -4  -3   81.63    3.19
  -6  -4   3   86.50    3.23
  -6  -4   3   86.00    3.59
  -6   4   3   88.79    3.31
  -6   4   3   85.12    3.23
   6   4  -3   83.77    3.02
   6   4  -3   82.51    3.21
   6   4  -3   80.21    3.09
  -6   4   3   86.24    3.18
  -5  -4   3   26.84    2.19
  -5  -4   3   27.66    1.73
   5  -4  -3   26.21    1.58
  -5  -4   3   26.75    1.53
   5  -4  -3   27.73    1.58
  -5   4   3   25.11    1.75
   5   4  -3   28.49    1.57
   5   4  -3   27.73    1.71
   5   4  -3   25.25    1.32
  -5   4   3   27.83    1.69
   4  -4  -3    9.02    1.01
   4  -4  -3   10.43    1.14
  -4  -4   3   11.69    1.10
  -4  -4   3    9.61    1.23
  -4  -4   3   10.47    1.05
   4   4  -3    9.18    0.92
  -4   4   3    9.29    0.92
   4   4  -3   10.57    1.11
   4   4  -3   10.12    0.94
  -4   4   3   10.06    1.03
  -3  -4   3  142.00    4.87
   3  -4  -3  151.40    4.79
   3  -4  -3  152.87    4.77
  -3  -4   3  145.79    4.80
   3  -4  -3  146.32    4.79
  -3  -4   3  151.65    5.23
   3   4  -3  147.05    4.77
   3   4  -3  149.28    4.74
   3   4  -3  148.49    4.80
  -3   4   3  144.64    4.81
  -3   4   3  146.37    4.84
  -2  -4   3   52.25    2.14
   2  -4  -3   55.60    2.13
  -2  -4   3   53.73    2.52
  -2  -4   3   51.91    2.16
   2  -4  -3   54.53    2.09
   2  -4  -3   51.13    2.20
   2   4  -3   52.40    2.13
   2   4  -3   53.95    2.09
   2   4  -3   51.28    2.15
  -2   4   3   54.15    2.21
  -2   4   3   55.64    2.24
  -1  -4   3    4.03    0.75
  -1  -4   3    3.28    0.65
   1  -4  -3    3.60    0.62
   1  -4  -3    3.88    0.75
  -1  -4   3    4.29    0.91
   1  -4  -3    2.94    0.56
   1  -4  -3    3.84    0.62
   1   4  -3    3.10    0.57
   1   4  -3    2.45    0.61
   1   4  -3    3.35    0.67
  -1   4   3    2.12    0.68
  -1   4   3    3.11    0.75
   0  -4   3    1.55    0.54
   0  -4  -3    1.18    0.46
   0  -4   3    2.50    0.70
   0  -4  -3    2.28    0.65
   0  -4   3    1.71    0.55
   0  -4  -3    0.98    0.61
   0  -4  -3    0.32    0.50
   0   4   3    1.71    0.68
   0   4  -3    1.22    0.53
   0   4  -3    2.36    0.58
   0   4  -3    1.50    0.69
   0   4   3    1.50    0.59
  -1  -4  -3   31.86    1.67
   1  -4   3   38.54    1.52
  -1  -4  -3   33.90    1.65
   1  -4   3   34.44    1.47
  -1  -4  -3   39.96    1.62
  -1  -4  -3   40.78    1.92
  -1   4  -3   39.64    1.81
  -1   4  -3   32.10    1.57
   1   4   3   39.84    1.59
  -1   4  -3   37.67    1.52
   1   4   3   35.11    1.69
  -2  -4  -3   32.11    1.95
  -2  -4  -3   31.96    1.44
   2  -4   3   36.07    1.30
   2  -4   3   35.18    1.72
  -2  -4  -3   33.44    1.60
   2  -4   3   32.31    1.34
  -2  -4  -3   34.04    1.86
  -2   4  -3   33.26    1.42
   2   4   3   33.28    1.42
  -2   4  -3   32.16    1.64
   2   4   3   34.08    1.63
  -2   4  -3   34.70    1.61
  -3  -4  -3   -0.72    0.55
  -3  -4  -3    0.53    0.58
  -3  -4  -3    0.02    0.62
   3  -4   3    0.42    0.68
   3  -4   3    0.18    0.21
   3   4   3   -0.74    0.59
  -3   4  -3    0.56    0.53
  -3   4  -3    0.15    0.65
  -4  -4  -3    9.76    1.38
   4  -4   3   10.01    0.98
  -4  -4  -3   10.28    0.91
  -4  -4  -3    6.62    0.92
  -4   4  -3    8.87    0.92
  -4   4  -3    9.55    1.05
   4   4   3   10.54    0.96
  -5  -4  -3   86.94    3.42
  -5  -4  -3   86.98    3.61
   5  -4   3   86.38    2.97
  -5  -4  -3   82.96    3.03
  -5   4  -3   81.02    3.00
  -5   4  -3   80.10    2.93
   5   4   3   83.67    3.05
  -6  -4  -3   20.60    1.79
  -6  -4  -3   22.21    2.06
  -6  -4  -3   21.20    1.40
   6  -4   3   21.46    1.48
  -6   4  -3   20.91    1.33
  -6   4  -3   23.45    1.41
   6   4   3   21.36    1.45
  -7  -4  -3    3.04    0.75
  -7  -4  -3    3.50    1.51
   7  -4   3    3.93    0.85
  -7  -4  -3    3.09    0.81
  -7   4  -3    1.77    0.76
   7   4   3    2.78    0.77
  -8  -4  -3    3.98    0.84
  -8  -4  -3    3.44    1.12
   8  -4   3    2.10    0.86
  -8  -4  -3    2.17    1.32
  -8   4  -3    3.49    0.85
   8   4   3    1.88    0.81
  -9  -5   3    1.55    1.40
  -9  -5   3   -0.86    2.16
  -9  -5   3    1.11    0.86
  -9   5   3    0.12    1.11
  -8  -5   3   29.17    2.53
  -8  -5   3   26.38    2.10
   8  -5  -3   26.72    1.85
  -8  -5   3   27.56    2.33
   8   5  -3   26.24    2.16
  -8   5   3   28.99    2.22
  -7  -5   3    1.62    1.02
  -7  -5   3    1.26    0.90
   7  -5  -3    1.26    0.80
  -7  -5   3    4.18    1.75
  -7   5   3    2.12    0.78
   7   5  -3    1.04    0.69
  -7   5   3    1.76    0.79
   7   5  -3    1.25    1.03
  -6  -5   3   17.84    1.44
   6  -5  -3   18.30    1.59
  -6  -5   3   18.53    1.98
  -6  -5   3   13.62    1.61
  -6   5   3   11.90    1.24
   6   5  -3   19.37    1.48
   6   5  -3   20.95    1.42
  -6   5   3   19.47    1.59
  -5  -5   3   52.18    2.52
  -5  -5   3   55.16    3.16
  -5  -5   3   52.85    2.77
   5  -5  -3   56.30    2.41
   5  -5  -3   52.21    2.62
  -5   5   3   55.69    2.59
  -5   5   3   51.23    2.27
   5   5  -3   57.93    2.56
   5   5  -3   51.74    2.38
   5   5  -3   54.23    2.30
  -4  -5   3   22.38    2.18
   4  -5  -3   23.93    1.55
  -4  -5   3   22.09    1.44
  -4  -5   3   24.57    1.90
   4  -5  -3   23.44    1.41
   4  -5  -3   22.45    1.35
  -4   5   3   20.41    1.67
   4   5  -3   24.76    1.53
   4   5  -3   22.51    1.50
   4   5  -3   22.01    1.71
  -4   5   3   20.89    1.47
   3  -5  -3   10.32    1.11
  -3  -5   3    7.53    1.29
   3  -5  -3    9.29    1.06
  -3  -5   3    8.55    1.02
   3  -5  -3    7.25    0.92
  -3  -5   3    7.91    0.90
   3   5  -3    7.13    0.82
   3   5  -3   10.24    1.03
  -3   5   3    7.29    0.90
  -3   5   3    8.71    1.10
   3   5  -3    7.91    1.07
  -2  -5   3   -0.80    0.70
   2  -5  -3    1.54    0.82
  -2  -5   3    0.71    0.94
   2  -5  -3    0.83    0.62
   2  -5  -3    1.04    0.76
  -2  -5   3   -0.66    0.76
   2   5  -3   -1.79    0.82
  -2   5   3    2.21    0.84
   2   5  -3   -0.45    0.73
   2   5  -3   -0.33    0.52
  -2   5   3    0.56    0.81
   1  -5  -3   68.14    2.73
   1  -5  -3   66.37    2.77
   1  -5  -3   66.83    2.52
  -1  -5   3   66.89    2.60
  -1  -5   3   68.35    2.64
  -1  -5   3   69.76    2.66
   1  -5  -3   69.40    2.62
   1   5  -3   68.29    2.68
   1   5  -3   66.90    2.71
  -1   5   3   66.09    2.69
   1   5  -3   69.61    2.67
  -1   5   3   67.79    2.75
   0  -5  -3   17.60    1.35
   0  -5   3   24.60    1.41
   0  -5  -3   22.69    1.52
   0  -5  -3   17.19    1.20
   0  -5   3   26.34    1.41
   0  -5   3   22.41    1.26
   0  -5  -3   19.67    1.27
   0   5  -3   23.30    1.61
   0   5  -3   18.21    1.35
   0   5   3   24.27    1.48
   0   5  -3   22.23    1.40
   0   5   3   25.23    1.58
   1  -5   3   67.65    2.35
  -1  -5  -3   73.39    2.80
   1  -5   3   68.72    2.58
  -1  -5  -3   70.85    2.90
   1  -5   3   77.23    2.92
  -1  -5  -3   68.66    2.67
   1  -5   3   72.34    2.58
  -1  -5  -3   71.56    2.98
   1   5   3   77.50    2.84
  -1   5  -3   68.39    2.72
  -1   5  -3   75.63    2.87
   1   5   3   69.78    2.66
  -1   5  -3   66.92    2.59
  -2  -5  -3   11.67    1.29
   2  -5   3   12.44    0.88
  -2  -5  -3   12.48    1.00
   2  -5   3   11.64    1.19
  -2  -5  -3   10.89    1.12
  -2  -5  -3   10.73    0.96
  -2   5  -3   11.12    1.17
  -2   5  -3   13.34    1.24
  -2   5  -3   13.70    1.01
   2   5   3   12.17    1.02
   3  -5   3  106.72    3.74
  -3  -5  -3  107.08    3.91
  -3  -5  -3  104.97    3.62
  -3  -5  -3  101.20    3.95
  -3   5  -3  102.65    3.72
  -3   5  -3  100.67    3.68
   3   5   3  103.17    3.63
  -4  -5  -3    7.89    1.17
  -4  -5  -3    6.75    1.05
  -4  -5  -3    8.79    1.00
   4  -5   3    6.57    0.85
  -4   5  -3    7.78    0.87
   4   5   3    7.71    1.00
   5  -5   3   36.21    1.98
  -5  -5  -3   38.27    1.93
  -5  -5  -3   36.96    2.33
  -5  -5  -3   36.20    2.42
  -5   5  -3   34.72    1.92
   5   5   3   33.60    1.94
  -5   5  -3   35.20    1.75
   6  -5   3   15.62    1.39
  -6  -5  -3   15.08    2.00
  -6  -5  -3   16.99    1.42
  -6  -5  -3   14.03    1.60
  -6   5  -3   13.10    1.13
   6   5   3   14.72    1.34
  -6   5  -3   13.87    1.29
  -7  -5  -3    3.21    0.92
   7  -5   3    6.00    1.08
  -7  -5  -3    4.54    1.27
  -7  -5  -3    4.83    1.37
   7   5   3    4.96    1.00
  -7   5  -3    5.94    1.04
  -7  -6   3    0.93    1.22
  -7  -6   3    2.45    0.89
  -7  -6   3    3.71    1.08
   7  -6  -3    1.77    1.20
   7   6  -3    1.80    0.87
  -7   6   3    2.08    0.86
   7   6  -3    2.54    0.82
  -7   6   3    2.52    1.20
   6  -6  -3    4.56    1.27
  -6  -6   3    3.06    1.13
  -6  -6   3    3.37    1.31
  -6  -6   3    3.85    1.22
   6   6  -3    5.47    0.94
   6   6  -3    2.11    1.15
  -6   6   3    5.97    1.25
  -5  -6   3    9.93    1.36
  -5  -6   3    9.31    1.10
  -5  -6   3    8.53    1.50
   5  -6  -3    9.03    1.16
  -5  -6   3    9.94    1.63
  -5   6   3    9.74    1.25
   5   6  -3    8.78    1.30
  -5   6   3   10.03    1.39
   5   6  -3    8.38    1.08
   5   6  -3    9.22    1.17
   4  -6  -3   38.29    1.98
  -4  -6   3   37.48    2.17
  -4  -6   3   38.67    2.10
  -4  -6   3   43.86    2.61
   4  -6  -3   42.86    2.15
  -4  -6   3   38.78    2.04
  -4   6   3   41.63    2.36
  -4   6   3   34.71    2.19
   4   6  -3   46.63    2.39
   3  -6  -3   12.63    1.16
  -3  -6   3   12.25    1.39
   3  -6  -3   10.66    1.09
  -3  -6   3   13.60    1.35
  -3  -6   3   12.56    1.22
   3  -6  -3   14.39    1.45
  -3  -6   3   13.55    1.47
  -3   6   3   13.98    1.23
   3   6  -3   12.30    1.17
  -3   6   3   13.82    1.39
   3   6  -3   12.60    1.27
   3   6  -3   14.62    1.47
   2  -6  -3   53.33    2.47
  -2  -6   3   46.68    2.31
   2  -6  -3   49.97    2.45
  -2  -6   3   50.74    2.39
  -2  -6   3   53.98    2.28
  -2  -6   3   53.93    2.42
   2  -6  -3   53.42    2.53
   2   6  -3   49.08    2.41
   2   6  -3   51.58    2.55
  -2   6   3   50.70    2.51
   2   6  -3   49.20    2.24
  -2   6   3   55.09    2.50
  -1  -6   3    1.16    0.78
   1  -6  -3    1.90    0.63
   1  -6  -3    1.96    0.90
   1  -6  -3    1.62    0.92
  -1  -6   3    1.62    0.70
  -1  -6   3    0.06    1.01
  -1  -6   3    0.36    0.79
   1  -6  -3    2.82    0.94
  -1   6   3    1.04    0.83
   1   6  -3    1.49    0.63
   1   6  -3    0.93    0.88
  -1   6   3    0.61    0.67
   1   6  -3    0.66    0.98
   0  -6   3   31.06    2.08
   0  -6  -3   34.74    2.08
   0  -6  -3   30.81    1.92
   0  -6   3   36.22    1.80
   0   6   3   32.07    1.99
   0   6   3   30.45    1.86
   0   6  -3   33.41    1.83
   0   6  -3   34.09    2.02
   0   6  -3   33.41    2.10
  -1  -6  -3   15.38    1.51
  -1  -6  -3   15.85    1.37
  -1  -6  -3   15.28    1.26
   1  -6   3   12.97    1.22
   1  -6   3   16.55    1.25
  -1  -6  -3   13.12    1.29
  -1   6  -3   16.35    1.45
  -1   6  -3   14.72    1.41
   1   6   3   18.30    1.45
  -1   6  -3   13.77    1.17
  -2  -6  -3   91.06    3.58
  -2  -6  -3   95.35    3.78
   2  -6   3   98.05    3.25
  -2  -6  -3   92.68    3.70
   2  -6   3   91.37    3.63
  -2   6  -3   90.67    3.62
   2   6   3   95.23    3.61
  -2   6  -3   91.00    3.63
   3  -6   3   15.22    1.44
  -3  -6  -3   13.92    1.21
  -3  -6  -3   11.85    1.32
  -3  -6  -3   15.05    1.58
   3   6   3   12.75    1.16
  -3   6  -3   10.95    1.36
  -3   6  -3   13.65    1.40
  -4  -6  -3    6.55    1.11
   4  -6   3    9.07    1.25
  -4  -6  -3    7.30    1.12
  -4  -6  -3    9.40    1.52
  -4   6  -3    7.18    0.98
   4   6   3    7.16    1.14
  -5  -6  -3    0.19    0.61
  -5  -6  -3   -0.41    0.94
  -5  -6  -3   -0.09    0.77
   5  -6   3    1.62    1.02
  -5   6  -3   -0.81    0.91
   5   6   3   -0.45    0.86
  -6  -6  -3   47.48    2.91
   6  -6   3   45.48    2.50
  -6  -6  -3   48.41    3.06
  -6  -6  -3   45.45    2.43
  -6   6  -3   45.73    2.49
   6   6   3   44.77    2.46
  -6  -7   3    0.19    1.44
  -6  -7   3    1.66    1.38
   6  -7  -3    3.25    1.38
  -6  -7   3    2.27    0.93
  -6   7   3   -0.69    0.82
   6   7  -3    0.60    1.21
   6   7  -3    1.35    0.88
  -5  -7   3   40.76    2.78
  -5  -7   3   42.01    2.57
  -5  -7   3   39.71    2.52
  -5  -7   3   47.09    3.14
   5  -7  -3   35.89    2.29
   5   7  -3   41.60    2.27
   5   7  -3   39.34    2.29
  -5   7   3   47.00    2.69
  -4  -7   3   10.52    1.48
  -4  -7   3   10.75    1.33
  -4  -7   3   13.11    1.51
   4  -7  -3   13.77    1.41
   4  -7  -3   13.06    1.60
  -4  -7   3   16.08    1.56
  -4   7   3   10.32    1.52
   4   7  -3   11.02    1.30
   4   7  -3   11.44    1.52
   4   7  -3   12.06    1.30
  -4   7   3   11.45    1.42
  -3  -7   3   13.01    1.36
  -3  -7   3   10.08    1.26
  -3  -7   3   12.01    1.24
   3  -7  -3   10.92    1.19
   3  -7  -3   10.09    1.20
   3  -7  -3   11.82    1.49
  -3  -7   3   12.49    1.25
   3   7  -3    9.37    1.35
   3   7  -3   12.62    1.55
  -3   7   3   11.44    1.44
   3   7  -3   12.08    1.17
  -3   7   3   11.96    1.45
  -2  -7   3    4.48    0.93
   2  -7  -3    3.73    0.92
  -2  -7   3    4.88    0.97
   2  -7  -3    3.94    0.88
   2  -7  -3    4.04    0.88
  -2  -7   3    6.54    1.32
  -2  -7   3    3.13    0.84
  -2   7   3   11.02    1.35
   2   7  -3    3.99    1.07
   2   7  -3    6.11    1.26
   2   7  -3    3.93    0.88
  -2   7   3    5.20    1.17
   1  -7  -3    7.50    1.29
  -1  -7   3    7.88    0.98
  -1  -7   3    7.87    1.18
   1  -7  -3    8.72    1.29
   1  -7  -3    9.24    1.29
  -1  -7   3    7.43    1.37
  -1   7   3    8.27    1.10
   1   7  -3    7.25    1.39
   1   7  -3    6.85    1.17
   1   7  -3    7.10    1.24
  -1   7   3    6.46    1.00
   0  -7  -3    2.44    1.08
   0  -7   3    2.70    1.16
   0  -7  -3    2.98    0.82
   0  -7  -3    3.00    1.03
   0  -7   3    2.12    0.87
   0  -7  -3    1.12    0.73
   0   7   3    2.43    0.83
   0   7  -3    1.92    1.06
   0   7  -3    1.68    1.12
   0   7  -3    3.10    0.93
  -1  -7  -3   16.89    1.49
  -1  -7  -3   20.63    1.76
   1  -7   3   19.14    1.49
   1  -7   3   22.00    1.79
  -1  -7  -3   21.30    1.88
  -1   7  -3   19.49    1.76
  -1   7  -3   19.74    1.67
   1   7   3   20.99    1.70
  -2  -7  -3    4.83    1.02
   2  -7   3    1.67    0.90
  -2  -7  -3    2.94    1.08
  -2  -7  -3    4.44    1.13
  -2   7  -3    3.57    0.94
  -2   7  -3    4.45    0.97
   2   7   3    4.13    1.15
   3  -7   3   30.57    2.34
  -3  -7  -3   46.73    2.72
  -3  -7  -3   33.25    2.22
  -3  -7  -3   44.76    2.37
   3   7   3   42.66    2.38
  -3   7  -3   25.68    2.23
   4  -7   3    5.43    1.30
  -4  -7  -3    6.60    1.25
  -4  -7  -3    7.10    1.27
  -4  -7  -3    6.79    1.52
  -4   7  -3    7.60    1.34
   4   7   3    3.31    1.16
  -3  -8   3   23.52    1.81
   3  -8  -3   21.90    2.02
  -3  -8   3   21.78    1.90
  -3  -8   3   23.64    2.06
   3  -8  -3   25.51    2.08
   3   8  -3   25.15    2.11
  -3   8   3   24.85    2.03
   3   8  -3   22.93    1.75
  -3   8   3   23.43    1.86
   3   8  -3   21.79    1.94
   2  -8  -3   21.58    1.89
   2  -8  -3   19.27    1.87
  -2  -8   3   21.47    1.75
  -2  -8   3   19.89    1.75
   2  -8  -3   20.86    1.86
   2   8  -3   21.15    1.68
  -2   8   3   20.32    1.74
   2   8  -3   22.68    2.02
  -2   8   3   20.56    1.86
   2   8  -3   19.76    1.67
  -1  -8   3   -0.29    1.22
   1  -8  -3    0.77    1.14
   1  -8  -3   -0.16    1.07
  -1  -8   3   -0.96    0.93
   1  -8  -3    0.72    0.80
   1   8  -3    0.03    0.71
   1   8  -3    0.37    0.76
   1   8  -3   -0.18    0.84
  -1   8   3   -1.14    1.11
   0  -8  -3   -0.31    1.08
   0  -8  -3    0.80    1.18
   0  -8   3    1.58    0.72
   0  -8   3   -0.35    0.88
   0   8   3   -0.55    1.12
   0   8  -3   -0.18    0.76
   0   8  -3   -0.34    1.23
   1  -8   3   22.88    1.91
  -1  -8  -3   25.04    1.80
  -1  -8  -3   25.12    2.16
   1  -8   3   22.99    1.55
   1   8   3   22.05    1.81
  -1   8  -3   23.37    1.90
  -1   8  -3   27.20    2.24
  11   0  -4    0.41    0.82
 -11   0   4   -0.33    1.11
  11   0  -4   -0.31    0.83
 -11   0   4   -0.90    0.96
  11   0  -4   -0.50    1.03
 -11   0   4    0.13    1.02
 -11   0   4   -2.07    1.48
  10   0  -4   62.66    2.68
  10   0  -4   59.18    2.84
 -10   0   4   61.75    2.87
 -10   0   4   52.86    3.18
  10   0  -4   64.32    2.95
 -10   0   4   60.01    3.04
   9   0  -4    0.34    0.68
   9   0  -4    0.28    0.74
  -9   0   4    0.26    0.62
   9   0  -4    1.00    0.79
  -9   0   4    0.33    1.47
  -9   0   4    0.26    0.72
   8   0  -4  111.09    3.87
   8   0  -4  109.43    4.16
  -8   0   4  115.56    4.10
  -8   0   4  109.99    3.84
  -8   0   4   90.86    4.58
   7   0  -4    0.33    0.49
   7   0  -4    0.03    0.65
   7   0  -4    0.12    0.78
  -7   0   4    0.15    0.75
  -7   0   4   -0.74    0.71
  -7   0   4    1.38    1.09
  -7   0   4   -1.11    0.54
   6   0  -4  199.73    6.37
   6   0  -4  204.96    6.40
  -6   0   4  208.71    6.41
  -6   0   4  208.93    6.40
  -6   0   4  206.95    6.44
   6   0  -4  203.42    6.53
   5   0  -4    0.04    0.75
   5   0  -4    0.23    0.65
  -5   0   4   -0.52    0.65
  -5   0   4    0.21    0.51
  -5   0   4   -0.02    0.42
   5   0  -4   -0.36    0.60
  -4   0   4  103.80    3.46
   4   0  -4  102.66    3.50
   4   0  -4  104.00    3.39
  -4   0   4  103.23    3.43
   4   0  -4  106.14    3.40
  -4   0   4  101.34    3.41
   3   0  -4   -0.42    0.50
   3   0  -4    0.72    0.64
   3   0  -4   -0.21    0.36
   3   0  -4   -0.54    0.53
  -3   0   4   -0.54    0.47
  -3   0   4   -0.87    0.57
  -3   0   4    0.26    0.48
  -2   0   4  253.77    7.29
   2   0  -4  252.44    7.30
   2   0  -4  243.33    7.41
  -2   0   4  248.12    7.33
   2   0  -4  246.94    7.30
   2   0  -4  246.47    7.32
  -2   0   4  243.76    7.24
  -1   0   4   -0.10    0.40
  -1   0   4   -0.02    0.30
  -1   0   4   -0.03    0.27
   1   0  -4   -0.12    0.26
   1   0  -4   -0.12    0.43
   1   0  -4   -0.16    0.29
   0   0  -4   56.29    1.77
   0   0   4   57.92    1.69
   0   0   4   55.40    1.76
   0   0   4   53.62    1.77
   0   0  -4   56.76    1.77
   1   0   4   -0.13    0.12
  -1   0  -4   -0.17    0.12
  -1   0  -4    0.08    0.56
  -1   0  -4    0.18    0.27
  -1   0  -4   -0.23    0.13
   1   0   4   -0.31    0.14
  -2   0  -4  130.68    4.24
  -2   0  -4  133.01    4.01
  -2   0  -4  132.26    3.90
  -3   0  -4   -0.58    0.63
  -3   0  -4    0.10    0.35
  -3   0  -4   -0.29    0.24
  -4   0  -4  139.12    4.67
  -4   0  -4  137.76    4.20
  -5   0  -4   -0.15    0.13
   5   0   4    0.04    0.12
  -5   0  -4    0.22    0.30
  -5   0  -4    0.64    0.81
  -5   0  -4    0.39    0.15
  -6   0  -4   95.39    3.73
   6   0   4   91.93    2.82
   7   0   4   -0.83    0.37
  -7   0  -4    0.07    0.94
  -8   0  -4   26.50    1.89
   8   0   4   23.12    1.22
  -8   0  -4   23.28    1.19
  -9   0  -4    1.18    1.20
  -9   0  -4    0.48    0.58
   9   0   4    0.46    0.60
 -11  -1   4   18.70    1.89
 -11  -1   4   19.41    1.63
  11  -1  -4   18.49    1.80
 -11  -1   4   16.97    2.41
  11  -1  -4   22.01    2.15
 -11  -1   4   17.31    1.82
 -11   1   4   18.97    1.73
 -11   1   4   19.71    1.93
  11   1  -4   20.13    1.81
 -11   1   4   19.52    1.69
  11   1  -4   19.45    1.80
 -10  -1   4    2.32    1.14
  10  -1  -4   -0.64    0.97
 -10  -1   4    2.01    1.70
 -10  -1   4    0.43    0.69
  10  -1  -4    0.75    0.89
 -10  -1   4   -0.41    0.99
  10   1  -4    0.25    0.73
 -10   1   4    0.98    0.73
  10   1  -4    1.70    1.01
  10   1  -4    0.64    0.72
 -10   1   4    0.59    0.78
 -10   1   4   -1.66    1.24
   9  -1  -4   92.78    3.66
  -9  -1   4   96.08    3.66
   9  -1  -4   88.02    3.74
  -9  -1   4   81.04    4.10
  -9  -1   4   98.09    3.54
  -9   1   4   84.26    4.10
   9   1  -4   94.30    3.66
   9   1  -4   95.40    3.40
   9   1  -4   97.32    3.78
  -9   1   4   91.18    3.60
  -8  -1   4   91.21    3.42
   8  -1  -4   90.31    3.58
  -8  -1   4   79.92    4.20
  -8  -1   4   89.02    3.41
   8  -1  -4   90.31    3.34
  -8   1   4   91.91    3.42
   8   1  -4   92.16    3.25
  -8   1   4   71.87    3.90
   8   1  -4   91.91    3.55
   8   1  -4   91.60    3.45
  -7  -1   4   19.86    2.15
  -7   1   4   25.08    1.56
   6  -1  -4   39.40    1.99
  -6  -1   4   39.10    2.54
   6  -1  -4   43.96    2.09
  -6  -1   4   38.15    1.83
   6  -1  -4   42.63    1.90
  -6  -1   4   43.53    2.02
  -6  -1   4   40.23    1.93
  -6   1   4   41.72    2.05
  -6   1   4   39.03    1.75
   6   1  -4   39.90    1.71
   6   1  -4   38.90    1.75
   6   1  -4   39.21    1.82
   6   1  -4   38.63    2.06
   5  -1  -4  283.45    8.61
   5  -1  -4  282.61    8.75
  -5  -1   4  290.11    8.65
  -5  -1   4  290.43    8.65
   5  -1  -4  280.74    8.64
  -5  -1   4  291.01    8.65
   5   1  -4  285.64    8.65
  -5   1   4  291.24    8.64
   5   1  -4  281.27    8.72
   5   1  -4  286.27    8.63
  -5   1   4  290.07    8.64
   5   1  -4  289.26    8.58
  -4  -1   4   47.49    1.87
  -4  -1   4   43.98    1.85
   4  -1  -4   44.89    1.79
  -4  -1   4   44.85    1.96
   4  -1  -4   47.03    2.14
   4  -1  -4   43.81    1.75
  -4   1   4   44.71    1.92
   4   1  -4   44.46    1.89
   4   1  -4   44.94    2.02
   4   1  -4   46.33    1.89
  -4   1   4   43.09    1.77
   4   1  -4   45.71    1.82
   3  -1  -4    4.98    0.55
   3  -1  -4    4.38    0.64
  -3  -1   4    4.28    0.73
   3  -1  -4    3.96    0.68
  -3  -1   4    4.94    0.54
  -3  -1   4    4.69    0.59
   3   1  -4    4.42    0.64
   3   1  -4    4.41    0.64
  -3   1   4    5.61    0.73
   3   1  -4    4.22    0.56
  -3   1   4    4.33    0.52
  -2  -1   4  275.85    8.09
  -2  -1   4  276.16    8.05
  -2  -1   4  275.29    8.15
   2  -1  -4  276.49    8.13
   2  -1  -4  277.24    8.13
   2  -1  -4  267.29    8.23
   2   1  -4  277.92    8.15
   2   1  -4  280.58    8.16
   2   1  -4  278.36    8.11
  -2   1   4  283.91    8.13
   1  -1  -4  574.60   15.05
  -1  -1   4  549.63   15.08
  -1  -1   4  506.97   14.98
  -1  -1   4  562.15   14.94
   1  -1  -4  518.87   15.10
   1  -1  -4  490.25   15.02
   1   1  -4  558.82   15.08
   1   1  -4  496.10   15.06
  -1   1   4  491.43   15.02
   1   1  -4  504.93   14.98
   0  -1  -4   10.81    0.87
   0  -1  -4   10.54    1.01
   0  -1  -4   11.19    0.53
   0  -1   4   11.26    0.60
   0  -1  -4   10.56    0.62
   0  -1   4   10.49    0.71
   0   1  -4   11.46    0.48
   0   1  -4   11.56    0.80
   0   1  -4   10.95    0.58
   0   1   4   10.14    0.64
   0   1  -4   11.68    0.68
  -1  -1  -4    0.34    0.44
   1  -1   4    0.68    0.22
  -1  -1  -4    0.17    0.24
   1  -1   4   -0.14    0.25
  -1  -1  -4    0.14    0.60
  -1  -1  -4   -0.12    0.22
   1   1   4   -0.05    0.19
   1   1   4    0.34    0.21
  -1   1  -4    0.64    0.37
  -1   1  -4   -0.20    0.20
  -1   1  -4    0.15    0.22
   2  -1   4   13.44    0.47
   2  -1   4   12.68    0.50
  -2  -1  -4   13.41    0.52
  -2  -1  -4   13.35    0.51
  -2  -1  -4   12.56    0.77
  -2  -1  -4   13.38    1.20
   2   1   4   12.56    0.51
  -2   1  -4   12.09    0.99
  -2   1  -4   13.94    0.79
  -2   1  -4   12.17    0.51
  -2   1  -4   12.98    0.48
   2   1   4   13.32    0.51
  -3  -1  -4  266.57    8.08
  -3  -1  -4  260.66    7.75
  -3  -1  -4  265.68    7.41
  -3  -1  -4  256.54    7.41
   3   1   4  263.04    7.40
   3   1   4  247.35    7.39
  -3   1  -4  264.97    7.89
  -3   1  -4  260.82    7.36
  -3   1  -4  255.27    7.36
  -3   1  -4  263.66    7.62
  -4  -1  -4    9.19    0.47
  -4  -1  -4    9.31    0.84
   4  -1   4    8.96    0.37
  -4  -1  -4    9.90    1.02
  -4  -1  -4    9.92    0.45
   4   1   4    9.39    0.45
  -4   1  -4    9.22    0.40
  -4   1  -4    9.30    0.70
  -4   1  -4    9.22    0.90
  -4   1  -4    9.54    0.40
   4   1   4    9.47    0.45
   5  -1   4   19.17    0.76
  -5  -1  -4   19.66    1.16
  -5  -1  -4   21.00    0.81
  -5  -1  -4   20.65    0.81
   5  -1   4   20.91    0.76
  -5  -1  -4   19.61    1.81
   5   1   4   19.66    0.82
  -5   1  -4   20.35    0.78
  -5   1  -4   20.13    0.78
  -5   1  -4   19.56    1.49
  -7  -1  -4  129.64    4.08
   7  -1   4  124.26    4.03
  -7  -1  -4  126.97    4.89
   7   1   4  130.59    4.09
  -7   1  -4  150.17    4.85
   8  -1   4   11.21    0.95
  -8  -1  -4   10.77    0.94
  -8  -1  -4   11.04    1.68
   8   1   4   10.72    0.88
  -8   1  -4   13.36    1.47
 -10  -2   4   19.78    1.73
 -10  -2   4   15.25    2.02
 -10  -2   4   15.12    1.59
  10  -2  -4   15.56    1.45
  10  -2  -4   17.46    1.78
  10   2  -4   17.90    1.70
 -10   2   4   16.89    1.82
 -10   2   4   17.47    1.56
  10   2  -4   16.54    1.30
   9  -2  -4   32.35    2.21
  -9  -2   4   33.15    2.74
   9  -2  -4   34.00    2.74
  -9  -2   4   37.54    2.16
  -9  -2   4   35.08    2.15
  -9   2   4   36.69    2.33
   9   2  -4   32.21    1.80
   9   2  -4   34.93    2.18
  -9   2   4   31.50    2.46
   8  -2  -4  127.23    4.41
  -8  -2   4  120.08    5.27
  -8  -2   4  121.16    4.35
   8   2  -4  124.24    4.38
  -8   2   4  104.10    4.34
   8   2  -4  122.33    4.03
  -8   2   4  123.63    4.33
  -7  -2   4    3.22    1.30
   7  -2  -4    2.96    0.64
   7  -2  -4    3.53    0.75
  -7  -2   4    2.94    0.91
  -7   2   4    1.65    1.27
   7   2  -4    4.14    0.99
   7   2  -4    3.08    0.65
   7   2  -4    3.17    0.59
  -7   2   4    3.72    0.85
  -7   2   4    2.25    0.91
  -6  -2   4   20.39    2.15
   6  -2  -4   19.62    1.55
  -6  -2   4   19.54    1.49
   6  -2  -4   16.78    1.35
   6   2  -4   19.46    1.53
   6   2  -4   18.55    1.22
   6   2  -4   19.77    1.28
  -6   2   4   19.66    1.58
  -6   2   4   17.56    1.46
  -5  -2   4   93.94    4.37
   5  -2  -4  103.46    3.59
  -5  -2   4  106.22    3.64
   5  -2  -4  103.06    3.47
  -5  -2   4  106.45    3.53
   5   2  -4  104.56    3.51
   5   2  -4  100.01    3.51
  -5   2   4  106.02    3.58
  -5   2   4  105.14    3.62
   5   2  -4  100.35    3.46
   4  -2  -4  432.31   12.46
  -4  -2   4  420.21   12.47
  -4  -2   4  424.11   12.45
   4  -2  -4  425.00   12.47
  -4   2   4  416.75   12.44
   4   2  -4  417.15   12.48
  -4   2   4  430.88   12.48
   4   2  -4  429.24   12.49
   4   2  -4  425.29   12.40
  -3  -2   4    0.91    0.53
   3  -2  -4   -0.04    0.57
  -3  -2   4    0.54    0.52
   3  -2  -4    0.38    0.56
   3   2  -4   -0.60    0.62
   3   2  -4    0.14    0.40
  -3   2   4    0.73    0.59
   3   2  -4    0.07    0.38
   2  -2  -4  101.07    3.26
  -2  -2   4  100.75    3.26
  -2  -2   4  100.26    3.31
   2  -2  -4   98.49    3.30
   2  -2  -4  102.81    3.35
   2   2  -4   99.97    3.26
   2   2  -4  100.26    3.26
   2   2  -4  101.15    3.29
  -2   2   4  105.32    3.29
  -1  -2   4  109.10    3.58
  -1  -2   4  110.71    3.43
   1  -2  -4  109.57    3.50
   1  -2  -4  112.62    3.67
   1  -2  -4  110.18    3.58
   1  -2  -4  114.50    3.53
   1   2  -4  111.69    3.44
   1   2  -4  110.81    3.54
   1   2  -4  112.89    3.56
  -1   2   4  113.52    3.54
   0  -2  -4  400.99   11.31
   0  -2  -4  370.92   11.32
   0  -2   4  382.07   11.14
   0  -2  -4  395.34   11.08
   0  -2   4  374.06   11.02
   0  -2  -4  369.97   11.10
   0  -2  -4  392.97   11.10
   0   2   4  375.81   11.11
   0   2  -4  383.26   11.02
   0   2  -4  405.35   11.15
   0   2  -4  378.17   11.19
  -1  -2  -4   27.27    1.57
  -1  -2  -4   29.70    1.34
   1  -2   4   31.26    1.24
  -1  -2  -4   28.41    1.11
  -1   2  -4   28.49    1.18
   1   2   4   30.31    1.19
  -1   2  -4   29.58    1.34
  -1   2  -4   30.57    1.13
  -2  -2  -4  185.79    5.48
  -2  -2  -4  187.14    5.48
   2  -2   4  189.07    5.45
  -2  -2  -4  187.18    5.76
  -2  -2  -4  184.47    5.34
  -2  -2  -4  184.06    5.90
  -2   2  -4  185.15    5.45
  -2   2  -4  187.90    5.64
  -2   2  -4  183.24    5.46
  -2   2  -4  183.53    5.36
   2   2   4  183.78    5.47
   2   2   4  183.98    5.47
  -3  -2  -4   63.26    2.06
  -3  -2  -4   62.53    2.58
   3  -2   4   62.35    2.01
  -3  -2  -4   62.83    2.05
  -3  -2  -4   61.59    2.39
  -3   2  -4   64.35    2.06
  -3   2  -4   64.67    2.20
  -3   2  -4   60.73    1.98
   3   2   4   62.68    2.06
  -3   2  -4   62.09    1.99
   3   2   4   63.27    2.07
   4  -2   4   45.89    1.59
  -4  -2  -4   47.62    2.02
  -4  -2  -4   45.26    2.43
  -4  -2  -4   47.00    1.63
  -4  -2  -4   48.06    1.68
  -4   2  -4   46.57    1.59
  -4   2  -4   48.85    1.87
  -4   2  -4   47.15    1.94
   4   2   4   47.50    1.67
   4   2   4   48.78    1.67
  -4   2  -4   47.29    1.66
  -4   2  -4   48.45    1.65
  -5  -2  -4    7.15    1.08
  -5  -2  -4    6.00    0.86
  -5  -2  -4    7.31    0.60
   5  -2   4    6.46    0.60
  -5   2  -4    5.85    0.81
  -5   2  -4    7.02    0.58
  -5   2  -4    6.59    0.58
   5   2   4    7.44    0.63
  -6  -2  -4   55.68    2.25
   6  -2   4   47.85    1.83
  -6  -2  -4   50.85    1.83
  -6  -2  -4   54.55    2.65
  -6   2  -4   49.61    2.22
  -6   2  -4   52.71    1.93
   6   2   4   51.70    1.83
  -6   2  -4   43.89    1.75
  -7  -2  -4   16.22    1.34
  -7  -2  -4   14.92    1.60
  -7  -2  -4   15.34    0.97
   7  -2   4   14.44    1.07
  -7   2  -4   15.90    1.01
  -7   2  -4   18.08    1.47
   7   2   4   14.93    0.98
  -8  -2  -4    0.62    0.49
   8  -2   4   -0.48    0.60
  -8  -2  -4    1.00    1.38
  -8   2  -4    0.19    0.54
   8   2   4    0.56    0.48
 -10  -3   4   28.96    2.79
 -10  -3   4   23.11    2.05
 -10  -3   4   29.04    2.37
  10  -3  -4   26.91    2.22
  10   3  -4   23.48    2.07
 -10   3   4   24.25    1.90
  -9  -3   4    4.93    1.10
  -9  -3   4    4.40    1.12
  -9  -3   4    2.72    1.42
   9  -3  -4    3.68    0.91
   9   3  -4    3.83    0.79
   9   3  -4    5.70    1.19
  -9   3   4    3.91    1.18
  -8  -3   4    4.64    1.37
  -8  -3   4    2.71    1.23
  -8  -3   4    3.09    1.00
   8  -3  -4    3.73    0.82
  -7  -3   4   80.10    3.77
  -7  -3   4   79.22    3.17
   7  -3  -4   81.27    3.19
  -7  -3   4   83.12    3.48
  -7   3   4   80.33    3.04
   7   3  -4   74.65    3.16
   7   3  -4   80.96    2.93
  -7   3   4   78.99    3.09
  -7   3   4   72.73    3.20
   7   3  -4   71.63    3.08
  -6  -3   4    1.89    1.68
  -6  -3   4    1.39    0.85
   6  -3  -4    1.96    0.60
   6  -3  -4    1.85    0.68
   6   3  -4    0.05    0.63
   6   3  -4    2.20    0.89
   6   3  -4    1.35    0.65
  -6   3   4    0.44    0.86
  -6   3   4    2.02    0.80
   5  -3  -4   50.39    2.25
  -5  -3   4   50.26    2.23
  -5  -3   4   49.26    3.25
   5  -3  -4   45.99    2.11
   5   3  -4   47.51    2.05
   5   3  -4   49.65    2.10
   5   3  -4   47.86    2.23
  -5   3   4   50.08    2.07
   4  -3  -4    3.82    0.83
  -4  -3   4    5.23    1.18
   4  -3  -4    4.17    0.66
  -4  -3   4    3.22    0.60
   4   3  -4    3.49    0.58
   4   3  -4    3.00    0.78
   4   3  -4    4.93    0.73
  -4   3   4    4.38    0.85
   3  -3  -4  217.35    6.68
   3  -3  -4  215.72    6.64
   3  -3  -4  214.81    6.59
  -3  -3   4  210.46    6.60
   3   3  -4  217.06    6.57
   3   3  -4  216.02    6.68
  -3   3   4  221.63    6.65
   3   3  -4  210.82    6.61
   2  -3  -4   48.40    1.92
   2  -3  -4   45.97    1.83
  -2  -3   4   46.21    1.78
   2  -3  -4   47.55    1.95
  -2   3   4   48.57    1.87
  -2   3   4   47.36    1.89
   2   3  -4   45.22    1.86
   2   3  -4   49.48    1.94
   2   3  -4   43.84    1.99
  -1  -3   4   72.25    2.42
   1  -3  -4   70.47    2.49
   1  -3  -4   69.83    2.51
   1  -3  -4   69.46    2.58
   1  -3  -4   69.57    2.56
  -1   3   4   69.11    2.53
   1   3  -4   71.12    2.39
  -1   3   4   71.49    2.46
   1   3  -4   69.56    2.54
   1   3  -4   72.94    2.50
   0  -3  -4   96.99    3.36
   0  -3  -4   96.96    3.19
   0  -3   4   99.53    3.12
   0  -3   4   97.29    3.15
   0  -3  -4   97.74    3.43
   0   3   4   96.28    3.20
   0   3  -4   96.96    3.12
   0   3  -4  107.93    3.31
   0   3  -4   98.36    3.27
  -1  -3  -4   51.29    1.78
  -1  -3  -4   50.55    2.28
  -1  -3  -4   53.14    1.83
   1  -3   4   54.34    1.81
  -1  -3  -4   55.21    2.13
  -1  -3  -4   53.83    1.97
  -1   3  -4   53.91    2.03
   1   3   4   54.61    1.99
  -1   3  -4   52.25    2.00
  -1   3  -4   52.47    1.77
  -2  -3  -4   45.18    2.09
  -2  -3  -4   46.09    1.75
  -2  -3  -4   45.45    1.96
   2  -3   4   46.39    1.49
   2   3   4   45.23    1.70
  -2   3  -4   44.34    1.82
  -2   3  -4   47.30    1.77
  -3  -3  -4   83.06    2.78
  -3  -3  -4   85.98    3.28
  -3  -3  -4   82.17    3.13
  -3   3  -4   82.88    2.90
  -3   3  -4   83.13    2.78
   3   3   4   82.53    2.79
   4  -3   4    0.55    0.52
  -4  -3  -4    1.38    0.75
  -4  -3  -4    1.16    0.47
  -4   3  -4    0.58    0.46
   4   3   4    1.02    0.58
  -4   3  -4    1.01    0.50
  -4   3  -4    1.09    0.65
   5  -3   4    6.29    0.79
  -5  -3  -4    8.33    0.92
  -5  -3  -4    7.47    1.33
  -5  -3  -4    6.40    0.67
  -5   3  -4    7.72    0.67
  -5   3  -4    6.62    0.68
   5   3   4    8.01    0.79
   6  -3   4  144.12    4.55
  -6  -3  -4  138.00    4.52
  -6  -3  -4  144.61    4.96
  -6  -3  -4  143.00    5.55
   6   3   4  144.11    4.55
  -6   3  -4  140.45    4.50
  -7  -3  -4   26.63    1.68
   7  -3   4   29.18    1.61
  -7  -3  -4   29.05    1.47
  -7  -3  -4   33.50    2.38
  -7   3  -4   30.73    1.47
   7   3   4   28.77    1.51
   8  -3   4    0.76    0.64
  -8  -3  -4    1.70    0.63
  -8  -3  -4    4.07    1.61
  -8  -3  -4    0.28    0.85
  -8   3  -4    2.71    0.65
   8   3   4    3.43    0.71
  -9  -4   4    6.22    1.32
   9  -4  -4    6.63    1.31
  -9  -4   4    3.16    1.14
  -9  -4   4    7.76    2.29
   9   4  -4    4.89    1.25
   9   4  -4    4.91    1.06
  -9   4   4    6.83    1.10
   8  -4  -4   25.76    2.03
  -8  -4   4   30.12    2.74
  -8  -4   4   23.11    1.99
  -8  -4   4   27.91    2.04
  -8   4   4   26.36    1.81
   8   4  -4   27.22    1.78
   8   4  -4   26.30    1.64
   7  -4  -4   46.91    2.27
  -7  -4   4   47.94    2.50
  -7  -4   4   44.76    2.98
  -7  -4   4   48.19    2.45
  -7   4   4   48.73    2.42
  -7   4   4   43.85    2.25
   7   4  -4   47.39    2.00
   7   4  -4   46.07    2.44
  -6  -4   4   14.30    1.38
  -6  -4   4   15.67    2.05
   6  -4  -4   13.40    1.39
  -6  -4   4   14.91    1.28
   6  -4  -4   16.86    1.43
  -6   4   4   18.69    1.57
   6   4  -4   13.97    1.40
   6   4  -4   12.69    1.14
   6   4  -4   15.77    1.35
  -6   4   4   16.15    1.44
  -5  -4   4    0.85    1.52
  -5  -4   4    0.72    0.60
   5  -4  -4    1.02    0.78
  -5  -4   4   -0.28    1.00
   5  -4  -4    0.42    0.66
  -5   4   4    1.25    0.86
   5   4  -4    0.31    0.69
  -5   4   4    0.33    0.83
   5   4  -4    0.61    0.62
   5   4  -4    0.61    0.87
  -4  -4   4   -0.10    0.71
  -4  -4   4    0.08    1.40
   4  -4  -4    0.13    0.83
   4  -4  -4    0.87    0.54
  -4  -4   4   -0.44    0.92
   4   4  -4    0.78    0.65
   4   4  -4    0.96    0.70
  -4   4   4    0.39    0.80
   4   4  -4   -0.82    0.74
  -4   4   4    1.26    0.80
   3  -4  -4   58.22    2.55
   3  -4  -4   63.92    2.57
  -3  -4   4   64.88    2.50
  -3  -4   4   61.24    2.66
   3  -4  -4   66.23    2.54
  -3  -4   4   62.18    3.16
   3   4  -4   62.25    2.48
   3   4  -4   59.56    2.39
  -3   4   4   63.03    2.57
  -3   4   4   63.59    2.53
   3   4  -4   62.33    2.48
   2  -4  -4   25.66    1.61
  -2  -4   4   26.43    1.32
   2  -4  -4   26.32    1.40
  -2  -4   4   25.56    2.19
  -2  -4   4   27.80    1.47
   2  -4  -4   24.35    1.39
   2   4  -4   27.67    1.53
  -2   4   4   26.59    1.54
  -2   4   4   29.24    1.64
   2   4  -4   28.50    1.49
   2   4  -4   25.78    1.55
   1  -4  -4   17.79    1.27
   1  -4  -4   16.19    1.36
   1   4  -4   13.34    1.10
  -1   4   4   15.36    1.31
   0  -4  -4   55.13    2.15
   0  -4   4   53.42    2.04
   0  -4  -4   53.26    2.09
   0  -4  -4   58.93    2.37
   0  -4  -4   57.95    2.40
   0  -4   4   53.20    2.02
   0   4   4   56.79    2.12
   0   4  -4   53.94    2.17
   0   4  -4   55.17    2.26
   0   4  -4   53.33    1.98
   0   4   4   52.72    2.10
   1  -4   4   46.59    1.74
  -1  -4  -4   46.76    2.09
  -1  -4  -4   44.98    1.82
  -1  -4  -4   43.76    2.03
  -1  -4  -4   47.61    1.96
   1  -4   4   46.96    1.72
   1   4   4   46.38    1.79
   1   4   4   46.72    1.98
  -1   4  -4   46.53    1.95
  -1   4  -4   44.17    1.70
  -1   4  -4   46.38    1.88
  -2  -4  -4   59.98    2.34
  -2  -4  -4   65.35    2.85
  -2  -4  -4   61.61    2.03
  -2  -4  -4   59.94    2.63
   2  -4   4   60.41    2.02
  -2   4  -4   61.26    2.38
   2   4   4   60.82    2.37
  -2   4  -4   62.29    2.39
  -3  -4  -4    9.02    0.98
  -3  -4  -4    7.80    1.28
  -3  -4  -4    8.83    0.85
   3  -4   4    8.79    0.93
   3   4   4    7.40    0.74
  -3   4  -4    7.06    1.00
  -3   4  -4    7.20    0.73
  -4  -4  -4  113.88    4.47
  -4  -4  -4  117.17    4.21
   4  -4   4  117.08    3.83
  -4  -4  -4  111.89    3.81
  -4   4  -4  109.94    3.79
  -4   4  -4  113.68    3.66
  -4   4  -4  112.39    3.98
   4   4   4  112.55    3.83
  -5  -4  -4   75.47    3.10
  -5  -4  -4   75.32    2.81
  -5  -4  -4   78.63    3.50
   5  -4   4   75.07    2.82
   5   4   4   77.32    2.85
  -5   4  -4   76.78    2.71
  -5   4  -4   75.38    2.79
  -6  -4  -4    5.84    1.17
  -6  -4  -4    3.73    1.47
  -6  -4  -4    3.92    0.63
   6  -4   4    5.53    0.85
   6   4   4    4.79    0.82
  -6   4  -4    4.80    0.80
   7  -4   4    5.14    0.86
  -7  -4  -4    2.93    0.83
  -7  -4  -4    3.23    0.75
  -7  -4  -4    4.21    1.29
  -7   4  -4    2.98    0.77
   7   4   4    1.95    0.76
  -9  -5   4   -0.05    1.38
  -9  -5   4   -0.40    1.13
  -9  -5   4    5.67    2.33
  -9   5   4    2.08    0.93
  -8  -5   4   -0.14    1.94
   8  -5  -4    0.24    0.83
  -8  -5   4    1.75    1.11
  -8  -5   4    0.18    1.31
   8   5  -4    0.54    0.76
  -8   5   4    0.16    0.75
   8   5  -4    1.23    1.13
   7  -5  -4    8.54    1.30
  -7  -5   4    3.41    1.11
  -7  -5   4    4.07    1.75
   7   5  -4    2.33    1.11
  -6  -5   4  105.35    4.33
  -6  -5   4  105.82    4.05
  -6  -5   4  102.92    4.45
   6  -5  -4  115.30    4.14
  -6   5   4  104.13    4.01
   6   5  -4  102.87    3.91
   6   5  -4  101.65    3.76
  -6   5   4  105.20    3.81
   6   5  -4  101.28    3.99
  -5  -5   4    1.03    0.89
   5  -5  -4    1.73    1.00
   5  -5  -4    1.64    0.66
  -5  -5   4    2.86    1.16
  -5  -5   4    1.68    1.44
   5   5  -4    1.86    0.81
  -5   5   4    1.40    0.71
  -5   5   4    2.67    0.98
   5   5  -4    1.83    0.99
   5   5  -4    0.65    0.67
   4  -5  -4   95.88    3.57
   4  -5  -4   98.32    3.61
  -4  -5   4   92.17    3.50
  -4  -5   4   99.63    3.91
  -4  -5   4   96.18    3.83
   4  -5  -4   95.87    3.50
   4   5  -4   96.90    3.67
   4   5  -4   95.67    3.69
  -4   5   4   95.60    3.64
  -4   5   4   98.46    3.67
   4   5  -4   97.87    3.53
  -3  -5   4    7.36    1.41
   3  -5  -4    8.48    1.16
  -3  -5   4    9.00    0.93
  -3  -5   4    7.33    0.99
   3  -5  -4    7.50    0.92
   3  -5  -4    9.36    0.96
   3   5  -4    7.97    0.88
   3   5  -4    7.69    1.06
  -3   5   4    9.06    1.18
  -3   5   4   10.92    1.16
   3   5  -4    8.66    1.17
   2  -5  -4  202.03    6.51
  -2  -5   4  195.13    6.34
  -2  -5   4  201.69    6.42
   2  -5  -4  202.84    6.42
   2  -5  -4  197.45    6.35
  -2  -5   4  205.76    6.58
  -2   5   4  199.86    6.43
   2   5  -4  200.38    6.48
   2   5  -4  202.99    6.34
  -2   5   4  199.65    6.34
   2   5  -4  191.42    6.33
  -1  -5   4    4.25    0.66
   1  -5  -4    7.56    0.91
  -1  -5   4    5.34    0.90
   1  -5  -4    7.12    0.99
  -1  -5   4    3.54    1.02
   1  -5  -4    6.56    0.99
   1  -5  -4    7.02    1.07
   1   5  -4    6.75    0.83
  -1   5   4    8.43    0.99
  -1   5   4    8.32    1.05
   1   5  -4    8.20    0.92
   1   5  -4    7.82    1.12
   0  -5  -4  160.46    5.23
   0  -5  -4  165.96    5.31
   0  -5   4  161.51    5.11
   0  -5  -4  152.35    5.31
   0  -5   4  149.32    5.03
   0  -5   4  159.83    5.09
   0  -5  -4  159.31    5.15
   0   5   4  162.76    5.25
   0   5  -4  156.68    5.03
   0   5   4  158.43    5.13
   0   5  -4  154.37    5.19
   0   5  -4  165.48    5.31
  -1  -5  -4   26.08    1.54
  -1  -5  -4   28.10    1.68
   1  -5   4   28.59    1.53
  -1  -5  -4   28.13    1.67
  -1  -5  -4   30.98    1.93
   1  -5   4   29.43    1.40
  -1   5  -4   29.08    1.41
  -1   5  -4   30.57    1.83
  -1   5  -4   29.59    1.80
   1   5   4   30.50    1.75
  -2  -5  -4   19.41    1.82
   2  -5   4   18.49    0.99
   2  -5   4   18.29    1.57
  -2  -5  -4   20.70    1.74
  -2  -5  -4   18.93    1.23
  -2   5  -4   15.54    1.30
  -2   5  -4   19.70    1.53
   2   5   4   19.00    1.26
  -3  -5  -4    6.79    1.28
   3  -5   4    6.99    0.85
  -3  -5  -4    7.26    1.20
  -3  -5  -4    6.16    0.79
   3   5   4    7.41    0.84
  -3   5  -4    5.54    0.79
  -3   5  -4    7.04    0.91
  -4  -5  -4  162.15    5.84
  -4  -5  -4  169.85    5.48
   4  -5   4  169.17    5.49
  -4  -5  -4  166.64    5.98
  -4   5  -4  161.00    5.39
   4   5   4  168.13    5.48
  -4   5  -4  168.90    5.63
  -5  -5  -4   23.83    2.02
   5  -5   4   23.12    1.67
  -5  -5  -4   24.25    2.22
  -5  -5  -4   25.28    1.60
  -5   5  -4   22.54    1.63
   5   5   4   25.33    1.67
  -6  -5  -4    1.99    0.79
   6  -5   4    1.75    0.90
  -6  -5  -4    2.50    1.54
  -6  -5  -4    3.10    1.14
   6   5   4    3.45    0.86
  -6   5  -4    2.41    0.84
  -7  -6   4   52.53    3.88
   7  -6  -4   54.05    2.93
  -7  -6   4   48.26    2.85
  -7  -6   4   50.77    2.80
   7   6  -4   50.90    2.45
  -7   6   4   50.18    2.85
   7   6  -4   54.16    2.91
  -6  -6   4    0.16    0.72
  -6  -6   4    0.85    0.91
  -6  -6   4    2.18    1.51
  -6  -6   4    0.69    1.12
   6  -6  -4   -1.05    1.08
   6   6  -4    1.92    1.11
   6   6  -4    0.71    0.84
  -6   6   4   -0.44    1.07
  -5  -6   4   14.82    1.72
   5  -6  -4   17.97    1.69
   5  -6  -4   16.26    1.37
  -5  -6   4   15.63    1.93
   5   6  -4   13.54    1.36
   5   6  -4   15.90    1.60
   5   6  -4   16.45    1.31
  -5   6   4   15.08    1.40
  -5   6   4   16.33    1.55
  -4  -6   4   20.64    1.75
  -4  -6   4   26.46    1.63
   4  -6  -4   27.52    1.67
   4  -6  -4   25.99    1.84
   4  -6  -4   29.50    2.10
  -4  -6   4   23.06    2.28
   4   6  -4   24.14    1.94
   4   6  -4   26.55    1.84
  -4   6   4   25.68    2.01
   4   6  -4   24.02    1.74
  -4   6   4   25.35    1.70
   3  -6  -4  248.94    7.80
  -3  -6   4  238.95    7.87
   3  -6  -4  243.73    7.76
  -3  -6   4  236.86    7.79
   3  -6  -4  239.65    7.75
  -3  -6   4  250.63    7.75
  -3   6   4  237.74    7.70
   3   6  -4  236.09    7.62
  -3   6   4  237.08    7.69
   3   6  -4  242.90    7.76
   3   6  -4  243.32    7.68
  -2  -6   4   18.23    1.40
   2  -6  -4   17.02    1.39
   2  -6  -4   16.44    1.34
  -2  -6   4   17.30    1.65
  -2  -6   4   16.91    1.27
   2  -6  -4   17.76    1.40
  -2   6   4   16.34    1.50
   2   6  -4   16.93    1.45
   2   6  -4   19.17    1.62
   2   6  -4   17.85    1.54
  -2   6   4   16.24    1.45
   1  -6  -4   14.11    1.38
   1  -6  -4    7.00    0.94
  -1   6   4   10.18    1.03
   0  -6  -4    8.34    1.13
   0  -6  -4    5.41    0.98
   0  -6   4    6.49    0.93
   0  -6   4    6.35    1.22
   0  -6  -4    7.79    1.06
   0  -6  -4    5.48    1.14
   0   6  -4    4.87    0.87
   0   6   4    6.21    1.10
   0   6  -4    8.16    0.98
   0   6  -4    6.99    1.19
   1  -6   4  175.24    5.87
  -1  -6  -4  173.98    5.93
  -1  -6  -4  174.96    6.05
  -1  -6  -4  176.52    5.81
   1  -6   4  164.10    5.51
   1   6   4  173.86    5.81
  -1   6  -4  174.44    5.79
  -1   6  -4  178.01    5.88
  -2  -6  -4   42.30    2.07
  -2  -6  -4   44.06    2.58
  -2  -6  -4   44.82    2.36
   2  -6   4   44.89    2.37
  -2   6  -4   43.52    2.18
   2   6   4   42.86    2.09
  -2   6  -4   47.37    2.37
  -3  -6  -4   54.57    2.62
   3  -6   4   56.78    2.71
  -3  -6  -4   62.54    3.17
  -3  -6  -4   58.78    2.81
  -3   6  -4   58.78    2.71
   3   6   4   58.50    2.67
  -3   6  -4   58.44    2.78
  -4  -6  -4    0.84    0.84
   4  -6   4    0.91    0.99
  -4  -6  -4    1.35    0.94
  -4  -6  -4    0.37    1.13
  -4   6  -4   -0.19    0.90
   4   6   4    1.71    0.90
  -5  -6  -4   68.56    3.95
   5  -6   4   70.03    3.05
  -5  -6  -4   72.91    3.25
  -5  -6  -4   66.41    2.82
  -5   6  -4   65.75    2.83
   5   6   4   66.57    2.99
  -6  -7   4   21.15    1.96
  -6  -7   4   21.27    2.31
   6  -7  -4   20.25    1.98
  -6  -7   4   18.40    1.85
   6   7  -4   19.27    1.74
  -6   7   4   21.17    1.77
   6   7  -4   19.73    1.66
   5  -7  -4   16.70    1.76
  -5  -7   4   11.29    1.54
  -5  -7   4   13.45    1.58
  -5  -7   4   15.94    1.86
  -5  -7   4   12.90    1.67
  -5   7   4   14.05    1.46
  -5   7   4   14.81    1.41
   5   7  -4   13.77    1.64
   5   7  -4   13.14    1.46
  -4  -7   4   30.53    2.04
   4  -7  -4   30.73    2.32
   4  -7  -4   30.63    1.92
  -4  -7   4   28.11    2.15
   4  -7  -4   29.48    1.85
  -4  -7   4   31.75    2.39
  -4  -7   4   31.34    2.38
   4   7  -4   28.56    1.93
   4   7  -4   34.46    2.41
   4   7  -4   29.48    2.08
  -4   7   4   29.63    2.27
  -4   7   4   32.81    2.00
   3  -7  -4    2.43    1.09
  -3  -7   4    1.95    0.80
   3  -7  -4    2.07    0.80
   3  -7  -4    3.28    1.18
  -3  -7   4    3.23    1.20
  -3  -7   4    2.96    0.96
  -3  -7   4    2.63    1.04
   3   7  -4    2.95    1.09
  -3   7   4    2.58    0.88
   3   7  -4    2.79    1.03
   3   7  -4    1.26    1.21
  -3   7   4    1.34    0.80
  -2  -7   4   42.85    2.24
  -2  -7   4   45.10    2.18
  -2  -7   4   47.46    2.54
   2  -7  -4   44.70    2.27
   2  -7  -4   46.68    2.57
   2  -7  -4   44.45    2.48
  -2  -7   4   38.60    2.32
   2   7  -4   42.12    2.38
  -2   7   4   47.02    2.48
   2   7  -4   41.85    2.44
   2   7  -4   43.73    2.65
  -2   7   4   42.38    2.55
  -1  -7   4   49.77    2.50
  -1  -7   4   49.86    2.75
   1  -7  -4   50.41    2.61
   1  -7  -4   52.81    2.51
   1  -7  -4   46.48    2.45
   1  -7  -4   45.83    2.57
   1   7  -4   47.27    2.37
  -1   7   4   50.65    2.70
   1   7  -4   49.74    2.46
   1   7  -4   44.06    2.67
   0  -7   4    1.32    0.83
   0  -7  -4    2.10    0.88
   0  -7  -4    2.25    0.79
   0  -7  -4    2.71    0.89
   0  -7   4    2.40    1.22
   0   7  -4    3.78    1.20
   0   7   4    1.52    0.80
   0   7  -4    1.38    1.06
  -1  -7  -4   23.43    2.17
  -1  -7  -4   26.84    2.06
   1  -7   4   28.95    1.67
   1  -7   4   33.61    2.30
  -1  -7  -4   25.81    1.98
   1   7   4   25.03    2.03
  -1   7  -4   25.42    2.14
  -1   7  -4   28.43    1.85
  -2  -7  -4   17.99    1.50
   2  -7   4   20.09    1.75
  -2  -7  -4   17.71    1.66
  -2  -7  -4   22.33    1.88
  -2   7  -4   20.79    1.63
  -2   7  -4   16.69    1.50
   2   7   4   16.39    1.44
  -3  -7  -4    4.40    1.04
  -3  -7  -4    3.73    1.04
   3  -7   4    5.10    1.03
  -3  -7  -4    4.05    0.91
  -3   7  -4    3.85    1.00
  -3   7  -4    3.96    0.96
   3   7   4    3.81    0.90
  -4  -7  -4   21.34    2.06
  -4  -7  -4   17.27    1.81
  -4   7  -4   19.25    1.75
   4   7   4   18.05    1.59
  -2  -8   4    1.32    1.10
   2  -8  -4    1.56    0.91
   2  -8  -4    2.82    1.22
  -2  -8   4    1.84    1.38
   2  -8  -4    2.78    1.20
   2   8  -4    3.42    1.45
   2   8  -4    1.82    1.67
   2   8  -4    2.83    1.23
  -2   8   4    1.78    1.21
   1  -8  -4   12.51    1.65
  -1  -8   4   16.76    1.62
  -1  -8   4   14.86    1.79
   1  -8  -4   16.61    1.70
  -1   8   4   15.47    1.52
   1   8  -4   12.71    1.75
   1   8  -4   13.88    1.69
   0  -8  -4   12.57    1.62
   0  -8   4   11.56    1.71
   0  -8  -4   13.63    1.50
   0  -8   4   11.02    1.18
   0   8  -4    9.25    1.28
   0   8  -4   14.68    1.55
   0   8   4   10.08    1.58
  11   0  -5   21.17    1.98
 -11   0   5   23.98    2.10
 -11   0   5   25.02    1.81
 -11   0   5   23.95    2.30
  11   0  -5   24.78    1.89
  11   0  -5   21.30    1.93
 -10   0   5    0.12    0.79
  10   0  -5    0.05    0.88
  10   0  -5   -0.28    1.10
 -10   0   5    0.45    1.15
 -10   0   5   -0.72    0.67
  10   0  -5    0.56    0.75
  -9   0   5   59.77    2.92
  -9   0   5   58.82    2.62
   9   0  -5   62.34    3.07
  -9   0   5   58.47    3.73
   9   0  -5   58.22    2.63
   9   0  -5   58.14    2.64
   8   0  -5    0.23    0.71
   8   0  -5   -0.03    0.78
  -8   0   5   -0.27    0.82
  -8   0   5    0.02    0.67
  -8   0   5   -0.16    1.15
  -8   0   5    1.11    0.88
   8   0  -5    0.04    0.87
   7   0  -5   48.71    2.30
   7   0  -5   52.31    2.45
  -7   0   5   53.95    2.31
   7   0  -5   47.54    2.30
  -7   0   5   52.84    2.26
   7   0  -5   54.22    2.30
  -7   0   5   57.67    2.45
   6   0  -5   -0.87    0.69
   6   0  -5   -0.31    0.55
   6   0  -5    0.08    0.90
  -6   0   5    0.19    0.78
   6   0  -5   -0.37    0.71
  -6   0   5    0.51    0.60
  -6   0   5   -0.91    0.70
  -5   0   5  212.15    6.78
   5   0  -5  227.50    6.86
  -5   0   5  220.18    6.79
   5   0  -5  221.39    6.86
  -5   0   5  219.34    6.80
   5   0  -5  222.70    7.01
   5   0  -5  225.66    6.84
  -4   0   5   -0.62    0.72
   4   0  -5    0.15    0.61
   4   0  -5    0.01    0.64
  -4   0   5   -0.06    0.57
   4   0  -5   -0.09    0.43
   4   0  -5   -0.59    0.51
  -4   0   5   -0.59    0.55
   3   0  -5   10.98    0.85
   3   0  -5    9.17    0.78
  -3   0   5   10.85    0.93
  -3   0   5   10.52    0.90
   3   0  -5   10.81    0.89
  -3   0   5    9.56    0.78
   3   0  -5   11.03    0.99
   2   0  -5    0.08    0.31
   2   0  -5    0.30    0.52
  -2   0   5   -0.03    0.30
  -2   0   5    1.59    0.41
  -2   0   5    0.17    0.55
   2   0  -5   -0.37    0.36
   1   0  -5  438.11   12.30
  -1   0   5  451.02   12.20
   1   0  -5  449.68   12.36
   1   0  -5  411.59   12.20
  -1   0   5  403.02   12.19
  -1   0   5  406.06   12.28
   0   0  -5    0.56    0.29
   0   0   5   -0.01    0.15
   0   0  -5    0.16    0.25
   0   0  -5   -0.03    0.27
   0   0   5   -0.18    0.29
   0   0   5   -0.37    0.25
  -1   0  -5   97.57    2.88
   1   0   5   96.96    2.87
  -1   0  -5   96.82    2.88
   1   0   5   97.21    2.88
  -1   0  -5   98.08    3.01
  -1   0  -5   95.08    3.38
  -2   0  -5   -0.10    0.08
  -2   0  -5   -0.19    0.07
  -2   0  -5   -0.33    0.25
  -2   0  -5    0.32    0.50
  -3   0  -5  469.25   13.73
  -3   0  -5  482.31   13.60
  -3   0  -5  476.79   14.13
  -4   0  -5   -0.39    0.41
  -4   0  -5    0.48    0.79
  -5   0  -5  179.12    6.00
  -5   0  -5  175.19    5.36
   6   0   5   -0.12    0.22
  -6   0  -5    0.91    0.73
   7   0   5   76.29    2.47
  -7   0  -5   80.49    3.61
  -8   0  -5   -0.13    0.79
   8   0   5    0.25    0.47
  -8   0  -5   -0.82    0.43
 -11  -1   5   -0.36    0.87
  11  -1  -5    0.60    1.02
 -11  -1   5   -0.39    1.14
 -11  -1   5   -0.68    1.05
 -11  -1   5   -0.24    1.81
  11  -1  -5    0.57    1.13
  11  -1  -5   -0.09    1.32
  11   1  -5    0.19    1.11
 -11   1   5    0.43    1.10
 -11   1   5    1.15    1.10
  11   1  -5   -0.56    0.81
 -11   1   5   -0.78    1.15
  11   1  -5    0.97    1.14
  10  -1  -5   81.06    3.98
 -10  -1   5   86.40    3.77
  10  -1  -5   85.77    3.46
 -10  -1   5   75.28    4.59
 -10  -1   5   90.03    3.62
  10   1  -5   89.75    3.66
 -10   1   5   88.81    3.45
 -10   1   5   74.00    3.77
  10   1  -5   80.43    3.67
  10   1  -5   84.51    3.33
 -10   1   5   83.49    3.73
   9  -1  -5   10.55    1.34
  -9  -1   5    9.80    1.13
   9  -1  -5   12.25    1.65
  -9  -1   5    9.50    1.42
  -9  -1   5   10.46    1.64
  -9   1   5   10.67    1.87
   9   1  -5   10.91    1.22
   9   1  -5   12.40    1.22
   9   1  -5   10.63    1.18
  -9   1   5   10.46    1.43
  -9   1   5    9.81    1.29
  -8  -1   5   50.17    2.58
  -8  -1   5   50.28    3.69
   8  -1  -5   50.99    2.54
   8  -1  -5   53.50    2.65
  -8  -1   5   50.79    2.49
  -8  -1   5   51.77    2.45
  -8   1   5   50.56    2.39
   8   1  -5   55.76    2.26
  -8   1   5   54.24    3.33
   8   1  -5   51.94    2.55
  -8   1   5   55.05    2.64
   8   1  -5   56.53    2.51
   7  -1  -5   41.25    2.56
  -7  -1   5   40.37    2.83
   7  -1  -5   42.69    2.05
  -7  -1   5   38.97    2.10
   7  -1  -5   41.61    2.19
  -7  -1   5   44.07    2.24
  -7  -1   5   44.03    2.21
  -7   1   5   41.54    2.24
   7   1  -5   40.44    1.92
   7   1  -5   41.67    2.17
   7   1  -5   43.45    2.04
   7   1  -5   41.15    2.31
  -7   1   5   40.71    1.91
  -6  -1   5  200.48    6.35
   6  -1  -5  200.01    6.59
  -6  -1   5  200.47    6.29
   6  -1  -5  194.28    6.28
   6  -1  -5  200.63    6.36
  -6  -1   5  202.83    6.30
   6   1  -5  201.66    6.27
   6   1  -5  193.67    6.34
   6   1  -5  200.71    6.41
   6   1  -5  196.16    6.31
  -6   1   5  202.65    6.33
  -6   1   5  197.01    6.30
  -5  -1   5   -0.01    0.47
   5  -1  -5   -0.59    0.47
   5  -1  -5    1.06    0.56
  -5  -1   5    0.14    0.47
  -5  -1   5    1.02    0.81
   5  -1  -5    1.00    0.64
   5   1  -5    0.26    0.77
   5   1  -5    0.53    0.54
   5   1  -5   -0.74    0.61
   5   1  -5    0.37    0.69
  -5   1   5    0.15    0.75
  -5   1   5   -0.14    0.71
   4  -1  -5   45.07    1.98
  -4  -1   5   48.44    1.92
   4  -1  -5   43.67    1.84
  -4  -1   5   43.93    2.07
   4  -1  -5   46.43    2.05
  -4  -1   5   46.02    1.83
   4   1  -5   47.22    1.97
   4   1  -5   46.56    1.88
  -4   1   5   44.90    2.03
   4   1  -5   45.49    1.94
  -4   1   5   45.58    1.82
  -3  -1   5   -0.17    0.34
   3  -1  -5   -0.03    0.49
  -3  -1   5    0.02    0.32
  -3  -1   5    0.43    0.48
   3  -1  -5    0.11    0.57
   3  -1  -5   -0.26    0.39
   3   1  -5   -0.08    0.44
  -3   1   5   -0.45    0.50
  -3   1   5    0.44    0.61
   3   1  -5   -0.17    0.55
   3   1  -5    0.19    0.51
   2  -1  -5  331.88    9.53
   2  -1  -5  325.10    9.63
  -2  -1   5  316.14    9.47
  -2  -1   5  318.27    9.41
  -2  -1   5  324.21    9.57
   2  -1  -5  327.21    9.54
   2   1  -5  325.21    9.57
   2   1  -5  333.10    9.58
  -2   1   5  320.29    9.50
   2   1  -5  332.85    9.49
  -2   1   5  322.19    9.54
  -1  -1   5  103.39    3.20
  -1  -1   5  102.63    2.97
   1  -1  -5  102.34    3.27
  -1  -1   5   96.22    3.03
   1  -1  -5   90.30    3.08
   1  -1  -5  104.95    3.09
  -1   1   5   91.10    3.12
   1   1  -5  104.64    3.19
  -1   1   5   95.19    3.06
   1   1  -5   98.35    3.04
   1   1  -5   97.96    3.17
   0  -1  -5    5.69    0.53
   0  -1   5    5.97    0.55
   0  -1  -5    5.70    0.71
   0  -1  -5    6.64    0.51
   0  -1  -5    5.28    0.70
   0   1  -5    6.28    0.54
   0   1  -5    5.63    0.53
   0   1  -5    5.28    0.48
   0   1   5    5.66    0.50
  -1  -1  -5   22.37    0.86
  -1  -1  -5   22.03    0.95
  -1  -1  -5   23.31    1.31
   1  -1   5   21.04    0.88
   1  -1   5   22.66    0.83
  -1  -1  -5   20.81    1.08
  -1   1  -5   23.64    0.84
   1   1   5   21.71    0.85
  -1   1  -5   22.04    0.99
   1   1   5   21.60    0.87
  -1   1  -5   21.41    0.89
  -2  -1  -5  442.31   12.30
  -2  -1  -5  434.35   12.62
   2  -1   5  413.79   12.27
  -2  -1  -5  427.76   12.31
   2  -1   5  445.10   12.26
  -2  -1  -5  426.09   12.85
   2   1   5  422.64   12.29
  -2   1  -5  430.34   12.29
   2   1   5  430.21   12.28
  -2   1  -5  441.64   12.49
  -2   1  -5  437.44   12.27
  -3  -1  -5    0.85    0.85
   3  -1   5    0.19    0.13
  -3  -1  -5    0.04    0.16
  -3  -1  -5   -0.09    0.32
  -3  -1  -5    0.09    0.15
   3  -1   5    0.20    0.11
   3   1   5   -0.02    0.17
   3   1   5    0.18    0.17
  -3   1  -5    0.28    0.66
  -3   1  -5    0.07    0.12
  -3   1  -5    0.28    0.17
  -3   1  -5    0.54    0.38
  -4  -1  -5    2.43    0.98
  -4  -1  -5    1.67    0.54
  -4  -1  -5    2.05    0.22
  -4  -1  -5    2.47    0.25
  -4   1  -5    2.12    0.18
  -4   1  -5    2.32    0.79
  -4   1  -5    2.22    0.18
   4   1   5    2.08    0.21
   4   1   5    2.11    0.24
  -4   1  -5    2.08    0.44
  -5  -1  -5   55.97    2.15
  -5  -1  -5   60.99    2.84
  -5   1  -5   58.05    2.55
  -5   1  -5   52.67    1.69
   5   1   5   55.42    1.74
  -6  -1  -5  154.59    4.95
  -6  -1  -5  158.61    4.61
  -6  -1  -5  155.05    5.52
   6  -1   5  152.80    4.55
  -6   1  -5  151.31    4.55
   6   1   5  154.82    4.60
  -6   1  -5  159.34    5.39
  -7  -1  -5   20.45    1.88
   7  -1   5   17.70    0.95
  -7  -1  -5   19.70    0.93
   7   1   5   18.25    0.99
  -7   1  -5   18.20    1.59
  -7   1  -5   17.67    0.88
  -8  -1  -5    1.63    1.34
  -8  -1  -5    3.07    0.52
   8  -1   5    2.98    0.59
  -8   1  -5    1.83    1.08
   8   1   5    3.17    0.57
 -10  -2   5    8.20    1.28
  10  -2  -5    8.80    1.45
 -10  -2   5    7.34    2.22
  10  -2  -5    8.84    1.79
 -10  -2   5   10.06    1.22
 -10   2   5    9.50    1.74
 -10   2   5    6.88    1.16
  10   2  -5    7.17    0.91
  10   2  -5    7.49    1.16
  -9  -2   5  119.91    5.54
  -9  -2   5  112.15    4.43
   9  -2  -5  124.89    4.54
   9  -2  -5  128.88    4.98
   9   2  -5  118.07    4.37
   9   2  -5  116.08    4.18
  -9   2   5  113.89    4.81
  -9   2   5  117.40    4.40
   8  -2  -5    4.43    1.08
   8  -2  -5    2.53    1.30
  -8  -2   5    1.80    1.82
  -8  -2   5    2.22    0.95
  -8   2   5    1.43    1.35
   8   2  -5    2.36    0.78
  -8   2   5    1.89    0.64
   8   2  -5    1.51    0.72
  -8   2   5    2.15    1.05
   7  -2  -5    5.84    1.13
  -7  -2   5    7.83    1.56
  -7  -2   5    9.21    1.18
   7  -2  -5    7.38    1.14
   7  -2  -5    7.05    1.04
  -7  -2   5    4.99    1.03
  -7   2   5    7.79    0.93
   7   2  -5    4.47    1.05
   7   2  -5    6.23    0.78
   7   2  -5    7.88    0.94
  -7   2   5    7.08    0.93
   6  -2  -5    2.03    0.85
  -6  -2   5    4.56    1.04
   6  -2  -5    2.82    0.94
   6  -2  -5    4.27    1.24
  -6  -2   5    3.30    0.93
  -6  -2   5    3.73    0.74
  -6   2   5    2.76    0.72
   6   2  -5    2.16    0.76
   6   2  -5    3.46    0.76
   6   2  -5    2.88    0.94
  -6   2   5    3.51    0.93
   5  -2  -5  340.56   10.69
   5  -2  -5  352.64   10.48
  -5  -2   5  346.23   10.49
  -5  -2   5  351.48   10.50
   5  -2  -5  347.42   10.50
   5   2  -5  343.00   10.46
  -5   2   5  364.19   10.52
  -5   2   5  343.38   10.44
   5   2  -5  352.15   10.43
   5   2  -5  354.71   10.52
   4  -2  -5   11.84    1.09
  -4  -2   5   11.26    1.15
   4  -2  -5    9.74    0.99
  -4  -2   5   10.95    0.90
   4  -2  -5   11.80    1.06
   4   2  -5   11.98    1.03
   4   2  -5   11.31    0.98
   4   2  -5   11.00    0.95
  -4   2   5   12.63    1.00
  -4   2   5   12.36    1.08
   3  -2  -5  153.55    4.83
   3  -2  -5  151.57    4.78
  -3  -2   5  152.93    4.85
  -3  -2   5  150.13    4.78
   3  -2  -5  145.97    4.89
   3   2  -5  159.72    4.85
   3   2  -5  151.41    4.78
  -3   2   5  150.26    4.79
   3   2  -5  154.29    4.80
  -2  -2   5    2.21    0.71
   2  -2  -5    2.22    0.59
  -2  -2   5    2.59    0.50
   2  -2  -5    2.37    0.47
   2  -2  -5    2.69    0.72
  -2   2   5    2.07    0.48
   2   2  -5    2.71    0.53
   2   2  -5    1.73    0.49
   2   2  -5    2.45    0.63
   1  -2  -5  132.50    4.11
   1  -2  -5  131.35    4.12
   1  -2  -5  127.25    4.23
  -1  -2   5  129.57    3.99
  -1  -2   5  135.20    4.18
   1  -2  -5  130.26    4.07
   1   2  -5  130.17    4.10
  -1   2   5  129.72    4.11
   1   2  -5  130.55    4.14
   1   2  -5  132.14    4.01
   0  -2   5    4.55    0.51
   0  -2  -5    3.89    0.73
   0  -2  -5    3.13    0.80
   0  -2  -5    4.48    0.52
   0  -2  -5    4.58    0.44
   0  -2  -5    3.72    0.51
   0   2  -5    3.58    0.52
   0   2  -5    3.67    0.33
   0   2  -5    2.61    0.55
   0   2   5    4.65    0.56
  -1  -2  -5  128.01    3.79
  -1  -2  -5  121.17    3.74
  -1  -2  -5  120.84    4.21
   1  -2   5  118.94    3.77
  -1  -2  -5  118.31    4.02
  -1   2  -5  121.44    3.76
  -1   2  -5  123.21    3.87
   1   2   5  119.89    3.75
  -1   2  -5  124.14    3.72
  -2  -2  -5   13.09    1.21
   2  -2   5   12.29    0.90
  -2  -2  -5   12.15    0.59
  -2  -2  -5   12.47    0.82
  -2  -2  -5   14.15    1.13
   2  -2   5   12.43    0.69
  -2  -2  -5   13.68    0.74
  -2   2  -5   16.73    0.87
   2   2   5   12.77    0.78
   2   2   5   13.03    0.75
  -2   2  -5   13.58    0.68
  -2   2  -5   14.88    0.90
  -2   2  -5   14.67    0.45
  -3  -2  -5    3.46    0.80
  -3  -2  -5    3.26    0.44
  -3  -2  -5    3.08    0.41
   3  -2   5    2.94    0.39
  -3  -2  -5    4.27    0.73
   3   2   5    2.60    0.38
  -3   2  -5    2.70    0.58
  -3   2  -5    3.37    0.40
  -3   2  -5    2.84    0.37
  -3   2  -5    3.46    0.25
   3   2   5    2.45    0.40
  -4  -2  -5    1.23    0.72
  -4  -2  -5    1.03    0.65
  -4  -2  -5    1.32    0.37
  -4   2  -5    0.56    0.63
   4   2   5    1.72    0.40
  -4   2  -5    0.58    0.37
  -4   2  -5    1.68    0.35
  -4   2  -5    1.30    0.54
  -5  -2  -5   32.06    1.67
  -5  -2  -5   32.78    1.24
   5  -2   5   26.14    1.20
  -5  -2  -5   32.72    2.03
   5   2   5   27.75    1.19
  -5   2  -5   31.96    1.72
  -5   2  -5   32.63    1.23
  -6  -2  -5    2.57    0.92
  -6  -2  -5    0.76    0.36
  -6  -2  -5    0.99    0.67
   6  -2   5    0.73    0.43
   6   2   5    0.58    0.43
  -6   2  -5    0.34    0.71
  -6   2  -5    0.64    0.34
   7  -2   5    1.48    0.53
  -7  -2  -5    3.46    1.11
  -7  -2  -5    1.85    0.52
  -7  -2  -5    1.96    0.74
  -7   2  -5    2.68    0.89
  -7   2  -5    2.27    0.45
   7   2   5    2.55    0.55
  -8  -2  -5    2.01    1.47
   8  -2   5    1.39    0.60
  -8  -2  -5    0.89    0.57
  -8   2  -5    1.07    0.53
   8   2   5    1.54    0.60
 -10  -3   5    3.20    2.27
 -10  -3   5    1.14    1.11
  10  -3  -5   -0.10    1.17
 -10  -3   5   -0.31    1.34
  10  -3  -5   -0.47    1.60
  10   3  -5   -0.07    1.11
 -10   3   5    3.47    1.29
  10   3  -5    0.81    0.81
   9  -3  -5   19.01    1.70
  -9  -3   5   13.04    1.54
  -9  -3   5   14.84    1.55
  -9  -3   5   18.29    2.62
  -9   3   5   14.23    1.42
   9   3  -5   16.82    1.63
   9   3  -5   17.74    1.27
  -8  -3   5   35.33    3.03
  -8  -3   5   35.65    1.99
  -8  -3   5   40.18    2.57
   8  -3  -5   32.68    1.97
   8   3  -5   37.61    2.24
   8   3  -5   33.79    1.91
  -8   3   5   37.82    2.33
  -8   3   5   35.99    2.53
   7  -3  -5   -0.21    0.93
   7  -3  -5    1.25    0.83
  -7  -3   5    0.34    0.91
  -7  -3   5   -0.18    1.80
  -7   3   5    1.17    0.65
  -7   3   5    0.58    0.97
   7   3  -5    1.43    0.58
   7   3  -5    0.88    0.67
   7   3  -5    0.41    0.68
  -6  -3   5   40.91    2.06
   6  -3  -5   43.10    2.29
  -6  -3   5   47.95    3.04
   6  -3  -5   45.43    2.18
   6   3  -5   45.19    2.30
   6   3  -5   46.19    2.31
  -6   3   5   46.06    2.07
  -6   3   5   47.27    2.34
   6   3  -5   45.79    2.10
  -5  -3   5   24.19    1.43
   5  -3  -5   24.92    1.71
  -5  -3   5   26.07    2.41
   5  -3  -5   25.76    1.62
   5   3  -5   26.02    1.55
   5   3  -5   25.55    1.52
  -5   3   5   23.48    1.75
   5   3  -5   23.49    1.45
  -5   3   5   26.62    1.73
   4  -3  -5   28.82    1.52
   4  -3  -5   30.38    1.56
  -4  -3   5   31.82    1.67
   4   3  -5   29.80    1.69
   4   3  -5   31.81    1.84
  -4   3   5   32.74    1.81
   4   3  -5   29.40    1.48
  -3  -3   5    0.95    0.46
   3  -3  -5   -0.07    0.68
   3  -3  -5    1.56    0.72
   3   3  -5    1.97    0.68
   3   3  -5    0.85    0.79
   3   3  -5    1.20    0.51
  -3   3   5    0.85    0.56
   2  -3  -5   40.26    1.67
   2  -3  -5   37.61    1.75
  -2  -3   5   38.22    1.64
   2  -3  -5   41.33    1.92
   2   3  -5   36.14    1.79
  -2   3   5   36.54    1.81
   2   3  -5   40.98    1.68
   2   3  -5   38.96    1.86
   1  -3  -5    0.93    0.54
   1  -3  -5    2.67    0.62
   1  -3  -5    2.72    0.66
  -1  -3   5    0.80    0.32
  -1   3   5    2.74    0.65
   1   3  -5    2.61    0.68
   0  -3   5    9.59    0.68
   0  -3  -5    9.97    0.84
   0  -3  -5    9.00    1.04
   0  -3  -5    8.64    0.98
   0  -3  -5   10.72    0.85
   0  -3  -5   11.44    0.82
   0   3   5    9.04    0.85
   0   3  -5   10.86    0.90
   0   3  -5    9.12    0.66
   0   3  -5   11.84    0.92
  -1  -3  -5  119.58    3.57
  -1  -3  -5  116.96    3.78
  -1  -3  -5  116.43    4.20
  -1  -3  -5  113.81    3.99
   1   3   5  120.77    3.81
  -1   3  -5  120.43    3.82
  -1   3  -5  118.56    3.94
  -2  -3  -5   77.03    3.08
   2  -3   5   78.84    2.42
  -2  -3  -5   76.56    2.65
  -2  -3  -5   79.60    2.92
  -2   3  -5   78.54    2.85
  -2   3  -5   77.62    2.67
   2   3   5   78.25    2.67
  -3  -3  -5    1.29    0.47
  -3  -3  -5    0.35    0.69
  -3  -3  -5    0.48    0.52
  -3   3  -5    1.62    0.69
  -3   3  -5    0.28    0.30
  -3   3  -5    1.31    0.51
   3   3   5    0.68    0.47
  -4  -3  -5    0.38    0.52
  -4  -3  -5    0.20    0.72
  -4  -3  -5    0.99    0.45
   4   3   5    0.79    0.47
  -4   3  -5    0.30    0.44
  -4   3  -5    0.69    0.47
   5  -3   5   37.79    1.65
  -5  -3  -5   40.22    2.07
  -5  -3  -5   35.97    2.68
  -5  -3  -5   35.99    1.54
  -5   3  -5   37.21    1.61
   5   3   5   36.80    1.58
  -6  -3  -5    4.21    1.44
   6  -3   5   -0.58    0.47
   6   3   5    0.68    0.49
  -6   3  -5    0.86    0.50
  -7  -3  -5   33.95    3.03
   7  -3   5   31.25    1.60
  -7  -3  -5   31.56    1.96
  -7  -3  -5   30.14    1.55
   7   3   5   30.16    1.60
  -7   3  -5   30.48    1.55
  -9  -4   5    4.64    1.18
  -9  -4   5    4.79    2.36
   9  -4  -5    4.77    1.29
  -9  -4   5    4.56    1.24
  -9   4   5    3.77    1.27
   9   4  -5    5.09    1.29
   9   4  -5    5.21    0.98
   8  -4  -5   39.60    2.43
  -8  -4   5   42.06    3.38
  -8  -4   5   32.33    2.29
  -8  -4   5   36.57    2.35
   8   4  -5   37.94    2.03
  -8   4   5   37.28    2.42
   8   4  -5   38.10    2.13
  -7  -4   5    1.81    0.99
  -7  -4   5    3.61    1.91
   7  -4  -5    3.29    0.85
  -7  -4   5    1.70    0.94
  -7   4   5    2.86    0.98
   7   4  -5    2.94    1.23
   7   4  -5    2.19    0.85
   7   4  -5    0.74    0.76
  -7   4   5    1.88    0.80
   6  -4  -5    6.39    1.17
  -6  -4   5    3.66    1.85
  -6  -4   5    5.22    1.03
  -6  -4   5    6.01    0.91
   6  -4  -5    5.19    1.01
  -6   4   5    2.78    1.01
   6   4  -5    6.31    1.14
   6   4  -5    3.74    0.87
   6   4  -5    4.37    0.92
  -6   4   5    5.75    0.93
  -5  -4   5    0.80    0.65
  -5  -4   5    1.72    1.10
   5  -4  -5    3.03    1.00
  -5  -4   5    2.51    1.69
   5  -4  -5    1.33    0.86
   5   4  -5    1.40    0.91
  -5   4   5    2.62    0.95
   5   4  -5    2.23    0.82
   5   4  -5    0.99    0.71
   4  -4  -5   33.97    1.88
  -4  -4   5   33.30    2.98
   4  -4  -5   31.22    1.70
  -4  -4   5   31.94    1.85
  -4  -4   5   33.58    1.83
   4   4  -5   32.21    1.67
   4   4  -5   33.21    1.82
  -4   4   5   34.76    1.98
   4   4  -5   30.82    2.01
   3  -4  -5   14.84    1.17
   3  -4  -5   14.87    1.31
   3  -4  -5   17.26    1.32
  -3  -4   5   16.92    1.12
  -3  -4   5   16.11    1.40
   3   4  -5   12.64    1.31
   3   4  -5   16.52    1.24
   3   4  -5   16.12    1.25
  -3   4   5   18.83    1.56
   2  -4  -5   30.14    1.80
   2  -4  -5   29.81    1.68
  -2   4   5   27.54    1.73
  -1  -4   5   37.39    1.64
   1  -4  -5   36.86    1.95
   1  -4  -5   38.53    1.80
   1  -4  -5   37.21    1.70
  -1  -4   5   38.01    1.69
   1  -4  -5   40.10    2.03
  -1   4   5   38.04    1.73
   1   4  -5   38.91    1.96
   1   4  -5   38.02    1.75
   1   4  -5   36.62    1.67
   0  -4  -5  121.81    3.99
   0  -4   5  124.76    3.92
   0  -4  -5  126.81    4.07
   0  -4  -5  122.22    4.25
   0  -4   5  123.03    4.00
   0  -4  -5  121.53    4.32
   0   4   5  122.92    4.07
   0   4  -5  123.84    4.21
   0   4  -5  121.47    3.90
   0   4  -5  123.34    4.16
   1  -4   5   13.50    1.00
  -1  -4  -5   15.09    1.38
  -1  -4  -5   14.93    1.00
  -1  -4  -5   12.87    0.92
  -1  -4  -5   13.78    1.23
  -1  -4  -5   15.37    1.21
  -1   4  -5   16.51    1.25
   1   4   5   13.32    1.01
  -1   4  -5   14.68    1.14
   2  -4   5   27.89    1.11
  -2  -4  -5   23.64    2.01
  -2  -4  -5   26.63    1.46
  -2  -4  -5   27.53    1.79
  -2   4  -5   26.85    1.47
  -2   4  -5   26.22    1.49
   2   4   5   28.75    1.51
  -3  -4  -5   21.49    1.31
  -3  -4  -5   23.38    1.52
  -3  -4  -5   23.22    1.75
  -3   4  -5   23.40    1.38
  -3   4  -5   20.05    1.35
   3   4   5   23.53    1.38
  -4  -4  -5   83.91    2.99
   4  -4   5   86.25    3.10
  -4  -4  -5   79.05    3.40
  -4  -4  -5   81.32    3.59
   4   4   5   81.68    2.99
  -4   4  -5   84.67    3.21
  -4   4  -5   86.26    3.01
  -5  -4  -5   38.87    1.77
  -5  -4  -5   41.94    2.95
   5  -4   5   37.81    1.80
  -5  -4  -5   32.77    1.97
   5   4   5   35.88    1.77
   6  -4   5    0.76    0.70
  -6  -4  -5    1.98    0.66
  -6  -4  -5    2.44    0.81
  -6  -4  -5    3.66    1.54
   6   4   5    3.45    0.74
  -6   4  -5    2.57    0.71
  -7  -4  -5    7.44    0.90
  -7  -4  -5    8.86    2.04
  -7  -4  -5    5.92    1.03
   7  -4   5    6.30    0.93
  -7   4  -5    8.79    1.05
   7   4   5    8.04    0.98
  -8  -5   5    3.82    1.14
   8  -5  -5    3.36    1.22
  -8  -5   5    3.68    2.06
  -8  -5   5    3.33    1.21
   8   5  -5    2.70    0.92
  -8   5   5    3.93    1.29
   8   5  -5    1.85    1.21
   7  -5  -5  189.88    6.47
  -7  -5   5  192.25    6.47
  -7  -5   5  185.20    6.75
  -7  -5   5  186.48    7.03
   7   5  -5  188.53    6.19
   7   5  -5  189.74    6.50
  -7   5   5  180.10    6.34
   6  -5  -5    2.44    0.74
  -6  -5   5    0.72    1.19
   6  -5  -5    0.19    0.76
  -6  -5   5    0.58    1.68
  -6  -5   5    2.38    1.04
   6   5  -5    0.93    0.86
   6   5  -5    1.94    0.80
  -6   5   5    2.43    1.04
   6   5  -5    1.51    0.78
  -5  -5   5   53.06    2.99
   5  -5  -5   54.29    2.49
  -5  -5   5   53.61    2.57
  -5  -5   5   51.95    2.82
   5  -5  -5   53.87    2.56
   5   5  -5   54.52    2.47
   5   5  -5   57.11    2.72
  -5   5   5   56.60    2.68
   5   5  -5   55.25    2.34
  -4  -5   5    5.11    0.82
  -4  -5   5    3.71    1.55
   4  -5  -5    6.04    1.10
   4  -5  -5    6.33    0.95
  -4  -5   5    6.85    1.26
   4  -5  -5    5.60    1.08
   4   5  -5    5.48    1.00
  -4   5   5    5.29    1.05
   4   5  -5    5.80    1.08
  -4   5   5    4.29    0.85
   4   5  -5    5.92    0.95
  -3  -5   5  122.40    4.36
   3  -5  -5  122.72    4.45
   3  -5  -5  123.93    4.36
  -3  -5   5  128.25    4.48
  -3  -5   5  131.14    4.93
   3  -5  -5  127.64    4.48
   3   5  -5  126.94    4.41
  -3   5   5  128.50    4.50
   3   5  -5  129.38    4.45
  -3   5   5  124.47    4.34
   3   5  -5  130.08    4.45
  -2  -5   5    2.33    0.58
   2  -5  -5    5.15    0.96
   2  -5  -5    3.20    0.72
   2  -5  -5    2.75    0.74
  -2  -5   5    2.08    0.68
  -2  -5   5    2.37    0.93
   2   5  -5    3.15    1.01
  -2   5   5    3.49    0.98
  -2   5   5    4.46    0.87
   2   5  -5    1.27    0.86
   2   5  -5    4.39    0.83
   1  -5  -5  152.65    5.30
   1  -5  -5  158.26    5.48
  -1  -5   5  159.42    5.46
   1  -5  -5  163.68    5.33
   1  -5  -5  156.42    5.22
  -1  -5   5  158.64    5.15
  -1  -5   5  162.27    5.27
   1   5  -5  159.94    5.35
  -1   5   5  165.30    5.36
   1   5  -5  163.25    5.38
  -1   5   5  158.57    5.19
   1   5  -5  159.94    5.16
   0  -5  -5    9.84    1.09
   0  -5  -5    8.45    1.22
   0  -5   5    9.88    0.89
   0  -5  -5   10.04    1.16
   0  -5  -5   10.55    1.02
   0   5  -5   10.19    0.90
   0   5  -5    7.89    0.95
   0   5   5    9.57    1.14
   0   5  -5    9.73    1.15
  -1  -5  -5   52.35    2.22
  -1  -5  -5   61.96    2.71
  -1  -5  -5   54.05    2.49
   1  -5   5   51.71    2.06
  -1   5  -5   66.04    2.61
   1   5   5   49.12    2.20
  -1   5  -5   51.26    2.27
  -2  -5  -5   22.86    1.35
  -2  -5  -5   24.30    1.63
  -2  -5  -5   25.79    2.08
  -2   5  -5   23.11    1.64
   2   5   5   21.86    1.36
  -2   5  -5   20.46    1.46
  -3  -5  -5   65.81    3.28
  -3  -5  -5   62.22    2.82
  -3  -5  -5   61.54    2.59
   3  -5   5   66.00    2.70
  -3   5  -5   69.03    2.86
  -3   5  -5   58.14    2.48
   3   5   5   62.89    2.63
  -4  -5  -5    8.64    1.56
  -4  -5  -5    9.04    1.38
  -4  -5  -5    9.09    0.90
   4  -5   5    8.29    0.93
  -4   5  -5    7.95    1.18
  -4   5  -5    8.17    1.10
   4   5   5    7.20    1.03
  -5  -5  -5   13.34    1.21
   5  -5   5   13.94    1.30
  -5  -5  -5   14.84    1.74
  -5  -5  -5   12.93    1.40
   5   5   5   16.66    1.43
  -5   5  -5   13.86    1.26
  -6  -5  -5   11.58    1.37
   6  -5   5   10.56    1.22
  -6  -5  -5   15.24    2.22
  -6  -5  -5   10.64    1.17
  -6   5  -5   12.68    1.23
   6   5   5   11.57    1.20
  -7  -6   5    0.59    1.16
  -7  -6   5    4.28    1.91
  -7  -6   5    1.77    1.49
   7  -6  -5    2.00    1.25
  -7   6   5    4.96    1.34
   7   6  -5    1.85    0.97
   7   6  -5    4.06    1.32
  -6  -6   5   43.26    3.32
  -6  -6   5   43.59    2.27
  -6  -6   5   36.82    2.41
   6  -6  -5   37.58    2.24
   6   6  -5   38.65    2.53
   6   6  -5   42.43    2.29
  -6   6   5   39.24    2.46
   5  -6  -5   26.18    1.86
  -5  -6   5   29.33    1.82
  -5  -6   5   27.73    2.72
   5  -6  -5   27.93    1.76
  -5  -6   5   26.38    1.98
   5   6  -5   24.36    1.81
   5   6  -5   26.69    1.92
  -5   6   5   29.29    2.10
  -5   6   5   28.43    2.15
   5   6  -5   26.66    2.18
   4  -6  -5  189.00    6.43
   4  -6  -5  185.40    6.30
  -4  -6   5  185.88    6.54
  -4  -6   5  195.28    6.59
   4  -6  -5  192.55    6.38
  -4  -6   5  183.00    6.25
   4   6  -5  189.90    6.37
  -4   6   5  193.21    6.38
  -4   6   5  182.72    6.28
   4   6  -5  190.67    6.37
   4   6  -5  190.27    6.30
   3  -6  -5   23.53    1.90
  -3  -6   5   23.86    1.51
   3  -6  -5   21.02    1.85
   3  -6  -5   21.98    1.92
  -3  -6   5   22.08    1.89
  -3  -6   5   20.55    1.63
  -3   6   5   23.57    1.98
  -3   6   5   24.06    1.57
   3   6  -5   23.94    1.88
   3   6  -5   24.03    1.79
   3   6  -5   22.45    1.68
   2  -6  -5    1.51    0.72
  -2  -6   5    1.91    0.92
  -2  -6   5    1.46    1.01
   2  -6  -5    2.72    1.06
  -2  -6   5    2.88    0.84
   2  -6  -5    1.67    0.94
  -2   6   5    2.62    0.93
  -2   6   5    3.17    1.08
   2   6  -5    2.00    0.75
   2   6  -5    3.25    0.89
   2   6  -5    1.45    1.12
   1  -6  -5    3.74    0.97
   1  -6  -5    2.95    0.77
  -1  -6   5    3.30    0.71
  -1  -6   5    2.69    0.95
   1  -6  -5    3.26    0.89
   1  -6  -5    4.01    1.10
  -1   6   5    2.83    0.83
   1   6  -5    3.80    1.16
   1   6  -5    1.45    0.98
   1   6  -5    3.42    0.67
   0  -6  -5  202.10    6.70
   0  -6  -5  195.21    6.52
   0  -6  -5  192.51    6.37
   0  -6   5  200.82    6.29
   0   6  -5  193.78    6.49
   0   6  -5  185.61    6.45
   0   6   5  195.85    6.39
   1  -6   5   15.80    1.17
  -1  -6  -5   14.83    1.60
  -1  -6  -5   14.40    1.51
   1  -6   5   13.95    1.28
  -1  -6  -5   14.25    1.35
   1   6   5   15.20    1.42
  -1   6  -5   16.11    1.51
  -1   6  -5   14.83    1.28
  -2  -6  -5   12.69    1.27
  -2  -6  -5   10.57    1.49
  -2  -6  -5   14.60    1.60
   2  -6   5    7.89    1.26
   2   6   5   10.76    1.27
  -2   6  -5   12.00    1.36
  -2   6  -5   13.86    1.30
  -3  -6  -5    1.27    0.86
  -3  -6  -5    1.18    1.11
  -3  -6  -5    2.40    0.93
   3  -6   5    0.22    0.69
   3   6   5    2.09    0.90
  -3   6  -5    1.11    0.70
  -3   6  -5    1.34    1.04
  -4  -6  -5   28.34    2.34
  -4  -6  -5   27.59    2.02
   4  -6   5   28.44    2.01
  -4  -6  -5   30.93    1.92
  -4   6  -5   26.45    1.96
   4   6   5   29.53    1.97
  -4   6  -5   28.73    1.87
  -5  -6  -5   -0.05    0.60
   5  -6   5   -0.28    0.98
  -5  -6  -5    1.36    1.26
  -5  -6  -5    1.09    1.52
  -5   6  -5    0.86    0.98
   5   6   5    0.79    0.91
  -5  -7   5    0.04    1.28
  -5  -7   5    0.35    1.08
  -5  -7   5   -0.62    1.31
   5  -7  -5    0.71    1.24
  -5  -7   5   -0.93    1.24
   5   7  -5    0.93    1.16
  -5   7   5    0.39    0.82
  -5   7   5    0.88    0.84
   5   7  -5    0.81    1.24
   5   7  -5    1.33    1.06
  -4  -7   5    0.04    1.04
   4  -7  -5    1.01    1.16
  -4  -7   5    0.98    0.95
  -4  -7   5    0.52    0.85
   4  -7  -5    0.80    0.77
   4  -7  -5    2.01    1.13
  -4  -7   5    0.57    0.90
  -4   7   5    1.90    1.09
   4   7  -5    0.74    0.78
   4   7  -5   -0.81    1.17
  -4   7   5    1.02    1.18
   4   7  -5   -0.08    0.73
  -3  -7   5   34.43    2.35
   3  -7  -5   29.69    2.01
  -3  -7   5   36.48    2.21
   3  -7  -5   36.59    2.34
   3  -7  -5   33.40    2.34
  -3  -7   5   32.28    2.29
   3   7  -5   31.34    1.96
   3   7  -5   33.06    2.20
  -3   7   5   35.17    2.26
   3   7  -5   31.62    2.44
  -3   7   5   32.63    2.37
  -2  -7   5   35.95    2.05
   2  -7  -5   34.93    2.02
  -2  -7   5   34.19    2.52
   2  -7  -5   35.55    2.31
   2  -7  -5   36.87    2.42
   2   7  -5   34.04    2.15
   2   7  -5   34.83    2.15
  -2   7   5   37.12    2.44
   2   7  -5   34.51    2.29
  -1  -7   5   10.41    1.14
   1  -7  -5   16.51    1.59
   1  -7  -5   11.01    1.24
  -1  -7   5   11.18    1.31
   1  -7  -5   13.74    1.61
   1   7  -5   12.81    1.58
  -1   7   5   10.83    1.45
   1   7  -5   12.65    1.49
   0  -7  -5    9.59    1.30
   0  -7   5    9.17    1.21
   0  -7  -5    9.03    1.50
   0  -7  -5    9.07    1.14
   0  -7   5   11.05    1.17
   0   7   5    9.79    1.21
   0   7  -5   10.42    1.44
   0   7  -5   10.60    1.52
  -1  -7  -5   73.71    3.51
   1  -7   5   79.84    3.53
  -1  -7  -5   77.23    3.67
  -1  -7  -5   84.04    3.46
   1   7   5   83.86    3.48
  -1   7  -5   77.81    3.31
  -1   7  -5   76.66    3.32
  -2  -7  -5    2.43    1.21
  -2  -7  -5    0.96    0.86
   2  -7   5    0.43    1.13
  -2  -7  -5    0.33    0.98
   2   7   5    0.04    1.03
  -2   7  -5    2.48    1.15
  -2   7  -5    0.59    0.81
  -3  -7  -5   26.65    2.51
  -3  -7  -5   19.65    1.75
   3  -7   5   18.47    1.77
  -3  -7  -5   21.52    2.04
   3   7   5   18.89    1.74
  -3   7  -5   20.04    1.67
  -3   7  -5   20.63    1.82
  11   0  -6   -0.78    1.23
 -11   0   6   -0.09    1.81
 -11   0   6   -0.51    0.85
  11   0  -6   -0.86    0.95
  11   0  -6    0.50    0.84
 -11   0   6   -0.54    0.76
 -10   0   6   45.22    2.42
  10   0  -6   51.60    3.07
  10   0  -6   47.06    2.47
 -10   0   6   48.79    2.85
 -10   0   6   52.77    3.82
  10   0  -6   50.00    2.35
  -9   0   6   -0.37    0.71
   9   0  -6   -1.53    0.94
   9   0  -6    0.42    0.67
  -9   0   6   -1.23    1.74
   9   0  -6   -0.15    0.80
  -9   0   6    0.12    0.66
   8   0  -6   35.55    2.07
  -8   0   6   38.66    2.17
   8   0  -6   35.15    2.03
  -8   0   6   38.33    2.25
   8   0  -6   37.69    2.19
   8   0  -6   32.93    1.92
  -8   0   6   37.16    2.15
  -7   0   6   -0.47    0.90
  -7   0   6   -0.09    0.61
   7   0  -6    0.49    0.75
   7   0  -6   -0.41    0.83
   7   0  -6    0.35    0.87
   7   0  -6    0.52    0.63
  -7   0   6    1.40    0.85
   6   0  -6  252.73    7.71
   6   0  -6  250.35    7.96
  -6   0   6  246.48    7.75
  -6   0   6  245.62    7.73
   6   0  -6  247.44    7.72
   6   0  -6  252.99    7.70
  -6   0   6  243.71    7.75
  -5   0   6   -0.57    0.47
  -5   0   6    0.77    0.85
   5   0  -6    0.37    0.62
   5   0  -6   -0.37    0.55
   5   0  -6   -0.17    0.73
   5   0  -6   -0.25    0.72
  -5   0   6    0.77    0.69
   4   0  -6   14.97    1.29
  -4   0   6   14.65    1.23
   4   0  -6   15.79    1.08
  -4   0   6   15.38    1.16
  -4   0   6   15.19    1.17
   4   0  -6   14.04    1.23
   4   0  -6   16.37    1.32
   3   0  -6   -1.52    0.59
  -3   0   6   -0.31    0.67
  -3   0   6   -0.34    0.33
   3   0  -6   -0.29    0.36
  -3   0   6    0.34    0.35
   3   0  -6    0.30    0.63
  -2   0   6  894.63   26.05
  -2   0   6  939.84   26.01
   2   0  -6  909.84   26.14
  -2   0   6  954.04   26.16
   2   0  -6  872.93   26.04
   2   0  -6  914.54   26.16
  -1   0   6    0.19    0.27
   1   0  -6    0.02    0.24
   1   0  -6    0.36    0.49
  -1   0   6    0.55    0.47
   1   0  -6    0.39    0.33
  -1   0   6   -0.14    0.23
   0   0   6   27.19    0.93
   0   0  -6   27.70    1.25
   0   0  -6   26.87    1.09
   0   0   6   25.51    1.13
   0   0  -6   27.59    1.12
  -1   0  -6    0.28    0.22
   1   0   6   -0.40    0.23
   1   0   6    0.14    0.12
   1   0   6   -0.13    0.21
  -1   0  -6   -0.83    0.33
  -1   0  -6   -0.15    0.30
  -2   0  -6  456.07   13.78
   2   0   6  462.97   13.12
  -2   0  -6  466.52   13.13
  -2   0  -6  457.47   13.13
  -2   0  -6  477.63   13.30
   2   0   6  454.67   13.12
  -3   0  -6   -0.21    0.60
  -3   0  -6   -0.17    0.33
  -4   0  -6  219.55    7.18
  -5   0  -6    0.22    0.95
  -6   0  -6  123.27    4.78
  -7   0  -6    0.61    1.12
  -7   0  -6   -0.03    0.27
 -11  -1   6   15.77    2.22
 -11  -1   6   16.49    1.84
 -11  -1   6   18.03    1.81
  11  -1  -6   22.09    1.83
  11  -1  -6   19.21    1.87
 -11   1   6   17.11    1.80
 -11   1   6   18.15    2.43
  11   1  -6   18.16    1.75
 -11   1   6   19.49    1.98
  11   1  -6   20.38    1.65
 -10  -1   6   12.67    1.44
 -10  -1   6   15.89    1.49
 -10  -1   6   17.08    2.59
  10  -1  -6   15.77    1.47
  10  -1  -6   17.39    1.74
 -10   1   6   16.99    1.95
  10   1  -6   18.24    1.82
  10   1  -6   16.99    1.50
 -10   1   6   18.44    1.55
  10   1  -6   14.43    1.64
 -10   1   6   16.59    1.54
  -9  -1   6   76.70    3.32
   9  -1  -6   82.17    3.77
  -9  -1   6   78.24    4.66
  -9  -1   6   69.67    3.17
   9  -1  -6   76.10    3.20
   9   1  -6   76.42    3.37
  -9   1   6   72.73    3.20
   9   1  -6   83.33    3.59
  -9   1   6   75.89    4.17
   9   1  -6   76.94    3.03
  -9   1   6   78.32    3.17
  -8  -1   6   11.09    1.20
   8  -1  -6   13.07    1.39
   8  -1  -6   12.18    1.38
  -8  -1   6   10.29    1.12
  -8  -1   6   10.62    2.25
   8  -1  -6    9.71    1.05
  -8  -1   6   11.98    1.33
   8   1  -6   10.14    1.20
   8   1  -6   11.28    1.45
   8   1  -6   12.50    1.37
  -8   1   6   12.36    1.28
   8   1  -6    8.83    1.21
  -8   1   6    9.15    1.15
  -8   1   6   12.11    1.17
   7  -1  -6   57.83    2.63
  -7  -1   6   62.18    2.58
  -7  -1   6   65.89    2.82
   7  -1  -6   62.57    2.83
  -7  -1   6   63.06    2.71
   7  -1  -6   62.94    2.77
   7   1  -6   56.22    2.69
  -7   1   6   63.21    2.60
   7   1  -6   55.31    2.48
  -7   1   6   62.33    2.74
   7   1  -6   60.76    2.61
  -7   1   6   60.31    2.69
   7   1  -6   62.51    2.59
   6  -1  -6  143.52    4.86
  -6  -1   6  136.51    4.64
  -6  -1   6  135.07    4.59
   6  -1  -6  137.93    4.72
  -6  -1   6  134.51    4.67
   6  -1  -6  139.44    4.69
  -6   1   6  135.07    4.62
   6   1  -6  137.29    4.64
   6   1  -6  149.80    4.75
  -6   1   6  134.69    4.61
   6   1  -6  134.80    4.70
  -5  -1   6   67.42    2.79
  -5  -1   6   66.98    2.61
   5  -1  -6   65.03    2.64
   5  -1  -6   61.16    2.63
  -5  -1   6   64.84    2.58
   5  -1  -6   64.38    2.73
   5   1  -6   65.89    2.71
  -5   1   6   66.42    2.63
  -5   1   6   67.57    2.62
   5   1  -6   66.64    2.53
   5   1  -6   62.00    2.60
  -5   1   6   67.91    2.74
  -4  -1   6   27.23    1.44
   4  -1  -6   30.39    1.45
  -4  -1   6   27.57    1.47
   4  -1  -6   26.92    1.88
   4  -1  -6   25.25    1.55
  -4  -1   6   26.02    1.73
   4   1  -6   26.78    1.57
  -4   1   6   27.32    1.51
   4   1  -6   28.20    1.55
  -4   1   6   24.54    1.43
   4   1  -6   28.04    1.65
  -4   1   6   27.76    1.36
  -3  -1   6  321.30    9.50
  -3  -1   6  321.87    9.43
   3  -1  -6  313.09    9.70
   3  -1  -6  324.80    9.55
   3  -1  -6  323.62    9.56
  -3  -1   6  317.47    9.60
  -3   1   6  317.92    9.49
   3   1  -6  326.21    9.61
   3   1  -6  325.82    9.61
  -3   1   6  322.97    9.54
  -3   1   6  321.00    9.59
   3   1  -6  321.56    9.52
   2  -1  -6  120.17    3.84
  -2  -1   6  124.05    3.73
   2  -1  -6  120.70    3.90
  -2  -1   6  132.73    4.00
  -2  -1   6  117.20    3.76
   2  -1  -6  124.66    4.07
  -2   1   6  123.80    3.84
  -2   1   6  114.79    3.76
   2   1  -6  122.91    3.91
   2   1  -6  117.50    3.93
   2   1  -6  117.13    3.77
  -2   1   6  122.95    3.93
  -1  -1   6  137.06    3.98
  -1  -1   6  134.69    4.03
   1  -1  -6  133.50    4.19
  -1  -1   6  132.46    4.24
   1  -1  -6  133.93    4.23
   1  -1  -6  135.19    4.06
  -1   1   6  129.42    4.06
   1   1  -6  138.13    4.03
  -1   1   6  134.15    4.20
   1   1  -6  136.20    4.28
   1   1  -6  134.20    4.23
   0  -1   6   92.27    3.02
   0  -1  -6   96.01    2.99
   0  -1  -6   92.15    3.02
   0   1  -6   95.27    3.02
   0   1  -6   94.09    2.95
   0   1  -6   93.29    3.06
   0   1   6   94.49    2.99
   1  -1   6  275.45    8.01
  -1  -1  -6  274.39    8.58
   1  -1   6  269.94    8.04
  -1  -1  -6  276.14    8.06
  -1  -1  -6  281.08    8.03
  -1  -1  -6  277.53    8.31
   1   1   6  266.32    8.03
   1   1   6  285.66    8.04
  -1   1  -6  282.04    8.19
  -1   1  -6  276.98    8.01
  -1   1  -6  277.77    8.05
  -2  -1  -6    0.48    0.31
  -2  -1  -6   -0.08    0.55
   2  -1   6    0.48    0.23
   2  -1   6    0.96    0.31
  -2  -1  -6    0.76    0.27
  -2  -1  -6    0.68    0.86
   2   1   6    0.83    0.29
   2   1   6    0.76    0.29
  -2   1  -6    0.87    0.31
  -2   1  -6    0.80    0.20
  -2   1  -6    1.53    0.47
  -3  -1  -6    5.16    0.41
   3  -1   6    5.50    0.42
  -3  -1  -6    6.07    1.12
  -3  -1  -6    6.41    0.66
  -3  -1  -6    5.57    0.37
   3  -1   6    5.66    0.35
  -3   1  -6    5.80    0.35
   3   1   6    5.66    0.42
  -3   1  -6    5.34    0.59
   3   1   6    5.75    0.41
  -3   1  -6    5.27    0.42
  -3   1  -6    5.22    0.78
  -4  -1  -6   40.34    1.30
   4  -1   6   40.03    1.24
  -4  -1  -6   40.91    1.31
   4  -1   6   39.70    1.22
  -4  -1  -6   41.34    2.16
  -4  -1  -6   40.43    1.77
  -4   1  -6   42.09    1.58
   4   1   6   41.12    1.28
  -4   1  -6   41.17    1.26
  -4   1  -6   39.24    1.24
  -4   1  -6   38.51    1.96
  -5  -1  -6  170.39    4.89
  -5  -1  -6  170.24    6.02
  -5  -1  -6  168.00    5.34
  -5   1  -6  170.78    5.76
  -5   1  -6  165.54    4.84
   5   1   6  165.93    4.88
  -6  -1  -6    5.34    0.46
  -6  -1  -6    5.86    1.40
   6  -1   6    5.47    0.39
  -6   1  -6    4.67    1.12
   6   1   6    5.25    0.41
  -6   1  -6    5.02    0.44
  -7  -1  -6   -0.04    1.28
  -7  -1  -6    0.06    0.33
  -7   1  -6    0.45    0.29
  -7   1  -6    0.08    0.96
  10  -2  -6  123.12    5.14
 -10  -2   6  110.35    4.55
  10  -2  -6  116.69    4.62
 -10  -2   6  120.70    5.94
  10   2  -6  113.65    4.29
  10   2  -6  120.56    4.67
 -10   2   6  112.83    4.65
 -10   2   6  120.41    5.09
   9  -2  -6   20.64    1.84
   9  -2  -6   28.26    2.37
  -9  -2   6   29.42    2.10
  -9  -2   6   25.94    2.48
   9   2  -6   23.67    2.07
  -9   2   6   25.15    1.99
   9   2  -6   24.54    1.78
  -9   2   6   26.68    2.37
  -8  -2   6   44.97    2.40
  -8  -2   6   41.48    2.35
  -8  -2   6   39.72    2.40
   8  -2  -6   41.77    2.41
  -8  -2   6   41.97    3.27
   8  -2  -6   40.69    2.47
  -8   2   6   37.11    2.23
   8   2  -6   43.00    2.13
   8   2  -6   43.01    2.42
   8   2  -6   42.45    1.99
  -8   2   6   43.13    2.46
  -7  -2   6   27.01    1.66
  -7  -2   6   24.60    1.66
   7  -2  -6   29.20    2.02
   7  -2  -6   29.30    2.42
  -7  -2   6   31.80    2.87
   7  -2  -6   25.30    1.81
  -7  -2   6   25.54    2.02
   7   2  -6   27.11    1.95
   7   2  -6   29.94    1.70
  -7   2   6   27.78    1.72
  -7   2   6   26.94    1.66
   7   2  -6   30.86    1.60
   6  -2  -6  120.37    4.65
   6  -2  -6  125.93    4.25
  -6  -2   6  124.38    4.27
  -6  -2   6  123.65    4.22
   6  -2  -6  119.31    4.27
  -6  -2   6  123.68    4.44
  -6   2   6  128.49    4.39
   6   2  -6  120.91    4.36
   6   2  -6  123.54    4.27
  -6   2   6  125.47    4.37
   6   2  -6  125.88    4.28
  -5  -2   6   57.61    2.46
   5  -2  -6   58.16    2.60
   5  -2  -6   62.83    2.92
   5  -2  -6   62.09    2.58
  -5  -2   6   61.28    2.55
  -5  -2   6   62.68    2.43
   5   2  -6   58.41    2.63
  -5   2   6   63.98    2.66
   5   2  -6   61.92    2.58
   5   2  -6   61.50    2.53
  -5   2   6   64.22    2.59
   4  -2  -6  129.08    4.41
  -4  -2   6  130.28    4.35
   4  -2  -6  124.53    4.62
   4  -2  -6  136.97    4.43
  -4  -2   6  130.93    4.51
  -4   2   6  135.25    4.47
   4   2  -6  133.45    4.34
   4   2  -6  132.41    4.39
  -4   2   6  133.77    4.39
   4   2  -6  134.07    4.33
   3  -2  -6   59.52    2.51
   3  -2  -6   54.53    2.23
   3  -2  -6   60.89    2.28
  -3  -2   6   52.66    2.21
  -3  -2   6   51.14    2.03
   3   2  -6   59.18    2.22
   3   2  -6   55.92    2.16
  -3   2   6   52.50    2.27
   3   2  -6   53.79    2.15
   2  -2  -6   23.31    1.25
  -2  -2   6   20.34    1.43
  -2  -2   6   14.36    0.87
  -2   2   6   23.60    1.33
   2   2  -6   21.37    1.35
   2   2  -6   14.54    0.90
   1  -2  -6   -0.15    0.49
   1  -2  -6    0.04    0.50
   1  -2  -6    0.43    0.39
   1  -2  -6    0.56    0.42
  -1  -2   6    0.02    0.62
  -1  -2   6   -0.41    0.30
   1   2  -6    0.67    0.44
   1   2  -6    0.35    0.41
   1   2  -6   -0.24    0.40
  -1   2   6    1.57    0.58
   0  -2  -6   69.26    2.20
   0  -2  -6   70.09    2.62
   0  -2  -6   68.01    2.41
   0  -2   6   71.31    2.50
   0  -2  -6   71.84    2.90
   0   2  -6   71.94    2.58
   0   2  -6   70.99    2.47
   0   2   6   70.71    2.44
  -1  -2  -6  119.35    3.62
  -1  -2  -6  117.74    3.68
  -1  -2  -6  115.40    3.65
  -1  -2  -6  116.18    4.00
   1  -2   6  118.29    3.71
  -1  -2  -6  116.03    4.13
  -1   2  -6  117.33    3.68
  -1   2  -6  114.72    3.78
  -1   2  -6  117.70    3.63
   1   2   6  118.02    3.67
  -2  -2  -6    2.65    1.00
  -2  -2  -6    1.64    0.70
  -2  -2  -6    1.76    0.38
   2  -2   6    1.89    0.36
  -2  -2  -6    2.07    0.33
   2  -2   6    2.65    0.48
  -2  -2  -6    2.43    0.43
  -2   2  -6    1.47    0.41
  -2   2  -6    2.59    0.41
  -2   2  -6    2.26    0.61
   2   2   6    1.93    0.42
   2   2   6    1.37    0.83
  -3  -2  -6    2.40    0.79
  -3  -2  -6    2.12    0.56
   3  -2   6    2.08    0.41
  -3  -2  -6    2.44    0.43
   3   2   6    2.87    0.46
  -3   2  -6    2.81    0.45
  -3   2  -6    2.46    0.48
  -4  -2  -6   12.85    0.78
  -4  -2  -6   13.00    1.52
  -4  -2  -6   13.72    1.25
  -4   2  -6   13.92    0.79
   4   2   6   15.53    0.83
  -4   2  -6   15.18    1.09
  -5  -2  -6    6.92    1.16
  -5  -2  -6    4.83    0.47
  -5  -2  -6    6.29    0.90
  -5   2  -6    7.44    0.56
   5   2   6    5.88    0.54
   6  -2   6   30.07    1.22
  -6  -2  -6   29.69    1.20
  -6  -2  -6   28.41    2.63
  -6  -2  -6   27.64    1.67
  -6   2  -6   28.72    1.91
   6   2   6   29.40    1.26
  -6   2  -6   28.93    1.25
  -7  -2  -6    5.00    0.58
  -7  -2  -6    5.20    1.61
   7  -2   6    5.00    0.59
  -7   2  -6    5.09    0.58
   7   2   6    5.14    0.61
  10  -3  -6    3.57    1.37
 -10  -3   6    2.81    1.52
 -10  -3   6    2.06    2.50
  10  -3  -6    2.99    1.33
 -10  -3   6    2.70    0.95
 -10   3   6    4.03    1.03
  10   3  -6    3.79    0.78
  10   3  -6    3.50    1.00
   9  -3  -6    4.07    1.23
  -9  -3   6   -0.57    2.11
  -9  -3   6    3.50    0.96
   9  -3  -6    5.03    1.32
  -9   3   6    3.02    1.24
  -9   3   6    0.75    1.39
   9   3  -6    3.40    1.22
   9   3  -6    2.47    0.96
  -8  -3   6   -0.03    0.97
  -8  -3   6   -0.40    1.44
   8  -3  -6   -0.07    1.41
   8  -3  -6   -0.76    0.71
  -8   3   6   -0.11    0.72
   8   3  -6   -0.34    1.00
  -8   3   6    0.76    0.70
   8   3  -6   -0.06    0.81
   7  -3  -6   52.66    2.44
   7  -3  -6   51.00    3.09
  -7  -3   6   52.10    2.56
   7  -3  -6   50.52    2.47
  -7  -3   6   50.34    3.38
   7   3  -6   54.48    2.64
   7   3  -6   51.29    2.56
  -7   3   6   50.99    2.57
   7   3  -6   52.89    2.42
  -7   3   6   52.34    2.63
   6  -3  -6    1.85    1.28
  -6  -3   6    2.93    1.99
   6  -3  -6    2.02    0.72
   6  -3  -6    2.55    0.72
  -6  -3   6    2.11    0.91
   6   3  -6    1.78    0.73
  -6   3   6    1.16    0.95
   6   3  -6    1.31    0.63
  -6   3   6    1.86    0.75
   6   3  -6    1.96    0.71
   5  -3  -6   52.53    2.78
  -5  -3   6   52.78    2.32
   5  -3  -6   47.03    2.31
  -5  -3   6   49.82    2.55
   5  -3  -6   48.24    2.36
  -5   3   6   49.47    2.19
   5   3  -6   49.24    2.24
  -5   3   6   49.34    2.42
   5   3  -6   48.08    2.16
   5   3  -6   48.47    2.26
   4  -3  -6   42.74    2.08
  -4  -3   6   41.83    2.32
   4  -3  -6   42.81    2.12
  -4  -3   6   43.81    1.87
   4  -3  -6   39.32    2.11
   4   3  -6   42.97    2.02
   4   3  -6   41.43    1.98
  -4   3   6   43.03    1.97
   4   3  -6   43.05    2.06
   3  -3  -6  146.52    4.74
   3  -3  -6  146.10    4.82
  -3  -3   6  144.87    4.77
  -3  -3   6  149.62    4.67
   3  -3  -6  146.94    4.77
   3   3  -6  136.52    4.79
   3   3  -6  148.31    4.78
  -3   3   6  133.33    4.66
   3   3  -6  144.44    4.67
   2  -3  -6   19.91    1.32
   2  -3  -6   17.06    1.27
  -2  -3   6   18.11    1.39
   2  -3  -6   17.45    1.33
   2  -3  -6   18.32    1.49
  -2  -3   6   18.37    1.13
   2   3  -6   19.57    1.20
  -2   3   6   20.15    1.43
   2   3  -6   21.44    1.19
   2   3  -6   18.62    1.47
   1  -3  -6   24.93    1.64
   1  -3  -6   23.75    1.31
   1  -3  -6   23.01    1.38
  -1  -3   6   25.03    1.16
   1  -3  -6   23.05    1.47
  -1  -3   6   24.88    1.39
   1   3  -6   22.49    1.14
   1   3  -6   25.96    1.36
   1   3  -6   25.03    1.32
  -1   3   6   26.66    1.47
   0  -3  -6   65.10    2.43
   0  -3  -6   65.46    2.27
   0  -3   6   65.88    2.56
   0  -3  -6   62.93    2.86
   0  -3  -6   67.16    2.63
   0  -3  -6   65.77    2.35
   0   3  -6   68.49    2.42
   0   3   6   66.72    2.40
   0   3  -6   67.17    2.17
   0   3  -6   69.56    2.51
  -1  -3  -6   41.11    1.65
  -1  -3  -6   36.41    1.82
  -1  -3  -6   37.61    2.23
   1   3   6   36.77    1.65
  -1   3  -6   38.06    1.84
  -1   3  -6   39.71    1.59
  -2  -3  -6   72.65    3.30
  -2  -3  -6   77.89    3.03
  -2  -3  -6   75.76    2.42
   2  -3   6   76.82    2.39
  -2  -3  -6   78.29    2.64
  -2   3  -6   76.66    2.65
   2   3   6   76.19    2.65
  -2   3  -6   72.83    2.84
  -3  -3  -6   34.75    1.77
  -3  -3  -6   32.54    2.05
  -3  -3  -6   36.22    1.49
  -3   3  -6   34.70    1.76
   3   3   6   34.36    1.50
  -3   3  -6   33.34    1.56
  -4  -3  -6    3.58    0.96
  -4  -3  -6    3.80    0.91
  -4  -3  -6    3.55    0.62
   4   3   6    2.48    0.53
  -4   3  -6    2.65    0.54
  -4   3  -6    3.47    0.79
  -5  -3  -6    5.72    1.16
   5  -3   6    7.28    0.71
  -5   3  -6    5.93    0.66
  -5   3  -6    6.92    0.91
  -6  -3  -6   71.33    3.56
  -6  -3  -6   71.07    3.04
   6  -3   6   72.22    2.53
  -6  -3  -6   72.83    2.59
  -6   3  -6   70.75    2.51
   6   3   6   71.04    2.61
   7  -3   6    5.69    0.82
  -7  -3  -6    5.55    0.92
  -7  -3  -6    6.24    0.71
  -7  -3  -6    5.12    1.38
   7   3   6    5.97    0.75
  -7   3  -6    4.57    0.74
   9  -4  -6    7.97    1.21
  -9  -4   6    7.47    2.58
  -9  -4   6    9.32    1.51
  -9  -4   6   10.92    1.79
   9   4  -6    9.97    1.21
   9   4  -6    8.33    1.47
  -9   4   6    7.28    1.22
   8  -4  -6   10.80    1.49
  -8  -4   6    9.47    1.21
  -8  -4   6    7.71    2.34
  -8  -4   6   10.01    1.41
   8   4  -6    8.57    1.18
   8   4  -6    9.34    1.39
  -8   4   6    9.54    1.44
   7  -4  -6   18.60    1.59
   7  -4  -6   18.74    1.69
  -7  -4   6   19.97    1.58
  -7  -4   6   21.17    2.61
  -7  -4   6   18.29    1.72
   7   4  -6   19.29    1.71
  -7   4   6   21.53    1.87
   7   4  -6   20.96    1.62
   7   4  -6   21.09    1.46
  -7   4   6   19.10    1.60
   6  -4  -6    7.34    1.23
  -6  -4   6    6.13    1.38
   6  -4  -6    5.84    0.92
  -6  -4   6    5.42    1.54
  -6  -4   6    7.73    1.20
  -6   4   6    5.30    0.96
   6   4  -6    5.77    1.03
  -6   4   6    8.42    1.22
   6   4  -6    7.07    1.01
   6   4  -6    6.71    1.00
   5  -4  -6   50.99    2.46
  -5  -4   6   50.17    3.14
   5  -4  -6   48.12    2.35
  -5  -4   6   47.38    2.31
   5   4  -6   46.11    2.30
   5   4  -6   48.62    2.22
   5   4  -6   46.74    2.27
  -5   4   6   44.72    2.22
   4  -4  -6    2.49    0.73
   4  -4  -6    3.79    0.97
  -4  -4   6    3.22    0.87
   4   4  -6    1.83    1.02
   4   4  -6    3.70    0.91
   4   4  -6    3.63    0.75
  -4   4   6    2.98    0.75
   3  -4  -6   55.97    2.49
   3  -4  -6   57.41    2.41
   3  -4  -6   58.75    2.39
  -3  -4   6   61.53    2.43
   3   4  -6   62.05    2.70
   3   4  -6   60.03    2.46
  -3   4   6   60.30    2.63
   3   4  -6   56.37    2.54
  -2  -4   6   12.49    0.93
   2  -4  -6   13.61    1.23
  -1  -4   6  107.29    3.72
   1  -4  -6  109.59    3.97
   1  -4  -6  106.54    3.98
   1  -4  -6  104.09    3.71
   1  -4  -6  108.82    3.75
   1  -4  -6  106.38    3.64
  -1  -4   6  102.54    3.52
  -1   4   6  105.50    3.76
   1   4  -6  110.05    3.56
   1   4  -6  111.47    3.77
   1   4  -6  107.89    3.82
   0  -4   6   70.48    2.51
   0  -4  -6   62.53    2.77
   0  -4  -6   68.87    2.53
   0  -4  -6   65.63    2.88
   0  -4  -6   63.54    2.53
   0  -4  -6   69.11    3.00
   0   4  -6   68.18    2.76
   0   4   6   68.92    2.57
   0   4  -6   68.45    2.69
  -1  -4  -6    6.19    0.97
   1  -4   6    5.29    0.62
  -1  -4  -6    6.71    0.82
  -1  -4  -6    5.93    1.08
  -1   4  -6    6.47    0.99
  -1   4  -6    5.72    0.89
   1   4   6    7.05    0.88
  -2  -4  -6    6.08    1.01
  -2  -4  -6    5.37    0.79
  -2  -4  -6    5.19    0.88
  -2   4  -6    5.89    0.80
   2   4   6    6.00    0.82
  -2   4  -6    6.85    0.86
  -3  -4  -6  153.11    5.64
  -3  -4  -6  151.76    5.24
  -3  -4  -6  150.55    4.90
  -3   4  -6  147.82    5.08
   3   4   6  152.50    4.91
  -3   4  -6  153.24    4.90
  -4  -4  -6  101.11    3.94
  -4  -4  -6  101.15    3.47
  -4  -4  -6   99.87    4.45
  -4   4  -6   97.80    3.45
  -4   4  -6  100.63    3.70
   4   4   6  100.31    3.54
   5  -4   6    1.26    0.67
  -5  -4  -6    0.82    0.97
  -5  -4  -6    2.69    0.67
  -5  -4  -6    1.95    0.76
  -5   4  -6    3.26    0.93
  -5   4  -6    1.19    0.63
   5   4   6    0.90    0.62
  -6  -4  -6    5.38    0.79
  -6  -4  -6    7.32    1.83
   6  -4   6    4.23    0.84
  -6  -4  -6    5.11    0.97
   6   4   6    5.19    0.91
  -6   4  -6    5.98    0.84
   8  -5  -6   79.47    3.67
  -8  -5   6   77.75    5.01
  -8  -5   6   81.15    3.98
  -8  -5   6   77.09    3.60
   8   5  -6   76.85    3.29
  -8   5   6   80.58    3.70
   8   5  -6   79.57    3.68
  -7  -5   6   -0.12    1.31
  -7  -5   6   -0.66    1.28
  -7  -5   6   -1.38    1.01
   7  -5  -6    0.99    1.12
   7   5  -6   -0.27    1.06
  -7   5   6    1.67    0.87
   7   5  -6   -1.28    0.87
  -7   5   6    0.77    1.04
  -6  -5   6   31.76    1.92
   6  -5  -6   33.72    2.30
   6  -5  -6   33.76    1.91
  -6  -5   6   34.72    2.84
  -6  -5   6   33.70    2.18
   6   5  -6   35.11    2.04
   6   5  -6   36.23    2.29
  -6   5   6   33.11    2.27
   6   5  -6   33.01    2.06
  -5  -5   6    0.75    0.82
   5  -5  -6    0.82    0.95
  -5  -5   6    1.46    1.63
   5  -5  -6    0.90    1.02
  -5  -5   6    0.74    0.64
   5   5  -6    0.15    1.06
   5   5  -6    1.23    0.98
  -5   5   6    0.59    0.74
   5   5  -6   -0.66    0.59
  -4  -5   6  142.08    5.45
  -4  -5   6  135.73    4.81
   4  -5  -6  131.02    4.66
  -4  -5   6  134.37    4.69
   4  -5  -6  127.49    4.62
  -4   5   6  137.42    4.82
   4   5  -6  133.23    4.73
   4   5  -6  130.66    4.70
   4   5  -6  132.53    4.61
  -3  -5   6   29.49    1.70
   3  -5  -6   29.73    1.97
   3  -5  -6   26.21    1.87
  -3  -5   6   21.03    1.61
  -3  -5   6   28.92    2.17
   3  -5  -6   23.92    1.58
   3   5  -6   30.67    1.75
   3   5  -6   26.10    1.86
   3   5  -6   26.85    1.72
  -3   5   6   23.60    1.63
  -2  -5   6   14.08    1.23
   2  -5  -6   15.31    1.37
   2  -5  -6   14.82    1.34
  -2  -5   6   14.63    1.26
   2  -5  -6   12.26    1.09
   2   5  -6   14.49    1.37
  -2   5   6   14.78    1.39
   2   5  -6   12.13    1.11
   2   5  -6   15.93    1.44
   1  -5  -6    4.77    0.84
   1  -5  -6    5.27    1.15
   1  -5  -6    4.11    0.76
   1  -5  -6    3.44    0.83
  -1  -5   6    4.78    0.91
   1   5  -6    5.28    1.08
   1   5  -6    4.16    0.86
  -1   5   6    3.08    0.95
   1   5  -6    4.76    1.02
   0  -5  -6   47.31    2.47
   0  -5  -6   45.49    2.48
   0  -5  -6   43.94    1.98
   0  -5  -6   43.98    2.04
   0  -5   6   46.38    1.91
   0   5  -6   45.94    2.16
   0   5  -6   48.52    2.31
   0   5   6   44.74    2.07
  -1  -5  -6   27.90    1.82
   1  -5   6   29.96    1.43
  -1  -5  -6   31.77    1.97
  -1  -5  -6   28.83    1.57
   1   5   6   30.19    1.63
  -1   5  -6   32.91    2.00
  -1   5  -6   33.49    1.88
  -2  -5  -6   11.31    1.44
  -2  -5  -6    9.51    1.22
  -2  -5  -6   11.27    1.13
  -2   5  -6   10.50    1.19
   2   5   6   10.61    1.15
  -2   5  -6   11.41    1.12
  -3  -5  -6   10.26    1.40
  -3  -5  -6    8.35    1.03
  -3  -5  -6    9.27    1.57
  -3   5  -6    9.67    1.08
   3   5   6   10.10    1.11
  -3   5  -6    7.29    1.07
   4  -5   6   73.00    2.95
  -4  -5  -6   72.36    3.20
  -4  -5  -6   71.04    2.89
  -4  -5  -6   76.60    3.97
  -4   5  -6   69.13    2.94
   4   5   6   75.16    2.95
  -4   5  -6   73.18    2.92
  -5  -5  -6   17.54    1.77
  -5  -5  -6   14.26    1.15
  -5  -5  -6   13.42    1.78
   5  -5   6   13.56    1.28
   5   5   6   16.56    1.44
  -5   5  -6   16.15    1.35
  -7  -6   6   36.51    3.15
   7  -6  -6   33.37    2.54
  -7  -6   6   35.71    2.45
  -7  -6   6   32.07    2.42
   7   6  -6   30.16    1.91
   7   6  -6   34.53    2.22
  -7   6   6   34.05    2.56
   6  -6  -6   16.56    1.70
  -6  -6   6   15.49    1.90
  -6  -6   6   15.20    2.21
   6  -6  -6   14.25    1.67
  -6  -6   6   15.23    1.46
   6   6  -6   16.45    1.73
  -6   6   6   16.92    1.71
   6   6  -6   19.47    1.66
   6   6  -6   17.39    1.61
  -5  -6   6   83.65    3.44
   5  -6  -6   91.80    3.68
  -5  -6   6   86.64    3.94
  -5  -6   6   81.96    3.91
   5  -6  -6   85.95    3.69
  -5   6   6   81.14    3.47
   5   6  -6   86.65    3.76
   5   6  -6   85.71    3.66
   5   6  -6   87.49    3.58
   4  -6  -6    2.71    1.12
  -4  -6   6    5.19    1.10
   4  -6  -6    5.61    1.02
   4  -6  -6    4.74    1.19
  -4  -6   6    3.64    0.98
  -4  -6   6    4.74    1.55
   4   6  -6    3.97    0.98
  -4   6   6    4.27    1.21
   4   6  -6    4.22    0.88
   4   6  -6    4.15    1.17
   3  -6  -6    8.76    1.29
   3  -6  -6   12.31    1.23
  -3  -6   6    9.51    1.36
  -3  -6   6   10.72    1.63
   3  -6  -6   10.35    1.42
   3   6  -6   10.44    1.07
   3   6  -6    7.39    1.26
   3   6  -6    9.19    1.42
  -3   6   6    8.48    1.34
   2  -6  -6    0.20    0.66
   2  -6  -6   -0.06    0.85
  -2  -6   6    0.68    0.92
  -2  -6   6    1.15    1.17
   2  -6  -6    0.23    0.72
   2   6  -6    1.00    0.75
   2   6  -6    1.27    0.82
   2   6  -6    0.96    1.10
  -2   6   6    1.91    1.07
  -1  -6   6   47.38    2.61
   1  -6  -6   50.24    2.59
   1  -6  -6   51.41    2.63
   1  -6  -6   57.19    2.61
  -1  -6   6   54.14    2.46
   1   6  -6   54.43    2.70
   1   6  -6   51.85    2.72
  -1   6   6   56.57    2.67
   0  -6  -6   -1.05    0.87
   0  -6  -6    1.05    0.73
   0  -6  -6   -0.13    1.05
   0  -6   6    0.61    0.49
   0   6  -6    0.30    1.02
   0   6  -6   -0.27    0.98
   0   6   6    1.54    0.99
  -1  -6  -6    5.35    0.88
  -1  -6  -6    7.36    1.13
  -1  -6  -6    5.50    1.26
  -1   6  -6    5.84    1.01
   1   6   6    7.12    0.98
  -1   6  -6    7.62    1.23
  -2  -6  -6    0.48    1.14
   2  -6   6    0.40    0.98
  -2  -6  -6    1.29    0.90
  -2  -6  -6   -0.79    1.06
  -2   6  -6   -0.14    0.72
   2   6   6    0.56    0.88
  -2   6  -6    0.23    0.96
  -3  -6  -6   41.74    2.23
  -3  -6  -6   42.19    2.71
   3  -6   6   42.37    2.37
  -3  -6  -6   39.97    3.05
  -3   6  -6   41.72    2.33
  -3   6  -6   42.84    2.49
   3   6   6   42.85    2.31
  -4  -6  -6    0.57    1.44
   4  -6   6    1.91    1.04
  -4  -6  -6    3.73    1.32
  -4  -6  -6    0.81    0.87
  -4   6  -6    1.54    1.03
  -4   6  -6    1.80    1.15
   4   6   6    1.00    0.95
  -5  -7   6    5.33    1.29
   5  -7  -6    3.38    1.01
   5  -7  -6    4.24    1.05
  -5  -7   6    6.21    1.25
  -5  -7   6    3.00    1.58
   5   7  -6    4.13    0.97
   5   7  -6    4.20    1.15
  -5   7   6    5.75    1.41
   5   7  -6    4.14    1.00
  -4  -7   6   67.38    3.42
   4  -7  -6   69.51    3.10
   4  -7  -6   68.55    3.31
  -4  -7   6   69.35    3.54
   4  -7  -6   68.70    3.14
   4   7  -6   66.57    3.19
   4   7  -6   69.65    3.06
   4   7  -6   62.17    3.14
  -4   7   6   68.86    3.38
  -3  -7   6   -0.17    1.08
   3  -7  -6    0.82    0.77
  -3  -7   6    1.55    1.15
   3  -7  -6    1.40    0.83
   3  -7  -6    0.69    1.12
   3   7  -6    0.59    0.81
  -3   7   6    1.50    1.22
   3   7  -6    0.16    0.88
   2  -7  -6    2.02    1.13
   2  -7  -6    1.01    0.86
  -2  -7   6    2.50    1.04
   2   7  -6    2.96    1.33
   2   7  -6    0.97    1.11
  -2   7   6    3.30    1.22
  -1  -7   6   -1.91    1.16
   1  -7  -6    0.67    0.84
   1  -7  -6    0.71    1.05
  -1  -7   6    1.02    0.86
   1   7  -6   -0.48    1.09
   1   7  -6    1.66    0.91
  -1   7   6    0.70    0.79
   0  -7  -6   69.13    3.21
   0  -7  -6   70.29    3.12
   0  -7  -6   71.80    3.50
   0  -7   6   69.55    3.37
   0   7  -6   70.06    3.31
   0   7  -6   69.83    3.31
   0   7   6   67.05    3.25
   1  -7   6    1.01    1.20
  -1  -7  -6    2.17    1.00
  -1  -7  -6   -0.10    1.11
  -1  -7  -6    1.07    0.78
   1   7   6    1.79    0.81
  -1   7  -6    2.69    1.29
  -1   7  -6    2.71    1.25
   2  -7   6   25.43    2.23
  -2  -7  -6   28.14    1.81
  -2  -7  -6   25.73    2.08
  -2  -7  -6   27.44    2.54
   2   7   6   24.89    1.82
  -2   7  -6   27.96    2.30
  -2   7  -6   27.01    2.20
  10   0  -7    1.32    0.84
 -10   0   7    0.09    0.71
 -10   0   7   -0.97    1.30
 -10   0   7   -0.60    0.81
  10   0  -7    0.21    0.91
  10   0  -7    0.55    1.01
  -9   0   7   36.55    2.43
  -9   0   7   36.12    2.32
  -9   0   7   37.68    3.09
   9   0  -7   39.65    2.77
  -9   0   7   38.90    2.34
   9   0  -7   39.81    2.42
   9   0  -7   37.75    2.05
   8   0  -7    0.41    1.10
  -8   0   7   -0.16    0.69
  -8   0   7   -0.59    0.65
   8   0  -7    0.34    0.94
   8   0  -7   -0.31    0.96
   8   0  -7    0.57    0.67
  -8   0   7    0.63    1.00
  -7   0   7  167.82    5.61
   7   0  -7  171.36    5.67
  -7   0   7  168.64    5.59
   7   0  -7  168.68    5.68
   7   0  -7  172.12    5.72
   7   0  -7  164.27    5.79
  -7   0   7  169.59    5.62
  -6   0   7    0.13    0.95
  -6   0   7    0.75    0.80
   6   0  -7    0.21    0.84
   6   0  -7    0.39    0.71
   6   0  -7    0.80    0.62
   6   0  -7    0.68    0.63
  -6   0   7   -0.41    0.80
   5   0  -7   -1.07    0.81
  -5   0   7    1.07    0.72
   5   0  -7    0.28    0.56
   5   0  -7    0.05    0.56
  -5   0   7   -0.07    0.51
  -5   0   7   -0.52    0.91
   5   0  -7   -0.54    0.65
   4   0  -7   -0.05    0.51
  -4   0   7    0.23    0.59
  -4   0   7   -0.38    0.57
   4   0  -7    1.16    0.69
  -4   0   7    0.18    0.42
   4   0  -7    1.45    0.61
  -3   0   7  345.87   10.23
   3   0  -7  342.05   10.12
  -3   0   7  332.85   10.09
   3   0  -7  341.40   10.23
   3   0  -7  339.36   10.21
  -3   0   7  350.90   10.06
   2   0  -7   -0.46    0.59
   2   0  -7    0.28    0.43
  -2   0   7    0.09    0.39
  -2   0   7   -0.15    0.36
   2   0  -7    0.17    0.39
  -2   0   7    0.56    0.66
   1   0  -7  111.34    3.27
   1   0  -7  109.21    3.53
   1   0  -7  108.83    3.59
  -1   0   7  107.00    3.53
  -1   0   7  105.96    3.31
   0   0  -7    0.06    0.41
   0   0   7    0.40    0.45
   0   0  -7    0.26    0.36
   0   0  -7    0.41    0.49
   0   0   7    0.23    0.23
  -1   0  -7  126.89    3.88
  -1   0  -7  120.22    3.74
  -1   0  -7  125.80    3.76
   1   0   7  119.20    3.74
   1   0   7  123.24    3.75
  -2   0  -7    0.12    0.87
  -2   0  -7   -0.01    0.24
  -2   0  -7   -0.34    0.35
   2   0   7    0.27    0.28
  -2   0  -7   -0.05    0.27
   2   0   7   -0.34    0.28
   3   0   7   92.33    2.91
  -3   0  -7  106.13    2.94
  -3   0  -7   86.57    3.08
  -3   0  -7   98.43    2.93
  -3   0  -7  117.78    4.01
  -4   0  -7    0.02    0.12
  -4   0  -7   -0.07    0.12
  -4   0  -7    0.61    0.72
  -5   0  -7    0.58    0.76
  -6   0  -7    0.80    1.10
  -7   0  -7   21.63    1.96
 -10  -1   7    9.38    1.52
  10  -1  -7   12.26    1.57
 -10  -1   7   13.80    2.03
  10  -1  -7   13.59    1.85
 -10   1   7   11.99    1.59
  10   1  -7   11.66    1.35
 -10   1   7   15.15    1.64
  10   1  -7   13.41    1.42
 -10   1   7   10.50    2.18
  -9  -1   7    2.44    1.17
   9  -1  -7    1.63    1.31
  -9  -1   7    1.98    1.11
   9  -1  -7    2.54    1.17
  -9  -1   7    2.24    1.09
  -9  -1   7    1.20    1.55
  -9   1   7    2.59    1.08
  -9   1   7    3.56    1.27
   9   1  -7    1.09    0.80
   9   1  -7    1.80    0.97
   9   1  -7    4.27    1.37
  -9   1   7    1.81    0.85
  -8  -1   7   68.58    3.09
   8  -1  -7   64.80    2.88
  -8  -1   7   67.85    3.03
   8  -1  -7   69.11    2.82
  -8  -1   7   67.53    3.06
   8  -1  -7   66.38    3.13
   8   1  -7   64.53    2.87
   8   1  -7   70.17    3.01
  -8   1   7   66.73    3.03
   8   1  -7   72.00    2.97
  -8   1   7   67.23    2.90
  -8   1   7   69.73    2.88
  -7  -1   7  113.93    4.07
   7  -1  -7  117.25    4.36
  -7  -1   7  111.97    4.25
  -7  -1   7  114.67    4.10
   7  -1  -7  114.74    4.08
   7  -1  -7  116.38    4.26
  -7   1   7  118.61    4.20
  -7   1   7  110.80    4.09
   7   1  -7  113.40    4.14
  -7   1   7  114.19    4.22
   7   1  -7  117.61    4.21
   7   1  -7  114.20    4.23
   6  -1  -7   73.34    3.37
  -6  -1   7   79.85    2.90
   6  -1  -7   78.40    2.95
   6  -1  -7   71.47    2.91
  -6  -1   7   73.79    2.90
  -6  -1   7   73.13    3.19
   6   1  -7   75.82    3.05
  -6   1   7   74.43    3.02
  -6   1   7   74.55    3.16
   6   1  -7   73.77    3.06
   6   1  -7   73.70    2.94
  -6   1   7   78.00    2.92
  -5  -1   7   10.36    1.03
   5  -1  -7    9.82    1.31
   5  -1  -7    7.67    0.93
   5  -1  -7    8.62    1.09
  -5  -1   7    7.49    1.18
  -5  -1   7    9.63    1.04
   5   1  -7    7.21    1.05
  -5   1   7    8.89    1.18
   5   1  -7    7.44    0.94
  -5   1   7    9.13    0.90
  -5   1   7   10.49    0.96
   5   1  -7    8.43    0.92
  -4  -1   7   86.06    2.92
  -4  -1   7   79.65    2.95
  -4  -1   7   85.76    3.19
   4  -1  -7   84.42    3.05
   4  -1  -7   74.75    2.94
   4  -1  -7   83.54    3.31
  -4   1   7   80.72    3.00
  -4   1   7   78.24    2.86
  -4   1   7   83.41    2.92
   4   1  -7   81.16    3.11
   4   1  -7   78.72    3.06
   4   1  -7   86.65    3.02
  -3  -1   7   14.10    0.89
  -3  -1   7   15.23    1.21
   3  -1  -7   13.68    1.25
   3  -1  -7   12.73    1.14
   3  -1  -7   15.59    1.18
  -3  -1   7   14.60    1.01
   3  -1  -7   14.89    1.16
  -3   1   7   13.56    1.10
   3   1  -7   14.67    0.94
   3   1  -7   15.40    1.19
  -3   1   7   13.91    1.16
  -3   1   7   14.59    0.94
   3   1  -7   16.25    1.18
  -2  -1   7    3.71    0.50
  -2  -1   7    3.06    0.44
   2  -1  -7    3.03    0.69
   2  -1  -7    1.88    0.69
  -2  -1   7    2.39    0.78
   2  -1  -7    3.27    0.55
  -2   1   7    3.16    0.52
   2   1  -7    3.77    0.61
   2   1  -7    2.89    0.49
   2   1  -7    2.50    0.57
  -2   1   7    2.11    0.52
  -2   1   7    2.07    0.70
  -1  -1   7   13.23    1.01
   1  -1  -7   13.32    0.70
   1  -1  -7   14.75    1.02
   1  -1  -7   12.71    1.07
   1   1  -7   13.47    1.03
   1   1  -7   14.15    0.70
   1   1  -7   13.43    1.10
  -1   1   7   14.67    1.09
   0  -1  -7  207.43    6.19
   0  -1  -7  206.92    6.21
   0  -1   7  202.40    6.22
   0   1   7  204.19    6.19
   0   1  -7  207.49    6.22
   0   1  -7  209.63    6.18
   0   1  -7  205.85    6.31
  -1  -1  -7    0.85    0.94
   1  -1   7    0.89    0.38
  -1  -1  -7   -0.52    0.35
   1  -1   7   -0.52    0.39
  -1  -1  -7    0.08    0.42
   1   1   7    0.08    0.44
  -1   1  -7   -0.10    0.28
  -1   1  -7   -0.61    0.37
  -1   1  -7    0.40    0.50
   1   1   7    0.09    0.34
  -2  -1  -7    2.39    0.41
  -2  -1  -7    0.68    0.72
  -2  -1  -7    2.46    0.52
   2  -1   7    2.07    0.42
  -2  -1  -7    1.82    0.33
  -2   1  -7    1.89    0.42
  -2   1  -7    1.50    0.53
  -2   1  -7    1.61    0.28
   2   1   7    2.39    0.40
   3  -1   7   11.19    0.64
  -3  -1  -7    9.08    0.56
  -3  -1  -7   15.21    1.11
   3   1   7    9.18    0.57
  -3   1  -7    9.21    0.50
   4  -1   7   46.92    1.57
  -4  -1  -7   49.04    1.60
  -4  -1  -7   57.64    2.86
  -4  -1  -7   52.35    2.11
  -4   1  -7   48.50    1.59
  -4   1  -7   54.51    2.59
  -4   1  -7   50.84    1.88
   4   1   7   48.68    1.60
  -5  -1  -7    3.36    1.00
   5  -1   7    3.74    0.33
  -5  -1  -7    3.50    0.71
  -5  -1  -7    4.07    0.33
  -5   1  -7    3.17    0.84
  -5   1  -7    4.02    0.31
   5   1   7    3.76    0.36
  -6  -1  -7    3.72    1.35
  -6  -1  -7    3.67    0.36
  -6   1  -7    3.29    1.13
  -6   1  -7    3.55    0.32
  -7  -1  -7   26.08    2.36
  -7  -1  -7   26.12    1.02
  -7   1  -7   23.71    2.23
 -10  -2   7   66.74    3.05
  10  -2  -7   63.58    3.41
 -10  -2   7   70.60    4.92
  10  -2  -7   63.56    3.04
  10   2  -7   62.98    3.27
  10   2  -7   63.96    2.98
 -10   2   7   59.90    2.95
 -10   2   7   69.26    3.94
 -10   2   7   65.30    3.30
  -9  -2   7   58.99    2.74
   9  -2  -7   57.88    3.49
   9  -2  -7   55.05    2.73
  -9  -2   7   56.06    4.51
   9   2  -7   59.25    2.73
  -9   2   7   60.96    3.07
   9   2  -7   57.36    2.99
   8  -2  -7    3.36    0.79
   8  -2  -7    2.41    1.12
  -8  -2   7    3.55    1.13
  -8  -2   7    2.11    1.15
  -8  -2   7    3.23    1.64
   8  -2  -7    3.13    1.10
  -8  -2   7    4.75    0.93
   8   2  -7    2.32    0.83
  -8   2   7    3.55    1.11
   8   2  -7    3.37    0.82
  -8   2   7    2.33    1.16
   8   2  -7    2.45    1.12
  -7  -2   7   30.67    2.21
   7  -2  -7   28.04    2.09
  -7  -2   7   30.98    1.78
   7  -2  -7   34.89    2.15
  -7  -2   7   30.65    1.77
   7  -2  -7   29.72    1.99
  -7   2   7   28.57    2.11
   7   2  -7   31.80    2.06
   7   2  -7   33.39    1.94
   7   2  -7   33.56    1.85
  -7   2   7   31.81    1.85
   6  -2  -7   39.35    2.27
  -6  -2   7   37.63    1.89
  -6  -2   7   40.14    2.11
   6  -2  -7   38.31    2.22
  -6  -2   7   35.54    2.07
   6  -2  -7   39.62    2.20
  -6   2   7   41.65    2.05
   6   2  -7   41.97    1.96
   6   2  -7   37.95    2.24
   6   2  -7   40.27    2.18
  -6   2   7   39.59    2.17
  -5  -2   7   67.11    2.54
  -5  -2   7   60.40    2.87
  -5  -2   7   66.24    2.59
   5  -2  -7   61.13    2.70
   5  -2  -7   60.74    3.03
   5  -2  -7   63.79    2.74
   5   2  -7   63.67    2.55
   5   2  -7   66.23    2.64
   5   2  -7   63.91    2.69
  -5   2   7   65.87    2.80
  -5   2   7   63.09    2.53
   4  -2  -7   54.88    2.20
  -4  -2   7   54.86    2.22
   4  -2  -7   54.13    2.41
  -4  -2   7   51.37    2.28
   4  -2  -7   48.59    2.16
   4   2  -7   54.60    2.33
  -4   2   7   49.79    2.25
  -4   2   7   50.99    2.21
   4   2  -7   52.26    2.40
   4   2  -7   51.85    2.25
   3  -2  -7    4.54    0.85
   3  -2  -7    4.58    0.76
  -3  -2   7    3.92    0.98
  -3  -2   7    4.07    0.68
   3  -2  -7    5.55    0.83
   3   2  -7    3.71    0.90
   3   2  -7    4.67    0.71
   3   2  -7    3.13    0.82
  -3   2   7    3.97    0.88
  -2  -2   7   85.06    2.74
   2  -2  -7   79.65    2.85
   2  -2  -7   76.72    2.94
   2  -2  -7   79.17    2.81
  -2  -2   7   80.25    2.93
   2   2  -7   82.92    2.90
   2   2  -7   80.69    2.73
  -2   2   7   82.96    2.98
   2   2  -7   82.40    2.92
  -2   2   7   82.36    2.80
   1  -2  -7   47.61    1.76
   1  -2  -7   50.45    1.90
  -1  -2   7   47.65    2.11
   1   2  -7   51.13    2.05
  -1   2   7   47.13    1.75
   1   2  -7   48.02    1.97
  -1   2   7   48.42    2.01
   1   2  -7   49.92    1.69
   0  -2   7    6.72    0.81
   0  -2  -7    4.98    0.90
   0  -2  -7    6.63    0.70
   0  -2  -7    6.16    0.68
   0   2   7    7.08    0.74
   0   2  -7    6.24    0.83
   0   2  -7    6.49    0.67
   1  -2   7   58.34    2.18
  -1  -2  -7   59.60    2.64
  -1  -2  -7   58.01    2.03
  -1  -2  -7   59.22    2.10
  -1  -2  -7   60.83    2.50
  -1   2  -7   58.17    2.14
   1   2   7   57.61    2.12
  -1   2  -7   59.21    2.31
  -2  -2  -7   32.63    1.83
  -2  -2  -7   33.85    1.39
   2  -2   7   34.37    1.46
  -2  -2  -7   36.16    1.29
  -2  -2  -7   35.89    2.04
   2   2   7   34.39    1.47
  -2   2  -7   36.51    1.69
  -2   2  -7   35.51    1.41
  -3  -2  -7    4.72    1.21
  -3  -2  -7    3.74    0.50
  -3  -2  -7    3.94    0.82
   3  -2   7    2.82    0.46
  -3   2  -7    5.95    0.76
   3   2   7    4.63    0.55
  -3   2  -7    4.05    0.53
  -4  -2  -7    8.09    0.62
  -4  -2  -7    9.33    1.26
  -4  -2  -7    8.98    1.03
   4   2   7    8.10    0.71
  -4   2  -7    7.90    0.61
  -4   2  -7    7.96    0.84
  -5  -2  -7   30.50    2.67
  -5  -2  -7   28.30    1.75
  -5  -2  -7   30.97    1.25
   5   2   7   30.70    1.27
  -5   2  -7   30.57    1.22
  -6  -2  -7   30.76    2.42
   6  -2   7   32.25    1.31
  -6  -2  -7   33.80    1.34
   6   2   7   33.59    1.37
  -6   2  -7   34.40    1.31
  10  -3  -7    1.83    1.79
 -10  -3   7    4.47    2.65
  10  -3  -7    3.36    1.36
 -10  -3   7    2.11    1.25
 -10   3   7    1.65    0.97
  10   3  -7    2.67    1.08
  10   3  -7    3.79    1.34
  -9  -3   7   25.16    2.03
   9  -3  -7   21.61    1.82
  -9  -3   7   25.83    3.24
   9  -3  -7   25.85    2.21
   9   3  -7   25.36    2.22
   9   3  -7   22.35    1.85
  -9   3   7   23.20    1.99
   8  -3  -7  108.05    4.11
   8  -3  -7  107.92    4.67
  -8  -3   7  113.74    5.12
  -8  -3   7  107.78    4.08
  -8   3   7  101.61    4.07
   8   3  -7  113.18    3.96
  -8   3   7  108.65    4.17
   8   3  -7   93.40    4.08
   8   3  -7  108.52    4.27
  -7  -3   7    6.08    2.25
   7  -3  -7    6.49    1.16
   7  -3  -7    2.84    1.14
   7  -3  -7    3.46    1.13
  -7  -3   7    6.58    0.98
   7   3  -7    2.98    1.10
  -7   3   7    4.55    1.16
  -7   3   7    1.69    1.07
   7   3  -7    6.18    1.21
   7   3  -7    3.36    1.01
  -6  -3   7    5.72    1.04
   6  -3  -7    4.40    0.85
  -6  -3   7    3.82    1.02
   6  -3  -7    4.89    1.08
   6  -3  -7    7.74    1.19
  -6   3   7    6.19    1.15
   6   3  -7    4.28    0.86
   6   3  -7    4.68    1.13
  -6   3   7    3.83    0.85
   6   3  -7    5.75    0.88
   5  -3  -7  112.35    4.23
   5  -3  -7  117.63    4.23
   5  -3  -7  113.02    4.51
  -5  -3   7  122.92    4.41
  -5  -3   7  114.56    4.16
   5   3  -7  117.96    4.11
   5   3  -7  122.22    4.14
   5   3  -7  120.97    4.33
  -5   3   7  118.72    4.17
  -5   3   7  118.06    4.24
  -4  -3   7  115.53    4.17
   4  -3  -7  114.01    4.00
   4  -3  -7  113.27    4.00
   4  -3  -7  119.50    4.28
  -4  -3   7  105.63    3.79
   4   3  -7  101.28    4.02
   4   3  -7  110.41    3.99
  -4   3   7  109.77    4.04
   4   3  -7  116.82    3.94
   3  -3  -7   60.39    2.46
   3  -3  -7   59.88    2.50
  -3  -3   7   56.13    2.68
   3  -3  -7   54.32    2.46
  -3  -3   7   54.36    2.18
  -3   3   7   59.45    2.39
   3   3  -7   60.61    2.33
   3   3  -7   59.19    2.52
   3   3  -7   58.20    2.41
   2  -3  -7    9.43    1.08
   2  -3  -7    8.93    0.95
  -2  -3   7   10.16    1.01
   2  -3  -7    9.15    0.88
  -2  -3   7    8.04    0.71
  -2   3   7    8.41    1.03
   2   3  -7    9.61    0.82
   2   3  -7    8.90    1.05
   2   3  -7    9.18    0.92
   1  -3  -7   69.08    2.56
   1  -3  -7   76.72    3.04
   1  -3  -7   80.69    2.78
  -1  -3   7   70.81    2.87
   1  -3  -7   72.37    2.76
   1   3  -7   72.04    2.80
   1   3  -7   70.54    2.85
  -1   3   7   76.79    2.79
   1   3  -7   71.58    2.45
   0  -3  -7  122.28    4.49
   0  -3   7  117.49    4.04
   0  -3  -7  120.16    4.29
   0  -3  -7  122.56    3.96
   0   3  -7  123.82    4.12
   0   3   7  111.81    3.95
   0   3  -7  119.14    4.00
  -1  -3  -7  178.06    6.00
   1  -3   7  176.13    5.52
  -1  -3  -7  176.71    5.36
  -1  -3  -7  177.74    5.86
  -1  -3  -7  172.90    5.44
  -1   3  -7  177.15    5.50
   1   3   7  174.45    5.49
  -1   3  -7  171.18    5.58
  -2  -3  -7    9.97    1.20
  -2  -3  -7   10.78    1.05
  -2  -3  -7    9.72    0.82
  -2   3  -7    8.78    0.84
  -2   3  -7    8.73    1.02
   2   3   7    9.62    0.83
  -3  -3  -7    3.38    0.58
  -3  -3  -7    3.37    1.24
  -3  -3  -7    4.16    0.80
   3   3   7    3.25    0.60
  -3   3  -7    4.09    0.71
  -3   3  -7    4.92    0.86
  -4  -3  -7   96.96    3.58
  -4  -3  -7  105.45    4.30
  -4  -3  -7   85.36    3.00
  -4   3  -7   85.30    2.98
   4   3   7   87.38    3.03
  -4   3  -7   83.78    3.25
  -5  -3  -7   72.52    3.03
  -5  -3  -7   76.98    3.96
  -5  -3  -7   73.11    2.66
  -5   3  -7   76.32    2.61
  -5   3  -7   74.79    2.92
   5   3   7   78.62    2.71
  -6  -3  -7    2.14    0.61
  -6  -3  -7    2.75    0.77
   6  -3   7    1.93    0.65
  -6  -3  -7    2.85    1.63
   6   3   7    3.23    0.67
  -6   3  -7    3.86    0.67
  -9  -4   7    4.56    1.65
  -9  -4   7    5.72    1.37
   9  -4  -7    5.19    1.40
   9  -4  -7    4.37    1.44
  -9  -4   7    1.72    2.56
  -9   4   7    3.62    1.07
   9   4  -7    2.82    0.85
   9   4  -7    2.78    0.99
   8  -4  -7   30.19    2.38
   8  -4  -7   36.47    3.07
  -8  -4   7   25.97    2.24
  -8  -4   7   29.37    2.65
  -8  -4   7   38.98    3.53
  -8   4   7   34.65    2.44
  -8   4   7   32.49    2.33
   8   4  -7   28.41    1.82
   8   4  -7   29.18    2.30
   7  -4  -7   70.16    3.05
   7  -4  -7   64.41    3.13
   7  -4  -7   66.19    3.26
  -7  -4   7   63.93    3.88
  -7  -4   7   65.36    3.06
   7   4  -7   64.04    2.94
  -7   4   7   64.83    2.86
  -7   4   7   65.71    2.93
   7   4  -7   65.03    2.92
   7   4  -7   64.28    2.91
   6  -4  -7   40.14    2.28
  -6  -4   7   37.27    2.04
   6  -4  -7   34.56    2.34
  -6  -4   7   32.20    3.09
   6  -4  -7   38.04    2.08
  -6   4   7   39.80    2.36
  -6   4   7   41.35    2.42
   6   4  -7   36.02    1.97
   6   4  -7   42.87    2.36
   6   4  -7   40.45    2.16
   5  -4  -7   22.28    1.83
   5  -4  -7   19.82    1.77
   5  -4  -7   17.17    1.43
  -5  -4   7   20.41    1.63
  -5   4   7   22.03    1.90
   5   4  -7   18.50    1.64
   5   4  -7   20.72    1.60
   5   4  -7   18.23    1.43
   4  -4  -7   28.14    2.19
   4  -4  -7   25.92    1.82
   4  -4  -7   26.71    1.84
   4   4  -7   27.17    1.76
   3  -4  -7   98.72    3.57
   3  -4  -7   96.17    3.54
  -3  -4   7   87.25    3.32
   3  -4  -7   96.00    3.47
   3   4  -7   97.90    3.46
   3   4  -7   86.86    3.59
   3   4  -7   85.62    3.33
  -3   4   7   95.64    3.59
   2  -4  -7  147.54    4.87
   2  -4  -7  147.39    4.83
   2  -4  -7  144.71    5.06
   2  -4  -7  141.97    4.97
   2   4  -7  145.95    4.92
   2   4  -7  145.39    4.90
   2   4  -7  147.68    4.68
  -2   4   7  147.67    4.89
   1  -4  -7  181.09    6.05
   1  -4  -7  168.87    5.68
   1  -4  -7  178.15    5.74
   1   4  -7  177.40    5.80
   1   4  -7  177.70    5.83
  -1   4   7  181.21    5.78
   0  -4  -7    1.78    0.53
   0  -4  -7    1.32    1.02
   0  -4  -7    1.58    0.72
   0  -4  -7    0.54    0.96
   0  -4   7    1.54    0.62
   0   4  -7    0.99    0.56
   0   4   7    1.62    0.79
   0   4  -7    1.38    0.62
  -1  -4  -7   41.70    2.19
   1  -4   7   45.42    1.84
  -1  -4  -7   43.45    2.00
  -1  -4  -7   46.74    2.42
   1   4   7   46.39    1.96
  -1   4  -7   46.62    2.09
  -1   4  -7   44.25    2.08
  -2  -4  -7   63.06    3.31
  -2  -4  -7   65.02    2.98
  -2  -4  -7   65.66    2.54
  -2   4  -7   67.63    2.82
  -2   4  -7   67.15    2.59
   2   4   7   65.07    2.58
  -3  -4  -7   89.81    4.03
  -3  -4  -7  102.92    3.90
  -3  -4  -7  102.70    3.40
   3   4   7   83.82    3.34
  -3   4  -7   98.65    3.39
  -3   4  -7   98.44    3.64
  -4  -4  -7   14.51    1.36
  -4  -4  -7   15.46    1.17
  -4  -4  -7   14.20    1.65
   4   4   7   15.24    1.24
  -4   4  -7   14.75    1.21
  -4   4  -7   13.85    1.30
  -5  -4  -7   10.27    1.92
  -5  -4  -7   10.30    1.39
   5  -4   7   10.08    1.09
  -5  -4  -7    9.78    0.97
  -5   4  -7   10.52    1.22
   5   4   7   11.34    1.04
  -5   4  -7   10.50    1.00
  -8  -5   7   12.64    1.66
   8  -5  -7   10.87    1.65
  -8  -5   7    7.41    2.64
  -8  -5   7   11.00    1.57
   8   5  -7   11.04    1.39
   8   5  -7    9.02    1.34
  -8   5   7   10.77    1.38
  -7  -5   7    5.04    1.25
  -7  -5   7    5.20    1.71
   7  -5  -7    7.31    1.38
  -7  -5   7    5.88    1.06
   7  -5  -7    6.37    1.38
  -7   5   7    7.55    1.12
   7   5  -7    5.52    1.11
   7   5  -7    6.46    1.38
   7   5  -7    5.80    0.96
  -7   5   7    6.25    1.14
   6  -5  -7   16.73    1.60
  -6  -5   7   14.30    1.95
  -6  -5   7   15.04    1.78
  -6  -5   7   17.53    1.64
   6  -5  -7   13.19    1.39
   6   5  -7   18.15    1.51
  -6   5   7   13.64    1.61
   6   5  -7   13.95    1.47
   6   5  -7   14.07    1.65
  -5  -5   7   12.56    2.18
  -5  -5   7    9.99    1.57
  -5  -5   7   14.16    1.41
   5  -5  -7   10.47    1.39
   5  -5  -7   11.93    1.24
   5   5  -7    9.15    1.48
   5   5  -7   10.59    1.36
   5   5  -7   12.65    1.24
  -5   5   7   16.75    1.59
  -4  -5   7   53.43    2.82
  -4  -5   7   52.69    2.50
  -4  -5   7   55.68    3.69
   4  -5  -7   54.96    2.66
   4  -5  -7   53.18    2.50
   4   5  -7   55.40    2.70
   4   5  -7   54.13    2.58
   4   5  -7   58.21    2.87
  -4   5   7   59.13    2.80
   3  -5  -7    2.68    1.05
   3  -5  -7    3.02    0.82
  -3  -5   7    2.47    1.04
   3  -5  -7    3.21    0.96
   3  -5  -7    3.87    0.89
   3   5  -7    3.81    0.82
  -3   5   7    2.35    0.82
   3   5  -7    2.81    0.85
   3   5  -7    3.09    1.16
   2  -5  -7    0.67    0.90
   2  -5  -7    0.03    0.97
   2  -5  -7    0.31    0.84
   2  -5  -7    0.21    0.76
  -2  -5   7    1.33    0.88
   2   5  -7    0.40    0.64
  -2   5   7    0.02    0.66
   2   5  -7    0.01    0.72
   1  -5  -7   15.25    1.58
   1  -5  -7   13.26    1.17
  -1  -5   7   12.91    1.12
   1   5  -7   15.89    1.37
   1   5  -7   13.17    1.21
   0  -5  -7   61.53    2.55
   0  -5  -7   63.43    3.02
   0  -5   7   58.86    2.45
   0  -5  -7   64.83    3.12
   0   5  -7   60.47    2.65
   0   5  -7   64.10    2.61
   0   5   7   60.13    2.56
  -1  -5  -7    0.73    0.74
  -1  -5  -7   -0.23    0.74
  -1  -5  -7   -0.32    0.76
  -1   5  -7    1.84    0.97
  -1   5  -7    0.20    0.58
   1   5   7    0.09    0.81
  -2  -5  -7   24.73    2.43
  -2  -5  -7   23.71    1.57
  -2  -5  -7   21.82    1.71
  -2   5  -7   22.49    1.68
   2   5   7   21.50    1.64
  -2   5  -7   24.40    1.84
  -3  -5  -7   44.39    2.05
  -3  -5  -7   43.72    2.31
  -3  -5  -7   37.30    2.60
  -3   5  -7   32.37    1.82
  -3   5  -7   41.85    2.32
   3   5   7   41.62    2.09
   4  -5   7   22.35    1.76
  -4  -5  -7   26.92    1.69
  -4  -5  -7   26.90    2.44
  -4  -5  -7   28.53    2.23
  -4   5  -7   30.49    2.04
  -4   5  -7   29.43    1.77
   4   5   7   30.36    1.80
  -7  -6   7    0.32    1.41
  -7   6   7   -0.62    0.85
  -6  -6   7   13.03    1.87
   6  -6  -7   16.11    1.51
  -6  -6   7   11.16    1.54
  -6  -6   7   13.66    2.23
   6  -6  -7   17.21    1.75
  -6   6   7   16.31    1.78
   6   6  -7   18.83    1.89
   6   6  -7   12.63    1.40
   6   6  -7   14.79    1.62
  -5  -6   7    0.60    1.00
   5  -6  -7    0.40    1.11
  -5  -6   7    0.74    1.24
  -5  -6   7    1.30    1.22
   5  -6  -7    1.12    0.80
   5   6  -7    1.39    0.82
   5   6  -7    2.13    1.27
   5   6  -7    0.42    1.04
  -5   6   7    4.47    1.30
  -4  -6   7    0.83    1.13
   4  -6  -7    0.52    0.78
   4  -6  -7   -0.51    0.98
  -4  -6   7    1.67    1.54
  -4   6   7    1.11    1.13
   4   6  -7    1.53    0.96
   4   6  -7    1.12    1.18
   4   6  -7    0.33    1.04
   3  -6  -7    0.86    0.94
  -3  -6   7    0.84    1.04
   3  -6  -7    0.06    0.72
  -3  -6   7   -0.43    1.34
   3  -6  -7   -0.88    0.70
   3   6  -7    0.10    0.73
  -3   6   7    0.67    1.09
   3   6  -7    1.26    0.84
   2  -6  -7   12.12    1.42
   2  -6  -7    8.06    1.43
  -2  -6   7    9.70    1.65
   2  -6  -7    9.93    1.30
  -2  -6   7    9.42    1.30
  -2   6   7   11.02    1.43
   2   6  -7   11.15    1.43
   2   6  -7    9.79    1.49
  -1  -6   7    4.11    0.77
   1  -6  -7    3.52    1.10
  -1  -6   7    2.66    1.30
   1  -6  -7    4.43    1.05
  -1   6   7    4.19    1.16
   1   6  -7    4.81    0.95
   1   6  -7    3.48    0.92
   0  -6  -7   17.43    1.55
   0  -6  -7   16.67    1.59
   0  -6  -7   19.15    1.78
   0  -6   7   18.23    1.66
   0   6  -7   16.40    1.48
   0   6   7   19.43    1.64
   0   6  -7   17.57    1.64
  -1  -6  -7   -0.22    0.76
  -1  -6  -7    0.38    0.64
  -1  -6  -7    0.60    1.18
   1   6   7    1.01    0.98
  -1   6  -7    0.72    1.08
  -1   6  -7    0.50    0.75
  -2  -6  -7    7.84    1.50
  -2  -6  -7    7.30    1.57
  -2  -6  -7    7.32    1.15
   2   6   7    6.26    1.19
  -2   6  -7    5.39    0.96
  -2   6  -7    9.16    1.40
  -3  -6  -7    4.42    1.60
  -3  -6  -7    4.08    1.09
   3  -6   7    3.77    1.12
  -3  -6  -7    3.33    0.98
   3   6   7    4.01    1.08
  -3   6  -7    5.36    1.18
  -3   6  -7    3.92    0.96
   4  -7  -7   16.62    1.61
  -4  -7   7   17.39    1.93
   4  -7  -7   21.13    1.95
  -4  -7   7   17.83    2.07
   4   7  -7   17.51    2.02
  -4   7   7   20.66    1.76
   4   7  -7   18.39    1.62
  -3  -7   7    8.45    1.56
  -3  -7   7    9.58    1.46
   3  -7  -7   10.11    1.29
   3  -7  -7   10.97    1.64
  -3   7   7   10.18    1.57
   3   7  -7   10.58    1.32
   3   7  -7    8.89    1.67
  -2  -7   7    1.01    0.98
   2  -7  -7    2.90    1.35
   2  -7  -7    0.95    1.16
  -2   7   7    1.43    1.23
   2   7  -7    2.22    1.23
   2   7  -7    0.50    0.91
   1  -7  -7   34.05    2.56
   1  -7  -7   30.22    1.97
  -1  -7   7   26.31    1.94
   1   7  -7   27.04    1.98
   1   7  -7   30.76    2.07
  -1   7   7   28.11    1.98
   0  -7  -7   21.60    1.85
   0  -7  -7   18.14    1.78
   0  -7  -7   21.17    1.94
   0   7   7   15.64    1.71
   0   7  -7   20.12    1.89
   0   7  -7   18.06    1.63
 -10   0   8   -0.29    0.85
 -10   0   8    0.77    0.82
  10   0  -8   -0.11    1.36
  10   0  -8    2.18    1.22
  10   0  -8    1.24    1.14
 -10   0   8    3.07    1.64
   9   0  -8    0.28    0.73
   9   0  -8   -1.43    1.19
   9   0  -8    0.04    0.79
  -9   0   8    0.69    1.08
  -9   0   8   -0.68    1.06
  -9   0   8    0.80    1.03
   8   0  -8   64.75    2.79
  -8   0   8   62.73    2.91
   8   0  -8   62.72    2.81
  -8   0   8   59.69    3.01
   8   0  -8   60.83    3.30
   8   0  -8   65.92    2.98
  -8   0   8   66.24    2.83
  -7   0   8    0.06    0.72
   7   0  -8    0.72    0.95
   7   0  -8    1.05    0.94
   7   0  -8   -0.48    0.93
  -7   0   8    0.08    0.58
   7   0  -8   -0.10    0.76
  -7   0   8   -0.19    0.62
   6   0  -8   77.20    3.01
  -6   0   8   75.54    3.06
  -6   0   8   76.02    3.25
   6   0  -8   78.69    3.19
   6   0  -8   77.01    3.02
  -6   0   8   73.29    3.04
   6   0  -8   77.77    3.28
   5   0  -8    0.35    0.66
  -5   0   8   -0.15    0.70
  -5   0   8   -0.21    0.69
  -5   0   8    1.02    0.72
   5   0  -8    0.65    0.77
   5   0  -8   -0.15    0.84
  -4   0   8   70.77    2.69
   4   0  -8   70.11    2.86
  -4   0   8   69.58    2.96
   4   0  -8   71.96    2.74
  -4   0   8   75.73    2.67
   4   0  -8   67.62    2.87
   3   0  -8   -1.17    0.71
  -3   0   8   -0.41    0.47
  -3   0   8    0.56    0.83
  -3   0   8   -0.15    0.49
   3   0  -8   -0.42    0.51
   3   0  -8   -0.39    0.71
  -2   0   8  115.34    3.57
   2   0  -8  116.49    3.59
   2   0  -8  114.50    3.84
  -2   0   8  110.23    3.56
  -2   0   8  111.01    3.78
   2   0  -8  112.25    3.80
   1   0  -8    0.79    0.44
  -1   0   8    0.04    0.27
   1   0  -8   -0.23    0.41
  -1   0   8   -0.67    0.58
   0   0  -8   18.93    1.10
   0   0   8   18.53    1.17
   0   0  -8   21.04    1.09
   0   0   8   19.25    0.72
  -1   0  -8   -0.01    0.37
   1   0   8    0.12    0.41
  -1   0  -8   -0.05    0.46
   2   0   8  120.05    3.63
  -2   0  -8  113.58    3.60
  -2   0  -8  120.61    3.75
   3   0   8   -0.18    0.27
  -3   0  -8   -0.15    1.00
  -3   0  -8   -0.32    0.25
  -4   0  -8   14.27    1.58
   4   0   8   13.30    0.64
  -4   0  -8   13.01    0.61
  -5   0  -8    0.21    0.17
  -5   0  -8    0.82    1.10
  -6   0  -8   13.89    1.76
  10  -1  -8   -0.14    1.45
 -10  -1   8    1.96    0.87
 -10  -1   8    0.93    1.74
  10  -1  -8    1.51    0.87
 -10  -1   8    1.60    1.23
  10  -1  -8    0.03    1.17
 -10   1   8    1.43    2.04
  10   1  -8    4.04    1.32
 -10   1   8    1.97    1.25
  10   1  -8    4.35    1.18
 -10   1   8    1.93    1.18
  -9  -1   8   20.25    1.80
   9  -1  -8   20.13    1.82
   9  -1  -8   16.24    1.66
  -9  -1   8   19.52    1.74
  -9  -1   8   16.33    1.68
   9  -1  -8   17.68    1.80
  -9   1   8   17.32    1.55
  -9   1   8   19.22    1.63
   9   1  -8   21.85    1.77
   9   1  -8   18.65    1.65
  -9   1   8   15.78    1.64
  -8  -1   8   13.08    1.50
   8  -1  -8   11.18    1.39
   8  -1  -8   11.28    1.20
   8  -1  -8   10.93    1.41
  -8  -1   8   10.69    1.36
  -8  -1   8   10.37    1.18
   8  -1  -8   11.03    1.21
   8   1  -8   10.52    1.40
  -8   1   8   11.75    1.24
   8   1  -8    9.84    1.36
  -8   1   8   10.41    1.39
  -8   1   8    9.97    1.43
   8   1  -8   10.21    1.16
  -7  -1   8    1.87    0.75
   7  -1  -8    3.04    1.12
   7  -1  -8    2.19    1.25
  -7  -1   8    1.29    0.94
   7  -1  -8    1.40    0.74
   7  -1  -8    3.72    1.09
  -7  -1   8    2.27    1.15
  -7   1   8    2.89    1.03
   7   1  -8    1.90    0.76
   7   1  -8    2.85    0.81
  -7   1   8    3.86    1.15
  -7   1   8    2.29    1.00
   7   1  -8    2.61    0.84
   6  -1  -8    2.80    1.01
  -6  -1   8    6.22    1.24
   6  -1  -8    3.12    0.94
   6  -1  -8    2.06    1.04
  -6  -1   8    4.55    0.94
   6  -1  -8    3.47    1.04
  -6  -1   8    2.42    0.92
  -6   1   8    2.30    0.93
   6   1  -8    3.73    0.80
   6   1  -8    2.32    1.07
  -6   1   8    1.95    0.81
   6   1  -8    1.77    0.95
  -6   1   8    1.93    0.93
  -5  -1   8   96.45    3.33
   5  -1  -8   94.17    3.49
  -5  -1   8   93.52    3.69
   5  -1  -8   91.26    3.82
   5  -1  -8   93.73    3.42
  -5  -1   8   95.31    3.40
   5  -1  -8   97.12    3.51
  -5   1   8   98.58    3.49
  -5   1   8   95.54    3.53
   5   1  -8   92.02    3.50
   5   1  -8   92.93    3.57
   5   1  -8   97.35    3.65
  -5   1   8   96.34    3.51
   4  -1  -8    5.34    0.81
   4  -1  -8    5.00    0.79
   4  -1  -8    7.73    0.94
  -4  -1   8    4.69    1.05
   4  -1  -8    6.67    0.92
   4   1  -8    4.72    1.00
   4   1  -8    4.87    0.79
  -4   1   8    5.27    1.06
  -3  -1   8    6.63    0.68
   3  -1  -8    6.46    0.81
  -3  -1   8    6.13    1.03
   3  -1  -8    5.91    0.78
   3  -1  -8    7.26    0.98
  -3  -1   8    6.44    0.75
   3   1  -8    7.48    1.00
   3   1  -8    6.68    0.85
  -3   1   8    6.38    0.77
  -3   1   8    4.89    0.72
   3   1  -8    6.41    0.76
  -3   1   8    7.22    1.02
  -2  -1   8   30.35    1.76
  -2  -1   8   31.00    1.24
   2  -1  -8   30.49    1.35
   2  -1  -8   30.83    1.62
   2  -1  -8   29.48    1.67
  -2  -1   8   30.39    1.23
   2   1  -8   30.10    1.68
  -2   1   8   32.27    1.42
  -2   1   8   28.97    1.33
  -2   1   8   30.49    1.69
   2   1  -8   32.48    1.32
   2   1  -8   30.91    1.67
   1  -1  -8   70.75    2.51
  -1  -1   8   64.74    2.58
   1  -1  -8   68.89    2.56
   1   1  -8   65.86    2.60
   1   1  -8   70.65    2.56
  -1   1   8   68.92    2.54
  -1   1   8   67.43    2.34
   0  -1  -8    0.20    0.48
   0  -1   8   -0.27    0.57
   0  -1  -8    1.53    0.53
   0   1  -8    0.37    0.58
   0   1  -8   -0.50    0.54
   0   1   8    0.32    0.54
  -1  -1  -8   19.74    1.07
   1  -1   8   18.99    1.13
  -1  -1  -8   20.87    1.04
   1   1   8   20.08    1.08
  -1   1  -8   18.48    1.08
  -1   1  -8   19.43    1.23
  -2  -1  -8  119.47    3.70
   2  -1   8  122.09    3.76
  -2  -1  -8  120.02    3.72
  -2  -1  -8  115.38    4.43
   2   1   8  124.48    3.74
  -2   1  -8  120.04    3.72
  -2   1  -8  115.61    3.85
  -3  -1  -8   25.41    1.08
   3   1   8   29.90    1.18
  -3   1  -8   24.85    1.32
  -4  -1  -8   22.59    0.88
   4  -1   8   18.60    0.91
  -4  -1  -8   20.96    1.85
  -4   1  -8   20.60    0.88
   4   1   8   21.75    0.92
  -5  -1  -8    6.63    0.47
  -5  -1  -8    5.93    1.49
  -5   1  -8    6.29    0.50
  -6  -1  -8   25.75    2.32
  -6  -1  -8   25.29    0.95
  -6   1  -8   24.47    2.27
 -10  -2   8   37.92    3.74
 -10  -2   8   28.60    2.04
  10  -2  -8   32.34    2.74
  10  -2  -8   30.61    2.47
 -10   2   8   26.23    2.30
 -10   2   8   30.75    2.35
  10   2  -8   26.72    2.22
  10   2  -8   28.34    1.88
 -10   2   8   33.41    2.95
  -9  -2   8   10.61    1.49
  -9  -2   8    9.85    2.74
   9  -2  -8    9.33    1.49
  -9  -2   8    8.14    1.21
   9  -2  -8    7.91    1.45
  -9  -2   8    8.69    1.46
   9   2  -8   10.31    1.53
   9   2  -8   12.37    1.42
  -9   2   8    9.53    1.51
  -9   2   8   11.05    1.51
  -9   2   8    8.96    1.18
   8  -2  -8    6.49    1.23
  -8  -2   8    7.09    1.14
  -8  -2   8    5.99    1.23
   8  -2  -8    3.91    1.17
  -8  -2   8    5.31    0.97
   8  -2  -8    5.92    1.29
  -8   2   8    4.49    0.94
  -8   2   8    7.13    1.09
   8   2  -8    4.59    1.15
   8   2  -8    5.40    1.01
  -8   2   8    4.41    1.24
   8   2  -8    6.45    1.24
  -7  -2   8   44.51    2.60
   7  -2  -8   40.54    2.15
   7  -2  -8   41.67    2.37
  -7  -2   8   38.92    2.26
   7  -2  -8   39.41    2.42
  -7  -2   8   41.69    2.07
  -7   2   8   41.99    2.31
  -7   2   8   39.50    2.17
   7   2  -8   38.75    2.06
   7   2  -8   43.50    2.20
   7   2  -8   42.30    2.38
  -7   2   8   44.37    2.42
   6  -2  -8   32.76    1.86
  -6  -2   8   36.48    2.01
  -6  -2   8   33.55    2.33
   6  -2  -8   30.25    2.44
   6  -2  -8   33.27    2.11
  -6  -2   8   35.13    1.77
  -6   2   8   33.18    2.06
   6   2  -8   34.92    2.08
  -6   2   8   37.69    2.00
  -6   2   8   35.25    2.02
   6   2  -8   32.81    1.84
   6   2  -8   36.16    2.19
  -5  -2   8   11.93    1.09
  -5  -2   8   12.11    1.22
  -5  -2   8   12.08    1.17
   5  -2  -8   10.36    1.28
   5  -2  -8   12.88    1.29
   5  -2  -8   11.65    1.44
  -5   2   8   12.39    1.35
   5   2  -8    9.35    1.15
  -5   2   8   10.99    1.04
  -5   2   8   11.17    1.04
   5   2  -8   10.01    1.21
   5   2  -8   10.54    1.09
   4  -2  -8   61.04    2.52
  -4  -2   8   55.55    2.49
  -4  -2   8   60.27    2.39
   4  -2  -8   56.94    2.58
   4  -2  -8   58.29    2.61
  -4   2   8   62.72    2.47
   4   2  -8   59.38    2.45
   4   2  -8   53.57    2.27
  -4   2   8   55.03    2.63
  -4   2   8   62.59    2.51
   4   2  -8   58.56    2.66
  -3  -2   8  117.27    3.93
   3  -2  -8  117.22    4.02
   3  -2  -8  115.89    4.30
   3  -2  -8  120.17    4.13
  -3  -2   8  120.16    4.13
  -3   2   8  123.39    4.18
   3   2  -8  119.43    3.95
   3   2  -8  119.62    4.09
  -3   2   8  120.01    4.01
   3   2  -8  126.26    4.13
  -3   2   8  114.92    3.98
   2  -2  -8    0.84    0.51
   2  -2  -8    2.18    0.82
  -2  -2   8    0.48    0.86
   2  -2  -8    0.79    0.70
   2   2  -8    0.86    0.44
   2   2  -8    2.14    0.79
  -2   2   8    0.80    0.76
   2   2  -8    0.06    0.76
   1  -2  -8   20.73    1.36
   1  -2  -8   22.50    1.37
  -1  -2   8   21.28    1.57
   1   2  -8   24.31    1.30
   1   2  -8   23.64    1.35
  -1   2   8   23.29    1.28
   0  -2  -8   58.15    2.19
   0  -2   8   56.93    2.32
   0  -2  -8   58.43    2.21
   0   2   8   57.42    2.24
   0   2  -8   56.73    2.27
   0   2  -8   58.68    2.40
  -1  -2  -8   95.09    3.78
  -1  -2  -8   94.26    3.49
   1  -2   8   96.08    3.31
  -1  -2  -8   97.03    3.19
  -1  -2  -8   94.40    3.12
  -1   2  -8   98.38    3.23
   1   2   8   95.10    3.21
  -1   2  -8   96.49    3.38
  -2  -2  -8   65.93    3.00
  -2  -2  -8   62.01    2.70
   2  -2   8   65.44    2.37
  -2  -2  -8   61.00    2.25
  -2   2  -8   64.77    2.33
   2   2   8   66.03    2.30
  -2   2  -8   67.05    2.44
  -3  -2  -8    1.78    0.79
   3  -2   8    1.33    0.45
  -3  -2  -8    1.94    1.19
  -3  -2  -8    0.87    0.46
   3   2   8    1.49    0.51
  -3   2  -8   -0.27    0.46
  -3   2  -8    0.99    0.64
  -4  -2  -8   84.13    3.29
  -4  -2  -8   88.86    2.84
  -4  -2  -8   86.54    4.12
  -4   2  -8   89.67    3.14
  -4   2  -8   88.43    2.85
   4   2   8   88.03    2.88
  -5  -2  -8  113.82    4.74
  -5  -2  -8  113.18    3.57
  -5  -2  -8  109.81    4.13
  -5   2  -8  114.99    3.54
   5   2   8  116.62    3.59
  -6  -2  -8   80.74    4.31
  -6  -2  -8   79.74    2.64
  -6   2  -8   80.31    2.61
   9  -3  -8   44.10    2.53
  -9  -3   8   63.23    4.44
   9  -3  -8   47.61    2.96
  -9  -3   8   45.45    2.51
   9   3  -8   45.82    2.86
   9   3  -8   42.71    2.52
  -9   3   8   50.21    2.86
   8  -3  -8    1.91    1.09
  -8  -3   8    3.36    1.81
   8  -3  -8    3.13    1.22
  -8  -3   8    4.34    0.96
   8  -3  -8    2.57    1.57
   8   3  -8    1.56    1.14
   8   3  -8    3.16    0.91
  -8   3   8    2.16    1.22
  -8   3   8    3.32    1.24
   8   3  -8    1.30    1.01
   7  -3  -8    4.81    1.27
   7  -3  -8    6.71    1.06
   7  -3  -8    7.47    1.60
  -7  -3   8    6.69    1.40
  -7  -3   8    7.04    1.06
  -7   3   8    5.83    1.03
   7   3  -8    5.67    1.20
  -7   3   8    9.03    1.38
   7   3  -8    8.02    1.33
   7   3  -8    5.99    1.28
  -6  -3   8  153.23    5.16
   6  -3  -8  140.35    5.30
   6  -3  -8  140.53    5.16
   6  -3  -8  146.65    5.08
  -6  -3   8  149.00    5.32
   6   3  -8  150.82    5.08
  -6   3   8  146.89    5.23
  -6   3   8  149.00    5.18
   6   3  -8  145.79    5.13
   6   3  -8  148.75    5.15
   5  -3  -8  107.88    3.92
   5  -3  -8   97.97    3.78
  -5  -3   8  105.12    3.81
   5  -3  -8  106.49    4.22
  -5  -3   8   98.21    4.08
  -5   3   8  103.74    3.99
  -5   3   8  105.84    3.78
   5   3  -8  101.75    3.85
   5   3  -8  103.69    3.90
   5   3  -8  106.93    3.86
  -4  -3   8   79.07    3.39
   4  -3  -8   84.71    3.51
  -4  -3   8   81.95    3.04
   4  -3  -8   76.40    3.02
   4  -3  -8   78.61    3.07
   4   3  -8   81.26    3.11
  -4   3   8   79.53    3.28
   4   3  -8   81.65    3.07
   4   3  -8   80.28    3.30
  -3  -3   8    7.38    1.03
   3  -3  -8    6.31    0.88
   3  -3  -8    7.51    1.01
   3  -3  -8    5.89    1.14
  -3  -3   8    8.28    0.87
   3   3  -8    6.56    0.94
   3   3  -8    9.05    1.13
  -3   3   8    7.38    0.94
   3   3  -8    7.47    0.87
   2  -3  -8   72.22    2.71
  -2  -3   8   70.44    2.81
   2  -3  -8   69.16    2.91
   2  -3  -8   67.88    2.67
   2   3  -8   72.26    2.76
   2   3  -8   74.21    2.79
  -2   3   8   67.38    2.83
  -1  -3   8  183.09    5.98
   1  -3  -8  184.48    5.88
   1  -3  -8  185.45    6.19
   1   3  -8  184.85    5.99
   1   3  -8  188.47    5.94
  -1   3   8  181.62    5.89
   0  -3   8  143.40    4.65
   0  -3  -8  139.37    4.54
   0  -3  -8  136.25    4.47
   0  -3  -8  132.43    4.86
   0   3  -8  135.25    4.68
   0   3  -8  142.53    4.59
   0   3   8  136.57    4.55
  -1  -3  -8    3.17    0.95
  -1  -3  -8    4.25    0.56
   1  -3   8    2.63    0.77
  -1  -3  -8    3.23    0.78
  -1  -3  -8    3.40    0.69
   1   3   8    4.42    0.76
  -1   3  -8    2.39    0.81
  -1   3  -8    2.27    0.72
  -2  -3  -8   10.86    1.35
  -2  -3  -8    5.69    0.90
  -2  -3  -8    7.11    0.79
  -2   3  -8   12.73    1.12
   2   3   8   10.42    0.92
  -3  -3  -8  161.46    5.55
  -3  -3  -8  158.20    5.09
  -3  -3  -8  171.64    6.22
   3   3   8  163.18    5.12
  -3   3  -8  156.37    5.32
  -3   3  -8  164.45    5.10
  -4  -3  -8   26.03    1.91
  -4  -3  -8   25.59    1.30
  -4  -3  -8   27.45    2.39
   4   3   8   25.54    1.35
  -4   3  -8   26.91    1.30
  -4   3  -8   24.41    1.67
  -5  -3  -8    0.72    0.92
  -5  -3  -8    0.86    1.11
  -5  -3  -8    2.56    0.54
   5   3   8    1.71    0.63
  -5   3  -8    0.86    0.59
   9  -4  -8    5.47    1.46
  -9  -4   8    5.47    1.74
  -9  -4   8    4.48    1.44
   9  -4  -8    8.26    1.66
  -9  -4   8    6.50    2.97
  -9   4   8    5.02    1.49
   9   4  -8    2.69    1.17
   9   4  -8    7.87    1.51
  -8  -4   8  136.12    4.94
  -8  -4   8  124.51    6.49
   8  -4  -8  136.79    5.60
   8  -4  -8  137.20    5.14
  -8   4   8  137.65    5.09
   8   4  -8  131.63    5.10
   8   4  -8  131.36    4.89
  -8   4   8  127.56    4.91
   8   4  -8  129.74    5.02
   7  -4  -8   63.44    3.58
   7  -4  -8   61.81    2.88
   7  -4  -8   64.09    3.04
  -7  -4   8   61.75    3.02
  -7  -4   8   64.04    4.78
   7   4  -8   59.32    3.05
  -7   4   8   61.28    2.85
   7   4  -8   60.79    3.11
   7   4  -8   61.80    2.79
  -7   4   8   62.66    3.12
  -6  -4   8   35.28    1.96
   6  -4  -8   33.18    2.28
   6  -4  -8   32.56    2.23
   6  -4  -8   31.30    2.71
   6   4  -8   36.47    2.00
   6   4  -8   38.39    2.43
   6   4  -8   36.94    2.27
  -6   4   8   34.45    2.09
  -6   4   8   35.24    2.04
   5  -4  -8    4.73    1.12
   5  -4  -8    6.34    1.12
   5  -4  -8    5.07    1.01
   5   4  -8    4.42    0.84
  -5   4   8    3.53    0.92
   4  -4  -8  198.01    6.82
   4  -4  -8  210.29    6.75
   4  -4  -8  205.60    6.79
  -4  -4   8  209.82    6.59
   4   4  -8  211.76    6.67
  -4   4   8  202.07    6.81
   4   4  -8  214.14    6.75
   4   4  -8  200.72    6.84
   3  -4  -8   63.34    2.76
   3  -4  -8   66.15    3.02
   3  -4  -8   68.85    2.90
   3   4  -8   64.40    2.74
   3   4  -8   64.86    2.62
   3   4  -8   67.25    2.97
  -3   4   8   67.89    2.95
   2  -4  -8   92.16    3.43
   2  -4  -8   82.23    3.41
   2  -4  -8   87.02    3.64
   2   4  -8   90.64    3.37
   2   4  -8   90.41    3.49
  -2   4   8   88.19    3.43
   1  -4  -8   19.59    1.48
   1  -4  -8   15.69    1.23
   1  -4  -8   16.10    1.55
   1   4  -8   14.71    1.38
  -1   4   8   16.18    1.35
   1   4  -8   14.70    1.24
   0  -4  -8   26.66    2.27
   0  -4  -8   24.73    1.59
   0  -4  -8   24.21    1.95
   0   4   8   26.81    1.72
   0   4  -8   23.43    1.67
   0   4  -8   23.81    1.80
  -1  -4  -8   24.19    1.97
  -1  -4  -8   25.16    1.41
  -1  -4  -8   26.28    2.00
  -1   4  -8   26.40    1.65
  -1   4  -8   27.13    1.85
   1   4   8   25.86    1.68
  -2  -4  -8  119.39    4.91
  -2  -4  -8  113.78    4.36
  -2  -4  -8  115.38    3.98
  -2   4  -8  117.37    4.23
  -2   4  -8  116.18    4.01
   2   4   8  115.32    4.03
  -3  -4  -8   16.71    1.65
  -3  -4  -8   14.93    1.24
  -3  -4  -8   17.62    1.76
  -3   4  -8   16.68    1.30
   3   4   8   16.88    1.26
  -3   4  -8   17.36    1.45
  -4  -4  -8    6.07    1.36
  -4  -4  -8    4.86    0.78
  -4  -4  -8    5.73    1.04
   4   4   8    5.88    0.85
  -4   4  -8    5.46    0.84
  -4   4  -8    5.90    1.07
  -8  -5   8   10.63    1.92
  -8  -5   8    9.22    1.29
  -8  -5   8   12.64    2.30
  -8   5   8    7.54    1.27
   7  -5  -8   22.32    2.09
   7  -5  -8   23.63    1.95
   7  -5  -8   21.96    1.83
  -7  -5   8   22.17    1.99
  -7  -5   8   22.55    1.95
  -7  -5   8   19.47    2.38
  -7   5   8   20.10    1.89
   7   5  -8   22.01    1.79
  -7   5   8   22.16    1.94
   7   5  -8   19.96    1.80
   7   5  -8   22.26    2.05
   6  -5  -8   10.02    1.45
   6  -5  -8    9.08    1.44
   6  -5  -8   12.14    1.50
  -6  -5   8   10.71    1.71
  -6  -5   8   10.53    1.21
  -6  -5   8   11.10    2.38
   6   5  -8   10.43    1.44
   6   5  -8    9.12    1.19
   6   5  -8    8.89    1.31
  -6   5   8   12.80    1.38
   5  -5  -8   54.64    2.84
   5  -5  -8   64.71    3.27
  -5  -5   8   54.74    2.82
  -5  -5   8   56.64    4.15
   5  -5  -8   59.58    2.90
  -5   5   8   59.95    2.77
   5   5  -8   59.58    3.06
   5   5  -8   60.01    2.66
   5   5  -8   53.74    2.62
   4  -5  -8    7.45    1.09
   4  -5  -8    7.45    1.18
  -4  -5   8    6.34    1.08
   4  -5  -8    8.11    1.41
   4   5  -8    6.00    1.22
  -4   5   8    6.17    1.04
   4   5  -8    6.72    1.37
   4   5  -8    6.79    1.13
   3  -5  -8   -0.91    0.97
  -3  -5   8    1.22    1.01
   3  -5  -8    0.37    0.67
  -3   5   8    0.40    1.04
   3   5  -8   -0.30    1.08
   3   5  -8    0.25    0.99
  -2  -5   8    2.30    0.96
   2  -5  -8    1.59    0.84
   2  -5  -8    2.24    0.99
   2  -5  -8    3.27    0.96
   2   5  -8    3.50    1.14
  -2   5   8    1.82    1.04
   1  -5  -8   64.06    2.83
  -1  -5   8   62.66    2.69
   1  -5  -8   63.16    2.94
  -1   5   8   65.81    2.89
   1   5  -8   63.75    2.94
   1   5  -8   62.02    2.93
   0  -5  -8   -0.34    0.54
   0  -5  -8    0.92    0.83
   0  -5   8    0.22    0.45
   0  -5  -8    2.21    1.13
   0   5  -8    0.79    0.72
   0   5   8    0.38    0.61
   0   5  -8    0.76    0.69
  -1  -5  -8    5.12    1.00
  -1  -5  -8    4.06    1.27
  -1  -5  -8    5.85    1.16
   1   5   8    6.56    1.09
  -1   5  -8    5.92    1.05
  -1   5  -8    5.35    1.15
  -2  -5  -8    7.24    1.04
  -2  -5  -8    6.66    1.37
  -2  -5  -8    7.60    1.61
  -2   5  -8    6.04    0.97
   2   5   8    8.17    1.12
  -2   5  -8    5.71    0.86
  -3  -5  -8   11.62    1.17
  -3  -5  -8    9.63    1.54
  -3  -5  -8   11.25    1.60
   3   5   8   10.14    1.05
  -3   5  -8    8.62    1.00
  -3   5  -8    7.67    1.09
  -6  -6   8    1.43    1.92
   6  -6  -8   -0.92    1.14
   6  -6  -8    1.85    1.23
   6  -6  -8   -0.98    1.05
  -6  -6   8   -0.12    1.38
   6   6  -8    0.84    0.84
  -6   6   8    0.02    0.86
   6   6  -8    1.50    1.20
   6   6  -8    2.54    1.01
   5  -6  -8    6.48    1.30
   5  -6  -8    8.38    1.40
   5  -6  -8    7.94    1.54
  -5  -6   8    2.50    0.97
  -5  -6   8    2.51    1.32
   5   6  -8    2.69    1.36
   5   6  -8    5.92    1.04
  -5   6   8    3.26    1.06
  -4  -6   8    3.09    1.26
   4  -6  -8    4.25    1.02
   4  -6  -8    1.83    0.96
  -4  -6   8    3.46    1.78
   4   6  -8    3.73    0.96
  -4   6   8    5.25    1.34
   4   6  -8    1.81    1.32
  -3  -6   8    0.98    0.78
   3  -6  -8    1.62    1.18
   3  -6  -8    1.12    1.12
   3  -6  -8    0.26    0.75
  -3  -6   8    2.83    1.65
  -3   6   8    0.69    1.16
   3   6  -8   -0.35    1.16
   3   6  -8    0.20    1.09
  -2  -6   8    7.19    1.22
   2  -6  -8    8.67    1.34
   2  -6  -8    6.65    1.43
   2  -6  -8   10.35    1.36
   2   6  -8    8.81    1.22
   2   6  -8    7.94    1.16
  -2   6   8    9.44    1.19
   1  -6  -8   19.56    1.69
  -1  -6   8   22.29    1.45
   1  -6  -8   19.37    1.95
   1   6  -8   20.27    1.67
   1   6  -8   21.11    1.85
  -1   6   8   17.30    1.66
   0  -6  -8    0.10    0.82
   0  -6  -8    0.03    0.70
   0  -6  -8    0.83    1.22
   0   6   8   -0.09    0.69
   0   6  -8    0.85    1.11
   0   6  -8   -0.62    1.07
  -1  -6  -8   10.34    1.68
  -1  -6  -8    9.43    1.13
  -1  -6  -8   11.71    1.45
  -1   6  -8    8.28    1.17
  -1   6  -8    8.92    1.17
   1   6   8   10.26    1.38
  -2  -6  -8    1.36    1.49
  -2  -6  -8    0.72    0.94
  -2   6  -8    1.43    0.78
  10   0  -9    0.38    1.13
 -10   0   9    0.54    1.18
  10   0  -9   -1.60    1.10
  10   0  -9   -0.26    1.18
 -10   0   9   -0.50    0.83
   9   0  -9  108.16    4.48
  -9   0   9  105.74    4.29
  -9   0   9  100.73    4.27
   9   0  -9  116.29    4.44
   9   0  -9  103.68    4.31
   9   0  -9  107.74    4.13
  -9   0   9  100.92    4.09
   8   0  -9    0.25    0.73
   8   0  -9    0.98    1.09
  -8   0   9   -0.71    0.65
   8   0  -9   -0.56    1.00
  -8   0   9   -0.81    1.01
  -8   0   9    0.32    1.11
   8   0  -9   -0.30    1.29
  -7   0   9  113.94    4.15
   7   0  -9  110.54    4.09
   7   0  -9  104.18    4.06
   7   0  -9  106.50    4.05
  -7   0   9  112.12    4.32
  -7   0   9  113.42    4.17
  -6   0   9   -0.98    0.77
  -6   0   9    1.03    1.08
   6   0  -9    0.66    0.92
  -6   0   9   -0.24    0.83
   6   0  -9    0.90    0.65
   6   0  -9    0.23    0.69
   5   0  -9    2.17    0.82
  -5   0   9    2.19    0.76
   4   0  -9    0.54    0.67
   4   0  -9    1.73    0.91
  -4   0   9   -0.24    0.62
  -4   0   9    0.62    0.63
   4   0  -9    0.06    0.64
  -4   0   9   -0.13    0.69
   3   0  -9  382.50   11.33
   3   0  -9  373.79   11.38
  -3   0   9  381.32   11.09
   3   0  -9  371.72   11.12
  -3   0   9  376.63   11.33
  -2   0   9   -0.14    0.37
   2   0  -9   -0.51    0.50
   2   0  -9    0.70    0.72
  -2   0   9    0.84    0.57
  -1   0   9    0.09    0.49
   1   0  -9    0.37    0.64
  -1   0   9   -0.21    0.32
   1   0  -9   -0.18    0.62
   0   0  -9   -0.37    0.53
   0   0   9    0.16    0.57
   0   0  -9    0.79    0.60
  -1   0  -9   70.03    2.45
   1   0   9   69.96    2.47
  -1   0  -9   70.58    2.54
  -2   0  -9   -0.49    0.42
   2   0   9    0.09    0.46
  -2   0  -9    0.13    0.37
  -3   0  -9   22.87    1.03
   3   0   9   21.45    1.03
  -4   0  -9    0.22    0.31
   4   0   9    0.07    0.35
  -5   0  -9   33.74    2.65
  -5   0  -9   33.52    1.17
 -10  -1   9   51.84    2.67
  10  -1  -9   46.84    2.93
  10  -1  -9   51.85    3.08
 -10  -1   9   52.82    4.88
 -10  -1   9   50.76    3.00
  10  -1  -9   49.26    2.61
 -10   1   9   49.59    2.63
  10   1  -9   47.86    2.79
  10   1  -9   47.24    2.95
 -10   1   9   47.65    2.95
  -9  -1   9   10.12    1.46
  -9  -1   9   11.12    1.30
   9  -1  -9   11.94    1.85
   9  -1  -9   10.65    1.50
   9  -1  -9   11.88    1.37
  -9  -1   9   11.33    1.36
   9   1  -9   12.53    1.33
   9   1  -9   13.23    1.62
  -9   1   9   10.65    1.58
  -9   1   9   11.79    1.36
  -9   1   9    9.90    1.49
   8  -1  -9    5.75    1.27
   8  -1  -9    6.00    1.26
  -8  -1   9    5.57    1.42
  -8  -1   9    5.00    0.95
  -8  -1   9    4.14    1.20
   8  -1  -9    4.90    1.00
   8  -1  -9    6.24    1.26
   8   1  -9    4.56    0.99
  -8   1   9    6.68    1.31
  -8   1   9    7.47    1.11
   8   1  -9    6.62    1.30
   8   1  -9    5.08    1.24
  -8   1   9    6.75    1.24
   7  -1  -9    3.42    0.86
  -7  -1   9    2.62    0.77
   7  -1  -9    3.59    0.89
   7  -1  -9    1.41    0.81
  -7  -1   9    3.99    1.29
  -7  -1   9    3.60    0.83
   7  -1  -9    2.41    1.27
  -7   1   9    2.39    1.01
   7   1  -9    0.97    1.00
  -7   1   9    3.90    1.24
  -7   1   9    2.12    0.80
   7   1  -9    2.82    0.83
   7   1  -9    2.63    1.14
  -6  -1   9  127.38    4.30
  -6  -1   9  117.28    4.33
   6  -1  -9  122.40    4.78
   6  -1  -9  124.00    4.50
  -6  -1   9  117.24    4.38
   6  -1  -9  121.84    4.42
   6  -1  -9  124.29    4.49
  -6   1   9  117.86    4.27
   6   1  -9  120.86    4.30
  -6   1   9  119.85    4.34
  -6   1   9  125.71    4.58
   6   1  -9  122.54    4.51
   6   1  -9  121.40    4.36
  -5  -1   9   34.31    1.72
  -5  -1   9   37.30    1.85
  -5  -1   9   34.78    1.96
   5  -1  -9   41.46    2.53
   5  -1  -9   36.33    2.00
   5  -1  -9   28.37    1.80
   5  -1  -9   30.77    1.83
   5   1  -9   31.23    1.86
   5   1  -9   37.94    2.13
   5   1  -9   35.23    1.95
  -5   1   9   36.09    2.25
  -5   1   9   33.31    1.72
  -5   1   9   39.36    1.96
  -4  -1   9   13.63    1.11
   4  -1  -9   13.32    1.17
  -4  -1   9   14.60    1.40
   4  -1  -9   11.80    1.30
   4  -1  -9   15.88    1.22
  -4  -1   9   14.05    1.03
   4   1  -9   14.38    1.14
   4   1  -9   15.20    1.39
   4   1  -9   11.92    1.11
  -4   1   9   11.67    0.96
  -4   1   9   12.24    1.02
  -4   1   9   12.72    1.36
  -3  -1   9   69.00    2.40
   3  -1  -9   68.43    2.77
  -3  -1   9   67.61    2.69
   3  -1  -9   68.43    2.53
   3  -1  -9   66.16    2.78
   3   1  -9   67.78    2.67
   3   1  -9   66.10    2.41
  -3   1   9   68.02    2.53
   3   1  -9   65.60    2.67
  -3   1   9   67.79    2.81
  -2  -1   9  139.74    4.19
  -2  -1   9  128.87    4.61
   2  -1  -9  142.55    4.54
   2  -1  -9  137.40    4.61
   2   1  -9  143.11    4.57
  -2   1   9  138.63    4.34
   2   1  -9  134.85    4.63
  -2   1   9  132.93    4.59
   1  -1  -9    2.22    0.69
  -1  -1   9    1.57    0.78
   1  -1  -9    0.51    0.66
   1   1  -9    1.49    0.72
  -1   1   9    1.41    0.71
   1   1  -9   -0.22    0.68
  -1   1   9    0.92    0.48
   0  -1  -9   37.14    1.68
   0  -1   9   37.97    1.78
   0  -1  -9   36.58    1.65
   0   1  -9   39.02    1.74
   0   1   9   34.88    1.36
   0   1   9   37.85    1.71
   0   1  -9   37.79    1.69
   1  -1   9   80.04    2.86
  -1  -1  -9   78.92    2.74
  -1  -1  -9   82.66    2.74
  -1   1  -9   79.35    2.77
  -1   1  -9   78.57    2.90
   1   1   9   79.18    2.80
  -2  -1  -9   51.98    1.99
   2  -1   9   59.18    2.07
   2   1   9   57.78    2.08
  -2   1  -9   52.58    2.18
  -2   1  -9   57.64    2.04
  -3  -1  -9   14.38    0.90
   3  -1   9   16.15    0.94
  -3  -1  -9   14.57    1.73
   3   1   9   15.92    0.96
  -3   1  -9   15.16    0.92
  -4  -1  -9   36.35    1.35
   4  -1   9   36.75    1.40
  -4  -1  -9   33.69    2.73
   4   1   9   35.71    1.41
  -4   1  -9   34.89    1.33
  -5  -1  -9    7.43    0.59
  -5  -1  -9    9.37    1.71
  -5   1  -9    8.76    0.60
  -9  -2   9   17.62    1.74
   9  -2  -9   16.44    1.79
  -9  -2   9   15.46    1.53
   9  -2  -9   19.60    1.96
  -9  -2   9   16.09    1.81
  -9   2   9   15.36    1.69
   9   2  -9   16.66    1.50
   9   2  -9   17.96    1.83
  -9   2   9   16.94    1.80
  -9   2   9   17.96    1.76
   8  -2  -9   11.82    1.55
  -8  -2   9   10.36    1.39
  -8  -2   9    8.42    1.27
   8  -2  -9   10.49    1.25
   8  -2  -9    8.06    1.44
  -8  -2   9   11.65    1.46
  -8   2   9    9.73    1.23
   8   2  -9   11.97    1.56
   8   2  -9    9.71    1.24
  -8   2   9   11.28    1.28
   8   2  -9    9.54    1.21
  -8   2   9   11.00    1.56
   7  -2  -9   -0.21    1.00
   7  -2  -9    0.65    1.08
  -7  -2   9    0.61    0.92
  -7  -2   9    2.15    1.29
  -7  -2   9    0.45    0.66
   7  -2  -9   -0.01    1.29
   7   2  -9    0.45    0.72
  -7   2   9    1.98    1.19
  -7   2   9    1.36    0.99
  -7   2   9   -0.06    0.69
   7   2  -9    1.58    1.06
   7   2  -9    0.69    0.82
  -6  -2   9   34.19    2.38
   6  -2  -9   28.84    2.09
   6  -2  -9   32.45    2.11
  -6  -2   9   30.34    1.87
  -6  -2   9   32.48    1.76
   6  -2  -9   31.25    2.12
  -6   2   9   29.17    1.73
   6   2  -9   30.64    2.03
  -6   2   9   30.10    1.92
   6   2  -9   32.08    2.08
   6   2  -9   33.90    2.21
  -6   2   9   31.13    1.82
  -5  -2   9   43.71    2.53
   5  -2  -9   51.03    2.72
   5  -2  -9   47.81    2.33
   5  -2  -9   35.34    2.07
  -5  -2   9   43.98    2.03
   5   2  -9   41.13    2.17
   5   2  -9   43.90    2.36
  -5   2   9   44.09    2.07
  -5   2   9   47.07    2.22
  -5   2   9   47.51    2.49
   5   2  -9   45.43    2.24
  -4  -2   9   18.05    1.56
  -4  -2   9   15.64    1.14
   4  -2  -9   16.74    1.42
   4  -2  -9   17.21    1.48
   4  -2  -9   15.36    1.36
  -4   2   9   16.14    1.47
   4   2  -9   15.84    1.30
   4   2  -9   15.75    1.40
  -4   2   9   15.96    1.26
  -4   2   9   14.06    1.13
   4   2  -9   15.55    1.13
  -3  -2   9   23.16    1.87
   3  -2  -9   22.38    1.47
   3  -2  -9   21.18    1.92
   3  -2  -9   22.54    1.64
   3  -2  -9   21.33    1.65
  -3   2   9   22.26    1.45
  -3   2   9   21.45    1.73
   3   2  -9   22.99    1.73
   3   2  -9   21.20    1.73
   2  -2  -9   15.74    1.16
  -2  -2   9   14.94    1.35
   2  -2  -9   13.17    1.10
  -2   2   9   14.53    1.17
   2   2  -9   11.97    1.08
   2   2  -9   12.89    1.10
   1  -2  -9  136.24    4.62
   1  -2  -9  139.65    4.62
  -1  -2   9  144.12    4.74
   1   2  -9  139.00    4.74
  -1   2   9  143.90    4.66
   1   2  -9  138.10    4.67
   0  -2  -9   52.42    2.10
   0  -2  -9   48.28    2.03
   0  -2   9   50.91    2.20
   0   2   9   50.48    2.13
   0   2  -9   47.05    2.12
   0   2  -9   52.13    2.14
  -1  -2  -9   80.71    2.74
  -1  -2  -9   81.16    2.83
   1  -2   9   74.99    2.87
  -1   2  -9   79.52    2.86
  -1   2  -9   86.43    3.06
   1   2   9   79.27    2.85
  -2  -2  -9    8.62    0.76
   2  -2   9    9.08    0.92
  -2  -2  -9    7.60    1.27
   2   2   9    8.55    0.80
  -2   2  -9    8.43    0.84
  -2   2  -9    9.47    0.81
   3  -2   9   30.41    1.52
  -3  -2  -9   32.14    2.80
  -3  -2  -9   31.81    1.95
  -3  -2  -9   31.49    1.39
  -3   2  -9   32.26    1.39
   3   2   9   32.11    1.43
  -3   2  -9   34.70    1.73
  -4  -2  -9   21.59    1.46
  -4  -2  -9   21.99    1.15
   4   2   9   20.96    1.20
  -4   2  -9   22.71    1.13
  -5  -2  -9  101.72    4.63
  -5  -2  -9  107.47    3.40
  -5   2  -9  108.23    3.38
   5   2   9  105.05    3.42
   9  -3  -9   10.25    1.66
   9  -3  -9   11.55    1.69
  -9  -3   9   12.36    2.47
  -9  -3   9   10.81    1.37
  -9   3   9    9.38    1.36
   9   3  -9    9.52    1.45
   9   3  -9    9.67    1.59
  -9   3   9    9.90    1.56
  -9   3   9    6.87    1.50
  -8  -3   9   23.73    2.06
   8  -3  -9   22.89    2.32
  -8  -3   9   22.25    1.82
   8  -3  -9   21.76    1.74
   8  -3  -9   21.02    1.90
   8   3  -9   19.18    1.88
  -8   3   9   19.87    1.66
  -8   3   9   22.95    1.99
   8   3  -9   19.02    1.87
   8   3  -9   21.73    1.88
   7  -3  -9   48.40    2.83
  -7  -3   9   56.57    3.03
   7  -3  -9   50.60    2.56
  -7  -3   9   57.76    2.57
   7  -3  -9   50.70    2.79
   7   3  -9   53.10    2.51
   7   3  -9   50.09    2.85
  -7   3   9   55.13    2.93
  -7   3   9   49.93    2.77
   7   3  -9   53.26    2.77
  -6  -3   9   33.06    2.52
   6  -3  -9   36.19    2.28
   6  -3  -9   33.51    1.98
  -6  -3   9   32.22    2.05
   6  -3  -9   36.90    2.67
  -6   3   9   32.32    2.04
  -6   3   9   35.95    2.26
   6   3  -9   37.86    2.11
   6   3  -9   34.98    2.22
   6   3  -9   36.76    2.18
   5  -3  -9   52.77    3.02
  -5  -3   9   55.24    2.95
   5  -3  -9   56.64    2.76
   5  -3  -9   56.38    2.69
  -5  -3   9   57.83    2.43
   5   3  -9   55.74    2.74
  -5   3   9   59.17    2.64
  -5   3   9   60.01    2.53
   5   3  -9   56.96    2.62
   5   3  -9   57.96    2.85
   4  -3  -9   16.31    1.38
   4  -3  -9   15.08    1.42
  -4  -3   9   15.03    1.63
   4  -3  -9   18.28    1.44
   4   3  -9   17.51    1.55
  -4   3   9   15.93    1.25
   4   3  -9   17.45    1.42
  -4   3   9   17.48    1.55
   4   3  -9   15.61    1.33
   3  -3  -9    7.04    0.96
   3  -3  -9    5.80    1.08
  -3  -3   9    5.38    1.21
   3   3  -9    7.64    0.99
  -3   3   9    7.28    1.14
   3   3  -9    8.20    1.20
   2  -3  -9  112.62    3.91
   2  -3  -9  100.76    3.97
  -2  -3   9  109.72    4.03
   2   3  -9  109.56    3.95
   2   3  -9  108.27    3.88
  -2   3   9  105.90    3.90
   1  -3  -9   29.78    1.69
   1  -3  -9   27.24    1.64
  -1  -3   9   30.58    1.92
   1   3  -9   28.18    1.75
   1   3  -9   28.01    1.85
  -1   3   9   25.59    1.74
   0  -3  -9   14.90    1.16
   0  -3   9   16.03    1.31
   0  -3  -9   13.57    1.46
   0  -3  -9   14.22    1.26
   0   3  -9   15.71    1.37
   0   3  -9   15.34    1.32
   0   3   9   13.79    1.20
  -1  -3  -9   21.90    2.00
  -2  -3  -9   52.63    2.64
  -2  -3  -9   47.21    2.86
   2  -3   9   49.10    2.17
  -2  -3  -9   53.30    2.12
  -2   3  -9   49.81    2.11
  -2   3  -9   51.65    2.41
   2   3   9   53.91    2.17
  -3  -3  -9    1.17    0.93
  -3  -3  -9    2.20    1.41
  -3  -3  -9    0.62    0.53
  -3   3  -9    1.21    0.77
   3   3   9    0.75    0.60
  -3   3  -9   -0.16    0.54
  -4  -3  -9    4.28    1.69
  -4  -3  -9    8.46    1.27
  -4  -3  -9    6.98    0.77
  -4   3  -9    8.32    1.05
  -4   3  -9    5.41    0.71
   4   3   9    5.47    0.78
  -8  -4   9   47.16    2.53
   8  -4  -9   53.62    2.88
  -8  -4   9   45.62    3.92
   8  -4  -9   48.03    3.02
   8  -4  -9   46.33    2.58
   8   4  -9   51.53    2.95
  -8   4   9   44.05    2.88
   8   4  -9   45.75    2.85
   8   4  -9   46.92    2.71
  -8   4   9   45.22    2.85
  -7  -4   9   13.93    1.42
   7  -4  -9   14.88    1.69
   7  -4  -9   14.78    1.47
   7  -4  -9   14.81    1.74
   7   4  -9   15.96    1.48
  -7   4   9   17.95    1.83
  -7   4   9   13.71    1.44
   7   4  -9   15.68    1.70
   7   4  -9   15.45    1.76
   6  -4  -9    5.16    1.21
   6  -4  -9    7.32    1.53
  -6  -4   9    5.19    0.89
   6  -4  -9    5.98    1.03
   6   4  -9    7.08    1.40
   6   4  -9    5.74    1.17
  -6   4   9    3.33    0.95
   6   4  -9    5.56    0.98
  -6   4   9    5.59    1.33
   5  -4  -9   43.36    2.45
   5  -4  -9   43.71    2.40
   5  -4  -9   38.15    2.39
  -5   4   9   38.43    2.52
   5   4  -9   42.58    2.28
  -5   4   9   42.17    2.43
   5   4  -9   39.16    2.04
   5   4  -9   42.99    2.23
   4  -4  -9   38.28    2.58
   4  -4  -9   43.67    2.38
   4   4  -9   44.84    2.51
  -4   4   9   40.72    2.47
   4   4  -9   39.41    2.37
   3  -4  -9   31.15    1.80
   3  -4  -9   30.34    2.16
  -3   4   9   33.52    1.87
   3   4  -9   30.72    1.83
   3   4  -9   29.00    2.11
   2  -4  -9   36.45    2.03
   2  -4  -9   30.74    2.01
   2   4  -9   36.17    1.94
  -2   4   9   31.75    2.07
   2   4  -9   33.63    1.88
   1  -4  -9    4.09    1.18
   1  -4  -9    3.19    0.92
   1   4  -9    1.61    0.96
  -1   4   9    3.53    0.98
   1   4  -9    2.99    0.81
   0  -4  -9   27.21    2.08
   0  -4  -9   27.43    1.71
   0   4   9   25.79    1.57
   0   4  -9   26.12    1.57
   0   4  -9   28.11    1.95
  -1  -4  -9    8.52    1.37
  -1  -4  -9    5.41    0.92
  -1  -4  -9    6.31    1.27
  -1   4  -9    8.55    1.08
  -1   4  -9    9.43    1.24
   1   4   9    5.85    1.01
  -2  -4  -9    4.26    0.83
  -2  -4  -9    5.04    1.59
  -2  -4  -9    4.05    1.20
   2   4   9    4.23    0.89
  -2   4  -9    3.26    0.85
  -2   4  -9    4.78    1.06
  -3  -4  -9    8.59    0.98
  -3  -4  -9    7.42    1.48
  -3  -4  -9    6.62    1.13
  -3   4  -9    8.71    0.97
  -3   4  -9    6.27    0.97
   3   4   9    7.37    1.00
  -7  -5   9    0.19    1.07
  -7  -5   9    1.05    2.39
   7  -5  -9    0.62    1.22
   7  -5  -9    0.32    1.61
   7  -5  -9    1.38    0.93
  -7   5   9    1.14    1.32
   7   5  -9    0.21    1.36
   7   5  -9    3.98    1.28
   7   5  -9    2.93    1.30
  -7   5   9    0.23    1.26
  -6  -5   9   24.84    3.03
  -6  -5   9   25.86    2.32
   6  -5  -9   27.40    2.25
   6  -5  -9   27.53    2.23
   6  -5  -9   30.95    2.50
  -6   5   9   24.16    1.92
   6   5  -9   30.13    1.95
  -6   5   9   25.90    2.16
   6   5  -9   29.18    2.20
   6   5  -9   25.82    2.20
   5  -5  -9    6.73    1.34
   5  -5  -9    6.84    1.36
   5  -5  -9    7.14    1.59
   5   5  -9    6.55    1.45
   5   5  -9    7.31    1.12
  -5   5   9    7.00    1.18
   4  -5  -9    1.45    1.20
   4  -5  -9    1.31    0.83
   4   5  -9    2.23    1.25
  -4   5   9    1.00    0.82
   4   5  -9    0.44    0.78
  -3  -5   9   14.24    1.58
   3  -5  -9   16.06    1.57
   3  -5  -9   10.09    1.40
   3   5  -9   13.14    1.52
  -3   5   9   14.26    1.56
   3   5  -9   10.97    1.54
  -2  -5   9   11.50    1.34
   2  -5  -9    9.51    1.21
   2  -5  -9    9.27    1.13
   2  -5  -9   11.01    1.54
   2   5  -9    9.81    1.42
   2   5  -9    9.30    1.18
  -2   5   9   10.75    1.18
   1  -5  -9   37.37    2.23
  -1  -5   9   38.61    2.04
   1  -5  -9   33.35    2.11
   1   5  -9   36.93    2.30
  -1   5   9   35.64    2.22
   1   5  -9   33.51    2.30
   0  -5  -9    1.37    1.19
   0  -5  -9    0.48    0.87
   0   5  -9    1.66    1.06
   0   5  -9    0.67    0.71
   0   5   9    1.22    0.70
  -1  -5  -9   13.18    1.18
  -1  -5  -9   12.40    1.66
  -1  -5  -9   14.14    1.87
  -1   5  -9   12.19    1.27
   1   5   9   13.40    1.38
  -1   5  -9   12.52    1.18
  -2  -5  -9    0.51    0.59
  -2  -5  -9    1.18    1.21
  -2  -5  -9    2.10    1.15
  -2   5  -9    0.69    0.75
   2   5   9    0.18    0.92
  -2   5  -9    1.23    0.91
   5  -6  -9    0.14    1.20
  -5  -6   9    0.87    1.93
   5  -6  -9    2.15    1.43
  -5  -6   9   -0.35    1.24
   5   6  -9   -1.10    1.30
   4  -6  -9   17.75    1.67
   4  -6  -9   21.57    2.02
  -4  -6   9   20.46    2.16
  -4  -6   9   21.02    1.96
   4   6  -9   16.49    1.94
  -4   6   9   19.05    1.90
   4   6  -9   16.91    1.84
   3  -6  -9    1.20    1.07
   3  -6  -9    0.17    1.13
  -3  -6   9    0.02    1.06
   3   6  -9    0.73    1.26
  -3   6   9    0.40    1.21
   3   6  -9    0.58    0.84
   2  -6  -9   10.39    1.26
   2  -6  -9    8.53    1.35
  -2  -6   9    7.83    1.28
   2   6  -9    8.85    1.51
   2   6  -9    7.95    1.49
  -2   6   9    9.98    1.47
   1  -6  -9    7.76    1.30
   1  -6  -9    8.28    1.14
   1   6  -9    7.68    1.44
  -1   6   9    9.10    1.21
   1   6  -9    7.05    1.18
   0  -6  -9   79.33    3.65
   0  -6  -9   78.33    3.27
   0   6  -9   77.21    3.50
   0   6   9   79.21    3.50
   0   6  -9   76.35    3.60
  -9   0  10   -0.16    1.05
   9   0 -10   -0.43    0.78
  -9   0  10   -0.17    0.78
   9   0 -10   -1.40    0.75
  -9   0  10    0.50    1.30
   9   0 -10    1.00    1.16
   8   0 -10  216.00    7.49
   8   0 -10  229.95    7.58
  -8   0  10  221.66    7.49
  -8   0  10  230.02    7.70
  -8   0  10  234.83    7.49
   8   0 -10  235.98    7.65
  -7   0  10   -0.53    0.87
  -7   0  10   -0.02    0.83
  -7   0  10   -0.70    0.61
   7   0 -10   -0.32    0.69
   7   0 -10    0.05    0.78
   7   0 -10   -0.14    1.04
  -6   0  10   41.75    2.24
  -6   0  10   44.35    2.07
   6   0 -10   41.84    2.24
   6   0 -10   45.54    2.27
   6   0 -10   42.86    2.35
  -6   0  10   44.96    2.32
   5   0 -10   -1.01    0.60
  -5   0  10    1.42    0.77
  -5   0  10   -0.19    0.74
   5   0 -10    0.93    0.78
   5   0 -10    0.25    0.71
   4   0 -10  192.84    6.40
   4   0 -10  194.43    6.47
  -4   0  10  200.97    6.53
  -4   0  10  197.09    6.12
   3   0 -10   -0.58    0.57
   3   0 -10   -0.02    0.83
  -3   0  10    0.26    0.50
  -3   0  10   -0.68    0.89
   2   0 -10    3.89    0.69
   2   0 -10    3.11    0.88
  -2   0  10    2.59    0.91
  -2   0  10    2.84    0.54
   1   0 -10   -0.18    0.64
   1   0 -10   -0.06    0.68
  -1   0  10    0.43    0.76
   0   0 -10  102.33    3.53
   0   0 -10  102.24    3.51
   0   0  10  103.52    3.55
  -1   0 -10   -0.19    0.62
   1   0  10   -0.12    0.63
  -1   0 -10    0.38    0.55
  -2   0 -10    5.96    0.64
   2   0  10    5.56    0.66
  -3   0 -10    0.01    0.44
   3   0  10    1.75    0.51
  -4   0 -10   85.99    2.79
   9  -1 -10   -0.14    1.18
   9  -1 -10   -1.25    1.07
  -9  -1  10    0.38    0.78
  -9  -1  10   -1.30    1.07
  -9  -1  10   -0.54    0.92
   9  -1 -10   -0.31    1.52
   9  -1 -10   -0.10    0.82
   9   1 -10   -0.08    1.20
   9   1 -10    0.00    0.85
  -9   1  10   -0.38    0.77
   9   1 -10    0.36    0.81
  -9   1  10    2.26    1.21
  -9   1  10   -1.58    0.80
  -8  -1  10    0.63    0.73
   8  -1 -10    0.94    1.14
   8  -1 -10   -0.37    1.11
   8  -1 -10   -0.61    0.93
   8  -1 -10    0.76    1.09
  -8  -1  10    1.19    1.05
  -8  -1  10    0.53    0.91
  -8   1  10   -0.46    0.65
   8   1 -10    2.44    1.18
  -8   1  10   -0.08    0.75
  -8   1  10    2.26    1.30
   8   1 -10   -1.02    0.74
   8   1 -10   -1.05    1.12
   7  -1 -10  141.09    5.18
  -7  -1  10  142.21    5.14
   7  -1 -10  148.70    5.18
  -7  -1  10  147.49    5.38
  -7  -1  10  145.51    5.08
   7  -1 -10  146.10    5.27
   7  -1 -10  139.54    5.57
   7   1 -10  147.87    5.22
  -7   1  10  149.24    5.16
   7   1 -10  145.31    5.25
  -7   1  10  142.63    5.32
  -7   1  10  138.76    5.12
   7   1 -10  143.32    5.17
   6  -1 -10   17.98    1.69
   6  -1 -10   21.33    1.61
  -6  -1  10   19.86    1.48
  -6  -1  10   22.34    1.86
   6  -1 -10   18.37    1.47
  -6  -1  10   21.64    1.43
   6  -1 -10   19.35    1.90
  -6   1  10   17.33    1.51
  -6   1  10   19.59    1.44
  -6   1  10   20.26    1.73
   6   1 -10   19.14    1.59
   6   1 -10   17.71    1.69
   6   1 -10   16.97    1.46
   5  -1 -10    5.70    1.17
   5  -1 -10    4.81    0.95
  -5  -1  10    5.96    1.03
   5  -1 -10    8.79    1.12
  -5  -1  10    7.97    0.97
  -5   1  10    6.23    1.26
   5   1 -10    7.00    0.90
   5   1 -10    6.97    1.01
   5   1 -10    7.35    0.99
  -5   1  10    7.23    1.02
   4  -1 -10   30.45    1.80
   4  -1 -10   31.92    2.05
  -4  -1  10   31.91    2.17
  -4  -1  10   34.09    1.64
   4   1 -10   34.30    2.10
  -4   1  10   35.04    1.77
   4   1 -10   36.31    2.11
  -4   1  10   31.43    2.13
  -3  -1  10  160.68    5.52
   3  -1 -10  171.90    5.52
   3  -1 -10  158.92    5.49
  -3  -1  10  167.20    5.08
   3   1 -10  162.42    5.52
   3   1 -10  168.15    5.53
  -3   1  10  162.38    5.19
  -3   1  10  159.50    5.49
  -2  -1  10    0.54    0.87
   2  -1 -10    1.89    0.81
   2  -1 -10    0.90    0.61
   2   1 -10    2.25    0.88
   2   1 -10    2.08    0.86
  -2   1  10    1.09    0.83
  -2   1  10    1.29    0.54
  -1  -1  10   45.32    2.21
   1  -1 -10   47.93    2.11
   1  -1 -10   47.50    2.00
   1   1 -10   44.36    2.13
   1   1 -10   46.96    2.20
  -1   1  10   48.41    2.18
   0  -1 -10    4.46    0.73
   0  -1  10    2.60    0.76
   0  -1 -10    3.86    0.72
   0   1 -10    3.56    0.65
   0   1  10    3.04    0.75
   0   1 -10    3.62    0.75
  -1  -1 -10  148.35    4.75
   1  -1  10  147.54    4.77
  -1  -1 -10  150.11    4.72
   1   1  10  157.19    4.77
  -1   1 -10  142.29    4.85
  -1   1 -10  143.76    4.78
  -2  -1 -10   10.57    0.88
   2  -1  10   10.20    0.92
  -2   1 -10    9.45    0.94
  -2   1 -10    8.87    0.79
   2   1  10   11.30    0.87
   3  -1  10   18.51    1.10
  -3  -1 -10   18.43    1.00
  -3   1 -10   18.97    1.11
   3   1  10   17.86    1.13
  -4  -1 -10    3.97    0.52
   4   1  10    5.20    0.58
   9  -2 -10    2.48    1.29
   9  -2 -10    0.53    1.41
  -9  -2  10    0.06    0.98
   9  -2 -10    1.98    1.01
   9  -2 -10    2.04    1.23
  -9  -2  10    2.77    0.93
   9   2 -10    2.89    1.31
  -9   2  10    2.52    0.93
  -9   2  10    1.66    0.97
  -9   2  10    1.91    0.98
   9   2 -10    3.61    1.33
   9   2 -10   -0.39    1.11
   8  -2 -10    0.62    1.44
  -8  -2  10   -0.47    0.95
   8  -2 -10    3.37    1.29
  -8  -2  10    0.66    0.77
   8  -2 -10   -0.08    1.11
   8  -2 -10    0.28    0.85
  -8  -2  10    1.38    1.03
   8   2 -10    2.93    1.20
  -8   2  10    1.89    0.83
   8   2 -10    1.70    1.24
  -8   2  10   -0.11    1.28
   8   2 -10    1.04    0.83
  -8   2  10    1.18    1.18
   7  -2 -10    6.27    1.35
  -7  -2  10    4.05    0.88
   7  -2 -10    3.89    1.25
   7  -2 -10    7.18    1.51
  -7  -2  10    5.15    1.45
   7  -2 -10    4.51    1.20
  -7  -2  10    3.56    0.98
  -7   2  10    4.47    0.90
   7   2 -10    5.09    1.19
  -7   2  10    4.98    1.10
  -7   2  10    5.14    1.19
   7   2 -10    3.35    1.27
   7   2 -10    3.75    1.16
   6  -2 -10   98.01    3.99
   6  -2 -10  106.29    3.95
   6  -2 -10  105.07    4.33
  -6  -2  10   98.16    3.92
   6  -2 -10   90.73    3.80
  -6   2  10   97.42    3.72
  -6   2  10  108.22    4.16
   6   2 -10  105.85    3.90
   6   2 -10  101.59    3.86
   6   2 -10   95.34    3.86
  -6   2  10   91.53    4.15
   5  -2 -10    0.66    1.00
   5  -2 -10    0.09    1.03
   5  -2 -10    1.24    0.88
   5  -2 -10    0.05    0.80
  -5  -2  10    0.81    0.84
  -5   2  10    1.59    0.67
   5   2 -10    1.30    0.74
   5   2 -10    0.02    1.02
   5   2 -10    1.28    0.83
  -5   2  10   -0.12    0.78
  -4  -2  10   27.89    1.81
   4  -2 -10   24.96    1.92
   4  -2 -10   29.52    1.96
  -4   2  10   30.42    1.74
   4   2 -10   24.80    1.72
  -4   2  10   26.49    2.02
   4   2 -10   28.56    1.96
  -3  -2  10    8.10    1.26
   3  -2 -10   10.33    1.08
   3  -2 -10   11.67    1.25
  -3   2  10    9.60    1.06
   3   2 -10    9.92    1.27
   3   2 -10   12.32    1.29
  -3   2  10   11.30    1.05
  -2  -2  10   70.63    3.04
   2  -2 -10   71.41    2.90
   2  -2 -10   70.78    2.92
   2   2 -10   74.22    2.87
  -2   2  10   71.98    2.68
  -2   2  10   70.47    2.94
   2   2 -10   72.67    3.01
   1  -2 -10   -0.06    0.70
   1  -2 -10    0.28    0.67
  -1  -2  10   -0.28    0.83
  -1   2  10    0.74    0.78
   1   2 -10    0.78    0.60
   1   2 -10   -0.32    0.79
   0  -2  10  134.07    4.45
   0  -2 -10  135.75    4.33
   0  -2 -10  131.53    4.36
   0   2 -10  133.66    4.52
   0   2 -10  130.48    4.40
   0   2  10  116.40    4.26
  -1  -2 -10    3.15    0.68
   1  -2  10    1.86    0.73
  -1   2 -10    2.98    0.72
   1   2  10    2.34    0.72
  -1   2 -10    3.46    0.83
   2  -2  10    3.06    0.82
  -2  -2 -10    3.01    0.63
   2   2  10    3.20    0.69
  -2   2 -10    3.66    0.75
  -2   2 -10    4.39    0.84
  -3  -2 -10    2.09    1.45
  -3  -2 -10    0.73    0.47
   3  -2  10   -0.18    0.51
   3   2  10    0.52    0.51
  -3   2 -10    1.11    0.51
  -4  -2 -10   83.82    4.48
  -4  -2 -10   81.59    2.87
   4   2  10   84.59    2.93
  -4   2 -10   85.51    2.86
  -8  -3  10   -0.78    0.70
  -8  -3  10    1.12    1.06
   8  -3 -10   -0.63    1.15
   8  -3 -10    0.82    1.21
   8  -3 -10   -0.34    1.03
   8   3 -10    0.91    0.86
  -8   3  10   -1.05    1.29
   8   3 -10    0.93    1.17
   8   3 -10    1.90    1.29
  -8   3  10   -0.24    0.76
  -8   3  10   -0.10    1.12
   7  -3 -10    4.20    1.52
   7  -3 -10    4.44    1.31
  -7  -3  10    5.01    1.48
   7  -3 -10    5.33    1.35
   7   3 -10    4.31    1.35
  -7   3  10    4.07    1.22
   7   3 -10    6.47    1.26
   7   3 -10    4.73    1.25
  -7   3  10    4.37    1.09
  -7   3  10    4.94    0.97
   6  -3 -10   28.70    1.95
   6  -3 -10   34.10    2.23
   6  -3 -10   32.52    2.24
  -6  -3  10   31.15    2.51
   6   3 -10   30.95    2.11
   6   3 -10   31.57    1.99
   6   3 -10   28.41    2.32
  -6   3  10   33.27    2.41
  -6   3  10   33.95    2.21
   5  -3 -10    7.30    1.44
   5  -3 -10    8.88    1.37
  -5  -3  10    7.59    1.51
   5   3 -10    9.24    1.34
  -5   3  10    7.04    1.19
   5   3 -10    7.34    1.38
  -5   3  10    6.66    1.37
   4  -3 -10    6.74    1.00
   4  -3 -10    6.47    1.05
  -4  -3  10    5.70    1.09
  -4   3  10    8.47    1.12
   4   3 -10    4.85    1.00
  -4   3  10    4.27    1.21
   4   3 -10    4.73    1.17
  -3  -3  10   16.51    1.59
   3  -3 -10   18.00    1.53
   3  -3 -10   17.02    1.58
   3   3 -10   13.33    1.47
  -3   3  10   16.29    1.52
   3   3 -10   16.42    1.52
  -2  -3  10    1.52    1.07
   2  -3 -10    0.51    0.59
   2  -3 -10    0.74    0.86
   2   3 -10    2.12    0.98
  -2   3  10    1.59    0.91
   2   3 -10    0.81    0.69
   1  -3 -10   -0.49    0.65
   1  -3 -10    0.50    0.56
  -1  -3  10   -0.03    0.93
   1   3 -10   -1.14    0.58
   1   3 -10   -0.79    0.82
  -1   3  10    0.99    0.88
  -1  -3 -10   22.71    1.51
   1  -3  10   26.65    1.71
   1   3  10   26.30    1.64
  -1   3 -10   26.11    1.60
  -1   3 -10   24.84    1.57
   2  -3  10    1.76    0.75
  -2  -3 -10    1.21    0.66
   2   3  10    0.73    0.84
  -2   3 -10    1.74    0.69
  -2   3 -10    3.35    0.94
  -3  -3 -10    0.56    0.57
  -3  -3 -10   -2.22    1.50
  -3  -3 -10    0.76    1.01
  -3   3 -10    0.72    0.61
   3   3  10    0.81    0.78
  -3   3 -10   -0.39    0.77
   7  -4 -10   23.80    2.04
   7  -4 -10   21.75    1.81
   7  -4 -10   26.10    2.40
   7   4 -10   19.77    1.85
   7   4 -10   22.81    1.95
   7   4 -10   20.13    2.00
  -7   4  10   21.66    1.77
  -7   4  10   23.15    2.08
   6  -4 -10    4.24    0.95
   6  -4 -10    2.64    1.10
   6  -4 -10    3.76    1.29
  -6   4  10    3.17    1.01
  -6   4  10    2.01    0.89
   6   4 -10    5.93    1.39
   6   4 -10    3.52    0.96
   5  -4 -10   59.91    2.98
   5  -4 -10   52.74    2.86
  -5  -4  10   64.30    3.21
   5   4 -10   57.58    2.76
  -5   4  10   59.98    2.91
   5   4 -10   62.28    3.10
  -5   4  10   60.54    3.08
   4  -4 -10   -2.19    0.93
  -4  -4  10   -0.69    0.87
   4  -4 -10   -0.09    1.05
   4   4 -10    0.11    0.78
   4   4 -10    1.01    1.04
  -4   4  10   -0.88    0.72
   3  -4 -10    8.25    1.24
  -3  -4  10    7.23    1.15
   3  -4 -10    7.62    1.24
   3   4 -10    6.54    1.06
  -3   4  10    8.50    1.32
   3   4 -10    7.44    1.09
  -2  -4  10    6.61    1.34
   2  -4 -10    6.68    0.98
   2   4 -10    7.19    1.05
  -2   4  10    7.76    1.02
   2   4 -10    4.45    1.16
   1  -4 -10    7.56    1.13
   1  -4 -10    6.90    0.88
   1   4 -10    8.03    1.28
  -1   4  10    7.90    1.18
   1   4 -10    8.83    1.25
   0  -4 -10   15.88    1.41
   0   4 -10   16.71    1.39
   0   4 -10   16.84    1.46
   0   4  10   17.59    1.46
  -1  -4 -10   12.64    1.25
  -1  -4 -10   11.75    1.61
   1   4  10   13.49    1.31
  -1   4 -10   13.26    1.29
  -1   4 -10   12.44    1.41
  -2  -4 -10    2.42    1.61
  -2  -4 -10    0.41    0.73
  -2  -4 -10    1.80    0.90
  -2   4 -10    1.12    0.98
  -2   4 -10    0.24    0.81
   2   4  10    2.72    0.88
   6  -5 -10   31.18    2.82
   6  -5 -10   26.40    2.03
   6   5 -10   29.94    2.05
  -6   5  10   27.82    2.04
  -6   5  10   31.18    2.60
   6   5 -10   30.96    2.20
   5  -5 -10   10.46    1.55
   5  -5 -10    8.87    1.59
  -5   5  10    8.98    1.58
   5   5 -10    7.47    1.22
   5   5 -10    9.28    1.60
   4  -5 -10   54.83    2.66
   4  -5 -10   54.41    3.02
   4   5 -10   47.55    2.61
  -4   5  10   51.39    2.95
   4   5 -10   59.00    3.08
   3  -5 -10    5.55    1.28
   3  -5 -10    5.99    1.20
   3   5 -10    5.04    1.37
  -3   5  10    5.65    1.08
   3   5 -10    7.68    1.40
   2  -5 -10  137.81    5.04
  -2  -5  10  135.10    4.97
   2   5 -10  138.58    5.14
   2   5 -10  132.97    5.11
  -2   5  10  143.76    5.12
   1  -5 -10   -0.06    1.17
   1  -5 -10    1.23    0.99
   1   5 -10    1.13    0.82
  -1   5  10   -0.59    0.97
   1   5 -10   -0.56    1.04
   0  -5 -10   26.57    2.22
   0  -5 -10   25.04    1.86
   0   5 -10   19.48    1.83
   0   5 -10   24.01    1.97
   0   5  10   22.32    1.94
   9   0 -11   74.50    3.61
  -9   0  11   75.30    3.47
  -9   0  11   76.79    3.53
  -9   0  11   71.72    3.50
   9   0 -11   76.35    3.65
   9   0 -11   72.35    3.58
   8   0 -11    0.35    1.18
  -8   0  11    0.54    1.11
   8   0 -11    0.72    1.24
   8   0 -11    1.64    1.13
  -8   0  11    0.90    0.97
  -7   0  11   29.20    2.06
  -7   0  11   29.06    2.01
   7   0 -11   27.78    2.29
   7   0 -11   30.24    2.14
   7   0 -11   25.25    1.90
   6   0 -11   -0.09    0.77
  -6   0  11    0.12    1.16
  -6   0  11    0.87    0.62
   6   0 -11   -0.17    1.04
   5   0 -11   26.13    1.90
  -5   0  11   22.66    1.58
  -5   0  11   21.43    1.88
   5   0 -11   18.94    1.74
  -4   0  11    0.68    1.06
   4   0 -11    0.16    0.71
  -4   0  11    0.15    0.60
   4   0 -11   -1.00    0.87
  -3   0  11   13.32    1.41
   3   0 -11   12.19    1.33
  -3   0  11   13.07    1.14
   3   0 -11   13.29    1.39
   2   0 -11    0.15    0.57
  -2   0  11   -0.25    0.62
   2   0 -11   -1.14    0.78
   1   0 -11   49.57    2.24
  -1   0  11   44.99    2.29
   1   0 -11   49.13    2.13
   0   0  11    0.34    0.69
   0   0 -11    0.11    0.64
   0   0 -11   -0.45    0.64
  -1   0 -11   85.88    3.14
   1   0  11   89.24    3.19
  -1   0 -11   90.55    3.13
  -2   0 -11   -0.37    0.49
   2   0  11   -0.18    0.52
  -3   0 -11   45.75    1.86
   3   0  11   43.71    1.82
   9  -1 -11    5.65    1.45
  -9  -1  11    4.56    1.31
   9  -1 -11    3.10    1.85
   9  -1 -11    2.74    1.33
   9  -1 -11    3.17    1.34
  -9  -1  11    5.06    1.30
  -9  -1  11    4.99    1.61
   9   1 -11    2.60    1.06
   9   1 -11    3.11    1.01
  -9   1  11    4.74    1.07
  -9   1  11    2.99    1.02
  -9   1  11    5.66    1.54
   9   1 -11    4.97    1.39
   8  -1 -11   57.73    3.14
  -8  -1  11   59.70    3.31
   8  -1 -11   60.99    3.11
   8  -1 -11   58.22    3.15
  -8  -1  11   61.61    2.95
   8   1 -11   59.03    3.17
  -8   1  11   59.74    3.04
  -8   1  11   62.65    3.33
   8   1 -11   56.10    2.84
   8   1 -11   59.63    2.84
   7  -1 -11    0.47    1.13
   7  -1 -11    1.94    1.05
  -7  -1  11    0.25    0.90
   7  -1 -11   -0.34    0.80
  -7  -1  11    0.36    0.92
  -7   1  11    1.65    1.00
   7   1 -11   -0.32    1.16
  -7   1  11    1.54    1.30
   7   1 -11    1.82    1.05
   7   1 -11    1.78    1.14
  -6  -1  11    6.79    1.44
   6  -1 -11    6.13    1.07
  -6  -1  11    8.73    1.10
   6  -1 -11    6.41    1.12
   6   1 -11    5.97    1.33
  -6   1  11    6.19    0.93
  -6   1  11    7.44    1.48
   6   1 -11    5.84    1.05
   5  -1 -11    1.69    1.07
  -5  -1  11    3.44    0.96
   5  -1 -11    3.80    1.17
  -5  -1  11    2.97    0.79
  -5   1  11    4.00    0.74
  -5   1  11    3.02    1.25
   5   1 -11    2.89    0.86
   5   1 -11    4.46    0.97
   4  -1 -11  152.03    5.14
  -4  -1  11  144.16    5.23
   4  -1 -11  149.97    5.23
  -4  -1  11  143.33    4.74
   4   1 -11  147.19    5.22
   4   1 -11  143.07    5.19
  -4   1  11  145.73    5.24
  -4   1  11  153.09    4.89
  -3  -1  11   28.24    2.05
   3  -1 -11   31.49    2.02
   3  -1 -11   33.86    2.01
   3   1 -11   29.18    2.00
   3   1 -11   29.70    2.00
  -3   1  11   28.02    1.54
  -3   1  11   30.56    2.06
  -2  -1  11   -0.19    0.64
   2  -1 -11    0.35    0.60
   2  -1 -11   -0.34    0.52
   2   1 -11    0.57    0.87
  -2   1  11   -0.58    0.85
   2   1 -11    0.14    0.58
   1  -1 -11    9.27    0.90
  -1  -1  11    8.53    1.09
   1  -1 -11    8.01    1.03
   1   1 -11    9.45    1.15
  -1   1  11   10.01    1.12
   1   1 -11    9.68    1.08
   0  -1 -11   57.31    2.42
   0  -1  11   59.68    2.52
   0  -1 -11   58.72    2.42
   0   1  11   60.48    2.50
   0   1 -11   56.58    2.45
   0   1 -11   61.02    2.43
  -1  -1 -11   15.85    1.19
   1  -1  11   15.05    1.29
   1   1  11   15.74    1.18
  -1   1 -11   13.93    1.20
  -1   1 -11   15.52    1.14
   2  -1  11   13.34    1.09
  -2  -1 -11   14.18    1.07
  -2   1 -11   15.22    1.23
   2   1  11   13.75    1.13
   3  -1  11   36.49    1.64
  -3  -1 -11   33.89    1.59
   3   1  11   34.81    1.66
  -3   1 -11   32.10    1.58
   8  -2 -11    2.03    1.29
   8  -2 -11    5.40    1.65
  -8  -2  11    2.59    1.48
   8   2 -11    0.89    1.27
   8   2 -11    3.21    1.24
  -8   2  11    2.55    0.88
  -8   2  11    3.91    1.43
   7  -2 -11   71.51    3.28
  -7  -2  11   73.78    3.36
   7  -2 -11   80.54    3.53
   7  -2 -11   81.48    3.62
   7  -2 -11   80.29    3.25
   7   2 -11   72.80    3.24
   7   2 -11   67.20    3.35
  -7   2  11   75.96    3.34
  -7   2  11   64.65    3.25
   7   2 -11   68.96    3.26
   6  -2 -11   -0.44    1.12
   6  -2 -11    0.92    1.12
   6  -2 -11   -0.49    0.89
  -6  -2  11   -2.09    1.23
  -6   2  11   -0.71    0.86
  -6   2  11    0.76    0.66
   6   2 -11    1.82    1.22
   6   2 -11    0.67    0.81
  -5  -2  11   68.03    3.27
   5  -2 -11   66.58    3.10
   5  -2 -11   65.00    3.12
  -5   2  11   63.43    3.18
   5   2 -11   69.90    3.19
   5   2 -11   62.95    2.89
  -5   2  11   65.47    2.85
   4  -2 -11   22.75    1.91
   4  -2 -11   23.80    1.95
  -4  -2  11   19.61    1.69
   4   2 -11   22.57    1.66
   4   2 -11   23.46    1.82
  -4   2  11   20.04    1.36
  -4   2  11   24.73    2.03
   3  -2 -11   15.32    1.47
  -3  -2  11   15.77    1.60
   3  -2 -11   16.41    1.34
   3   2 -11   14.77    1.52
  -3   2  11   15.10    1.52
   3   2 -11   14.49    1.49
  -3   2  11   16.50    1.34
  -2  -2  11    4.21    0.88
   2  -2 -11    3.67    0.97
   2  -2 -11    4.53    0.98
   2   2 -11    4.97    0.88
   2   2 -11    3.60    1.05
  -2   2  11    3.89    0.73
  -2   2  11    4.14    1.05
   1  -2 -11  144.44    4.93
   1  -2 -11  148.87    4.96
  -1  -2  11  138.15    4.92
   1   2 -11  141.40    4.98
  -1   2  11  151.40    5.02
   1   2 -11  153.49    5.11
   0  -2 -11   12.05    1.07
   0  -2 -11   12.22    1.11
   0  -2  11   11.25    1.21
   0   2  11   13.56    1.21
   0   2 -11   11.67    1.03
   0   2 -11   11.85    1.25
   1  -2  11    3.53    0.85
  -1  -2 -11    2.37    0.71
   1   2  11    1.20    0.90
  -1   2 -11    1.66    0.86
  -1   2 -11    2.88    0.78
   2  -2  11    2.19    0.75
  -2  -2 -11    1.95    0.65
  -2   2 -11    2.08    0.69
  -2   2 -11    0.77    0.79
   2   2  11    1.93    0.70
   7  -3 -11   10.85    1.79
   7  -3 -11    9.39    1.34
  -7  -3  11    9.55    1.76
  -7   3  11    7.81    1.42
  -7   3  11    8.96    1.66
   7   3 -11    9.42    1.31
   7   3 -11   10.30    1.27
   6  -3 -11    1.34    0.92
  -6  -3  11    3.87    1.47
   6  -3 -11    1.04    1.33
  -6   3  11    0.31    0.93
  -6   3  11    0.05    1.03
   6   3 -11    0.64    0.90
   6   3 -11    2.64    1.19
   5  -3 -11   13.00    1.50
  -5  -3  11   17.56    1.82
   5  -3 -11   10.03    1.50
   5  -3 -11   13.73    1.61
  -5   3  11   12.87    1.39
  -5   3  11   12.28    1.58
   5   3 -11   11.35    1.58
   5   3 -11   10.72    1.29
   4  -3 -11   30.73    2.16
   4  -3 -11   32.25    2.15
  -4  -3  11   29.13    2.32
  -4   3  11   27.01    2.23
   4   3 -11   27.23    2.19
   4   3 -11   25.99    2.15
  -4   3  11   31.98    1.71
   3  -3 -11    2.31    0.78
  -3  -3  11    0.24    1.14
   3  -3 -11    2.39    1.03
  -3   3  11    2.37    1.08
   3   3 -11    0.78    1.04
  -3   3  11    0.59    0.58
   3   3 -11    0.49    0.72
   2  -3 -11   21.46    1.62
   2  -3 -11   19.26    1.69
  -2  -3  11   21.59    1.76
   2   3 -11   20.91    1.81
  -2   3  11   21.95    1.86
   2   3 -11   20.97    1.59
  -1  -3  11    3.38    1.08
   1  -3 -11    2.82    0.80
   1  -3 -11    4.07    0.92
  -1   3  11    3.05    0.98
   1   3 -11    2.35    0.98
   1   3 -11    3.13    0.97
   0  -3  11   11.83    1.32
   0   3 -11   12.73    1.28
   1  -3  11    0.86    0.85
  -1  -3 -11    0.58    0.73
  -1   3 -11   -0.04    0.86
  -1   3 -11    1.26    0.80
   1   3  11   -0.48    0.78
  -2  -3 -11   23.80    1.53
   2  -3  11   23.24    1.64
   2   3  11   27.34    1.68
  -2   3 -11   22.92    1.55
  -2   3 -11   25.74    1.63
  -6  -4  11   12.31    1.85
   6  -4 -11   10.83    1.78
   6  -4 -11   11.41    1.64
   6   4 -11   10.95    1.66
  -6   4  11    9.45    1.29
   6   4 -11    9.73    1.57
  -6   4  11    5.53    1.50
   5  -4 -11    3.55    1.30
  -5  -4  11    1.54    1.05
   5  -4 -11    2.02    0.91
   5   4 -11    1.43    1.21
  -5   4  11    0.33    0.73
  -5   4  11    0.69    1.29
   5   4 -11    1.53    1.29
  -4  -4  11   11.73    1.75
   4  -4 -11   12.99    1.34
   4  -4 -11   10.57    1.49
   4   4 -11   11.01    1.59
   4   4 -11   11.96    1.34
  -4   4  11   12.23    1.22
  -4   4  11   10.73    1.32
   3  -4 -11    3.17    0.88
  -3  -4  11    4.56    1.36
   3   4 -11    4.78    1.26
   3   4 -11    2.70    1.21
  -3   4  11    3.96    0.97
  -2  -4  11   21.72    1.80
   2  -4 -11   24.93    1.94
   2  -4 -11   23.05    1.84
  -2   4  11   24.66    2.03
   2   4 -11   29.50    2.15
   2   4 -11   23.75    1.74
   1  -4 -11    2.35    0.99
  -1   4  11    1.89    1.01
   1   4 -11    1.32    0.74
   1   4 -11    1.19    1.08
   0  -4 -11    0.61    0.62
   0   4 -11   -0.13    0.69
   0   4  11    0.51    0.94
   0   4 -11   -0.32    0.90
   3  -5 -11  106.82    4.34
   8   0 -12    1.03    0.89
  -8   0  12    2.96    1.10
   8   0 -12    1.12    1.33
  -8   0  12   -0.11    0.99
   7   0 -12    0.16    1.15
   7   0 -12   -0.59    0.85
  -7   0  12   -0.21    0.91
  -7   0  12   -0.89    1.29
  -6   0  12    1.36    1.29
   6   0 -12    2.91    1.26
  -6   0  12   -0.17    0.84
   6   0 -12    0.53    0.82
   5   0 -12    1.02    0.83
  -5   0  12    0.34    0.83
   5   0 -12    0.45    0.77
  -5   0  12    0.11    0.69
   4   0 -12   54.86    2.78
   4   0 -12   56.50    2.81
  -4   0  12   51.97    2.87
   3   0 -12    0.27    0.89
  -3   0  12   -0.08    1.01
   3   0 -12    0.08    0.91
   2   0 -12    2.01    0.90
  -2   0  12    1.11    0.98
   2   0 -12    1.49    0.93
   1   0 -12    0.98    0.84
   1   0 -12    0.40    0.77
  -1   0  12   -0.39    0.84
   0   0 -12   92.58    3.38
   0   0 -12   87.89    3.35
   0   0  12   85.82    3.48
  -1   0 -12   -0.45    0.63
   1   0  12   -1.25    0.81
  -8  -1  12   46.66    3.14
  -8  -1  12   47.88    2.64
   8  -1 -12   48.53    2.96
   8  -1 -12   48.67    2.98
   8   1 -12   44.65    2.58
  -8   1  12   44.63    2.71
   8   1 -12   43.68    2.93
  -8   1  12   51.89    3.17
  -7  -1  12    1.07    1.02
  -7  -1  12    0.18    0.90
   7  -1 -12    1.50    1.26
   7  -1 -12    2.62    0.99
   7   1 -12    2.05    1.33
  -7   1  12    1.34    1.34
  -7   1  12    1.59    1.05
   7   1 -12    3.88    1.31
  -6  -1  12    0.97    1.29
   6  -1 -12    2.28    1.19
   6  -1 -12   -0.68    1.14
  -6  -1  12    0.27    0.80
   6   1 -12   -1.22    1.11
  -6   1  12   -0.24    0.86
  -6   1  12    1.21    1.30
   6   1 -12    1.46    1.13
  -5  -1  12   27.02    1.63
   5  -1 -12   29.80    1.94
  -5  -1  12   27.44    2.32
   5  -1 -12   28.69    2.19
  -5   1  12   27.42    1.99
   5   1 -12   26.13    2.21
  -5   1  12   25.68    1.76
   5   1 -12   26.67    2.18
   4  -1 -12   89.73    3.66
  -4  -1  12   84.81    3.70
   4  -1 -12   90.72    3.53
  -4   1  12   87.55    3.71
   4   1 -12   84.01    3.49
   4   1 -12   83.07    3.63
  -4   1  12   85.71    3.21
   3  -1 -12    0.30    0.94
  -3  -1  12   -1.18    0.98
   3  -1 -12    0.11    0.65
  -3   1  12   -0.72    0.98
   3   1 -12    0.73    0.99
   3   1 -12    0.33    0.67
  -2  -1  12   30.45    2.05
   2  -1 -12   33.06    1.97
   2  -1 -12   30.66    1.97
   2   1 -12   28.69    1.77
   2   1 -12   28.26    1.72
  -2   1  12   30.90    2.06
   1  -1 -12   33.23    1.90
   1  -1 -12   32.76    1.92
  -1  -1  12   32.20    2.01
  -1   1  12   32.69    2.00
   1   1 -12   32.77    1.82
   1   1 -12   32.65    1.94
   0  -1  12   18.22    1.43
   0  -1 -12   15.92    1.41
   0   1 -12   17.60    1.45
   0   1 -12   16.68    1.41
   0   1  12   18.76    1.42
   1  -1  12    3.65    0.87
  -1  -1 -12    2.44    0.86
   1   1  12    3.13    0.81
  -1   1 -12    2.48    0.97
  -1   1 -12    4.92    0.97
   7  -2 -12   52.88    3.07
  -7  -2  12   53.80    2.87
   7  -2 -12   51.93    2.99
   7   2 -12   49.71    2.70
  -7   2  12   49.26    2.76
   7   2 -12   50.85    3.04
  -7   2  12   51.17    3.20
   6  -2 -12  120.89    4.82
  -6  -2  12  120.04    4.89
   6  -2 -12  119.65    4.78
   6   2 -12  121.73    4.64
  -6   2  12  120.62    4.86
   6   2 -12  121.42    4.83
  -6   2  12  124.53    4.53
  -5  -2  12   31.17    2.48
   5  -2 -12   28.23    2.26
   5  -2 -12   28.68    2.30
   5   2 -12   29.39    2.32
  -5   2  12   30.64    1.73
  -5   2  12   30.64    2.42
   5   2 -12   30.95    2.01
  -4  -2  12   -0.27    0.85
   4  -2 -12    0.99    1.01
   4  -2 -12   -0.42    1.08
  -4   2  12    1.42    0.80
  -4   2  12    2.12    1.20
   4   2 -12    1.09    0.86
   4   2 -12   -1.55    1.00
  -3  -2  12   10.42    1.49
   3  -2 -12    9.92    1.16
   3  -2 -12   12.52    1.39
   3   2 -12    9.95    1.35
   3   2 -12    9.83    1.36
  -3   2  12    9.87    1.20
  -2  -2  12   83.82    3.58
   2  -2 -12   83.58    3.46
   2  -2 -12   86.53    3.45
   2   2 -12   89.70    3.60
   2   2 -12   88.74    3.54
  -2   2  12   83.63    3.54
  -1  -2  12   81.67    3.35
   1  -2 -12   76.20    3.06
   1  -2 -12   79.63    3.15
   1   2 -12   76.78    3.09
  -1   2  12   81.98    3.29
   1   2 -12   77.42    3.32
   0  -2  12   14.73    1.38
   0  -2 -12   11.62    1.20
   0   2 -12   15.65    1.40
   0   2 -12   13.48    1.29
   0   2  12   13.59    1.32
   1  -2  12    5.09    0.99
  -1  -2 -12    4.00    0.83
   1   2  12    4.70    1.06
  -1   2 -12    4.57    0.98
  -1   2 -12    4.79    0.90
   6  -3 -12    0.33    0.88
   6  -3 -12    0.59    1.25
  -6  -3  12    2.32    1.12
   6  -3 -12    1.35    1.05
  -6   3  12    0.70    0.76
  -6   3  12    1.65    1.39
   6   3 -12    0.97    1.34
   6   3 -12   -0.01    1.21
  -5  -3  12   53.32    3.14
   5  -3 -12   51.72    2.90
   5  -3 -12   52.60    2.95
   5   3 -12   55.60    2.77
  -5   3  12   51.71    2.65
   5   3 -12   54.15    2.97
  -5   3  12   54.13    3.05
   4  -3 -12    7.76    1.39
   4  -3 -12    5.80    1.03
  -4  -3  12    4.41    1.44
   4   3 -12    5.21    1.35
  -4   3  12    7.60    1.41
  -4   3  12    5.37    1.07
   4   3 -12    7.75    1.18
   3  -3 -12   71.61    3.26
   3  -3 -12   76.53    3.16
  -3  -3  12   74.72    3.48
   3   3 -12   72.97    3.36
  -3   3  12   74.36    3.36
  -3   3  12   73.41    2.99
   3   3 -12   69.30    3.36
  -2  -3  12    4.41    1.30
   2  -3 -12    4.95    0.90
   2  -3 -12    3.54    0.99
  -2   3  12    6.22    1.02
   2   3 -12    4.07    0.93
   2   3 -12    5.22    0.99
   1  -3 -12   24.15    1.83
  -1  -3  12   24.83    2.09
   1   3 -12   26.75    2.05
  -1   3  12   29.76    2.04
   1   3 -12   26.57    1.97
   0  -3  12   45.47    2.47
   0  -3 -12   44.15    2.13
   0   3 -12   44.21    2.29
   0   3  12   48.00    2.43
   0   3 -12   43.88    2.34
  -3  -4  12   18.06    1.96
   3  -4 -12   18.61    1.72
   3  -4 -12   18.95    1.82
   3   4 -12   20.01    1.96
  -3   4  12   19.95    1.87
  -3   4  12   18.80    1.46
   3   4 -12   19.78    1.71
  -6   0  13   -0.93    0.79
   6   0 -13    1.67    1.22
  -6   0  13   -1.79    0.84
   6   0 -13   -0.05    0.88
  -5   0  13   33.45    2.52
   5   0 -13   30.37    2.38
   5   0 -13   28.80    2.30
   4   0 -13    0.41    1.07
   4   0 -13   -0.53    0.70
  -4   0  13   -1.16    1.11
   3   0 -13   17.46    1.62
  -3   0  13   15.67    1.70
   3   0 -13   20.88    1.61
  -2   0  13   -0.12    1.02
   2   0 -13    0.32    0.91
   2   0 -13    1.17    0.74
   1   0 -13    6.33    1.12
  -1   0  13    6.01    1.16
   1   0 -13    5.38    1.04
   6  -1 -13   13.58    1.75
   6  -1 -13   15.09    1.78
  -6  -1  13    8.65    1.39
  -6   1  13   12.42    1.23
  -6   1  13   12.37    1.81
   6   1 -13   14.54    1.73
   6   1 -13   13.54    1.81
   5  -1 -13   38.62    2.57
   5  -1 -13   36.93    2.29
  -5  -1  13   43.97    2.79
   5   1 -13   41.58    2.68
   5   1 -13   40.49    2.34
  -5   1  13   40.05    2.40
   4  -1 -13   12.27    1.36
   4  -1 -13   13.48    1.61
  -4  -1  13   14.63    1.68
   4   1 -13   13.74    1.42
   4   1 -13   13.56    1.60
  -4   1  13   14.68    1.69
  -3  -1  13    7.26    1.34
   3  -1 -13    9.25    1.32
   3  -1 -13    7.78    1.28
  -3   1  13   10.28    1.42
   3   1 -13    7.97    1.31
   3   1 -13    7.73    1.30
   2  -1 -13   37.49    2.24
   2  -1 -13   33.47    2.18
  -2  -1  13   38.99    2.35
   2   1 -13   39.29    2.34
   2   1 -13   34.26    2.00
  -2   1  13   37.29    2.09
   1  -1 -13   -0.36    0.76
   1  -1 -13    0.30    0.84
  -1  -1  13   -0.24    0.93
  -1   1  13    0.24    0.96
   1   1 -13    0.17    0.87
   1   1 -13    1.50    0.88
  -5  -2  13    4.73    1.18
   5  -2 -13    4.01    1.40
   5  -2 -13    4.73    1.33
   5   2 -13    5.64    1.12
  -5   2  13    4.11    1.03
  -5   2  13    6.41    1.56
   5   2 -13    5.25    1.16
  -4  -2  13   17.76    1.87
   4  -2 -13   17.60    1.59
   4  -2 -13   17.67    1.57
   4   2 -13   17.58    1.79
   4   2 -13   15.84    1.71
  -4   2  13   15.91    1.61
   3  -2 -13   38.70    2.38
  -3  -2  13   34.91    2.20
   3  -2 -13   33.35    2.29
   3   2 -13   35.80    2.42
  -3   2  13   36.20    2.44
   3   2 -13   36.60    2.38
  -2  -2  13   17.42    1.53
   2  -2 -13   14.95    1.56
   2  -2 -13   16.58    1.52
   2   2 -13   16.88    1.62
  -2   2  13   16.31    1.45
   2   2 -13   19.54    1.70
   0   0   0    0.00    0.00
;
loop_
_symmetry_equiv_pos_as_xyz
'x, y, z'
'-x+1/2, y+1/2, -z+1/2'
'-x, -y, -z'
'x-1/2, -y-1/2, z-1/2'
loop_
_atom_site_label
_atom_site_type_symbol
_atom_site_fract_x
_atom_site_fract_y
_atom_site_fract_z
_atom_site_U_iso_or_equiv
_atom_site_adp_type
_atom_site_occupancy
_atom_site_site_symmetry_order
_atom_site_calc_flag
_atom_site_refinement_flags_posn
_atom_site_refinement_flags_adp
C1 C 0.8454(5) 0.8599(6) 0.0552(4) 0.0100(9) Uani 1 1 d . .
H1A H 0.82808 0.746379 -0.005019 0.012 Uiso 1 1 calc R U
H1B H 0.759949 0.956775 0.016799 0.012 Uiso 1 1 calc R U
C2 C 1.0036(5) 0.9556(6) 0.0652(4) 0.0120(9) Uani 1 1 d . .
H2A H 1.028269 1.060475 0.132102 0.014 Uiso 1 1 calc R U
H2B H 1.088715 0.855322 0.09161 0.014 Uiso 1 1 calc R U
C3 C 1.0104(5) 0.6338(6) 0.2781(4) 0.0111(9) Uani 1 1 d . .
H3A H 1.101027 0.726455 0.299168 0.013 Uiso 1 1 calc R U
H3B H 1.009171 0.573085 0.360355 0.013 Uiso 1 1 calc R U
C4 C 1.0364(5) 0.4725(6) 0.1905(5) 0.0151(10) Uani 1 1 d . .
H4A H 0.943008 0.386753 0.162467 0.023 Uiso 1 1 calc R U
H4B H 1.129365 0.394077 0.238072 0.023 Uiso 1 1 calc R U
H4C H 1.053543 0.532464 0.114375 0.023 Uiso 1 1 calc R U
S1 S 0.82816(12) 0.77336(15) 0.20843(10) 0.0081(2) Uani 1 1 d . .
Cl1 Cl 0.86855(12) 0.86516(16) 0.55206(11) 0.0141(3) Uani 1 1 d . .
Cu1 Cu 0.86710(6) 1.03563(8) 0.35631(5) 0.01187(17) Uani 1 1 d . .
loop_
_atom_site_aniso_label
_atom_site_aniso_U_11
_atom_site_aniso_U_22
_atom_site_aniso_U_33
_atom_site_aniso_U_23
_atom_site_aniso_U_13
_atom_site_aniso_U_12
C1 0.011(2) 0.0088(19) 0.009(2) 0.0030(17) 0.0017(17) 0.0014(17)
C2 0.013(2) 0.011(2) 0.012(2) 0.0001(19) 0.0038(18) -0.0013(18)
C3 0.009(2) 0.011(2) 0.011(2) 0.0034(18) -0.0005(17) 0.0027(17)
C4 0.016(2) 0.011(2) 0.019(3) 0.0020(19) 0.0060(19) 0.0047(18)
S1 0.0082(5) 0.0085(5) 0.0077(5) 0.0002(4) 0.0027(4) -0.0001(4)
Cl1 0.0114(5) 0.0176(5) 0.0125(6) 0.0043(4) 0.0028(4) -0.0033(4)
Cu1 0.0104(3) 0.0143(3) 0.0108(3) -0.0003(2) 0.0033(2) 0.0026(2)
loop_
_atom_type_symbol
_atom_type_description
_atom_type_scat_dispersion_real
_atom_type_scat_dispersion_imag
_atom_type_scat_source
C C 0.0033 0.0016 'International Tables Vol C Tables 4.2.6.8 and 6.1.1.4'
H H 0 0 'International Tables Vol C Tables 4.2.6.8 and 6.1.1.4'
S S 0.1246 0.1234 'International Tables Vol C Tables 4.2.6.8 and 6.1.1.4'
Cl Cl 0.1484 0.1585 'International Tables Vol C Tables 4.2.6.8 and 6.1.1.4'
Cu Cu 0.3201 1.2651 'International Tables Vol C Tables 4.2.6.8 and 6.1.1.4'
loop_
_geom_angle_atom_site_label_1
_geom_angle_atom_site_label_2
_geom_angle_atom_site_label_3
_geom_angle
_geom_angle_site_symmetry_1
_geom_angle_site_symmetry_3
C2 C1 S1 115.1(3) . .
C2 C2 C1 110.1(5) 3_775 .
C4 C3 S1 114.2(3) . .
C3 S1 C1 102.6(2) . .
C3 S1 Cu1 104.49(14) . 2_645
C1 S1 Cu1 102.98(14) . 2_645
C3 S1 Cu1 101.14(15) . .
C1 S1 Cu1 110.41(14) . .
Cu1 S1 Cu1 131.72(4) 2_645 .
Cu1 Cl1 Cu1 87.40(4) 3_776 .
S1 Cu1 Cl1 119.15(4) 2_655 3_776
S1 Cu1 S1 112.89(3) 2_655 .
Cl1 Cu1 S1 114.40(4) 3_776 .
S1 Cu1 Cl1 112.83(4) 2_655 .
Cl1 Cu1 Cl1 92.60(4) 3_776 .
S1 Cu1 Cl1 101.67(4) . .
loop_
_geom_bond_atom_site_label_1
_geom_bond_atom_site_label_2
_geom_bond_distance
_geom_bond_site_symmetry_2
C1 C2 1.526(6) .
C1 S1 1.823(4) .
C2 C2 1.526(8) 3_775
C3 C4 1.518(6) .
C3 S1 1.821(4) .
S1 Cu1 2.3088(11) 2_645
S1 Cu1 2.3470(11) .
Cl1 Cu1 2.3435(12) 3_776
Cl1 Cu1 2.4231(12) .
loop_
_geom_hbond_atom_site_label_D
_geom_hbond_atom_site_label_H
_geom_hbond_atom_site_label_A
_geom_hbond_distance_DH
_geom_hbond_distance_HA
_geom_hbond_distance_DA
_geom_hbond_angle_DHA
_geom_hbond_site_symmetry_A
C1 H1B Cl1 0.99 2.99 3.907(4) 153.9 2_655
C4 H4B Cl1 0.98 2.88 3.504(5) 122.4 3_766
C1 H1B Cl1 0.99 2.99 3.907(4) 153.9 2_655
C4 H4B Cl1 0.98 2.88 3.504(5) 122.4 3_766
loop_
_geom_torsion_atom_site_label_1
_geom_torsion_atom_site_label_2
_geom_torsion_atom_site_label_3
_geom_torsion_atom_site_label_4
_geom_torsion
_geom_torsion_site_symmetry_4
S1 C1 C2 C2 -173.0(4) 3_775
C4 C3 S1 C1 -55.0(3) .
C4 C3 S1 Cu1 52.2(3) 2_645
C4 C3 S1 Cu1 -169.1(3) .
C2 C1 S1 C3 -48.7(3) .
C2 C1 S1 Cu1 -157.0(3) 2_645
C2 C1 S1 Cu1 58.4(3) .
