#------------------------------------------------------------------------------
#$Date: 2019-07-10 06:30:08 +0300 (Wed, 10 Jul 2019) $
#$Revision: 216916 $
#$URL: file:///home/coder/svn-repositories/cod/cif/7/23/30/7233044.cif $
#------------------------------------------------------------------------------
#
# This file is available in the Crystallography Open Database (COD),
# http://www.crystallography.net/
#
# All data on this site have been placed in the public domain by the
# contributors.
#
data_7233044
loop_
_publ_author_name
'Schlachter, Adrien Camille'
'Bonnot, Antoine'
'Fortin, Daniel'
'Karsenti, Paul-Ludovic'
'Knorr, Michael'
'Harvey, Pierre D.'
_publ_section_title
;
 Unusual Triplet-Triplet Annihilation in a 3D Copper Chloride Coordination
 Polymer
;
_journal_name_full               'Physical Chemistry Chemical Physics'
_journal_paper_doi               10.1039/C9CP02891A
_journal_year                    2019
_chemical_formula_moiety         'C4 H9 Cl Cu S'
_chemical_formula_sum            'C4 H9 Cl Cu S'
_chemical_formula_weight         188.16
_space_group_IT_number           14
_space_group_name_Hall           '-P 2yn'
_space_group_name_H-M_alt        'P 1 21/n 1'
_symmetry_cell_setting           monoclinic
_symmetry_Int_Tables_number      14
_symmetry_space_group_name_Hall  '-P 2yn'
_symmetry_space_group_name_H-M   'P 1 21/n 1'
_atom_sites_solution_hydrogens   geom
_atom_sites_solution_primary     'direct - structure invariant direct methods'
_atom_sites_solution_secondary   'direct - structure invariant direct methods'
_audit_conform_dict_location     ftp://ftp.iucr.org/pub/cif_core.dic
_audit_conform_dict_name         cif_core.dic
_audit_conform_dict_version      2.4.3
_audit_creation_date             2018-11-01T13:24:03-00:00
_audit_creation_method           'WinGX routine CIF_UPDATE'
_audit_update_record
;
2019-05-21 deposited with the CCDC.    2019-07-09 downloaded from the CCDC.
;
_cell_angle_alpha                90
_cell_angle_beta                 109.007(2)
_cell_angle_gamma                90
_cell_formula_units_Z            4
_cell_length_a                   8.9415(9)
_cell_length_b                   6.7764(7)
_cell_length_c                   10.9128(11)
_cell_measurement_reflns_used    9033
_cell_measurement_temperature    168(2)
_cell_measurement_theta_max      26.46
_cell_measurement_theta_min      2.57
_cell_measurement_wavelength     0.71073
_cell_volume                     625.17(11)
_computing_cell_refinement       'SAINT V8.34A integration software'
_computing_data_collection       'Bruker APEX2 software'
_computing_data_reduction        'SORTAV (Blessing, 1995)'
_computing_molecular_graphics    'Ortep for Windows (Farrugia, 2012)'
_computing_publication_material  'WinGX publication routines (Farrugia, 2012)'
_computing_structure_refinement  'SHELXL-2016/6 (Sheldrick, 2016)'
_computing_structure_solution    'SHELXS-2013/1 (Sheldrick, 2008)'
_diffrn_ambient_temperature      168(2)
_diffrn_detector                 'APEX-II CCD'
_diffrn_measured_fraction_theta_full 0.999
_diffrn_measured_fraction_theta_max 0.999
_diffrn_measurement_device       '\k-geometry diffractometer'
_diffrn_measurement_device_type  'Bruker APEX-II'
_diffrn_measurement_method       '\f or \w oscillation scans'
_diffrn_orient_matrix_UB_11      -0.009059
_diffrn_orient_matrix_UB_12      -0.14681
_diffrn_orient_matrix_UB_13      0.003669
_diffrn_orient_matrix_UB_21      -0.069866
_diffrn_orient_matrix_UB_22      0.0146
_diffrn_orient_matrix_UB_23      0.054743
_diffrn_orient_matrix_UB_31      -0.095019
_diffrn_orient_matrix_UB_32      0.003261
_diffrn_orient_matrix_UB_33      -0.079895
_diffrn_radiation_monochromator  graphite
_diffrn_radiation_probe          x-ray
_diffrn_radiation_type           MoK\a
_diffrn_radiation_wavelength     0.71073
_diffrn_reflns_av_unetI/netI     0.0426
_diffrn_reflns_Laue_measured_fraction_full 0.999
_diffrn_reflns_Laue_measured_fraction_max 0.999
_diffrn_reflns_limit_h_max       11
_diffrn_reflns_limit_h_min       -11
_diffrn_reflns_limit_k_max       8
_diffrn_reflns_limit_k_min       -8
_diffrn_reflns_limit_l_max       13
_diffrn_reflns_limit_l_min       -13
_diffrn_reflns_number            10361
_diffrn_reflns_point_group_measured_fraction_full 0.999
_diffrn_reflns_point_group_measured_fraction_max 0.999
_diffrn_reflns_theta_full        25
_diffrn_reflns_theta_max         26.465
_diffrn_reflns_theta_min         2.57
_diffrn_source                   'sealed x-ray tube'
_diffrn_standards_number         0
_exptl_absorpt_coefficient_mu    4.122
_exptl_absorpt_correction_T_max  0.745
_exptl_absorpt_correction_T_min  0.613
_exptl_absorpt_correction_type   multi-scan
_exptl_absorpt_process_details
;
SADABS-2014/5 - Bruker AXS area detector scaling and absorption correction
;
_exptl_crystal_density_diffrn    1.999
_exptl_crystal_density_method    'not measured'
_exptl_crystal_description       Needle
_exptl_crystal_F_000             380
_exptl_crystal_size_max          0.33
_exptl_crystal_size_mid          0.1
_exptl_crystal_size_min          0.04
_refine_diff_density_max         0.765
_refine_diff_density_min         -1.038
_refine_diff_density_rms         0.121
_refine_ls_extinction_method     none
_refine_ls_goodness_of_fit_ref   1.001
_refine_ls_hydrogen_treatment    constr
_refine_ls_matrix_type           full
_refine_ls_number_constraints    0
_refine_ls_number_parameters     66
_refine_ls_number_reflns         10361
_refine_ls_number_restraints     0
_refine_ls_restrained_S_all      1.001
_refine_ls_R_factor_all          0.0396
_refine_ls_R_factor_gt           0.0326
_refine_ls_shift/su_max          0
_refine_ls_shift/su_mean         0
_refine_ls_structure_factor_coef Fsqd
_refine_ls_weighting_details
'w=1/[\s^2^(Fo^2^)+3.5183P] where P=(Fo^2^+2Fc^2^)/3'
_refine_ls_weighting_scheme      calc
_refine_ls_wR_factor_gt          0.0761
_refine_ls_wR_factor_ref         0.0788
_reflns_Friedel_coverage         0
_reflns_number_gt                9118
_reflns_number_total             10361
_reflns_threshold_expression     'I > 2\s(I)'
_iucr_refine_instructions_details
;
TITL mo_Harvey_AS_CP2_168K_0m in P2(1)/n
    shelx.res
    created by SHELXL-2016/6 at 13:23:08 on 01-Nov-2018
CELL  0.71073   8.9415   6.7764  10.9128   90.000  109.007   90.000
ZERR     4.00   0.0009   0.0007   0.0011    0.000    0.002    0.000
LATT   1
SYMM  1/2 - X, 1/2 + Y, 1/2 - Z
SFAC  C    H    S    CL   CU
UNIT  16 36 4 4 4
MERG   0
EQIV $2 -x+3/2, y+1/2, -z+1/2
HTAB C1 Cl1_$2
EQIV $5 -x+2, -y+1, -z+1
HTAB C4 Cl1_$5
HTAB C1 Cl1_$2
HTAB C4 Cl1_$5
FMAP   2
PLAN    2
SIZE     0.040   0.100   0.330
ACTA    50.00
BOND
L.S.  20
 
TEMP  -104.95
WGHT    0.000000    3.518300
BASF   0.13472
FVAR       0.22889
MOLE    1
C1    1    0.845453    0.859867    0.055295    11.00000    0.01279    0.00851 =
         0.00981    0.00318    0.00202    0.00059
AFIX  23
H1A   2    0.828547    0.746319   -0.004776    11.00000   -1.20000
H1B   2    0.759892    0.956314    0.016659    11.00000   -1.20000
AFIX   0
C2    1    1.003422    0.956020    0.065330    11.00000    0.01215    0.01233 =
         0.01378    0.00020    0.00354   -0.00139
AFIX  23
H2A   2    1.027574    1.061281    0.131838    11.00000   -1.20000
H2B   2    1.088806    0.856257    0.092251    11.00000   -1.20000
AFIX   0
C3    1    1.010400    0.633814    0.278039    11.00000    0.00981    0.01333 =
         0.01145    0.00397   -0.00089    0.00297
AFIX  23
H3A   2    1.100971    0.726292    0.299159    11.00000   -1.20000
H3B   2    1.009030    0.573119    0.360186    11.00000   -1.20000
AFIX   0
C4    1    1.036369    0.473163    0.190821    11.00000    0.01668    0.01335 =
         0.01983    0.00266    0.00571    0.00515
AFIX 137
H4A   2    0.943965    0.385897    0.164204    11.00000   -1.50000
H4B   2    1.130545    0.396570    0.237857    11.00000   -1.50000
H4C   2    1.051420    0.532959    0.113906    11.00000   -1.50000
AFIX   0
S1    3    0.828146    0.773629    0.208383    11.00000    0.00917    0.00922 =
         0.00880    0.00032    0.00289   -0.00008
CL1   4    0.868572    0.865096    0.551997    11.00000    0.01284    0.01939 =
         0.01379    0.00477    0.00288   -0.00380
CU1   5    0.867145    1.035857    0.356408    11.00000    0.01193    0.01558 =
         0.01232   -0.00034    0.00367    0.00286
HKLF    5
 
 
 
 
REM  mo_Harvey_AS_CP2_168K_0m in P2(1)/n
REM R1 =  0.0326 for    9118 Fo > 4sig(Fo)  and  0.0396 for all   10361 data
REM     66 parameters refined using      0 restraints
 
END
 
WGHT      0.0102      2.3246
 
REM Highest difference peak  0.765,  deepest hole -1.038,  1-sigma level  0.121
Q1    1   0.9448  0.5265  0.4339  11.00000  0.05    0.76
Q2    1   0.8293  1.1273  0.1373  11.00000  0.05    0.53
;
_cod_data_source_file            c9cp02891a2.cif
_cod_data_source_block           shelx_CCDC3
_cod_original_sg_symbol_H-M      'P 21/n'
_cod_database_code               7233044
_shelx_estimated_absorpt_t_min   0.343
_shelx_estimated_absorpt_t_max   0.852
_iucr_refine_reflections_details
;
   1   0   0    0.09    0.09
  -1   0   0    0.01    0.12
  -1   0   0    0.20    0.15
  -1   0   0    0.01    0.10
  -1   0   0   -0.16    0.10
  -1   0   0   -0.07    0.08
   1   0   0    0.05    0.08
   1   0   0   -0.17    0.09
   2   0   0    5.28    0.36
   2   0   0    5.09    0.41
   2   0   0    4.99    0.39
  -2   0   0    5.59    0.49
  -2   0   0    5.56    0.61
  -2   0   0    5.70    0.40
  -3   0   0    0.01    0.59
  -3   0   0   -0.73    0.44
   3   0   0    0.06    0.36
  -3   0   0   -0.19    0.27
   3   0   0   -0.05    0.28
   4   0   0  613.43   17.09
  -4   0   0  607.44   17.08
   4   0   0  616.94   17.08
  -4   0   0  677.89   17.40
  -4   0   0  633.69   17.23
  -5   0   0   -0.13    0.26
   5   0   0   -0.29    0.40
  -5   0   0   -0.08    0.30
  -5   0   0   -0.80    0.74
  -5   0   0    0.15    0.57
  -6   0   0  271.54    7.66
  -6   0   0  266.07    7.81
  -6   0   0  270.88    8.07
   6   0   0  264.74    7.64
  -7   0   0    0.36    0.54
  -7   0   0   -0.59    0.98
   7   0   0    0.84    0.61
  -7   0   0   -0.02    0.75
  -8   0   0  156.45    4.86
  -8   0   0  155.10    5.09
   8   0   0  159.85    5.24
   8   0   0  155.78    4.92
  -8   0   0  157.75    5.48
  -9   0   0    0.00    0.76
  -9   0   0    0.22    0.68
  -9   0   0   -0.88    0.85
   9   0   0    0.06    0.72
   9   0   0    0.90    0.93
 -10   0   0   33.04    2.59
 -10   0   0   33.21    1.92
  10   0   0   33.45    2.00
  10   0   0   31.17    2.22
   0  -1   0   -0.25    0.22
   0  -1   0   -0.19    0.17
   0  -1   0    0.02    0.16
   0  -1   0   -0.38    0.21
   0   1   0   -0.07    0.17
   0   1   0    0.08    0.23
   0   1   0   -0.10    0.17
   1  -1   0  397.81   10.62
   1  -1   0  390.51   10.61
  -1  -1   0  384.56   10.66
  -1  -1   0  397.18   10.63
  -1  -1   0  387.80   10.71
   1  -1   0  396.20   10.57
   1   1   0  391.01   10.63
  -1   1   0  389.17   10.61
   1   1   0  376.62   10.58
   1   1   0  392.57   10.62
  -1   1   0  400.35   10.62
  -1   1   0  403.07   10.66
   2  -1   0  237.86    6.52
  -2  -1   0  234.51    6.62
   2  -1   0  261.11    6.65
   2  -1   0  230.59    6.53
  -2  -1   0  235.19    6.76
  -2  -1   0  235.48    6.56
   2   1   0  242.64    6.52
  -2   1   0  246.65    6.52
   2   1   0  230.84    6.51
  -2   1   0  238.00    6.54
   2   1   0  230.20    6.55
  -2   1   0  233.41    6.52
   2   1   0  237.24    6.47
  -3  -1   0  647.69   18.45
   3  -1   0  652.07   18.18
  -3  -1   0  698.09   18.22
  -3  -1   0  653.02   18.29
  -3   1   0  654.87   18.18
   3   1   0  688.10   18.21
  -3   1   0  699.08   18.13
   3   1   0  674.94   18.22
   3   1   0  661.05   18.11
  -3   1   0  677.21   18.24
   3   1   0  667.92   18.14
  -3   1   0  672.17   18.21
  -3   1   0  698.46   18.29
  -4  -1   0  107.35    3.11
  -4  -1   0  111.94    3.31
  -4  -1   0  120.22    3.74
  -4  -1   0  120.96    3.45
   4  -1   0  105.95    3.26
  -4   1   0  109.72    3.11
  -4   1   0   98.62    3.36
   4   1   0  114.75    3.34
  -4   1   0  105.31    3.24
  -4   1   0  106.58    3.40
   4   1   0  108.52    3.30
   4   1   0  114.72    3.17
  -4   1   0  108.33    3.39
  -5  -1   0   92.32    2.91
   5  -1   0   90.61    2.88
  -5  -1   0   94.50    2.98
  -5  -1   0   90.51    3.39
   5   1   0   90.74    2.97
  -5   1   0   95.05    3.03
  -5   1   0   91.15    2.87
  -5   1   0   93.06    3.01
   5   1   0   91.96    2.74
   5   1   0   91.85    2.92
  -6  -1   0    2.70    0.83
  -6  -1   0    1.88    0.65
   6  -1   0    2.43    0.60
  -6  -1   0    2.19    0.60
   6   1   0    1.87    0.65
  -6   1   0    2.44    0.80
  -6   1   0    1.99    0.75
   6   1   0    1.83    0.39
   6   1   0    2.26    0.61
  -7  -1   0  234.10    7.02
  -7  -1   0  234.51    6.93
  -7  -1   0  235.71    7.54
   7  -1   0  231.71    6.89
   7   1   0  236.41    6.69
   7   1   0  236.69    7.01
  -7   1   0  233.45    7.07
  -7   1   0  242.93    6.76
  -7   1   0  242.93    7.23
   7   1   0  230.66    6.93
  -8  -1   0   25.48    1.55
   8  -1   0   22.53    1.51
  -8  -1   0   23.03    1.45
  -8  -1   0   23.73    2.24
   8   1   0   20.83    1.56
  -8   1   0   23.93    1.81
   8   1   0   23.51    1.53
  -8   1   0   21.23    1.71
  -9  -1   0   13.75    1.23
  -9  -1   0   16.93    1.32
  -9  -1   0   14.47    1.84
   9  -1   0   15.26    1.27
   9   1   0   12.74    1.27
  -9   1   0   14.88    1.47
   9   1   0   14.40    1.29
  -9   1   0   15.53    1.57
 -10  -1   0   15.74    2.02
  10  -1   0   10.42    1.23
 -10  -1   0   12.82    1.16
  10   1   0   11.13    1.26
 -10   1   0   13.39    1.53
 -10   1   0   12.27    1.55
   0  -2   0  220.77    6.25
   0  -2   0  221.61    6.27
   0  -2   0  228.81    6.26
   0  -2   0  226.23    6.21
   0   2   0  223.72    6.29
   0   2   0  218.94    6.25
   0   2   0  228.88    6.29
  -1  -2   0   47.94    1.73
  -1  -2   0   47.32    1.62
   1  -2   0   48.23    1.64
   1  -2   0   49.12    1.57
  -1  -2   0   48.95    1.61
  -1  -2   0   48.03    1.77
   1  -2   0   47.47    1.71
   1  -2   0   48.73    1.38
  -1   2   0   48.21    1.59
  -1   2   0   50.13    1.70
   1   2   0   48.87    1.62
   1   2   0   50.43    1.60
   1   2   0   48.10    1.69
  -1   2   0   47.67    1.64
  -2  -2   0   83.78    2.82
  -2  -2   0   86.50    2.69
   2  -2   0   87.92    2.63
   2  -2   0   87.54    2.54
  -2  -2   0   88.03    2.80
  -2  -2   0   86.97    2.67
   2  -2   0   89.18    2.71
   2   2   0   84.74    2.57
  -2   2   0   89.33    2.69
   2   2   0   84.78    2.69
   2   2   0   90.51    2.68
  -2   2   0   88.33    2.65
  -3  -2   0    1.45    0.41
   3  -2   0    1.08    0.47
  -3   2   0    1.05    0.46
  -3   2   0    0.78    0.25
   3   2   0    1.21    0.39
   4  -2   0   43.53    1.67
  -4  -2   0   43.17    1.73
  -4  -2   0   43.80    1.98
   4  -2   0   45.64    1.52
  -4  -2   0   41.80    1.49
  -4   2   0   43.41    1.48
  -4   2   0   45.06    1.74
  -4   2   0   45.50    1.66
   4   2   0   41.67    1.50
   4   2   0   45.79    1.45
  -5  -2   0   10.91    1.02
  -5  -2   0    9.59    0.61
   5  -2   0   10.92    0.98
  -5  -2   0   12.31    1.21
  -5  -2   0    9.93    0.83
   5   2   0   10.31    0.59
  -5   2   0    9.67    0.80
   5   2   0   10.16    0.81
  -5   2   0   10.55    0.89
  -5   2   0   10.20    0.66
  -5   2   0    9.53    0.76
  -6  -2   0    1.87    1.21
  -6  -2   0    2.26    0.63
   6  -2   0    2.95    0.70
  -6  -2   0    2.07    0.50
   6   2   0    1.56    0.37
  -6   2   0    1.62    0.63
  -6   2   0    2.34    0.60
   6   2   0    1.88    0.65
  -6   2   0    3.38    0.78
  -7  -2   0    8.05    0.91
  -7  -2   0    8.77    0.94
   7  -2   0    6.81    0.89
  -7  -2   0    7.22    1.54
   7   2   0    8.21    0.74
   7   2   0    6.78    0.89
  -7   2   0    8.03    0.90
  -7   2   0    7.54    0.93
   8  -2   0  127.41    4.19
  -8  -2   0  127.17    4.23
  -8  -2   0  128.07    5.01
  -8  -2   0  122.55    4.28
  -8   2   0  129.62    4.32
   8   2   0  128.36    4.27
  -8   2   0  125.15    4.26
  -9  -2   0    1.48    0.81
  -9  -2   0    1.86    0.89
  -9  -2   0    1.26    1.05
   9  -2   0    1.73    0.87
  -9   2   0    0.91    0.91
   9   2   0   -1.37    0.76
 -10  -2   0    7.94    1.80
 -10  -2   0    6.46    1.07
  10  -2   0    6.33    1.09
  10   2   0    4.16    1.02
 -10   2   0    4.33    0.91
   0  -3   0    0.14    0.34
   0  -3   0   -0.42    0.55
   0  -3   0    0.21    0.33
   0  -3   0    0.24    0.34
   0   3   0    0.04    0.38
   0   3   0    0.27    0.49
   0   3   0    0.27    0.51
   1  -3   0    9.79    0.83
  -1  -3   0    7.87    0.77
  -1  -3   0    8.42    0.69
   1  -3   0    8.63    0.47
  -1  -3   0    8.89    0.73
   1  -3   0    8.08    0.72
   1  -3   0    9.56    0.82
  -1  -3   0    7.42    0.67
   1   3   0   10.29    0.76
   1   3   0    9.90    0.73
  -1   3   0    8.95    0.78
   1   3   0    9.45    0.72
  -1   3   0    8.73    0.78
  -1   3   0    8.19    0.69
   2  -3   0  122.00    3.68
   2  -3   0  124.78    3.65
  -2  -3   0  121.05    3.76
  -2  -3   0  117.09    3.80
  -2  -3   0  115.98    3.69
  -2  -3   0  119.68    3.68
   2  -3   0  121.27    3.53
   2   3   0  120.52    3.59
  -2   3   0  121.69    3.68
   2   3   0  121.22    3.65
  -2   3   0  120.14    3.66
   2   3   0  118.12    3.68
   3  -3   0    5.01    0.57
   3  -3   0    3.18    0.40
  -3  -3   0    3.38    0.49
  -3  -3   0    3.56    0.75
   3  -3   0    3.58    0.56
  -3  -3   0    3.54    0.50
   3   3   0    3.81    0.48
   3   3   0    4.38    0.53
   3   3   0    2.41    0.49
  -3   3   0    2.76    0.51
  -4  -3   0   40.00    1.75
   4  -3   0   39.10    1.59
  -4  -3   0   39.73    1.69
  -4  -3   0   37.94    1.54
   4  -3   0   36.91    1.48
  -4  -3   0   36.30    2.18
  -4   3   0   39.93    1.71
   4   3   0   40.70    1.72
  -4   3   0   37.83    1.52
   4   3   0   39.05    1.41
   4   3   0   37.66    1.54
  -5  -3   0    5.08    0.80
  -5  -3   0    4.96    0.60
   5  -3   0    6.15    0.85
  -5  -3   0    5.69    1.05
  -5  -3   0    6.25    0.80
  -5   3   0    5.14    0.82
   5   3   0    5.07    0.60
  -5   3   0    5.95    0.66
   5   3   0    5.09    0.81
   5   3   0    5.89    0.52
  -5   3   0    5.35    0.50
  -5   3   0    6.89    0.85
   6  -3   0    7.32    0.97
  -6  -3   0    7.61    1.15
  -6  -3   0    6.58    0.78
  -6  -3   0    7.68    1.23
   6   3   0    8.28    0.97
   6   3   0    7.38    0.60
  -6   3   0    7.11    0.77
  -6   3   0    8.10    0.88
  -6   3   0    7.46    0.69
  -7  -3   0   35.69    1.86
  -7  -3   0   35.56    1.82
  -7  -3   0   32.70    2.21
   7  -3   0   31.23    1.80
  -7   3   0   28.57    1.81
   7   3   0   32.17    1.82
  -7   3   0   32.54    1.78
  -8  -3   0    9.82    1.78
  -8  -3   0   10.07    1.16
  -8  -3   0   12.12    1.23
   8  -3   0   11.14    1.20
  -8   3   0   10.56    1.09
   8   3   0   10.42    1.20
  -9  -3   0   22.47    1.66
  -9  -3   0   19.50    1.67
  -9  -3   0   22.81    2.46
   9  -3   0   22.37    1.78
  -9   3   0   18.45    1.55
   9   3   0   18.83    1.58
   0  -4   0   61.56    2.07
   0  -4   0   61.85    2.26
   0  -4   0   58.86    2.34
   0  -4   0   60.74    2.26
   0   4   0   57.05    2.19
   0   4   0   62.34    2.29
   0   4   0   57.89    2.18
  -1  -4   0  205.89    6.16
  -1  -4   0  203.47    6.19
   1  -4   0  212.30    6.07
   1  -4   0  206.36    6.18
   1  -4   0  209.84    5.81
  -1  -4   0  205.63    6.11
   1  -4   0  205.56    6.11
  -1  -4   0  207.26    6.13
   1   4   0  211.65    6.19
  -1   4   0  197.34    6.07
  -1   4   0  213.64    6.20
   1   4   0  210.96    6.07
  -1   4   0  205.15    6.19
   1   4   0  209.93    6.13
   2  -4   0   10.63    0.86
  -2  -4   0    9.18    1.01
   2  -4   0    7.69    0.98
  -2  -4   0   10.06    0.86
  -2  -4   0   10.00    1.09
  -2  -4   0   10.45    0.97
   2  -4   0   10.45    0.90
   2   4   0   10.23    0.80
   2   4   0    9.91    0.95
   2   4   0   10.44    0.97
  -2   4   0    7.15    0.97
  -2   4   0    9.49    0.90
   3  -4   0   71.18    2.66
  -3  -4   0   71.79    2.62
   3  -4   0   70.15    2.30
  -3  -4   0   69.53    2.56
  -3  -4   0   67.09    2.74
   3  -4   0   68.28    2.38
  -3  -4   0   68.48    2.74
   3   4   0   67.74    2.60
  -3   4   0   72.16    2.66
  -3   4   0   71.27    2.50
   3   4   0   68.38    2.52
   3   4   0   69.17    2.39
  -4  -4   0    7.59    1.11
  -4  -4   0    9.32    0.98
  -4  -4   0    7.51    0.88
   4  -4   0    9.16    1.05
  -4  -4   0   10.52    1.21
   4   4   0    8.73    0.78
   4   4   0    8.65    0.97
  -4   4   0   13.38    1.04
   4   4   0   13.18    0.90
  -4   4   0    8.75    1.03
  -5  -4   0  120.63    4.10
  -5  -4   0  121.97    4.69
   5  -4   0  128.71    4.22
  -5  -4   0  135.76    4.34
  -5  -4   0  131.96    4.46
  -5   4   0  127.94    4.19
   5   4   0  120.66    4.18
   5   4   0  121.02    3.80
  -6  -4   0   14.84    1.82
  -6  -4   0   16.34    1.55
   6  -4   0   17.88    1.57
  -6  -4   0   14.74    1.21
   6   4   0   15.85    1.23
  -6   4   0   14.33    1.27
   6   4   0   13.95    0.88
  -6   4   0   14.11    1.25
  -7  -4   0    6.76    1.06
   7  -4   0    5.37    1.04
  -7  -4   0    7.86    1.08
  -7  -4   0    7.64    1.35
   7   4   0    4.86    1.04
  -7   4   0    5.38    1.00
  -7   4   0    6.19    1.05
  -8  -4   0    7.90    1.02
  -8  -4   0    8.89    1.43
   8  -4   0    8.51    1.23
  -8  -4   0    6.20    1.43
  -8   4   0    9.96    1.21
  -8   4   0    8.60    1.20
   8   4   0   10.42    1.29
  -9  -4   0   38.40    2.27
  -9  -4   0   35.33    2.73
   9  -4   0   41.19    2.35
  -9  -4   0   36.24    2.51
   9   4   0   33.81    2.29
  -9   4   0   34.68    2.04
   0  -5   0    0.08    0.48
   0  -5   0   -0.17    0.48
   0  -5   0   -0.33    0.61
   0  -5   0   -0.22    0.65
   0   5   0   -0.71    0.82
   0   5   0    0.37    0.57
   0   5   0   -0.01    0.72
   1  -5   0   13.58    1.05
  -1  -5   0   12.16    1.21
  -1  -5   0   12.84    1.13
  -1  -5   0   15.03    1.29
   1  -5   0   12.81    0.74
   1  -5   0   13.25    1.12
   1  -5   0   13.36    1.09
  -1  -5   0   12.46    1.10
  -1   5   0   14.16    1.21
  -1   5   0   13.66    1.12
  -1   5   0   12.00    1.13
   1   5   0   13.38    1.21
   1   5   0   14.58    1.20
   1   5   0   13.62    1.17
  -2  -5   0  166.42    5.27
   2  -5   0  170.55    5.41
   2  -5   0  172.77    5.16
  -2  -5   0  167.51    5.36
  -2  -5   0  162.78    5.23
  -2  -5   0  171.27    5.35
   2  -5   0  169.69    5.20
  -2   5   0  167.73    5.28
  -2   5   0  172.35    5.40
   2   5   0  166.34    5.30
   2   5   0  165.57    5.35
   2   5   0  171.28    5.16
  -3  -5   0   27.29    1.90
  -3  -5   0   28.23    1.54
   3  -5   0   30.75    1.93
  -3  -5   0   26.53    2.00
   3  -5   0   27.23    1.54
  -3  -5   0   26.32    1.71
   3  -5   0   27.68    1.36
  -3   5   0   24.63    1.59
   3   5   0   25.19    1.65
   3   5   0   25.27    1.52
   3   5   0   28.39    1.54
  -3   5   0   29.27    1.87
  -4  -5   0    1.72    0.63
   5  -5   0    4.93    0.86
  -5  -5   0    4.66    1.18
  -5  -5   0    7.05    1.45
  -5  -5   0    4.30    1.00
  -5   5   0    2.85    0.78
   5   5   0    4.39    0.69
   5   5   0    3.99    1.00
  -6  -5   0  191.44    6.42
  -6  -5   0  187.42    6.76
  -6  -5   0  189.17    6.10
   6  -5   0  198.81    6.22
   6   5   0  185.56    6.10
  -6   5   0  195.36    6.17
  -6   5   0  193.91    6.14
  -7  -5   0    9.25    1.27
  -7  -5   0   11.02    1.94
  -7  -5   0    8.99    1.26
   7  -5   0   10.59    1.36
   7   5   0    8.30    1.28
  -7   5   0    8.19    1.24
  -7   5   0    9.47    1.27
  -8  -5   0    1.09    0.77
  -8  -5   0    1.42    1.22
   8  -5   0    0.99    0.77
  -8  -5   0   -0.81    1.46
  -8   5   0    0.06    0.95
   8   5   0   -0.34    1.01
  -8   5   0    2.11    0.83
   0  -6   0    4.20    1.13
   0  -6   0    3.88    0.77
   0  -6   0    4.14    0.77
   0  -6   0    5.52    0.85
   0   6   0    3.32    1.06
   0   6   0    3.89    1.00
   0   6   0    3.34    1.03
  -1  -6   0   65.52    2.57
   1  -6   0   65.03    2.58
  -1  -6   0   60.89    2.74
  -1  -6   0   59.70    2.63
  -1  -6   0   63.86    2.64
   1  -6   0   62.93    2.92
   1  -6   0   62.71    2.49
   1   6   0   65.90    2.82
   1   6   0   69.50    2.85
   1   6   0   65.62    2.76
  -1   6   0   65.94    2.75
  -1   6   0   60.99    2.83
  -2  -6   0    2.85    0.79
   2  -6   0    3.74    0.93
  -2  -6   0    4.30    0.88
   2  -6   0    4.54    0.70
  -2  -6   0    5.14    0.92
  -2  -6   0    3.75    1.00
   2  -6   0    4.31    0.91
  -2   6   0    2.61    0.93
   2   6   0    3.25    0.91
  -2   6   0    4.37    1.15
   2   6   0    4.92    1.11
   2   6   0    4.34    1.03
  -3  -6   0   92.98    3.68
  -3  -6   0   92.45    3.49
  -3  -6   0   85.97    3.47
  -3  -6   0   91.15    3.53
   3  -6   0   83.38    3.54
   3  -6   0   97.20    3.66
   3  -6   0   93.28    3.18
   3   6   0   88.38    3.43
   3   6   0   91.24    3.55
  -3   6   0   90.87    3.42
   3   6   0   94.95    3.33
  -3   6   0   87.36    3.35
   4  -6   0    3.93    1.14
  -4  -6   0    3.86    1.19
  -4  -6   0    4.75    0.90
   4  -6   0    6.44    0.78
  -4  -6   0    6.14    1.38
   4   6   0    6.26    0.91
  -4   6   0    4.23    0.90
   4   6   0    4.90    0.93
   5  -6   0   51.40    2.68
  -5  -6   0   44.32    2.45
  -5  -6   0   49.85    2.37
  -5  -6   0   48.61    3.00
   5   6   0   49.75    2.10
   5   6   0   46.39    2.36
  -5   6   0   45.96    2.33
  -6  -6   0    1.18    1.43
  -6  -6   0    0.99    1.22
  -6  -6   0    1.89    1.07
   6  -6   0    1.92    1.13
   6   6   0    2.21    1.09
  -6   6   0    2.06    1.14
  -7  -6   0   33.80    2.30
  -7  -6   0   32.26    2.06
  -7  -6   0   33.54    2.60
   7  -6   0   38.85    2.55
  -7   6   0   37.23    2.33
  -7   6   0   32.49    2.34
   7   6   0   35.56    2.16
   0  -7   0    0.27    0.93
   0  -7   0   -0.66    0.60
   0  -7   0   -0.60    1.06
   0   7   0   -0.41    0.71
   0   7   0    0.16    0.94
  -1  -7   0    0.74    1.01
  -1  -7   0    0.33    0.76
   1  -7   0    0.26    1.14
   1  -7   0    0.33    0.87
  -1  -7   0    0.75    0.73
  -1  -7   0    0.84    0.71
   1  -7   0    0.11    0.64
  -1   7   0   -0.27    0.74
   1   7   0    1.09    1.01
   1   7   0    0.70    1.08
  -1   7   0    3.68    1.09
   1   7   0   -0.45    0.70
   2  -7   0  119.83    4.73
   2  -7   0  121.90    4.18
   2  -7   0  122.47    4.62
  -2  -7   0  123.58    4.55
  -2  -7   0  129.29    4.44
  -2  -7   0  120.74    4.59
  -2  -7   0  121.70    4.38
   2   7   0  122.03    4.48
   2   7   0  126.11    4.44
  -2   7   0  118.77    4.41
   2   7   0  122.66    4.39
  -2   7   0  120.27    4.42
  -3  -7   0    7.18    1.33
  -3  -7   0    7.24    1.26
  -3  -7   0    7.22    1.13
   3  -7   0   10.23    1.54
   3   7   0    9.45    1.22
   3   7   0    8.27    1.39
  -3   7   0    8.42    1.42
  -4  -7   0   23.78    2.04
  -4  -7   0   24.97    2.29
  -4  -7   0   24.13    1.77
   4  -7   0   20.96    1.91
   4   7   0   20.65    1.48
   4   7   0   24.17    2.17
  -4   7   0   22.67    1.80
  -5  -7   0   26.60    2.57
   5  -7   0   23.01    1.93
  -5  -7   0   23.58    1.97
  -5  -7   0   23.66    1.99
  -5   7   0   24.69    2.21
   5   7   0   25.64    2.08
  -6  -7   0   50.71    2.83
  -6  -7   0   49.93    2.63
  -6   7   0   50.21    2.93
   0  -8   0   21.66    1.67
   0  -8   0   19.87    1.95
   0  -8   0   19.87    1.82
   0   8   0   21.21    1.85
   0   8   0   20.09    1.74
  -1  -8   0   43.24    2.70
   1  -8   0   43.16    2.57
  -1  -8   0   44.97    2.48
  -1  -8   0   46.99    2.58
   1  -8   0   44.62    2.52
  -1   8   0   43.71    2.72
  -1   8   0   60.71    3.05
   1   8   0   54.95    2.91
   1   8   0   53.48    2.85
  -2  -8   0    0.04    1.13
  -2  -8   0    0.73    1.15
  -2  -8   0   -0.07    0.85
   2  -8   0    1.51    1.00
   2  -8   0    1.43    0.94
  -2   8   0   -0.35    1.23
   2   8   0    0.48    1.15
  -3  -8   0   10.16    1.61
  -3  -8   0    7.18    1.36
   3  -8   0    6.00    1.02
  -3  -8   0    6.99    1.21
   3  -8   0    8.17    1.32
   3   8   0    6.89    1.49
  -3   8   0    7.88    1.60
 -10   0   1    0.00    1.04
  10   0  -1    0.00    0.98
 -10   0   1    0.15    0.79
 -10   0   1   -0.69    1.20
  10   0  -1   -0.70    0.87
  -9   0   1   62.21    2.86
  -9   0   1   53.77    2.33
   9   0  -1   57.94    2.56
   9   0  -1   58.56    2.81
  -9   0   1   58.05    2.30
  -9   0   1   57.86    3.11
  -8   0   1   -0.21    1.12
  -8   0   1   -0.57    0.58
   8   0  -1   -0.55    0.86
  -8   0   1   -0.95    0.60
   8   0  -1   -0.63    0.66
   7   0  -1   95.18    3.27
  -7   0   1  100.07    3.36
  -7   0   1   98.57    3.57
  -7   0   1  105.84    3.90
   7   0  -1   98.96    3.65
  -6   0   1   -0.02    0.99
   6   0  -1   -0.36    0.54
  -6   0   1    0.23    0.51
  -5   0   1  956.51   26.42
  -5   0   1 1000.00   26.60
   5   0  -1  950.83   26.29
   4   0  -1    0.14    0.33
   4   0  -1    0.10    0.42
  -4   0   1   -0.42    0.52
  -4   0   1    0.42    0.37
  -4   0   1   -0.11    0.52
   3   0  -1  170.23    4.87
  -3   0   1  172.24    4.88
  -3   0   1  178.10    5.15
   3   0  -1  169.12    4.90
  -3   0   1  173.38    4.97
   2   0  -1    0.80    0.34
  -2   0   1   -0.33    0.37
  -2   0   1   -0.12    0.24
   2   0  -1    0.18    0.33
   1   0  -1  872.16   23.62
   1   0  -1  881.57   23.49
  -1   0   1  855.54   23.48
   1   0  -1  859.31   23.44
  -1   0   1  853.70   23.46
   0   0   1    0.01    0.06
   0   0   1    0.10    0.06
   0   0  -1    0.13    0.18
   0   0  -1    0.08    0.07
   0   0  -1    0.06    0.07
   0   0  -1    0.00    0.07
   0   0  -1   -0.01    0.05
   0   0  -1    0.08    0.13
   0   0   1    0.00    0.06
  -1   0  -1  144.92    4.04
  -1   0  -1  144.00    3.91
  -1   0  -1  141.49    3.93
  -1   0  -1  145.66    3.93
  -2   0  -1   -0.08    0.28
  -2   0  -1   -0.37    0.31
  -2   0  -1    0.07    0.22
   3   0   1  311.93    8.54
  -3   0  -1  318.05    8.88
   3   0   1  311.44    8.54
  -3   0  -1  317.71    8.65
  -3   0  -1  319.48    8.73
  -3   0  -1  313.34    8.55
  -3   0  -1  320.14    8.55
   4   0   1    0.04    0.22
  -4   0  -1   -0.24    0.43
   4   0   1   -0.06    0.27
  -4   0  -1   -0.03    0.42
  -4   0  -1    0.38    0.30
  -4   0  -1    0.35    0.26
   5   0   1   19.04    0.94
  -5   0  -1   20.07    1.21
  -5   0  -1   19.12    0.94
  -5   0  -1   18.55    1.43
  -5   0  -1   18.79    0.86
   5   0   1   21.38    0.97
   6   0   1   -0.07    0.40
   6   0   1   -0.23    0.35
  -6   0  -1   -0.21    0.60
  -6   0  -1   -0.03    0.59
  -6   0  -1   -0.50    0.38
  -6   0  -1    0.15    0.36
  -7   0  -1   62.79    2.23
   7   0   1   63.26    2.28
  -7   0  -1   63.77    2.58
  -7   0  -1   64.77    2.70
  -8   0  -1    0.24    0.48
   8   0   1   -0.80    0.55
  -8   0  -1   -0.87    0.75
  -8   0  -1    0.59    0.75
  -9   0  -1    7.69    1.41
  -9   0  -1    7.60    0.92
   9   0   1    7.02    1.05
   9   0   1    8.71    1.20
 -10   0  -1   -0.65    0.73
 -10   0  -1    0.93    1.23
  10   0   1    0.61    0.79
 -10  -1   1   -0.02    1.00
 -10  -1   1    0.60    0.81
  10  -1  -1    0.72    0.87
 -10  -1   1    1.79    0.91
  10  -1  -1    0.53    1.18
  10   1  -1    0.41    0.91
 -10   1   1    1.73    1.06
 -10   1   1   -0.06    1.08
  -9  -1   1   39.98    2.50
   9  -1  -1   38.93    2.11
  -9  -1   1   38.04    2.06
  -9  -1   1   39.91    1.95
   9   1  -1   42.28    1.98
   9   1  -1   34.88    2.10
  -9   1   1   40.42    2.36
  -9   1   1   41.36    2.45
  -8  -1   1  181.77    6.12
   8  -1  -1  169.68    5.39
  -8  -1   1  172.35    5.40
  -8  -1   1  169.71    5.41
   8   1  -1  175.58    5.43
  -8   1   1  173.05    5.60
  -8   1   1  169.69    5.69
   8   1  -1  171.48    5.12
   8   1  -1  170.28    5.48
  -8   1   1  165.94    5.21
  -7  -1   1   10.20    1.00
  -7  -1   1   11.38    1.08
  -7  -1   1   10.09    0.97
  -7  -1   1   11.88    1.63
   7  -1  -1    9.13    0.96
   7   1  -1   10.33    1.07
   7   1  -1   10.68    0.81
  -7   1   1    8.88    1.22
   7   1  -1    9.94    0.90
  -7   1   1    8.69    1.14
  -6  -1   1   41.65    1.88
  -6  -1   1   41.65    1.65
   6  -1  -1   38.71    1.74
  -6  -1   1   40.28    2.39
  -6  -1   1   37.26    1.93
   6   1  -1   39.05    1.76
   6   1  -1   41.83    1.88
  -6   1   1   38.97    2.01
  -6   1   1   39.25    1.46
   6   1  -1   40.56    1.54
  -6   1   1   41.10    1.92
  -5  -1   1   72.05    2.52
   5  -1  -1   74.49    2.39
  -5  -1   1   71.66    2.48
   5  -1  -1   68.91    2.22
  -5  -1   1   65.93    2.32
  -5  -1   1   80.92    2.99
   5   1  -1   60.71    2.19
  -5   1   1   62.29    2.43
   5   1  -1   71.10    2.23
   5   1  -1   80.52    2.53
   5   1  -1   69.60    2.41
  -5   1   1   67.13    2.42
  -4  -1   1  371.17   11.15
  -4  -1   1  400.67   11.10
   4  -1  -1  370.29   11.05
  -4  -1   1  419.91   11.46
   4  -1  -1  412.72   11.04
   4   1  -1  393.37   11.02
  -4   1   1  410.64   11.03
   4   1  -1  394.65   11.01
   4   1  -1  399.75   11.10
   4   1  -1  402.92   11.15
  -4   1   1  436.37   11.23
  -4   1   1  406.51   11.18
   3  -1  -1   37.25    1.41
   3  -1  -1   38.87    1.31
  -3  -1   1   38.76    1.50
  -3  -1   1   37.97    1.66
  -3  -1   1   35.64    1.40
   3   1  -1   35.94    1.41
  -3   1   1   38.11    1.42
   3   1  -1   36.84    1.44
   3   1  -1   38.97    1.31
  -3   1   1   37.01    1.38
  -3   1   1   37.05    1.38
   3   1  -1   38.11    1.37
  -3   1   1   38.68    1.33
  -2  -1   1  223.53    6.58
  -2  -1   1  234.30    6.35
   2  -1  -1  230.94    6.33
   2  -1  -1  229.63    6.36
   2   1  -1  225.69    6.35
  -2   1   1  226.73    6.35
   2   1  -1  228.43    6.31
  -2   1   1  229.90    6.35
   2   1  -1  229.43    6.36
  -1  -1   1   44.42    1.38
   1  -1  -1   42.25    1.38
   1  -1  -1   43.89    1.39
   1  -1  -1   43.08    1.37
  -1   1   1   43.91    1.42
   1   1  -1   43.93    1.38
   1   1  -1   41.62    1.35
   1   1  -1   43.71    1.42
  -1   1   1   42.73    1.40
   0  -1   1  252.09    6.80
   0  -1  -1  253.67    6.82
   0  -1  -1  247.82    6.85
   0  -1  -1  245.02    6.84
   0  -1  -1  241.74    6.80
   0   1  -1  259.90    6.81
   0   1   1  241.90    6.81
   0   1  -1  252.34    6.84
   0   1   1  250.08    6.82
   0   1  -1  252.61    6.82
   1  -1   1    7.71    0.30
   1  -1   1    6.70    0.39
  -1  -1  -1    8.17    0.64
   1  -1   1    6.79    0.42
  -1  -1  -1    7.03    0.41
  -1  -1  -1    7.65    0.62
  -1  -1  -1    7.38    0.45
  -1  -1  -1    7.13    0.45
   1   1   1    6.89    0.44
  -1   1  -1    7.45    0.45
  -1   1  -1    6.63    0.39
   1   1   1    7.84    0.46
   1   1   1    7.10    0.39
  -1   1  -1    7.77    0.59
  -1   1  -1    7.19    0.37
  -1   1  -1    7.98    0.43
  -2  -1  -1  417.49   11.61
  -2  -1  -1  438.67   11.50
  -2  -1  -1  428.28   11.49
  -2  -1  -1  380.33   11.48
  -2  -1  -1  419.61   11.75
   2  -1   1  422.53   11.48
  -2   1  -1  421.39   11.58
   2   1   1  435.62   11.42
  -2   1  -1  428.14   11.54
  -2   1  -1  405.20   11.47
  -2   1  -1  431.76   11.48
   2   1   1  433.32   11.49
  -2   1  -1  427.24   11.55
   2   1   1  435.87   11.46
   2   1   1  446.19   11.50
  -3  -1  -1   -0.89    0.43
  -3  -1  -1   -0.53    0.23
   3  -1   1   -0.07    0.23
   3  -1   1   -0.10    0.23
  -3  -1  -1   -0.42    0.41
  -3  -1  -1   -0.14    0.24
   3   1   1    0.01    0.30
   3   1   1    0.38    0.25
  -3   1  -1   -0.14    0.23
  -3   1  -1   -0.44    0.26
  -3   1  -1   -0.11    0.14
   3   1   1   -0.01    0.12
  -3   1  -1   -0.27    0.21
  -3   1  -1   -0.77    0.34
  -4  -1  -1  202.75    5.77
  -4  -1  -1  199.14    5.63
  -4  -1  -1  202.75    5.61
   4  -1   1  190.47    5.60
   4  -1   1  202.53    5.61
  -4  -1  -1  202.56    6.04
  -4   1  -1  203.32    5.51
  -4   1  -1  203.01    5.61
  -4   1  -1  198.42    5.81
   4   1   1  194.89    5.65
  -4   1  -1  207.24    5.63
   4   1   1  202.89    5.48
   4   1   1  200.24    5.64
  -4   1  -1  195.31    5.76
  -5  -1  -1   63.29    2.05
  -5  -1  -1   63.84    2.13
  -5  -1  -1   68.23    2.71
   5  -1   1   64.37    2.06
  -5  -1  -1   65.66    2.20
   5  -1   1   61.84    2.09
  -5   1  -1   65.56    2.36
  -5   1  -1   64.39    2.06
   5   1   1   60.42    2.06
  -5   1  -1   65.21    1.94
  -5   1  -1   61.19    2.05
  -5   1  -1   62.16    2.27
   5   1   1   62.31    2.21
   5   1   1   62.91    1.88
   5   1   1   60.86    2.12
  -6  -1  -1   69.85    2.45
  -6  -1  -1   68.06    2.31
  -6  -1  -1   66.69    2.79
   6  -1   1   68.20    2.28
  -6   1  -1   63.85    2.41
  -6   1  -1   68.48    2.11
  -6   1  -1   68.42    2.53
   6   1   1   67.65    2.32
   6   1   1   68.89    2.05
   6   1   1   66.67    2.40
   7  -1   1    9.27    0.85
  -7  -1  -1   12.50    1.03
  -7  -1  -1   11.99    0.94
  -7  -1  -1   10.73    1.31
  -7   1  -1   11.77    1.22
  -7   1  -1   11.39    0.77
   7   1   1   11.03    0.96
   7   1   1    9.82    0.90
  -7   1  -1   12.86    1.14
  -8  -1  -1    6.33    0.83
  -8  -1  -1    8.03    0.90
   8  -1   1    7.40    0.87
  -8  -1  -1    7.17    1.18
  -8   1  -1    6.74    1.14
  -8   1  -1    8.06    1.09
   8   1   1    7.15    0.98
   8   1   1    7.29    0.90
   9  -1   1   10.81    1.05
  -9  -1  -1    9.84    1.05
  -9  -1  -1   12.51    1.76
  -9   1  -1   11.80    1.29
  -9   1  -1   15.23    1.53
   9   1   1   12.21    1.12
 -10  -1  -1   60.32    3.47
 -10  -1  -1   60.27    2.59
  10  -1   1   60.24    2.60
 -10   1  -1   55.56    2.81
 -10   1  -1   58.06    3.05
  10   1   1   59.27    2.64
 -10  -2   1    3.14    1.03
 -10  -2   1    4.30    1.12
 -10  -2   1    4.73    1.34
  10  -2  -1    4.62    1.13
  10   2  -1    2.72    1.10
 -10   2   1    3.85    1.20
   9  -2  -1   27.54    1.64
  -9  -2   1   28.87    2.70
  -9  -2   1   23.31    1.76
  -9  -2   1   28.79    1.74
   9   2  -1   25.61    1.92
  -9   2   1   27.12    1.83
  -9   2   1   24.65    1.72
  -8  -2   1   40.64    2.18
  -8  -2   1   37.69    2.82
   8  -2  -1   39.28    2.02
  -8  -2   1   38.52    1.98
  -8   2   1   36.28    2.15
  -8   2   1   39.94    2.01
   8   2  -1   40.38    2.05
   7  -2  -1   22.53    1.56
  -7  -2   1   20.56    1.32
  -7  -2   1   24.79    1.52
  -7  -2   1   25.24    1.97
   7   2  -1   24.26    1.57
   7   2  -1   24.40    1.15
  -7   2   1   26.85    1.74
  -7   2   1   24.59    1.53
  -6  -2   1    1.61    0.64
   6  -2  -1    0.92    0.67
  -6  -2   1    1.58    0.68
  -6  -2   1    0.84    1.23
   6   2  -1    1.20    0.66
  -6   2   1    0.96    0.43
  -6   2   1    1.38    0.66
  -6   2   1    2.24    0.67
   6   2  -1    0.95    0.49
  -6   2   1    0.65    0.54
   5  -2  -1   88.77    2.93
  -5  -2   1   95.64    3.19
   5  -2  -1   98.25    3.11
  -5  -2   1   98.13    3.52
  -5  -2   1   93.00    3.05
  -5   2   1   93.48    2.94
  -5   2   1   93.17    3.18
  -5   2   1   98.27    3.11
  -5   2   1   95.36    3.00
   5   2  -1   92.56    2.87
   5   2  -1   89.97    2.92
   5   2  -1   89.79    3.10
  -4  -2   1   12.60    1.14
   4  -2  -1   10.26    0.80
  -4  -2   1   12.68    0.80
  -4  -2   1   11.46    0.97
   4  -2  -1   10.13    0.82
   4   2  -1   10.07    0.77
   4   2  -1    9.64    0.67
  -4   2   1    9.95    0.76
  -4   2   1   10.59    0.76
  -4   2   1   10.52    0.92
   4   2  -1   10.35    0.69
  -4   2   1   11.08    0.84
  -3  -2   1   38.32    1.55
   3  -2  -1   39.44    1.41
  -3  -2   1   39.02    1.47
   3  -2  -1   40.33    1.56
  -3  -2   1   40.82    1.97
   3   2  -1   38.21    1.42
  -3   2   1   39.45    1.53
  -3   2   1   38.85    1.51
   3   2  -1   39.81    1.48
   3   2  -1   36.33    1.37
  -2  -2   1   17.37    0.98
   2  -2  -1   18.34    0.79
   2  -2  -1   17.94    1.05
  -2  -2   1   17.79    1.36
   2  -2  -1   17.59    0.95
  -2  -2   1   18.55    1.09
   2   2  -1   16.65    0.78
   2   2  -1   16.61    0.99
  -2   2   1   17.18    0.86
  -2   2   1   17.33    1.01
   2   2  -1   18.37    0.89
   1  -2  -1   44.14    1.50
  -1  -2   1   45.23    1.64
   1  -2  -1   45.61    1.60
   1  -2  -1   40.90    1.53
   1  -2  -1   42.85    1.39
  -1  -2   1   44.17    1.77
  -1  -2   1   45.49    1.58
   1   2  -1   43.42    1.59
  -1   2   1   45.20    1.54
  -1   2   1   43.37    1.61
   1   2  -1   45.87    1.51
   1   2  -1   45.82    1.56
   0  -2   1   64.36    2.00
   0  -2  -1   59.85    1.97
   0  -2   1   63.12    1.97
   0  -2  -1   60.70    2.04
   0  -2   1   62.59    1.98
   0  -2  -1   61.72    1.99
   0  -2  -1   62.29    1.97
   0   2   1   61.83    2.02
   0   2  -1   61.65    1.98
   0   2  -1   63.01    2.01
   0   2   1   63.41    2.02
   0   2  -1   61.86    2.05
   1  -2   1    4.01    0.44
  -1  -2  -1    4.06    0.41
  -1  -2  -1    3.80    0.40
   1  -2   1    4.41    0.36
  -1  -2  -1    4.11    0.53
  -1  -2  -1    4.04    0.59
  -1   2  -1    3.90    0.58
  -1   2  -1    3.92    0.53
   1   2   1    4.14    0.42
  -1   2  -1    4.53    0.39
   1   2   1    4.17    0.42
   1   2   1    4.71    0.42
  -2  -2  -1    2.66    0.39
   2  -2   1    2.42    0.22
  -2  -2  -1    2.02    0.41
   2  -2   1    2.36    0.34
   2  -2   1    1.99    0.46
  -2  -2  -1    1.95    0.53
  -2   2  -1    2.18    0.55
   2   2   1    2.23    0.28
  -2   2  -1    2.32    0.34
  -2   2  -1    2.52    0.36
   2   2   1    2.50    0.38
   2   2   1    2.54    0.43
   3  -2   1  394.44   10.94
  -3  -2  -1  383.29   11.09
  -3  -2  -1  445.80   11.01
  -3  -2  -1  375.54   11.25
   3   2   1  391.08   10.97
  -3   2  -1  410.34   10.82
  -3   2  -1  387.56   10.82
  -3   2  -1  398.87   10.94
   3   2   1  395.89   10.77
  -4  -2  -1   40.87    1.51
  -4  -2  -1   38.20    1.87
   4  -2   1   39.60    1.49
  -4  -2  -1   37.91    1.61
   4   2   1   40.60    1.21
  -4   2  -1   39.51    1.40
  -4   2  -1   38.35    1.57
   4   2   1   39.43    1.51
  -4   2  -1   40.59    1.49
  -5  -2  -1    1.49    0.51
   5  -2   1    1.45    0.53
  -5  -2  -1    1.43    0.52
  -5  -2  -1    1.13    1.04
  -5   2  -1    2.64    0.51
   5   2   1    1.88    0.52
  -5   2  -1    1.28    0.45
  -5   2  -1    3.03    0.54
   5   2   1    2.26    0.24
  -5   2  -1    2.02    0.20
  -6  -2  -1    7.60    0.97
  -6  -2  -1    9.35    1.20
   6  -2   1    8.23    0.80
  -6  -2  -1    7.32    0.69
   6   2   1    8.34    0.82
  -6   2  -1    7.58    0.77
  -6   2  -1    8.39    0.82
  -6   2  -1    8.85    0.84
   7  -2   1  189.90    5.64
  -7  -2  -1  187.15    5.66
  -7  -2  -1  190.76    5.81
  -7  -2  -1  184.45    6.28
  -7   2  -1  184.45    5.60
   7   2   1  187.65    5.68
  -7   2  -1  190.30    5.75
  -7   2  -1  180.80    5.74
   8  -2   1   42.46    1.94
  -8  -2  -1   41.03    2.46
  -8  -2  -1   40.14    1.91
  -8  -2  -1   41.02    1.95
   8   2   1   39.63    1.98
  -8   2  -1   39.29    1.94
  -8   2  -1   42.68    2.05
  -9  -2  -1   50.58    2.46
  -9  -2  -1   48.04    2.89
  -9  -2  -1   50.01    2.30
   9  -2   1   50.80    2.32
   9   2   1   57.94    2.44
  -9   2  -1   52.03    2.53
 -10  -2  -1    7.49    1.11
 -10   2  -1    7.99    1.09
  10  -3  -1   18.59    1.68
 -10  -3   1   16.20    1.59
 -10  -3   1   18.19    2.46
 -10  -3   1   16.24    1.77
 -10   3   1   18.94    1.77
  10   3  -1   19.21    1.73
   9  -3  -1   18.22    1.56
  -9  -3   1   16.68    1.50
  -9  -3   1   15.39    1.89
  -9  -3   1   17.75    1.55
   9   3  -1   15.93    1.51
  -9   3   1   19.82    1.69
  -8  -3   1    1.29    0.86
   8  -3  -1    1.54    0.92
  -8  -3   1    4.02    1.14
  -8  -3   1    2.50    1.57
  -8   3   1    1.02    0.97
   8   3  -1    1.91    0.91
  -7  -3   1   58.27    2.66
  -7  -3   1   54.59    2.27
  -7  -3   1   51.75    2.83
   7  -3  -1   54.90    2.43
   7   3  -1   55.96    1.96
   7   3  -1   56.66    2.46
  -7   3   1   53.49    2.45
  -7   3   1   55.05    2.37
  -6  -3   1   40.29    1.96
  -6  -3   1   38.25    1.76
  -6  -3   1   34.66    2.57
   6  -3  -1   39.12    1.95
  -6   3   1   41.44    1.51
  -6   3   1   36.38    1.89
   6   3  -1   37.61    1.51
  -6   3   1   37.94    1.97
   6   3  -1   39.11    1.79
  -5  -3   1    2.53    0.90
   5  -3  -1    2.13    0.58
  -5  -3   1    4.26    1.27
  -5  -3   1    2.55    0.65
  -5  -3   1    1.46    0.70
  -5   3   1    2.30    0.59
   5   3  -1    2.30    0.48
   5   3  -1    1.51    0.72
  -5   3   1    2.72    0.40
  -5   3   1    1.57    0.55
  -5   3   1    1.42    0.74
   5   3  -1    2.70    0.64
   4  -3  -1    3.72    0.61
   4   3  -1    4.50    0.74
  -4   3   1    4.88    0.64
  -4   3   1    6.82    0.73
   3  -3  -1  284.98    8.05
  -3  -3   1  278.36    8.26
   3  -3  -1  283.16    7.89
   3  -3  -1  281.82    7.97
  -3  -3   1  284.48    8.16
  -3  -3   1  281.52    8.03
   3   3  -1  276.50    7.99
  -3   3   1  287.43    8.05
   3   3  -1  275.86    7.90
  -3   3   1  283.07    7.99
   3   3  -1  276.81    8.03
   2  -3  -1   68.10    2.29
   2  -3  -1   66.21    2.20
  -2  -3   1   63.44    2.30
  -2  -3   1   64.30    2.39
  -2  -3   1   68.00    2.42
   2  -3  -1   68.56    2.37
  -2   3   1   67.36    2.28
   2   3  -1   67.09    2.25
   2   3  -1   65.50    2.27
  -2   3   1   67.09    2.32
   2   3  -1   69.30    2.29
   1  -3  -1   98.25    2.91
  -1  -3   1  101.04    3.18
   1  -3  -1  100.93    3.17
   1  -3  -1  104.38    3.14
  -1  -3   1   98.85    3.11
   1  -3  -1   99.90    3.10
  -1  -3   1   97.88    3.15
   1   3  -1   97.92    3.09
   1   3  -1   98.18    3.12
  -1   3   1   99.29    3.14
   1   3  -1   98.16    3.11
  -1   3   1   97.62    3.10
   0  -3   1   19.61    0.93
   0  -3   1   18.46    1.19
   0  -3  -1   17.97    1.16
   0  -3  -1   22.05    1.15
   0  -3   1   20.31    0.93
   0  -3   1   19.73    0.96
   0  -3  -1   19.99    1.00
   0  -3  -1   19.60    0.98
   0   3   1   18.68    0.95
   0   3  -1   21.26    1.10
   0   3  -1   19.01    1.00
   0   3   1   19.33    1.14
   0   3   1   22.21    1.16
   0   3  -1   19.20    1.16
  -1  -3  -1  107.04    3.29
   1  -3   1  106.73    3.20
   1  -3   1  106.93    3.17
  -1  -3  -1  105.18    3.38
   1  -3   1  108.36    2.99
  -1  -3  -1  105.63    3.38
   1  -3   1  105.94    3.27
  -1  -3  -1  101.71    3.23
  -1   3  -1  105.01    3.31
   1   3   1  106.03    3.28
   1   3   1  108.54    3.32
  -1   3  -1  102.81    3.24
   1   3   1  105.91    3.20
  -1   3  -1  105.10    3.27
  -2  -3  -1  134.91    4.04
   2  -3   1  127.77    3.89
   2  -3   1  128.23    3.67
   2  -3   1  123.95    3.75
  -2  -3  -1  132.30    3.90
   2   3   1  124.29    3.79
  -2   3  -1  122.73    3.76
   2   3   1  126.73    3.73
   2   3   1  128.23    3.90
  -2   3  -1  127.83    3.85
  -3  -3  -1  172.31    5.17
  -3  -3  -1  162.71    4.90
   3  -3   1  173.09    5.04
   3  -3   1  163.39    4.86
  -3  -3  -1  171.69    5.03
  -3  -3  -1  165.35    5.30
   3  -3   1  168.25    4.74
   3   3   1  180.08    5.07
  -3   3  -1  165.79    5.02
   3   3   1  167.64    4.92
  -3   3  -1  174.13    4.89
   3   3   1  173.26    4.82
  -4  -3  -1   31.04    2.02
  -4  -3  -1   31.50    1.43
  -4  -3  -1   28.28    1.47
  -4  -3  -1   28.24    1.17
   4  -3   1   31.37    1.35
  -4   3  -1   29.48    1.44
  -4   3  -1   29.17    1.20
   4   3   1   27.52    1.43
   4   3   1   28.82    1.08
  -5  -3  -1    6.21    0.67
   5  -3   1    5.86    0.81
  -5  -3  -1    6.03    1.05
  -5   3  -1    5.57    0.79
   5   3   1    5.53    0.46
  -5   3  -1    5.73    0.81
   5   3   1    6.45    0.80
  -5   3  -1    6.13    0.50
   6  -3   1  111.27    3.67
  -6  -3  -1  112.98    4.39
  -6  -3  -1  106.81    3.66
  -6  -3  -1  115.01    3.86
  -6   3  -1  110.41    3.64
  -6   3  -1  109.24    3.70
   6   3   1  114.23    3.72
  -6   3  -1  107.47    3.44
  -7  -3  -1   13.66    1.56
  -7  -3  -1   12.61    1.15
   7  -3   1   15.82    1.34
  -7  -3  -1   13.42    1.33
  -7   3  -1   13.45    1.24
  -7   3  -1   15.12    1.29
   7   3   1   13.82    1.19
  -8  -3  -1    2.69    1.14
  -8  -3  -1    3.56    0.99
   8  -3   1    2.10    0.83
  -8  -3  -1    1.29    0.79
  -8   3  -1    2.30    0.79
  -8   3  -1    2.87    0.72
   8   3   1    2.66    0.85
  -9  -3  -1    3.56    1.27
  -9  -3  -1    2.33    0.87
   9  -3   1    2.83    0.95
  -9  -3  -1    2.97    1.07
  -9   3  -1    2.98    0.76
   9   3   1    1.25    0.90
  -9  -4   1    6.87    1.17
  -9  -4   1    4.67    1.17
   9  -4  -1    5.47    1.25
  -9  -4   1    6.16    1.88
  -9   4   1    5.22    1.24
   9   4  -1    7.87    1.35
  -8  -4   1    6.28    1.07
  -8  -4   1    6.59    1.70
   8  -4  -1    6.09    0.95
  -8  -4   1    4.90    0.89
  -8   4   1    5.82    1.11
  -8   4   1    4.68    0.86
   8   4  -1    5.46    0.94
  -7  -4   1   -0.33    0.80
  -7  -4   1   -0.67    1.37
   7  -4  -1    1.17    0.91
  -7  -4   1    0.27    0.75
   7   4  -1    0.13    0.87
  -7   4   1    0.12    0.60
  -7   4   1    0.90    0.90
  -6  -4   1  113.02    3.88
  -6  -4   1  109.58    4.14
  -6  -4   1  105.78    4.29
   6  -4  -1  114.99    3.97
   6   4  -1  109.08    3.53
   6   4  -1  113.13    3.88
  -6   4   1  115.04    3.96
  -6   4   1  114.66    3.93
   5  -4  -1  131.51    4.39
  -5  -4   1  136.59    4.32
  -5  -4   1  136.58    4.42
  -5  -4   1  136.27    4.69
   5  -4  -1  139.52    4.33
  -5  -4   1  131.58    4.98
  -5   4   1  135.97    4.28
   5   4  -1  137.24    4.43
   5   4  -1  130.33    4.26
   5   4  -1  137.77    4.18
  -5   4   1  137.35    4.41
  -4  -4   1  107.82    3.60
   4  -4  -1  108.36    3.63
  -4  -4   1  104.65    3.51
   4  -4  -1  104.75    3.42
  -4  -4   1  100.23    3.97
  -4  -4   1  105.41    3.77
  -4   4   1  106.53    3.61
   4   4  -1  104.44    3.36
   4   4  -1  100.72    3.42
   4   4  -1  100.95    3.57
  -4   4   1  102.53    3.45
  -3  -4   1    9.55    0.95
  -3  -4   1    8.68    0.93
   3  -4  -1    8.08    1.02
  -3  -4   1    9.51    1.05
   3  -4  -1    9.63    0.86
   3  -4  -1    9.90    0.91
  -3  -4   1    8.33    0.98
  -3   4   1    7.99    0.99
   3   4  -1    9.62    1.00
  -3   4   1    8.60    0.92
   3   4  -1    9.75    0.82
   3   4  -1    6.69    0.93
   2  -4  -1  144.31    4.62
   2  -4  -1  150.04    4.55
  -2  -4   1  148.40    4.62
  -2  -4   1  145.99    4.58
  -2  -4   1  144.56    4.66
  -2  -4   1  149.95    4.72
   2  -4  -1  151.96    4.48
   2   4  -1  144.35    4.46
   2   4  -1  143.50    4.59
  -2   4   1  146.69    4.62
   2   4  -1  148.14    4.61
  -2   4   1  146.45    4.59
  -1  -4   1  106.94    3.41
  -1  -4   1  103.88    3.35
  -1  -4   1  103.01    3.50
  -1  -4   1  106.09    3.43
   1  -4  -1  104.46    3.37
   1  -4  -1  104.35    3.41
   1  -4  -1  104.82    3.40
   1  -4  -1  103.21    3.14
   1   4  -1  103.87    3.49
  -1   4   1  105.45    3.46
   1   4  -1  107.00    3.44
   1   4  -1  103.68    3.46
  -1   4   1  108.68    3.50
   0  -4  -1  122.67    3.87
   0  -4  -1  123.00    3.78
   0  -4   1  123.75    3.81
   0  -4  -1  124.35    3.91
   0  -4   1  124.76    3.85
   0  -4   1  124.48    3.90
   0  -4   1  124.11    3.70
   0  -4  -1  119.69    3.87
   0   4  -1  121.02    3.95
   0   4   1  125.88    3.93
   0   4   1  123.62    3.89
   0   4   1  123.91    3.93
   0   4  -1  120.61    3.88
   0   4  -1  120.47    3.89
  -1  -4  -1  175.55    5.26
   1  -4   1  175.57    4.88
  -1  -4  -1  172.01    5.30
   1  -4   1  177.76    5.13
   1  -4   1  173.21    5.16
  -1  -4  -1  174.06    5.26
  -1  -4  -1  172.86    5.27
   1  -4   1  175.07    5.30
   1   4   1  169.69    5.24
  -1   4  -1  171.34    5.20
   1   4   1  175.41    5.19
   1   4   1  174.70    5.29
  -1   4  -1  172.71    5.32
  -1   4  -1  175.68    5.30
  -2  -4  -1    7.87    0.86
  -2  -4  -1    8.00    0.85
   2  -4   1    6.62    0.63
  -2  -4  -1    8.78    0.78
   2  -4   1    8.14    0.77
   2  -4   1    7.83    0.95
  -2  -4  -1    7.94    0.89
  -2   4  -1    7.35    0.99
  -2   4  -1    8.23    0.80
   2   4   1    7.67    0.77
   2   4   1    8.76    0.87
   2   4   1    7.32    0.74
  -2   4  -1    9.23    0.96
  -3  -4  -1   19.20    1.17
   3  -4   1   19.15    1.44
   3  -4   1   19.88    0.92
  -3  -4  -1   20.23    1.44
  -3  -4  -1   28.34    1.67
  -3  -4  -1   19.80    1.23
   3  -4   1   18.44    0.99
   3   4   1   18.77    1.06
  -3   4  -1   19.89    1.04
   3   4   1   19.80    1.19
  -3   4  -1   18.67    1.42
  -4  -4  -1   90.37    3.60
  -4  -4  -1   90.73    3.13
  -4  -4  -1   88.22    3.23
   4  -4   1   90.23    3.06
  -4  -4  -1   89.29    2.90
  -4   4  -1   87.07    3.13
   4   4   1   91.43    3.15
  -4   4  -1   86.48    2.90
   4   4   1   79.37    2.97
   4   4   1   93.63    2.79
  -5  -4  -1   70.89    3.17
   5  -4   1   74.19    2.84
  -5  -4  -1   74.28    2.80
   5   4   1   73.08    2.83
  -5   4  -1   80.89    2.85
   5   4   1   73.02    2.33
  -6  -4  -1    6.88    0.97
  -6  -4  -1    7.01    1.47
   6  -4   1    6.90    1.03
  -6  -4  -1    8.86    1.26
   6   4   1    7.96    1.05
  -6   4  -1    7.24    0.97
  -6   4  -1    7.69    0.87
   7  -4   1    2.96    0.94
  -7  -4  -1    3.44    1.17
  -7  -4  -1    3.32    0.87
  -7  -4  -1    3.54    0.88
  -7   4  -1    2.46    0.86
  -7   4  -1    2.69    0.90
   7   4   1    4.35    0.95
   8  -4   1    4.99    1.06
  -8  -4  -1    3.75    1.66
  -8  -4  -1    4.17    1.00
  -8  -4  -1    4.37    1.23
  -8   4  -1    6.91    1.11
   8   4   1    3.13    1.00
  -8   4  -1    3.62    0.81
  -9  -4  -1   16.80    2.35
  -9  -4  -1   18.46    1.83
  -9  -4  -1   16.75    1.56
   9  -4   1   17.32    1.57
  -9   4  -1   17.61    1.54
  -9   4  -1   17.84    1.58
   9   4   1   18.16    1.61
  -8  -5   1   18.02    1.55
   8  -5  -1   21.51    1.81
  -8  -5   1   16.79    1.66
  -8  -5   1   17.65    2.02
   8   5  -1   16.26    1.50
  -8   5   1   14.56    1.41
  -8   5   1   18.57    1.69
  -7  -5   1   51.05    3.00
  -7  -5   1   56.24    2.99
  -7  -5   1   55.23    2.69
   7  -5  -1   52.04    2.50
   7   5  -1   51.75    2.71
  -7   5   1   51.64    2.63
  -7   5   1   53.70    2.48
   6  -5  -1    7.55    1.24
  -6  -5   1    6.64    0.98
  -6  -5   1   10.42    1.46
  -6  -5   1    8.20    1.19
   6   5  -1    7.14    0.85
  -6   5   1    8.72    1.24
   6   5  -1    7.04    1.01
  -5  -5   1   11.09    1.13
  -5  -5   1   11.93    1.18
  -5  -5   1   11.95    1.67
  -5  -5   1   11.77    1.26
   5  -5  -1   11.81    1.34
  -5   5   1   14.09    1.36
   5   5  -1   12.51    1.02
   5   5  -1   12.13    1.14
  -4  -5   1   17.90    1.56
   4  -5  -1   17.93    1.39
   4  -5  -1   20.81    1.57
  -4  -5   1   16.17    1.37
   4  -5  -1   18.03    1.18
  -4  -5   1   17.87    1.76
  -4  -5   1   17.53    1.32
  -4   5   1   17.02    1.37
   4   5  -1   17.93    1.62
   4   5  -1   18.17    1.28
  -4   5   1   18.06    1.24
   4   5  -1   17.00    1.13
   3  -5  -1   50.40    2.42
  -3  -5   1   50.02    2.53
   3  -5  -1   46.92    2.01
  -3  -5   1   52.19    2.26
  -3  -5   1   48.88    2.13
   3  -5  -1   49.92    1.93
  -3  -5   1   48.24    2.12
  -3   5   1   49.22    2.37
   3   5  -1   50.10    2.29
   3   5  -1   47.25    2.14
   3   5  -1   47.66    1.98
  -3   5   1   49.24    2.23
  -2  -5   1   83.45    3.10
   2  -5  -1   83.09    2.88
   2  -5  -1   85.31    2.98
  -2  -5   1   85.04    3.04
  -2  -5   1   82.47    3.18
  -2  -5   1   82.60    3.04
   2  -5  -1   81.06    3.05
   2   5  -1   85.01    3.15
  -2   5   1   79.25    3.09
   2   5  -1   85.01    3.16
  -2   5   1   84.36    3.17
   2   5  -1   86.82    3.04
   1  -5  -1   24.98    1.76
  -1  -5   1   23.90    1.39
   1  -5  -1   23.91    1.10
   1  -5  -1   22.70    1.54
  -1  -5   1   23.84    1.29
  -1  -5   1   25.11    1.76
  -1  -5   1   23.29    1.56
   1  -5  -1   23.97    1.32
   1   5  -1   20.84    1.58
  -1   5   1   26.17    1.42
  -1   5   1   22.09    1.66
   1   5  -1   22.93    1.60
   1   5  -1   23.38    1.44
   0  -5  -1    0.67    0.84
   0  -5  -1    0.23    0.54
   0  -5   1   -0.46    0.46
   0  -5   1    0.63    0.89
   0  -5  -1    0.12    0.52
   0  -5   1   -0.32    0.67
   0  -5   1   -0.69    0.67
   0  -5  -1    0.00    0.52
   0   5   1    1.52    0.83
   0   5  -1    1.70    0.66
   0   5   1   -0.28    0.74
   0   5  -1   -0.06    0.72
   0   5  -1    0.28    0.56
   1  -5   1  186.09    5.25
   1  -5   1  187.23    5.82
  -1  -5  -1  184.09    5.83
  -1  -5  -1  184.07    5.71
  -1  -5  -1  185.72    5.72
   1  -5   1  187.78    5.68
  -1  -5  -1  189.23    5.76
   1  -5   1  189.12    5.60
  -1   5  -1  185.39    5.81
   1   5   1  184.47    5.71
  -1   5  -1  186.23    5.69
   1   5   1  187.26    5.75
   1   5   1  183.44    5.61
  -1   5  -1  178.22    5.80
   2  -5   1   58.36    2.25
  -2  -5  -1   59.47    2.64
  -2  -5  -1   62.13    2.41
   2  -5   1   65.82    2.64
  -2  -5  -1   62.63    2.50
  -2  -5  -1   61.01    2.65
   2  -5   1   60.73    2.23
  -2   5  -1   63.26    2.63
  -2   5  -1   62.04    2.67
   2   5   1   57.72    2.53
   2   5   1   60.72    2.46
  -2   5  -1   60.66    2.31
   2   5   1   58.54    2.24
   3  -5   1   34.62    1.57
  -3  -5  -1   38.23    1.78
   3   5   1   31.56    1.73
  -3   5  -1   37.28    1.63
   3   5   1   40.40    1.70
   4  -5   1   11.17    0.77
   4  -5   1   12.44    1.12
  -4  -5  -1   11.12    1.34
  -4  -5  -1   13.66    1.56
  -4  -5  -1   10.87    1.16
   4   5   1   12.04    1.00
   4   5   1   10.06    1.14
  -4   5  -1   11.98    1.09
  -5  -5  -1  133.79    4.46
   5  -5   1  136.27    4.58
  -5  -5  -1  127.77    4.75
  -5  -5  -1  133.21    5.06
   5   5   1  134.55    4.49
  -5   5  -1  133.41    4.53
  -6  -5  -1   13.92    1.88
  -6  -5  -1   13.52    1.54
  -6  -5  -1   11.57    1.29
   6  -5   1   11.80    1.34
  -6   5  -1   12.13    1.32
  -6   5  -1   12.46    1.11
   6   5   1   12.66    1.35
  -7  -5  -1    0.12    1.11
   7  -5   1   -0.34    0.95
  -7  -5  -1    0.92    1.06
  -7  -5  -1    0.99    0.64
   7   5   1    0.16    0.63
  -7   5  -1   -0.78    0.87
  -7   5  -1    0.00    0.58
  -8  -5  -1   10.52    1.35
  -8  -5  -1    8.88    1.98
   8  -5   1    6.57    1.28
  -8  -5  -1    8.47    1.27
   8   5   1    9.40    1.37
  -8   5  -1    8.82    1.26
  -8   5  -1   10.38    1.37
  -7  -6   1    0.15    1.29
  -7  -6   1    1.84    0.88
  -7  -6   1    1.21    1.58
   7  -6  -1    1.07    1.19
  -7   6   1    1.19    1.17
  -7   6   1    1.93    0.83
   7   6  -1    1.48    1.18
  -6  -6   1   18.75    1.93
   6  -6  -1   17.67    1.70
  -6  -6   1   18.19    1.90
  -6  -6   1   18.70    1.74
   6   6  -1   16.66    1.69
  -6   6   1   21.18    1.82
   5  -6  -1    1.26    1.10
  -5  -6   1   -1.04    1.05
  -5  -6   1    0.53    1.29
  -5  -6   1    0.89    0.75
  -5   6   1   -0.56    1.02
   5   6  -1   -0.70    0.68
   5   6  -1    0.82    0.78
   4  -6  -1   15.01    1.27
  -4  -6   1   17.90    1.81
   4  -6  -1   15.84    1.60
  -4  -6   1   16.71    1.50
  -4  -6   1   15.43    1.47
  -4  -6   1   17.21    1.43
  -4   6   1   17.52    1.62
   4   6  -1   13.06    1.47
  -4   6   1   14.14    1.28
   4   6  -1   16.96    1.46
   3  -6  -1    4.40    0.83
  -3  -6   1    6.38    1.22
   3  -6  -1    4.70    0.98
   3  -6  -1    5.51    0.99
  -3  -6   1    6.07    1.12
  -3  -6   1    4.56    0.94
  -3  -6   1    5.84    1.14
   3   6  -1    4.46    1.09
  -3   6   1    6.08    1.05
   3   6  -1    4.84    0.98
  -3   6   1    4.53    1.16
   3   6  -1    6.10    0.91
  -2  -6   1  113.78    4.19
  -2  -6   1  116.36    4.15
   2  -6  -1  112.81    3.96
  -2  -6   1  112.14    4.08
  -2  -6   1  115.89    4.09
   2  -6  -1  115.86    4.08
   2  -6  -1  117.40    4.23
   2   6  -1  116.15    4.18
   2   6  -1  115.51    4.04
   2   6  -1  120.63    4.08
  -2   6   1  116.20    4.01
  -2   6   1  120.06    4.22
  -1  -6   1   -0.86    0.69
   1  -6  -1   -0.08    0.40
  -1  -6   1    0.40    0.86
   1  -6  -1    0.08    0.57
  -1  -6   1    0.21    0.84
   1  -6  -1   -0.95    0.95
  -1  -6   1    0.85    0.70
   1  -6  -1   -0.27    0.81
   1   6  -1   -0.30    0.95
   1   6  -1   -0.50    0.81
  -1   6   1   -0.09    0.87
   1   6  -1   -0.59    0.88
  -1   6   1    0.09    0.94
   0  -6  -1    0.29    0.86
   0  -6   1    0.61    0.56
   0  -6  -1    0.37    0.68
   0  -6   1    0.45    0.60
   0  -6  -1    1.33    0.61
   0  -6   1    4.95    1.18
   0  -6  -1    1.99    0.92
   0  -6   1    1.49    0.82
   0   6   1    0.27    0.95
   0   6  -1    0.86    0.99
   0   6  -1    1.17    0.97
   0   6   1    1.47    0.68
   0   6  -1    0.41    0.60
  -1  -6  -1   17.28    1.22
   1  -6   1   16.70    1.38
  -1  -6  -1   16.71    1.39
  -1  -6  -1   17.05    1.48
   1  -6   1   15.61    1.52
  -1  -6  -1   16.09    1.32
   1  -6   1   16.63    1.36
  -1   6  -1   15.07    1.34
  -1   6  -1   14.89    1.32
  -1   6  -1   17.23    1.54
   1   6   1   15.78    1.44
   1   6   1   14.83    1.31
  -2  -6  -1   90.66    3.54
   2  -6   1   91.34    3.13
  -2  -6  -1   89.18    3.32
   2  -6   1   88.72    3.25
  -2  -6  -1   87.91    3.36
   2  -6   1   92.70    3.55
  -2  -6  -1   87.32    3.30
   2   6   1   85.22    3.42
  -2   6  -1   83.23    3.15
   2   6   1   83.56    3.19
  -2   6  -1   85.71    3.31
  -2   6  -1   89.64    3.54
   3  -6   1    8.94    0.85
   3  -6   1    7.67    1.06
  -3  -6  -1    7.80    1.20
  -3  -6  -1    8.56    1.12
  -3  -6  -1    8.92    1.35
  -3  -6  -1    7.20    1.31
  -3   6  -1    7.46    1.04
   3   6   1    7.50    1.19
   3   6   1    8.52    1.00
  -4  -6  -1   68.03    3.10
   4  -6   1   70.58    2.88
  -4  -6  -1   67.48    3.18
  -4  -6  -1   69.22    2.83
   4   6   1   64.14    2.81
   4   6   1   65.18    2.56
  -4   6  -1   69.15    2.84
  -5  -6  -1    1.82    0.90
   5  -6   1    2.56    1.10
  -5  -6  -1    1.82    1.02
  -5  -6  -1    0.38    0.68
   5   6   1    2.57    0.80
  -5   6  -1    1.05    0.79
   6  -6   1  106.58    4.15
  -6  -6  -1  111.19    4.56
  -6  -6  -1  104.20    4.22
  -6  -6  -1  108.79    4.12
   6   6   1  103.61    4.11
  -6   6  -1  104.84    4.09
   7  -6   1   17.82    1.77
  -7  -6  -1   18.84    2.30
  -7  -6  -1   21.55    1.84
  -7  -6  -1   21.53    1.90
   7   6   1   18.50    1.76
  -7   6  -1   18.72    1.54
  -7   6  -1   17.38    1.74
   6  -7  -1    4.57    1.47
  -6  -7   1    5.42    1.13
  -6  -7   1    5.01    1.20
  -6  -7   1    5.04    1.35
  -6   7   1    2.77    1.34
   6   7  -1    2.97    1.31
   5  -7  -1    9.08    1.58
  -5  -7   1   10.81    1.52
  -5  -7   1   10.20    1.49
  -5  -7   1   11.34    1.44
   5   7  -1   10.65    1.57
   5   7  -1    9.67    1.21
  -5   7   1    8.75    1.54
  -4  -7   1    4.72    1.27
   4  -7  -1    8.33    1.02
  -4  -7   1    2.70    0.97
   4  -7  -1    6.18    1.42
  -4  -7   1    2.55    1.23
  -4   7   1    4.73    1.05
   4   7  -1    1.99    0.72
   4   7  -1    6.16    1.30
  -3  -7   1   93.29    3.82
   3  -7  -1   91.99    3.73
   3  -7  -1   98.55    3.54
  -3  -7   1   93.28    3.92
  -3  -7   1   93.87    3.86
  -3  -7   1   93.00    3.84
   3   7  -1   92.35    3.64
   3   7  -1   94.17    3.71
  -3   7   1   89.26    3.87
   3   7  -1  104.95    4.10
  -3   7   1   99.06    3.77
   2  -7  -1   18.49    1.52
   2  -7  -1   17.57    1.75
  -2  -7   1   19.94    1.77
  -2  -7   1   19.27    1.68
  -2  -7   1   17.60    1.56
   2  -7  -1   18.96    1.52
  -2  -7   1   18.12    1.56
   2   7  -1   17.48    1.51
  -2   7   1   21.43    1.72
  -2   7   1   18.11    1.74
   2   7  -1   17.78    1.69
   2   7  -1   20.31    1.75
   1  -7  -1    4.27    0.98
  -1  -7   1    4.49    0.88
  -1  -7   1    4.50    1.24
   1  -7  -1    2.86    1.09
  -1  -7   1    5.92    0.91
   1  -7  -1    4.20    0.87
  -1  -7   1    4.15    0.89
  -1   7   1    3.22    0.89
  -1   7   1    3.47    1.20
   1   7  -1    4.93    0.99
   1   7  -1    3.40    1.11
   1   7  -1    3.62    0.91
   0  -7   1   15.75    1.46
   0  -7  -1   15.27    1.37
   0  -7   1   14.00    1.46
   0  -7  -1   16.56    1.62
   0  -7  -1   13.85    1.49
   0  -7   1   14.92    1.45
   0   7   1   17.05    1.60
   0   7  -1   19.91    1.75
   0   7  -1   16.85    1.46
   0   7   1   16.07    1.60
   0   7  -1   14.88    1.63
   1  -7   1  100.28    3.58
  -1  -7  -1   99.46    3.67
  -1  -7  -1  102.87    3.78
   1  -7   1   99.04    4.06
  -1  -7  -1  101.86    3.78
  -1  -7  -1  100.12    3.96
   1  -7   1   96.03    3.65
  -1   7  -1   98.78    3.99
   1   7   1   97.86    3.89
   1   7   1  106.00    4.00
  -1   7  -1  101.21    4.00
  -1   7  -1  100.21    3.83
   2  -7   1   11.87    1.18
  -2  -7  -1   14.06    1.49
  -2  -7  -1   14.52    1.63
  -2  -7  -1   15.47    1.58
   2  -7   1   11.83    1.32
  -2  -7  -1   13.60    1.48
  -2   7  -1   14.59    1.40
   2   7   1   12.66    1.52
  -2   7  -1   16.06    1.49
   3  -7   1    6.44    1.41
  -3  -7  -1    5.31    1.05
  -3  -7  -1    5.20    1.01
   3  -7   1    6.51    0.88
  -3  -7  -1    3.84    1.02
   3   7   1    5.80    1.27
  -3   7  -1    4.43    1.31
  -4  -7  -1   33.68    2.49
  -4  -7  -1   38.34    2.37
  -4  -7  -1   32.64    2.06
   4  -7   1   36.95    2.55
   4   7   1   37.56    2.47
  -4   7  -1   35.53    2.14
  -5  -7  -1   24.83    2.03
  -5  -7  -1   26.75    2.21
   5  -7   1   27.15    2.39
  -5  -7  -1   24.62    2.37
   5   7   1   28.39    2.32
  -5   7  -1   24.65    1.89
   3  -8  -1    2.88    1.08
   3  -8  -1    3.50    1.00
  -3  -8   1    0.79    1.25
  -3  -8   1    2.47    1.15
  -3  -8   1    5.20    1.41
   3   8  -1    3.39    1.04
   3   8  -1    1.97    0.89
  -3   8   1    3.28    1.44
  -2  -8   1   27.66    2.30
   2  -8  -1   25.25    2.00
   2  -8  -1   24.04    2.08
  -2  -8   1   25.14    1.95
   2   8  -1   38.34    2.43
   2   8  -1   25.88    2.36
  -2   8   1   39.93    2.64
  -1  -8   1    1.76    1.17
   1  -8  -1    0.73    0.82
  -1  -8   1   -0.33    1.28
  -1  -8   1    1.81    1.13
   1  -8  -1    1.88    1.30
   1  -8  -1    1.65    1.05
   1   8  -1    2.41    1.27
  -1   8   1    1.76    0.97
   1   8  -1    1.44    0.96
   1   8  -1   -0.46    0.75
  -1   8   1    1.09    1.20
   0  -8   1   70.71    3.21
   0  -8   1   69.43    3.26
   0  -8  -1   73.99    3.21
   0  -8  -1   65.62    3.18
   0  -8  -1   73.69    3.37
   0   8  -1   67.18    3.08
   0   8  -1   78.33    3.58
   0   8   1   81.46    3.50
   0   8   1   73.58    3.47
  -1  -8  -1    0.99    1.24
   1  -8   1    1.84    0.76
  -1  -8  -1    1.35    1.22
   1  -8   1    2.32    1.02
  -1  -8  -1    1.17    1.22
   1   8   1    0.75    1.20
  -1   8  -1    1.51    1.32
  -2  -8  -1    1.96    0.89
   2  -8   1    1.20    0.88
   2  -8   1    1.97    1.03
  -2  -8  -1    2.97    0.82
  -2  -8  -1    1.27    0.94
  -2   8  -1    0.53    1.29
   2   8   1    1.68    1.26
  -3  -8  -1    3.57    1.08
  -3  -8  -1    7.59    1.44
  -3  -8  -1    5.95    1.43
   3  -8   1    3.63    1.51
   3   8   1    4.14    1.10
  -3   8  -1    3.80    1.10
  11   0  -2   -0.02    1.08
 -11   0   2   -1.54    1.36
 -11   0   2   -0.41    0.96
  11   0  -2    0.27    1.04
 -11   0   2   -0.66    1.15
 -10   0   2   47.91    3.08
 -10   0   2   48.54    2.48
 -10   0   2   45.31    2.29
  10   0  -2   44.71    2.47
  10   0  -2   47.58    2.75
 -10   0   2   43.26    2.17
  -9   0   2   -0.36    0.98
   9   0  -2   -0.08    0.81
  -9   0   2    1.24    0.80
   9   0  -2   -0.28    0.68
  -9   0   2    0.01    0.80
  -9   0   2    0.08    0.92
   8   0  -2   34.86    1.94
  -8   0   2   34.73    1.72
   8   0  -2   35.53    2.24
  -8   0   2   39.84    2.61
  -8   0   2   35.73    2.15
  -7   0   2   -0.07    0.58
   7   0  -2   -0.33    0.67
   7   0  -2    0.85    0.89
  -7   0   2   -0.59    0.83
  -6   0   2  182.49    5.64
   6   0  -2  191.96    5.83
   6   0  -2  210.70    6.03
   6   0  -2  178.42    5.63
  -6   0   2  198.24    5.96
  -6   0   2  211.20    6.32
  -5   0   2   -0.63    0.67
   5   0  -2    0.50    0.56
  -5   0   2   -0.54    0.49
   5   0  -2    0.36    0.70
   5   0  -2    0.50    0.49
  -5   0   2    0.06    0.61
  -4   0   2    2.78    0.76
   4   0  -2    3.14    0.58
   4   0  -2    1.69    0.55
  -4   0   2    2.60    0.55
   4   0  -2    2.22    0.52
  -4   0   2    1.81    0.47
  -3   0   2   -0.36    0.52
   3   0  -2   -0.59    0.34
  -3   0   2   -0.20    0.51
   3   0  -2   -0.48    0.34
   3   0  -2    0.78    0.63
   2   0  -2   70.36    2.34
  -2   0   2   69.01    2.15
   2   0  -2   70.15    2.17
   2   0  -2   74.11    2.20
  -2   0   2   69.10    2.25
  -1   0   2   -0.01    0.22
  -1   0   2   -0.18    0.19
   1   0  -2   -0.25    0.22
   1   0  -2    0.06    0.36
  -1   0   2    0.08    0.30
   1   0  -2   -0.38    0.38
   1   0  -2   -0.25    0.22
   0   0   2   42.52    1.22
   0   0  -2   42.57    1.31
   0   0  -2   41.26    1.22
   0   0   2   40.02    1.21
   0   0  -2   43.10    1.22
   0   0  -2   42.08    1.18
   0   0   2   41.11    1.22
  -1   0  -2   -0.58    0.22
  -1   0  -2   -0.47    0.43
  -1   0  -2   -0.22    0.18
  -2   0  -2   78.13    2.49
  -2   0  -2   78.28    2.22
  -2   0  -2   77.68    2.27
  -3   0  -2    0.24    0.31
  -3   0  -2   -0.31    0.36
  -3   0  -2   -0.50    0.23
  -4   0  -2   32.15    1.31
  -4   0  -2   33.26    1.02
  -4   0  -2   33.01    1.63
  -4   0  -2   32.32    1.01
  -4   0  -2   32.04    1.17
   4   0   2   32.82    1.01
  -5   0  -2   -0.64    0.48
  -5   0  -2    0.06    0.23
   5   0   2    0.18    0.28
  -5   0  -2   -0.70    0.71
   5   0   2    0.42    0.30
  -5   0  -2   -0.05    0.31
  -6   0  -2    9.45    0.73
   6   0   2    8.68    0.69
  -6   0  -2    7.63    1.13
  -6   0  -2   10.83    0.93
  -6   0  -2    8.40    0.69
  -7   0  -2    0.04    0.61
   7   0   2    0.53    0.43
  -7   0  -2   -0.22    0.45
   8   0   2   26.32    1.39
  -8   0  -2   25.27    2.05
  -9   0  -2    2.12    1.18
  -9   0  -2   -0.70    0.54
   9   0   2    0.14    0.59
  10  -1  -2   15.27    1.53
  10  -1  -2   17.83    1.91
 -10  -1   2   21.71    2.10
 -10  -1   2   17.93    1.56
 -10  -1   2   22.02    1.72
  10   1  -2   16.42    1.59
 -10   1   2   18.38    1.74
  10   1  -2   14.86    1.55
 -10   1   2   17.30    1.70
   9  -1  -2   84.99    3.65
  -9  -1   2   77.91    3.59
  -9  -1   2   73.68    3.06
   9  -1  -2   79.54    3.18
  -9  -1   2   77.52    3.35
  -9  -1   2   77.29    3.17
  -9   1   2   79.95    3.50
   9   1  -2   80.63    3.17
   9   1  -2   79.23    2.80
  -9   1   2   66.52    3.20
   9   1  -2   76.87    3.21
  -8  -1   2    1.73    0.81
  -8  -1   2    0.82    1.02
  -8  -1   2    2.43    1.04
  -8  -1   2    2.41    0.73
   8  -1  -2    1.56    0.85
   8   1  -2    2.52    0.67
   8   1  -2    2.50    0.90
  -8   1   2    2.67    0.91
   8   1  -2    1.78    0.87
  -8   1   2    1.63    0.72
   7  -1  -2    8.09    1.01
  -7  -1   2   10.42    1.22
  -7  -1   2   10.10    1.03
  -7  -1   2    6.65    1.63
  -7   1   2    8.88    1.37
   7   1  -2    7.78    0.99
   7   1  -2    7.21    1.04
   7   1  -2    9.43    0.88
  -7   1   2    8.34    0.95
  -6  -1   2    1.58    1.29
  -6  -1   2    0.44    0.62
   6  -1  -2    1.19    0.51
   6  -1  -2    1.46    0.69
  -6  -1   2    0.26    0.78
  -6   1   2    0.32    0.53
   6   1  -2    0.82    0.65
  -6   1   2    0.36    0.72
   6   1  -2    0.48    0.49
  -6   1   2    0.40    0.77
   6   1  -2    0.07    0.36
   6   1  -2   -0.10    0.67
   5  -1  -2   57.33    2.06
   4  -1  -2   38.50    1.47
  -4  -1   2   37.40    1.59
  -4  -1   2   39.70    1.56
   4  -1  -2   37.88    1.58
  -4  -1   2   39.47    1.61
  -4  -1   2   41.54    2.22
  -4   1   2   39.30    1.55
   4   1  -2   39.67    1.50
   4   1  -2   40.81    1.57
  -4   1   2   41.00    1.59
   4   1  -2   37.54    1.56
   4   1  -2   38.14    1.60
  -3  -1   2  157.51    4.51
  -3  -1   2  155.16    4.55
   3  -1  -2  154.01    4.48
   3  -1  -2  154.05    4.49
  -3  -1   2  161.24    4.56
   3   1  -2  154.31    4.48
   3   1  -2  149.86    4.57
   3   1  -2  154.42    4.50
  -3   1   2  152.71    4.54
   3   1  -2  155.39    4.51
  -3   1   2  156.21    4.53
   2  -1  -2    8.24    0.66
  -2  -1   2    6.69    0.72
  -2  -1   2    7.54    0.60
  -2  -1   2    8.17    0.62
   2  -1  -2    6.62    0.61
   2   1  -2    9.19    0.78
   2   1  -2    8.09    0.64
  -2   1   2    7.36    0.66
   2   1  -2    7.49    0.69
  -1  -1   2  390.97   10.44
  -1  -1   2  375.15   10.46
   1  -1  -2  380.65   10.48
   1  -1  -2  378.01   10.45
   1  -1  -2  383.14   10.44
   1   1  -2  378.14   10.47
   1   1  -2  397.68   10.45
  -1   1   2  383.33   10.45
   1   1  -2  378.36   10.46
   0  -1  -2  277.16    7.69
   0  -1  -2  279.72    7.75
   0  -1  -2  269.05    7.62
   0  -1   2  287.37    7.61
   0  -1  -2  285.12    7.61
   0  -1   2  283.02    7.59
   0  -1   2  274.47    7.63
   0  -1  -2  274.13    7.60
   0   1  -2  292.25    7.60
   0   1   2  281.26    7.62
   0   1  -2  288.18    7.69
   0   1   2  242.78    7.66
   0   1  -2  283.49    7.63
  -1  -1  -2    0.63    0.26
  -1  -1  -2   -0.18    0.53
  -1  -1  -2    0.58    0.20
   1  -1   2    0.69    0.23
   1  -1   2    0.61    0.21
  -1  -1  -2    0.50    0.31
  -1   1  -2    0.61    0.21
  -1   1  -2    0.35    0.39
   1   1   2    1.05    0.23
   1   1   2    0.69    0.21
  -1   1  -2    0.55    0.21
   2  -1   2   57.97    1.64
  -2  -1  -2   56.54    1.67
  -2  -1  -2   58.00    1.68
  -2  -1  -2   57.38    2.13
  -2  -1  -2   57.42    1.87
  -2   1  -2   56.62    1.65
  -2   1  -2   57.89    1.88
   2   1   2   58.32    1.67
   2   1   2   58.28    1.67
  -2   1  -2   58.17    1.84
  -2   1  -2   57.55    1.73
  -2   1  -2   59.82    1.65
  -3  -1  -2   11.20    0.49
  -3  -1  -2   12.34    0.80
   3  -1   2   11.56    0.50
  -3  -1  -2   11.13    1.01
  -3  -1  -2   11.03    0.52
  -3   1  -2   10.43    0.48
   3   1   2   11.18    0.51
  -3   1  -2   11.81    0.72
  -3   1  -2   11.15    0.66
  -3   1  -2   11.37    0.49
   3   1   2   10.71    0.51
  -3   1  -2   12.09    0.71
  -4  -1  -2  183.40    5.22
   4  -1   2  182.43    5.19
   4  -1   2  187.02    5.18
  -4  -1  -2  195.99    5.22
  -4  -1  -2  189.50    5.44
  -4  -1  -2  187.61    5.74
  -4   1  -2  185.80    5.20
  -4   1  -2  182.33    5.35
  -4   1  -2  187.90    5.18
   4   1   2  184.19    5.22
  -4   1  -2  190.94    5.10
  -4   1  -2  188.31    5.53
  -5  -1  -2  141.75    4.11
  -5  -1  -2  137.64    4.75
  -5  -1  -2  140.96    4.08
   5  -1   2  138.67    4.09
   5  -1   2  141.30    4.08
  -5  -1  -2  143.89    4.32
  -5   1  -2  143.81    3.96
  -5   1  -2  140.03    4.09
   5   1   2  143.65    4.13
  -5   1  -2  143.43    4.09
  -5   1  -2  146.17    4.31
  -5   1  -2  144.33    4.49
  -6  -1  -2   94.11    3.12
  -6  -1  -2   95.27    2.97
   6  -1   2   95.61    2.93
  -6  -1  -2   93.18    3.54
  -6   1  -2   94.48    3.10
   6   1   2   91.56    3.05
  -6   1  -2   92.96    3.35
   6   1   2   92.28    2.97
  -6   1  -2   96.61    2.91
   7  -1   2   42.64    1.71
  -7  -1  -2   37.29    2.45
  -7  -1  -2   41.72    1.66
  -7  -1  -2   41.77    1.70
   7   1   2   37.87    1.75
  -7   1  -2   42.88    2.15
   7   1   2   40.73    1.85
  -7   1  -2   41.34    1.88
  -8  -1  -2   11.41    1.00
   8  -1   2   11.01    0.92
  -8  -1  -2   10.25    1.54
  -8  -1  -2   12.64    1.05
  -8   1  -2    8.93    1.08
  -8   1  -2   11.29    1.36
   8   1   2   10.77    0.95
  -9  -1  -2   14.44    1.87
  -9  -1  -2   14.38    1.21
   9  -1   2   15.57    1.29
  -9   1  -2   19.31    1.83
  -9   1  -2   10.59    1.13
   9   1   2   11.25    1.08
  10  -2  -2   31.51    2.17
 -10  -2   2   30.19    1.83
 -10  -2   2   30.16    2.22
 -10  -2   2   27.35    2.45
 -10   2   2   29.81    1.95
  10   2  -2   32.68    2.22
  -9  -2   2   48.87    2.37
  -9  -2   2   42.95    3.19
   9  -2  -2   45.13    2.40
  -9  -2   2   51.57    2.59
  -9   2   2   47.98    2.43
  -9   2   2   45.45    2.52
   9   2  -2   42.57    2.17
   8  -2  -2    2.98    0.75
  -8  -2   2    2.95    0.70
  -8  -2   2    2.63    0.79
  -8  -2   2    3.84    1.63
   8   2  -2    3.61    0.66
  -8   2   2    3.66    0.84
   8   2  -2    2.64    0.93
  -8   2   2    2.39    0.97
  -7  -2   2   26.30    1.46
   7  -2  -2   29.63    1.74
  -7  -2   2   25.74    1.85
  -7  -2   2   27.69    2.58
  -7   2   2   26.15    1.56
   7   2  -2   25.18    1.33
  -7   2   2   25.13    1.73
   7   2  -2   23.20    1.67
  -6  -2   2   25.82    2.39
   6  -2  -2   28.36    1.61
  -6  -2   2   25.28    1.56
  -6  -2   2   29.36    1.58
   6  -2  -2   26.94    1.26
  -6   2   2   29.28    1.69
   6   2  -2   28.66    1.39
  -6   2   2   27.17    1.49
   6   2  -2   27.32    1.62
  -6   2   2   26.66    1.38
   6   2  -2   27.45    1.33
   5  -2  -2  106.96    3.31
   5  -2  -2   95.82    3.31
  -5  -2   2  104.08    4.00
  -5  -2   2  102.41    3.36
  -5  -2   2  104.24    3.49
  -5   2   2  108.28    3.50
   5   2  -2   97.23    3.35
  -5   2   2  103.04    3.32
   5   2  -2  106.27    3.25
  -5   2   2  105.63    3.43
   5   2  -2  107.52    3.35
   4  -2  -2    3.36    0.66
  -4  -2   2    3.62    0.54
   4  -2  -2    4.04    0.61
  -4  -2   2    4.96    0.93
  -4   2   2    3.86    0.57
  -4   2   2    4.37    0.65
   4   2  -2    3.54    0.66
  -4   2   2    4.06    0.68
   4   2  -2    4.15    0.55
   4   2  -2    4.03    0.53
  -3  -2   2   27.46    1.88
  -3  -2   2   26.14    1.29
   3  -2  -2   26.88    1.14
   3  -2  -2   26.27    1.20
   3   2  -2   26.17    1.19
  -3   2   2   28.08    1.31
   3   2  -2   28.33    1.20
   3   2  -2   26.52    1.19
  -3   2   2   26.91    1.28
   2  -2  -2  444.13   12.58
  -2  -2   2  461.81   12.60
   2  -2  -2  473.46   12.60
   2  -2  -2  456.60   12.57
   2   2  -2  453.43   12.56
  -2   2   2  463.24   12.60
   2   2  -2  450.81   12.60
  -2   2   2  459.80   12.59
   2   2  -2  457.44   12.62
  -1  -2   2  583.81   15.39
   1  -2  -2  556.87   15.36
   1  -2  -2  553.52   15.39
   1  -2  -2  557.55   15.40
   1  -2  -2  563.76   15.39
  -1   2   2  563.27   15.40
   1   2  -2  574.54   15.39
   1   2  -2  562.48   15.40
   1   2  -2  567.59   15.41
  -1   2   2  560.03   15.39
   0  -2  -2    5.27    0.54
   0  -2  -2    6.76    0.59
   0  -2  -2    6.62    0.58
   0  -2   2    6.23    0.52
   0  -2  -2    6.21    0.60
   0  -2   2    6.28    0.49
   0   2  -2    6.97    0.57
   0   2  -2    5.53    0.59
   0   2   2    6.66    0.58
   0   2   2    5.50    0.57
   0   2  -2    5.52    0.53
  -1  -2  -2   63.38    1.94
  -1  -2  -2   59.64    2.20
  -1  -2  -2   60.69    1.96
  -1  -2  -2   59.69    2.11
   1  -2   2   62.65    1.89
   1  -2   2   64.02    1.84
   1   2   2   62.87    1.95
  -1   2  -2   61.57    1.98
  -1   2  -2   60.25    1.88
  -1   2  -2   61.89    2.04
   1   2   2   61.36    1.92
  -2  -2  -2  614.39   16.62
  -2  -2  -2  630.93   16.96
   2  -2   2  614.76   16.43
  -2  -2  -2  611.02   16.79
  -2   2  -2  627.99   16.62
  -2   2  -2  604.26   16.59
   2   2   2  608.11   16.62
  -2   2  -2  611.97   16.74
  -2   2  -2  584.26   16.47
  -3  -2  -2  228.62    6.37
  -3  -2  -2  220.78    6.76
   3  -2   2  223.11    6.33
  -3  -2  -2  226.18    6.56
  -3  -2  -2  229.79    6.36
   3  -2   2  228.64    6.35
  -3   2  -2  232.54    6.36
  -3   2  -2  228.07    6.34
  -3   2  -2  229.81    6.52
  -3   2  -2  221.54    6.37
   3   2   2  228.42    6.38
  -3   2  -2  223.73    6.35
  -4  -2  -2   47.05    1.66
  -4  -2  -2   49.79    1.86
  -4  -2  -2   48.32    1.65
  -4  -2  -2   46.09    2.29
   4  -2   2   47.11    1.61
   4  -2   2   45.85    1.64
  -4   2  -2   46.17    1.67
  -4   2  -2   46.65    1.73
  -4   2  -2   46.56    1.63
   4   2   2   47.41    1.66
  -4   2  -2   46.98    1.60
  -5  -2  -2    6.21    0.84
  -5  -2  -2    6.36    1.00
  -5  -2  -2    6.53    0.61
   5  -2   2    5.83    0.69
   5  -2   2    5.88    0.58
  -5  -2  -2    6.06    0.61
  -5   2  -2    6.44    0.61
  -5   2  -2    6.21    0.72
  -5   2  -2    5.67    0.56
   5   2   2    5.40    0.61
  -5   2  -2    6.83    0.71
  -6  -2  -2  156.93    4.78
  -6  -2  -2  158.41    5.54
   6  -2   2  157.39    4.77
  -6  -2  -2  158.08    5.02
  -6   2  -2  161.13    4.92
  -6   2  -2  159.99    4.74
   6   2   2  160.05    4.82
  -6   2  -2  163.87    4.94
  -7  -2  -2  139.27    4.53
  -7  -2  -2  133.29    4.97
  -7  -2  -2  138.34    4.30
   7  -2   2  141.13    4.27
  -7   2  -2  132.33    4.43
  -7   2  -2  140.03    4.27
  -7   2  -2  137.96    4.48
   7   2   2  137.05    4.31
  -8  -2  -2  104.59    4.29
  -8  -2  -2  117.58    3.84
  -8  -2  -2  101.62    3.55
   8  -2   2  106.55    3.55
  -8   2  -2  107.42    3.80
  -8   2  -2  100.74    3.72
   8   2   2  104.12    3.58
  -9   2  -2    7.31    1.09
 -10  -3   2    9.45    1.72
  10  -3  -2    8.77    1.38
 -10  -3   2    7.61    1.44
 -10  -3   2    8.18    1.12
 -10   3   2    6.53    1.12
  10   3  -2    6.69    1.09
  -9  -3   2   22.28    1.56
   9  -3  -2   20.40    1.66
  -9  -3   2   19.79    2.10
  -9  -3   2   21.40    1.72
   9   3  -2   17.62    1.60
  -9   3   2   16.41    1.48
  -8  -3   2  163.53    6.24
   8  -3  -2  167.13    5.46
  -8  -3   2  163.59    5.69
  -8  -3   2  160.38    5.37
   8   3  -2  169.21    5.45
   8   3  -2  170.20    5.08
  -8   3   2  170.95    5.56
  -7  -3   2   79.48    3.31
  -7  -3   2   73.94    3.51
  -7  -3   2   75.79    3.06
   7  -3  -2   78.72    3.09
   7   3  -2   81.87    2.74
  -7   3   2   78.94    3.01
   7   3  -2   80.24    3.11
  -7   3   2   82.40    2.77
   6  -3  -2   21.70    1.56
  -6  -3   2   13.40    1.38
  -6  -3   2   17.95    1.46
  -6  -3   2   13.14    1.81
  -6   3   2   21.01    1.51
   6   3  -2   12.54    0.99
  -6   3   2   19.30    1.29
   6   3  -2   16.94    1.48
  -5  -3   2  105.06    3.61
   5  -3  -2  109.08    3.57
  -5  -3   2  106.12    3.57
   5  -3  -2  105.48    3.39
  -5  -3   2  109.62    4.19
  -5   3   2  105.94    3.59
   5   3  -2   96.09    3.41
  -5   3   2  106.12    3.43
  -5   3   2  107.26    3.24
   5   3  -2  107.66    3.33
  -5   3   2   87.81    3.38
   5   3  -2  101.92    3.56
   4  -3  -2  300.31    8.80
   4  -3  -2  311.58    8.88
  -4  -3   2  302.76    9.02
  -4  -3   2  309.80    8.90
  -4  -3   2  310.56    9.24
   4   3  -2  308.48    8.90
   4   3  -2  310.89    8.76
  -4   3   2  312.95    8.86
   4   3  -2  315.48    8.88
  -4   3   2  317.22    8.89
   3  -3  -2  194.44    5.64
   3  -3  -2  193.22    5.58
  -3  -3   2  190.15    5.73
  -3  -3   2  192.41    5.69
  -3  -3   2  193.85    5.93
   3  -3  -2  196.61    5.67
   3   3  -2  182.14    5.63
  -3   3   2  190.61    5.62
   3   3  -2  193.02    5.70
   3   3  -2  186.36    5.58
  -3   3   2  190.32    5.65
  -2  -3   2  152.73    4.68
   2  -3  -2  150.65    4.55
   2  -3  -2  145.28    4.43
  -2  -3   2  150.74    4.58
  -2  -3   2  150.41    4.48
   2  -3  -2  148.28    4.47
  -2   3   2  154.66    4.55
   2   3  -2  150.30    4.48
   2   3  -2  146.24    4.50
  -2   3   2  145.80    4.48
   2   3  -2  150.07    4.53
   1  -3  -2   94.54    2.95
   1  -3  -2   96.97    3.09
   1  -3  -2   94.59    3.04
  -1  -3   2  100.80    3.14
   1  -3  -2   98.57    3.11
  -1  -3   2   92.67    3.02
  -1  -3   2   97.64    3.02
   1   3  -2   95.35    3.05
  -1   3   2   97.96    3.10
   1   3  -2   98.01    3.08
  -1   3   2   95.54    3.10
   1   3  -2   96.22    3.07
   0  -3  -2  109.75    3.35
   0  -3  -2  105.33    3.40
   0  -3  -2  108.89    3.38
   0  -3   2  110.69    3.34
   0  -3   2  109.87    3.28
   0  -3  -2  107.60    3.40
   0   3   2  108.00    3.36
   0   3  -2  114.15    3.43
   0   3  -2  106.85    3.34
   0   3  -2  108.91    3.45
   0   3   2  108.19    3.38
  -1  -3  -2  361.58   10.63
   1  -3   2  414.78   10.63
   1  -3   2  372.67   10.54
  -1  -3  -2  362.25   10.76
  -1  -3  -2  384.53   10.69
  -1  -3  -2  365.21   10.80
  -1   3  -2  420.30   10.65
  -1   3  -2  412.57   10.80
  -1   3  -2  372.76   10.69
   1   3   2  376.79   10.64
   1   3   2  380.79   10.70
   2  -3   2  106.93    3.16
  -2  -3  -2  104.17    3.49
   2  -3   2  105.99    3.05
  -2  -3  -2  103.17    3.20
   2  -3   2  109.85    3.34
  -2  -3  -2  107.63    3.62
  -2  -3  -2  106.34    3.30
   2   3   2  107.32    3.33
  -2   3  -2  104.63    3.27
   2   3   2  105.23    3.21
  -2   3  -2  107.15    3.45
  -2   3  -2  105.40    3.16
  -3  -3  -2    9.45    0.66
   3  -3   2    8.84    0.80
  -3  -3  -2    9.63    1.02
   3  -3   2    9.74    0.41
  -3  -3  -2    9.39    0.88
  -3  -3  -2    9.30    0.77
  -3   3  -2   10.75    0.61
  -3   3  -2   10.34    0.77
  -3   3  -2    8.03    0.95
   3   3   2    9.58    0.79
   4  -3   2   16.69    1.13
  -4  -3  -2   12.18    1.07
  -4  -3  -2   13.10    0.99
  -4  -3  -2   14.93    1.49
  -4   3  -2   13.05    0.99
  -4   3  -2   12.53    1.03
   4   3   2   12.99    1.03
   5  -3   2  328.29    9.10
  -5  -3  -2  317.35    9.10
  -5  -3  -2  310.71    9.73
  -5  -3  -2  318.62    9.38
   5   3   2  322.75    9.13
  -5   3  -2  322.25    9.13
  -5   3  -2  321.34    8.90
  -5   3  -2  316.64    9.06
   6  -3   2   11.46    0.98
  -6  -3  -2   11.76    0.91
  -6  -3  -2   11.73    1.22
  -6  -3  -2   11.86    1.64
  -6   3  -2   11.65    0.95
   6   3   2   10.37    0.98
  -6   3  -2   12.69    1.08
   7  -3   2    2.26    0.73
  -7  -3  -2    1.61    0.53
  -7  -3  -2    2.48    0.70
  -7  -3  -2    0.10    0.96
  -7   3  -2    0.98    0.70
  -7   3  -2    2.43    0.70
   7   3   2    2.69    0.75
  -8  -3  -2   15.26    1.27
   8  -3   2   17.41    1.43
  -8  -3  -2   15.36    1.48
  -8  -3  -2   16.27    1.81
  -8   3  -2   15.36    1.33
  -8   3  -2   16.62    1.37
   8   3   2   15.58    1.37
  -9  -3  -2   87.63    4.37
  -9  -3  -2   80.06    3.24
  -9  -3  -2   92.10    3.62
   9  -3   2   84.57    3.27
   9   3   2   86.58    3.43
  -9  -4   2   13.80    1.38
  -9  -4   2   14.33    2.21
   9  -4  -2   12.64    1.52
  -9  -4   2   18.20    1.88
   9   4  -2   15.92    1.47
  -9   4   2   15.67    1.61
  -8  -4   2    4.78    1.34
  -8  -4   2    5.08    1.34
   8  -4  -2    3.50    1.10
  -8  -4   2    7.46    1.23
  -8   4   2    6.04    1.21
   8   4  -2    5.31    1.19
  -7  -4   2   74.01    3.31
  -7  -4   2   70.86    2.92
  -7  -4   2   73.23    3.82
   7  -4  -2   77.24    3.11
   7   4  -2   66.89    3.07
  -7   4   2   73.82    2.94
  -7   4   2   76.54    3.05
   7   4  -2   73.54    2.64
   6  -4  -2  179.90    6.00
  -6  -4   2  187.46    6.15
  -6  -4   2  185.74    6.47
  -6  -4   2  189.22    5.86
  -6  -4   2  188.47    6.05
   6   4  -2  181.80    5.70
   6   4  -2  189.95    6.06
  -6   4   2  198.23    6.08
  -6   4   2  215.16    6.15
  -6   4   2  188.56    5.97
  -5  -4   2   46.77    2.56
  -5  -4   2   49.41    2.49
  -5  -4   2   48.20    2.27
   5  -4  -2   48.48    2.06
   5  -4  -2   45.23    2.12
  -5   4   2   49.50    2.13
   5   4  -2   46.05    2.25
   5   4  -2   47.72    2.18
  -5   4   2   51.63    2.17
   5   4  -2   50.69    2.01
  -4  -4   2  119.35    4.09
   4  -4  -2  118.93    3.87
  -4  -4   2  115.50    4.36
   4  -4  -2  113.46    3.72
  -4  -4   2  115.56    3.91
   4   4  -2  116.40    3.90
   4   4  -2  115.61    3.68
  -4   4   2  115.22    3.83
   4   4  -2  111.65    3.83
  -4   4   2  115.45    3.84
   3  -4  -2   12.03    0.89
   3  -4  -2   12.32    1.16
   3  -4  -2   12.26    1.04
  -3  -4   2   11.00    1.39
  -3  -4   2   12.58    1.04
  -3  -4   2   14.40    1.17
   3   4  -2   10.99    1.07
   3   4  -2   12.50    1.17
  -3   4   2   13.08    1.11
  -3   4   2   12.74    1.09
   3   4  -2   11.63    1.02
   2  -4  -2  328.01    9.61
  -2  -4   2  332.41    9.61
  -2  -4   2  334.09    9.57
   2  -4  -2  337.38    9.58
   2  -4  -2  328.90    9.53
  -2  -4   2  338.33    9.73
  -2   4   2  335.67    9.62
  -2   4   2  339.65    9.61
   2   4  -2  341.20    9.65
   2   4  -2  337.42    9.57
   2   4  -2  332.32    9.60
  -1  -4   2  137.37    4.28
  -1  -4   2  133.12    4.20
   1  -4  -2  136.44    4.24
  -1  -4   2  135.74    4.22
   1  -4  -2  137.40    4.32
   1  -4  -2  141.31    4.31
   1  -4  -2  133.91    4.09
  -1   4   2  136.40    4.25
   1   4  -2  139.01    4.36
   1   4  -2  133.35    4.29
   1   4  -2  135.84    4.27
  -1   4   2  133.53    4.30
   0  -4   2  152.16    4.58
   0  -4  -2  155.44    4.68
   0  -4  -2  145.85    4.60
   0  -4   2  156.42    4.50
   0  -4   2  148.84    4.61
   0  -4  -2  150.03    4.59
   0  -4  -2  148.11    4.68
   0   4  -2  156.43    4.73
   0   4  -2  149.13    4.61
   0   4   2  151.19    4.66
   0   4   2  151.86    4.64
   0   4  -2  148.97    4.66
  -1  -4  -2   11.82    1.02
   1  -4   2   10.93    0.73
   1  -4   2   11.23    0.79
   1  -4   2   12.19    1.06
  -1  -4  -2   12.06    0.97
  -1  -4  -2   11.48    0.91
  -1  -4  -2   11.48    1.07
   1  -4   2   10.64    0.70
  -1   4  -2   12.19    1.05
  -1   4  -2   11.02    0.80
   1   4   2   11.62    0.87
   1   4   2    9.24    0.84
  -1   4  -2    9.90    0.92
  -2  -4  -2   42.15    1.83
  -2  -4  -2   38.58    1.84
  -2  -4  -2   44.47    1.76
   2  -4   2   41.59    1.50
  -2  -4  -2   41.30    1.93
   2  -4   2   41.34    1.64
   2  -4   2   41.85    1.77
   2   4   2   44.45    1.88
   2   4   2   43.93    1.74
  -2   4  -2   38.23    1.72
  -2   4  -2   41.94    1.67
  -2   4  -2   41.86    1.85
  -3  -4  -2   18.68    1.26
   3  -4   2   17.99    0.77
   3  -4   2   18.03    1.40
  -3  -4  -2   19.42    1.45
  -3  -4  -2   15.32    1.06
   3  -4   2   16.84    0.96
  -3  -4  -2   19.40    1.33
   3   4   2   17.79    1.31
  -3   4  -2   16.20    1.27
  -3   4  -2   16.26    1.07
   3   4   2   19.16    1.08
  -3   4  -2   17.95    1.16
  -4  -4  -2   81.53    3.12
  -4  -4  -2   85.00    2.99
   4  -4   2   85.57    2.92
  -4  -4  -2   83.97    3.36
   4   4   2   82.19    3.00
  -4   4  -2   85.02    3.00
  -5  -4  -2    4.21    1.03
   5  -4   2    3.14    0.85
  -5  -4  -2    2.45    0.59
  -5  -4  -2    2.79    0.96
   5   4   2    3.08    0.80
  -5   4  -2    3.88    0.83
  -5   4  -2    3.46    0.62
  -6  -4  -2   11.75    1.38
   6  -4   2   12.54    1.16
  -6  -4  -2   11.41    1.12
  -6  -4  -2   12.56    1.72
  -6   4  -2   12.90    1.14
  -6   4  -2   13.49    1.17
   6   4   2   12.97    1.20
  -7  -4  -2    9.17    1.72
  -7  -4  -2    8.83    1.13
  -7  -4  -2    7.79    0.90
   7  -4   2    8.57    1.10
   7   4   2    8.44    1.08
  -7   4  -2    9.05    1.07
  -7   4  -2    7.70    1.04
  -8  -4  -2   10.54    1.19
   8  -4   2    9.44    1.19
  -8  -4  -2    8.91    1.90
  -8  -4  -2    9.03    1.42
  -8   4  -2   12.15    1.25
   8   4   2   10.11    1.24
  -8   4  -2   10.19    1.22
  -8  -5   2   -0.36    0.85
  -8  -5   2    0.78    0.82
  -8  -5   2   -0.64    1.60
   8  -5  -2    2.54    1.17
  -8   5   2    2.13    0.84
  -8   5   2    1.13    1.07
   8   5  -2   -0.36    1.05
  -7  -5   2   49.04    2.56
  -7  -5   2   48.98    2.38
   7  -5  -2   47.61    2.40
  -7  -5   2   48.03    3.28
  -7   5   2   46.15    2.36
  -7   5   2   46.29    2.58
   7   5  -2   49.03    2.13
   7   5  -2   49.39    2.42
  -6  -5   2   16.91    2.06
  -6  -5   2   16.55    1.53
  -6  -5   2   15.11    1.48
   6  -5  -2   16.24    1.38
   6   5  -2   15.33    1.32
   6   5  -2   14.92    1.50
  -6   5   2   14.09    1.50
   5  -5  -2   32.88    1.90
  -5  -5   2   35.65    1.87
  -5  -5   2   31.41    2.22
  -5  -5   2   35.00    1.99
  -5  -5   2   35.37    2.60
   5   5  -2   32.95    1.76
   5   5  -2   31.15    1.59
  -5   5   2   33.60    2.10
   5   5  -2   37.26    2.12
  -5   5   2   32.55    1.91
  -4  -5   2    8.09    1.12
  -4  -5   2    8.43    1.22
  -4  -5   2   10.95    1.53
   4  -5  -2    8.94    1.08
  -4  -5   2    7.28    1.04
   4  -5  -2    9.65    0.97
   4  -5  -2    8.40    0.90
   4   5  -2    7.77    1.19
   4   5  -2    8.41    1.01
  -4   5   2    9.15    1.04
   4   5  -2    9.41    1.17
  -4   5   2    7.52    1.07
   3  -5  -2   94.61    3.27
   3  -5  -2   96.53    3.55
  -3  -5   2   94.17    3.45
   3  -5  -2   94.04    3.38
  -3  -5   2   90.93    3.50
  -3  -5   2   91.91    3.51
  -3  -5   2   95.74    3.56
  -3   5   2   97.39    3.45
   3   5  -2   92.73    3.35
  -3   5   2   94.50    3.50
   3   5  -2   87.32    3.20
   3   5  -2   97.23    3.48
  -2  -5   2   59.40    2.66
   2  -5  -2   59.46    2.30
   2  -5  -2   60.83    2.62
   2  -5  -2   61.50    2.48
  -2  -5   2   56.99    2.55
  -2  -5   2   59.09    2.58
  -2  -5   2   60.68    2.36
  -2   5   2   57.40    2.40
   2   5  -2   61.65    2.50
   2   5  -2   57.90    2.38
   2   5  -2   55.82    2.56
  -2   5   2   58.66    2.39
   1  -5  -2    0.31    0.74
   1  -5  -2   -0.10    0.87
  -1  -5   2    1.63    0.73
   1  -5  -2    0.97    0.56
  -1  -5   2    1.09    0.76
   1  -5  -2   -0.10    0.46
  -1  -5   2   -0.10    0.93
  -1  -5   2   -0.29    0.49
   1   5  -2    0.25    0.81
  -1   5   2    1.40    0.83
   1   5  -2   -0.01    0.61
   1   5  -2    1.38    0.77
  -1   5   2    0.47    0.60
   0  -5   2   94.31    3.27
   0  -5  -2   94.18    3.22
   0  -5   2   96.27    3.03
   0  -5  -2   92.72    3.41
   0  -5   2   96.89    3.48
   0  -5  -2   94.66    3.27
   0  -5  -2   95.99    3.28
   0  -5   2   90.33    3.14
   0   5  -2   96.85    3.35
   0   5   2   93.17    3.38
   0   5   2   94.94    3.36
   0   5  -2   91.76    3.41
   0   5  -2   91.88    3.20
   1  -5   2   50.52    1.98
  -1  -5  -2   58.52    2.39
   1  -5   2   51.74    2.15
  -1  -5  -2   48.88    2.15
  -1  -5  -2   52.01    2.26
  -1  -5  -2   58.95    2.35
   1  -5   2   50.26    1.74
   1  -5   2   55.52    2.46
  -1   5  -2   57.91    2.21
   1   5   2   46.79    2.07
  -1   5  -2   60.65    2.49
  -1   5  -2   52.89    2.26
   1   5   2   53.95    2.36
   2  -5   2   37.22    2.02
  -2  -5  -2   35.85    1.88
   2  -5   2   34.59    1.65
  -2  -5  -2   37.80    2.08
  -2  -5  -2   36.09    2.09
   2   5   2   35.14    1.92
  -2   5  -2   30.02    2.01
  -2   5  -2   35.30    1.99
  -2   5  -2   35.05    1.70
  -3  -5  -2    7.25    1.03
  -3  -5  -2    8.90    1.05
   3  -5   2    8.99    1.16
  -3  -5  -2   11.29    1.24
   3  -5   2    7.99    0.71
  -3  -5  -2    9.71    0.85
   3   5   2    8.38    1.08
  -3   5  -2    8.05    1.13
  -3   5  -2    7.78    1.02
  -4  -5  -2   72.43    3.16
  -4  -5  -2   70.26    3.32
  -4  -5  -2   76.49    2.89
   4  -5   2   67.34    2.87
  -4   5  -2   69.39    2.86
   4   5   2   75.08    2.90
  -5  -5  -2   18.10    1.77
  -5  -5  -2   18.35    1.59
   5  -5   2   19.45    1.72
  -5  -5  -2   16.23    1.40
   5   5   2   18.06    1.47
  -5   5  -2   19.62    1.60
  -6  -5  -2   12.17    1.61
   6  -5   2   10.36    1.27
  -6  -5  -2    9.62    1.26
  -6  -5  -2    9.35    1.04
  -6   5  -2   11.70    1.26
  -6   5  -2   11.77    1.20
   6   5   2   11.53    1.27
  -7  -5  -2   -0.53    0.74
   7  -5   2   -0.69    0.90
  -7  -5  -2   -2.27    1.35
  -7  -5  -2   -0.20    0.83
   7   5   2   -0.28    0.88
  -7   5  -2    0.40    0.89
  -7   5  -2    1.10    0.84
  -7  -6   2    9.00    1.60
  -7  -6   2    8.76    1.45
   7  -6  -2    7.36    1.43
  -7  -6   2    7.95    1.90
  -7   6   2    7.10    1.14
  -7   6   2   10.03    1.52
   7   6  -2    8.29    1.46
   6  -6  -2    7.72    1.39
  -6  -6   2    4.55    1.39
  -6  -6   2    5.21    1.26
  -6  -6   2    8.44    1.78
   6   6  -2    7.31    1.33
   6   6  -2    6.01    0.86
  -6   6   2    4.13    1.29
  -5  -6   2   18.37    1.58
  -5  -6   2   17.48    1.62
  -5  -6   2   17.46    1.76
   5  -6  -2   15.66    1.63
  -5  -6   2   17.26    1.94
   5   6  -2   17.49    1.42
   5   6  -2   15.83    1.62
  -5   6   2   17.62    1.66
  -4  -6   2   20.52    1.71
   4  -6  -2   20.27    1.67
   4  -6  -2   20.39    1.32
  -4  -6   2   22.22    1.96
   4  -6  -2   19.72    1.42
  -4  -6   2   18.33    1.61
  -4  -6   2   19.96    1.57
   4   6  -2   24.25    1.97
  -4   6   2   22.52    1.82
  -4   6   2   22.94    1.97
   4   6  -2   22.72    1.75
   4   6  -2   21.63    1.43
   3  -6  -2   35.08    2.30
   3  -6  -2   35.82    2.05
  -3  -6   2   34.28    1.88
  -3  -6   2   34.35    2.22
  -3  -6   2   34.30    2.21
   3  -6  -2   34.58    1.88
  -3  -6   2   29.51    2.13
   3   6  -2   32.85    1.89
   3   6  -2   37.08    2.21
   3   6  -2   35.00    1.79
  -3   6   2   33.70    2.10
  -3   6   2   32.67    2.20
  -2  -6   2    0.19    0.84
  -2  -6   2   -0.34    0.61
   2  -6  -2    0.14    0.55
  -2  -6   2   -0.61    0.59
   2  -6  -2    0.03    0.99
   2  -6  -2   -1.27    0.80
  -2  -6   2    0.74    1.05
  -2   6   2    1.23    0.95
   2   6  -2   -0.89    0.96
   2   6  -2    0.45    0.89
  -2   6   2    0.62    0.70
   2   6  -2    0.36    0.63
   1  -6  -2    3.32    0.83
   1  -6  -2    2.93    0.63
  -1  -6   2    2.79    1.10
  -1  -6   2    3.13    0.79
  -1  -6   2    3.02    0.95
   1  -6  -2    2.77    0.77
  -1  -6   2    1.64    0.90
   1  -6  -2    3.42    0.76
   1   6  -2    2.60    0.73
   1   6  -2    4.01    0.89
  -1   6   2    8.25    1.18
   1   6  -2    3.03    1.04
   0  -6  -2   14.14    1.38
   0  -6  -2   15.13    1.41
   0  -6  -2   11.47    1.26
   0  -6   2   13.04    1.12
   0  -6  -2   13.46    1.22
   0  -6   2   12.76    0.98
   0  -6   2   13.97    1.28
   0  -6   2   12.86    1.24
   0   6  -2   12.63    1.19
   0   6  -2   15.28    1.46
   0   6  -2   13.05    1.14
   0   6   2   14.00    1.37
   0   6   2   14.38    1.37
   1  -6   2  131.19    4.16
  -1  -6  -2  111.27    4.19
  -1  -6  -2  124.09    4.28
   1  -6   2  128.65    4.49
  -1  -6  -2  131.76    4.53
   1  -6   2  123.04    4.15
  -1  -6  -2  127.55    4.37
  -1   6  -2  131.48    4.28
  -1   6  -2  126.70    4.38
  -1   6  -2  118.52    4.29
   1   6   2  132.33    4.45
   1   6   2  129.64    4.35
  -2  -6  -2   20.06    1.70
  -2  -6  -2   20.07    1.51
   2  -6   2   21.78    1.34
   2  -6   2   21.51    1.91
  -2  -6  -2   25.50    1.95
  -2  -6  -2   20.29    1.54
   2   6   2   23.26    1.81
  -2   6  -2   21.53    1.62
  -2   6  -2   23.85    1.58
  -2   6  -2   22.71    1.87
   3  -6   2   27.18    1.33
  -3  -6  -2   28.58    1.94
  -3  -6  -2   25.15    2.05
   3  -6   2   25.37    2.04
  -3  -6  -2   26.99    2.17
  -3   6  -2   25.11    1.97
   3   6   2   22.85    1.93
  -4  -6  -2    2.09    0.87
  -4  -6  -2    0.65    1.23
   4  -6   2    2.27    1.10
  -4  -6  -2    2.09    0.99
   4   6   2    1.45    0.98
  -4   6  -2    2.65    1.06
  -5  -6  -2   30.61    2.08
  -5  -6  -2   35.94    2.70
  -5  -6  -2   33.20    2.38
   5  -6   2   35.35    2.30
  -5   6  -2   33.89    2.15
   5   6   2   31.34    2.18
  -6  -6  -2    2.98    0.86
   6  -6   2    4.12    1.23
  -6  -6  -2    5.64    1.67
  -6  -6  -2    6.00    1.43
  -6   6  -2    4.08    1.03
   6   6   2    4.60    1.20
  -6   6  -2    4.94    0.95
   6  -7  -2    1.65    1.32
  -6  -7   2    0.85    1.20
  -6  -7   2    1.44    1.09
  -6  -7   2    1.26    0.96
  -6   7   2   -0.79    1.26
   6   7  -2    0.84    0.68
   6   7  -2   -0.42    1.19
  -5  -7   2    2.18    0.93
  -5  -7   2    3.64    1.49
   5  -7  -2    0.71    0.91
  -5  -7   2    2.03    1.31
   5   7  -2    2.72    1.27
  -5   7   2    1.48    1.27
   5   7  -2    2.94    0.79
  -4  -7   2   63.22    3.14
   4  -7  -2   56.92    3.09
   4  -7  -2   59.46    2.63
  -4  -7   2   54.33    2.70
  -4  -7   2   61.01    3.13
  -4  -7   2   55.63    2.95
  -4   7   2   52.43    2.80
   4   7  -2   59.03    2.76
   4   7  -2   56.81    3.00
  -4   7   2   56.14    2.75
  -3  -7   2   64.02    3.01
   3  -7  -2   63.13    3.15
  -3  -7   2   60.52    3.05
   3  -7  -2   62.80    2.73
  -3  -7   2   62.41    2.81
  -3  -7   2   60.22    3.08
   3  -7  -2   64.54    2.80
  -3   7   2   55.30    2.78
  -3   7   2   61.54    2.97
   3   7  -2   59.00    2.78
   3   7  -2   64.43    2.71
   3   7  -2   66.81    3.09
   2  -7  -2    5.43    1.33
  -2  -7   2    7.54    1.11
  -2  -7   2    8.42    1.16
  -2  -7   2    7.02    1.28
   2  -7  -2    9.37    1.23
   2  -7  -2    8.00    1.29
  -2  -7   2    6.38    1.36
   2   7  -2    5.43    1.20
  -2   7   2    8.25    1.35
   2   7  -2    7.13    1.07
  -2   7   2    7.94    1.13
   2   7  -2    6.53    1.11
   1  -7  -2   22.48    1.65
  -1  -7   2   22.69    1.59
   1  -7  -2   24.24    1.91
  -1  -7   2   23.95    1.85
  -1  -7   2   21.36    1.78
   1  -7  -2   18.80    1.67
  -1   7   2   23.56    1.73
   1   7  -2   21.64    1.68
   1   7  -2   21.14    1.72
  -1   7   2   21.24    1.81
   1   7  -2   24.55    1.95
   0  -7  -2   32.77    2.26
   0  -7   2   37.04    2.04
   0  -7  -2   34.70    1.84
   0  -7   2   33.14    2.10
   0  -7  -2   35.28    2.36
   0  -7  -2   34.89    2.01
   0  -7   2   35.35    2.47
   0   7  -2   35.64    1.94
   0   7  -2   34.84    2.41
   0   7  -2   31.66    2.36
   0   7   2   36.82    2.31
   0   7   2   36.92    2.34
   1  -7   2   31.92    2.42
  -1  -7  -2   33.70    1.98
  -1  -7  -2   36.13    2.33
   1  -7   2   32.47    1.90
  -1  -7  -2   29.93    1.95
  -1  -7  -2   34.52    2.26
  -1   7  -2   33.46    2.09
   1   7   2   35.09    2.31
  -1   7  -2   34.45    2.37
  -1   7  -2   33.27    1.87
  -2  -7  -2    6.69    1.26
  -2  -7  -2    4.42    1.02
  -2  -7  -2    3.76    0.89
   2  -7   2    5.94    0.90
   2  -7   2    1.83    0.93
  -2   7  -2    6.35    1.39
  -2   7  -2    6.10    1.39
   2   7   2    5.96    1.24
   3  -7   2   10.79    1.55
  -3  -7  -2   10.53    1.28
  -3  -7  -2   11.63    1.39
  -3  -7  -2   11.75    1.60
   3   7   2   11.76    1.49
  -3   7  -2   10.20    1.52
  -4  -7  -2    6.93    1.33
   4  -7   2   18.29    1.76
   4   7   2   10.52    1.46
  -4   7  -2   13.52    1.58
  -5  -7  -2    4.53    1.28
  -5  -7  -2    3.06    1.10
  -5  -7  -2    4.59    1.28
   5  -7   2    2.17    1.27
  -5   7  -2    4.07    1.30
   5   7   2    4.60    1.30
  -3  -8   2    0.72    0.86
  -3  -8   2    2.09    0.95
  -3  -8   2    0.70    1.07
   3  -8  -2    1.03    0.98
   3  -8  -2    1.51    1.37
  -3  -8   2    0.69    0.95
  -3   8   2    2.13    0.92
   3   8  -2    1.26    0.89
  -3   8   2    3.01    1.40
   3   8  -2    3.05    1.31
   2  -8  -2   32.35    2.59
  -2  -8   2   31.12    2.35
   2  -8  -2   32.07    2.34
  -2  -8   2   32.04    2.22
  -2  -8   2   31.13    2.36
   2  -8  -2   26.60    2.10
  -2   8   2   33.80    2.21
   2   8  -2   33.02    2.44
  -2   8   2   29.22    2.44
   2   8  -2   27.65    2.45
   2   8  -2   31.70    2.09
  -1  -8   2  110.85    4.27
   1  -8  -2  112.86    4.33
   1  -8  -2  115.32    4.64
  -1  -8   2  113.53    4.69
   1  -8  -2  121.42    4.58
   1   8  -2  116.12    4.46
  -1   8   2  115.00    4.60
   1   8  -2  118.67    4.62
   1   8  -2  118.97    4.54
  -1   8   2  119.71    4.63
   0  -8   2    0.77    0.94
   0  -8   2    0.51    0.96
   0  -8  -2    1.82    1.21
   0  -8  -2    0.61    1.24
   0  -8  -2   -0.25    0.81
   0   8  -2    1.08    1.29
   0   8   2   -0.35    0.82
   0   8  -2    0.34    1.29
   0   8  -2    0.29    0.73
  -1  -8  -2    0.19    0.83
  -1  -8  -2    0.59    0.80
   1  -8   2   -0.04    0.92
   1  -8   2    0.03    0.60
  -1   8  -2   -0.72    1.26
   1   8   2    0.31    1.17
  -2  -8  -2   12.33    1.48
  -2  -8  -2   15.24    1.72
  -2  -8  -2   16.21    1.62
   2  -8   2   11.38    1.50
  -2   8  -2   14.55    1.80
   2   8   2   13.61    1.50
  11   0  -3   39.57    2.45
  11   0  -3   38.96    2.26
 -11   0   3   34.70    3.04
 -11   0   3   38.84    2.18
 -11   0   3   41.63    2.73
 -10   0   3    1.03    0.91
 -10   0   3    0.93    0.95
 -10   0   3   -0.28    1.11
  10   0  -3   -0.09    1.08
  10   0  -3   -0.39    0.79
  10   0  -3    0.58    0.98
 -10   0   3   -0.63    1.00
   9   0  -3   16.05    1.66
   9   0  -3   15.11    1.31
  -9   0   3   13.98    1.96
  -9   0   3   14.77    1.38
   9   0  -3   13.88    1.25
  -9   0   3   12.35    1.32
   8   0  -3    2.66    1.08
   8   0  -3    1.68    0.87
  -8   0   3   -0.29    0.92
  -8   0   3   -0.13    0.54
  -8   0   3    0.09    0.99
  -7   0   3  110.31    3.70
  -7   0   3  103.15    4.14
   7   0  -3  118.96    3.97
  -7   0   3  109.95    3.81
   7   0  -3  109.19    3.61
  -7   0   3  113.67    3.64
   7   0  -3  111.87    3.81
  -6   0   3    0.00    0.64
  -6   0   3   -0.18    0.54
   6   0  -3    0.75    0.62
  -6   0   3    0.54    1.30
   6   0  -3   -0.07    0.49
   6   0  -3   -0.05    0.84
   5   0  -3   95.52    3.29
   5   0  -3   96.39    3.15
  -5   0   3   97.37    3.11
  -5   0   3  100.67    3.27
   5   0  -3   91.28    3.11
   4   0  -3   -0.76    0.51
   4   0  -3    0.32    0.56
  -4   0   3    0.28    0.59
   4   0  -3    0.88    0.70
  -4   0   3    0.03    0.41
   3   0  -3   54.58    1.95
  -3   0   3   53.59    1.92
  -3   0   3   57.54    1.95
   3   0  -3   51.88    1.96
  -3   0   3   52.41    1.89
   3   0  -3   53.09    2.12
  -2   0   3    0.75    0.41
  -2   0   3   -0.03    0.32
   2   0  -3    0.49    0.60
   2   0  -3    0.18    0.36
   2   0  -3    0.11    0.48
  -2   0   3   -0.57    0.29
   1   0  -3   96.22    2.74
  -1   0   3   92.99    2.73
   1   0  -3   93.02    2.80
  -1   0   3   92.18    2.69
  -1   0   3   91.75    2.80
   1   0  -3   89.88    2.79
   0   0  -3    0.06    0.21
   0   0   3   -0.01    0.27
   0   0  -3    0.03    0.25
   0   0  -3    0.03    0.14
   0   0   3   -0.21    0.25
   0   0  -3    0.08    0.22
  -1   0  -3    4.82    0.45
  -1   0  -3    4.17    0.66
  -1   0  -3    4.84    0.45
  -2   0  -3   -0.42    0.24
  -2   0  -3   -0.28    0.20
  -2   0  -3   -0.32    0.52
  -3   0  -3    6.51    0.50
  -3   0  -3    7.54    0.84
  -3   0  -3    6.95    0.46
  -4   0  -3   -0.11    0.67
  -4   0  -3    0.23    0.34
  -5   0  -3   13.35    1.27
   5   0   3   13.48    0.59
  -5   0  -3   12.95    0.75
  -5   0  -3   13.42    0.58
   5   0   3   12.93    0.61
   6   0   3   -0.18    0.31
  -6   0  -3   -0.70    0.83
  -6   0  -3    0.13    0.34
  -6   0  -3    0.13    0.42
  -7   0  -3   33.40    2.16
   8   0   3    0.44    0.44
  -8   0  -3    0.11    0.70
  -9   0  -3   44.85    1.85
   9   0   3   39.93    1.96
  -9   0  -3   42.94    2.74
 -11  -1   3    1.39    1.06
  11  -1  -3    1.43    1.39
 -11  -1   3    0.59    1.65
 -11  -1   3   -0.64    1.03
  11  -1  -3   -1.23    1.04
 -11   1   3    0.87    1.05
 -11   1   3   -0.43    1.28
  11   1  -3    0.09    1.04
  11   1  -3    1.25    1.16
 -11   1   3   -0.94    0.81
 -10  -1   3   18.38    1.67
 -10  -1   3   17.13    1.77
 -10  -1   3   18.41    1.64
  10  -1  -3   17.62    1.64
 -10  -1   3   18.15    2.01
  10  -1  -3   17.91    1.94
 -10   1   3   18.39    2.02
  10   1  -3   20.31    1.71
 -10   1   3   14.92    1.47
  10   1  -3   19.98    1.78
  10   1  -3   20.92    1.80
   9  -1  -3    2.88    0.78
  -9  -1   3    4.12    1.22
  -9  -1   3    3.79    1.01
  -9  -1   3    2.29    1.21
   9  -1  -3    2.35    1.29
  -9  -1   3    4.14    0.86
   9   1  -3    3.79    0.86
  -9   1   3    3.14    0.90
   9   1  -3    4.80    1.13
   9   1  -3    4.53    1.07
  -9   1   3    3.38    1.44
  -8  -1   3   48.83    3.17
   8  -1  -3   51.17    2.42
  -8  -1   3   49.31    2.21
  -8  -1   3   50.15    2.36
   8  -1  -3   50.46    2.56
   8   1  -3   52.94    2.18
  -8   1   3   52.17    2.35
   8   1  -3   50.64    2.24
   8   1  -3   52.38    2.55
  -8   1   3   50.55    2.85
   7  -1  -3   46.28    2.13
  -7  -1   3   43.36    2.02
   7  -1  -3   36.73    1.94
  -7  -1   3   40.37    2.50
  -7  -1   3   44.09    2.09
  -7   1   3   44.15    2.22
  -7   1   3   43.37    1.90
  -7   1   3   41.86    2.59
   7   1  -3   43.59    2.09
   7   1  -3   44.33    1.92
   7   1  -3   47.48    1.92
   7   1  -3   40.80    2.01
  -6  -1   3   50.42    2.03
  -6  -1   3   44.79    2.49
   6  -1  -3   49.32    2.12
  -6  -1   3   42.50    2.02
  -6  -1   3   45.23    2.16
   6  -1  -3   46.53    1.93
   6   1  -3   47.31    1.96
   6   1  -3   48.39    2.09
  -6   1   3   47.61    1.99
   6   1  -3   47.95    1.95
  -6   1   3   43.72    2.56
  -6   1   3   43.38    1.97
   6   1  -3   51.67    2.26
   5  -1  -3   56.99    2.14
  -5  -1   3   58.16    2.21
  -5  -1   3   53.69    2.59
  -5  -1   3   56.68    2.21
   5  -1  -3   55.50    2.21
  -5  -1   3   58.41    2.26
   5   1  -3   54.61    2.09
   5   1  -3   52.46    2.18
   5   1  -3   54.48    2.06
  -5   1   3   58.46    2.26
   5   1  -3   58.17    2.34
  -5   1   3   57.58    2.06
   4  -1  -3   82.04    2.69
  -4  -1   3   80.90    2.76
  -4  -1   3   80.56    2.71
  -4  -1   3   79.32    2.72
   4  -1  -3   81.92    2.74
   4   1  -3   77.18    2.81
  -4   1   3   80.81    2.64
   4   1  -3   81.26    2.73
   4   1  -3   78.49    2.60
   4   1  -3   82.04    2.67
  -4   1   3   80.54    2.67
  -3  -1   3   26.26    1.24
  -3  -1   3   26.38    1.28
   3  -1  -3   26.22    1.17
  -3  -1   3   24.45    1.38
   3  -1  -3   26.61    1.16
   3   1  -3   24.78    1.31
  -3   1   3   27.32    1.33
  -3   1   3   25.16    1.14
   3   1  -3   27.30    1.28
   3   1  -3   27.04    1.14
   2  -1  -3    0.91    0.53
  -2  -1   3    1.29    0.49
   2  -1  -3    1.70    0.51
  -2  -1   3    0.23    0.61
  -2  -1   3    1.22    0.34
   2  -1  -3    1.59    0.51
   2   1  -3    1.81    0.50
   2   1  -3    1.04    0.53
   2   1  -3    1.21    0.43
  -2   1   3    1.20    0.42
  -1  -1   3  437.44   11.53
   1  -1  -3  428.47   11.63
   1  -1  -3  419.09   11.55
   1  -1  -3  401.94   11.62
  -1  -1   3  412.88   11.58
   1  -1  -3  425.96   11.55
   1   1  -3  437.01   11.53
  -1   1   3  422.33   11.55
   1   1  -3  413.97   11.57
   1   1  -3  425.64   11.60
   0  -1  -3  314.36    8.90
   0  -1  -3  374.11    8.98
   0  -1   3  313.12    8.84
   0  -1  -3  309.95    9.10
   0  -1  -3  354.19    8.89
   0  -1   3  318.67    8.90
   0  -1   3  341.74    8.94
   0  -1  -3  310.44    9.02
   0   1   3  309.14    8.89
   0   1  -3  309.07    8.98
   0   1  -3  313.62    8.84
   0   1  -3  338.98    8.93
   0   1   3  333.78    9.01
   0   1  -3  323.12    8.90
  -1  -1  -3    7.17    0.58
  -1  -1  -3    7.35    0.41
   1  -1   3    7.55    0.42
   1  -1   3    8.90    0.49
  -1  -1  -3    7.68    0.44
  -1  -1  -3    6.91    0.78
  -1   1  -3    8.52    0.30
  -1   1  -3    7.36    0.38
  -1   1  -3    8.75    0.44
   1   1   3    7.79    0.46
  -1   1  -3    7.65    0.59
   1   1   3    9.64    0.49
   2  -1   3    4.55    0.26
  -2  -1  -3    4.62    0.23
  -2  -1  -3    4.03    0.28
  -2  -1  -3    3.80    0.59
  -2  -1  -3    4.22    0.30
  -2  -1  -3    4.52    0.54
   2  -1   3    4.82    0.24
  -2   1  -3    4.42    0.59
   2   1   3    4.44    0.29
  -2   1  -3    4.81    0.34
  -2   1  -3    4.07    0.25
  -2   1  -3    4.06    0.26
  -2   1  -3    5.45    0.51
   2   1   3    4.69    0.29
   3  -1   3  146.01    4.05
  -3  -1  -3  152.45    4.12
  -3  -1  -3  149.26    4.42
   3  -1   3  146.96    4.05
  -3  -1  -3  150.73    4.76
  -3  -1  -3  149.99    4.12
  -3   1  -3  147.37    4.49
  -3   1  -3  148.83    4.08
  -3   1  -3  150.13    4.08
  -3   1  -3  150.49    4.23
  -3   1  -3  152.24    4.34
   3   1   3  147.45    4.11
   3   1   3  156.95    4.11
   4  -1   3  164.61    4.64
  -4  -1  -3  170.62    4.96
  -4  -1  -3  167.87    4.69
  -4  -1  -3  168.63    4.68
  -4  -1  -3  166.89    5.39
  -4   1  -3  172.53    4.85
  -4   1  -3  167.30    4.66
   4   1   3  171.72    4.69
   4   1   3  168.49    4.67
  -4   1  -3  172.29    4.65
  -4   1  -3  166.99    5.13
  -5  -1  -3   53.50    1.66
  -5  -1  -3   52.07    2.49
   5  -1   3   52.74    1.63
  -5  -1  -3   51.47    1.94
  -5  -1  -3   53.38    1.68
   5  -1   3   49.22    1.64
  -5   1  -3   51.93    1.63
   5   1   3   51.68    1.67
  -5   1  -3   51.28    1.86
  -5   1  -3   51.40    1.51
  -5   1  -3   49.40    2.17
  -5   1  -3   51.79    1.64
  -6  -1  -3    0.30    0.33
   6  -1   3    1.46    0.42
  -6  -1  -3    1.06    1.02
  -6  -1  -3    0.99    0.40
  -6   1  -3    0.51    0.53
  -6   1  -3    0.33    0.53
  -6   1  -3    0.39    0.38
   6   1   3    0.60    0.43
  -7  -1  -3    8.83    0.78
  -7  -1  -3    8.68    1.22
   7  -1   3    9.18    0.75
  -7  -1  -3    9.05    0.86
   7   1   3    8.63    0.72
  -7   1  -3    8.52    0.90
  -7   1  -3    7.69    1.00
   8  -1   3   32.00    1.56
  -8  -1  -3   34.59    2.49
  -8  -1  -3   32.21    1.50
   8   1   3   34.79    1.67
  -8   1  -3   33.83    2.14
   9  -1   3    9.05    0.91
  -9  -1  -3    8.84    1.70
  -9  -1  -3    9.44    0.93
   9   1   3    8.70    1.03
  -9   1  -3    9.08    1.22
 -10  -2   3    5.59    1.87
 -10  -2   3    7.40    1.24
  10  -2  -3    6.94    1.67
  10  -2  -3    6.55    1.26
 -10  -2   3    5.33    1.30
 -10   2   3    7.95    1.77
  10   2  -3    7.61    1.32
 -10   2   3    2.45    1.22
   9  -2  -3    5.34    1.17
  -9  -2   3    3.16    1.22
  -9  -2   3    4.36    1.08
  -9  -2   3    8.77    1.97
  -9   2   3    4.30    1.27
   9   2  -3    4.62    0.86
  -9   2   3    4.87    1.22
   9   2  -3    3.50    1.12
  -8  -2   3   30.50    1.83
   8  -2  -3   31.61    1.99
  -8  -2   3   29.57    2.81
  -8  -2   3   25.26    1.62
   8   2  -3   30.35    1.59
   8   2  -3   27.31    1.67
  -8   2   3   31.07    1.81
  -8   2   3   30.22    2.08
   7  -2  -3   88.08    3.14
  -7  -2   3   79.90    2.96
  -7  -2   3   76.39    3.24
  -7  -2   3   78.58    3.87
   7   2  -3   84.47    3.13
  -7   2   3   76.95    2.99
   7   2  -3   79.42    2.83
  -7   2   3   81.80    2.88
  -7   2   3   75.11    3.22
   6  -2  -3   58.72    2.41
   6  -2  -3   67.73    2.47
  -6  -2   3   68.49    2.49
  -6  -2   3   68.88    3.11
  -6   2   3   67.22    2.49
  -6   2   3   57.65    2.73
   6   2  -3   65.84    2.49
   6   2  -3   64.02    2.46
   6   2  -3   65.50    2.39
  -6   2   3   66.13    2.52
   5  -2  -3   22.32    1.31
   5  -2  -3   18.46    1.39
  -5  -2   3   19.91    1.95
  -5  -2   3   19.36    1.37
  -5   2   3   18.57    1.37
   5   2  -3   20.81    1.22
   5   2  -3   19.54    1.40
   5   2  -3   20.53    1.37
  -5   2   3   21.55    1.45
   4  -2  -3  190.15    5.70
  -4  -2   3  195.67    5.79
   4  -2  -3  191.73    5.73
  -4  -2   3  193.93    6.30
   4   2  -3  197.27    5.80
  -4   2   3  195.82    5.80
   4   2  -3  192.94    5.71
   4   2  -3  196.26    5.79
  -4   2   3  200.49    5.78
   3  -2  -3  565.41   15.87
   3  -2  -3  584.80   15.86
  -3  -2   3  582.70   15.87
  -3  -2   3  578.01   15.91
   3   2  -3  576.30   15.89
   3   2  -3  576.65   15.89
   3   2  -3  572.19   15.83
  -3   2   3  578.92   15.87
  -2  -2   3   69.32    2.27
   2  -2  -3   69.39    2.27
   2  -2  -3   67.27    2.28
  -2  -2   3   70.19    2.35
   2  -2  -3   70.16    2.36
   2   2  -3   68.37    2.28
  -2   2   3   72.81    2.38
   2   2  -3   68.54    2.31
   2   2  -3   68.03    2.38
  -2   2   3   71.86    2.34
  -1  -2   3   -0.99    0.55
  -1  -2   3    0.36    0.39
   1  -2  -3    0.31    0.34
   1  -2  -3    0.28    0.44
   1  -2  -3    0.09    0.47
   1  -2  -3    0.52    0.38
  -1   2   3   -0.45    0.42
   1   2  -3   -0.62    0.49
   1   2  -3    0.26    0.49
   1   2  -3    0.02    0.40
  -1   2   3   -0.06    0.47
   0  -2  -3   56.20    1.96
   0  -2  -3   58.59    1.83
   0  -2   3   56.09    1.96
   0  -2  -3   57.39    1.89
   0  -2   3   57.62    1.79
   0  -2  -3   55.23    2.00
   0   2  -3   55.93    1.86
   0   2  -3   56.18    1.94
   0   2  -3   58.43    1.83
   0   2   3   56.98    1.91
  -1  -2  -3  459.63   13.36
  -1  -2  -3  516.72   13.04
  -1  -2  -3  469.93   13.26
  -1  -2  -3  471.68   13.10
  -1  -2  -3  512.97   12.98
  -1   2  -3  473.90   13.10
  -1   2  -3  465.75   13.22
   1   2   3  475.41   13.11
  -1   2  -3  471.35   12.98
   2  -2   3  230.64    6.38
   2  -2   3  232.11    6.19
  -2  -2  -3  224.44    6.61
  -2  -2  -3  227.15    6.40
  -2  -2  -3  230.17    6.39
  -2  -2  -3  228.74    6.80
   2   2   3  239.43    6.55
  -2   2  -3  227.20    6.39
  -2   2  -3  223.05    6.53
   2   2   3  227.78    6.41
  -2   2  -3  227.51    6.37
   3  -2   3  150.77    4.30
  -3  -2  -3  151.15    4.33
  -3  -2  -3  153.59    4.33
  -3  -2  -3  154.99    4.58
  -3  -2  -3  149.69    4.83
  -3   2  -3  146.44    4.32
   3   2   3  152.13    4.33
  -3   2  -3  150.59    4.30
   3   2   3  149.19    4.33
  -3   2  -3  144.71    4.44
  -3   2  -3  154.64    4.54
  -3   2  -3  153.46    4.33
   4  -2   3   64.37    2.07
  -4  -2  -3   65.54    2.10
   4  -2   3   64.50    2.08
  -4  -2  -3   61.99    2.40
  -4  -2  -3   62.48    2.80
  -4  -2  -3   67.39    2.10
  -4   2  -3   66.25    2.09
   4   2   3   66.12    2.12
  -4   2  -3   68.35    2.35
  -4   2  -3   67.54    2.29
  -4   2  -3   62.36    2.14
  -4   2  -3   66.89    2.08
   5  -2   3   94.36    2.92
  -5  -2  -3   92.84    3.60
  -5  -2  -3   95.42    2.96
  -5  -2  -3   97.76    3.29
   5   2   3   95.91    2.99
  -5   2  -3   97.45    2.93
  -5   2  -3   95.70    3.05
  -5   2  -3   93.57    3.22
   6  -2   3   54.36    1.91
  -6  -2  -3   50.64    1.90
  -6  -2  -3   50.61    2.57
  -6  -2  -3   51.43    2.12
   6   2   3   53.45    1.93
  -6   2  -3   53.09    1.89
  -6   2  -3   53.62    2.06
  -6   2  -3   56.08    2.21
  -7  -2  -3  113.18    3.87
   7  -2   3  114.19    3.60
  -7  -2  -3  108.47    3.56
  -7  -2  -3  115.99    4.56
   7   2   3  113.78    3.60
  -7   2  -3  114.84    3.55
  -7   2  -3  112.56    3.89
  -7   2  -3  106.86    3.70
   8  -2   3    0.87    0.70
  -8  -2  -3    3.49    1.11
  -8  -2  -3    2.61    0.80
  -8  -2  -3    1.45    0.60
   8   2   3    1.70    0.62
  -9  -2  -3    4.35    1.66
  -9  -2  -3    4.31    0.78
   9  -2   3    3.64    0.92
   9   2   3    4.62    0.80
 -10  -3   3   45.24    2.56
 -10  -3   3   45.75    2.61
  10  -3  -3   44.50    2.68
 -10  -3   3   45.61    3.58
  10   3  -3   48.35    2.72
 -10   3   3   43.09    2.42
  -9  -3   3  126.76    4.73
  -9  -3   3  131.56    4.52
  -9  -3   3  112.65    5.28
   9  -3  -3  115.66    4.43
  -9   3   3  121.13    4.39
   9   3  -3  116.88    4.48
  -8  -3   3   27.54    2.54
  -8  -3   3   25.42    1.82
  -8  -3   3   26.38    1.91
   8  -3  -3   24.89    1.92
   8   3  -3   28.38    1.54
  -8   3   3   24.81    1.97
   8   3  -3   23.73    1.92
   7  -3  -3    9.23    1.00
   6  -3  -3  156.02    5.07
  -6  -3   3  156.00    5.17
   6  -3  -3  155.29    4.91
  -6  -3   3  163.04    5.12
  -6  -3   3  166.28    5.63
  -6   3   3  144.59    4.89
   6   3  -3  154.57    4.98
  -6   3   3  153.70    4.88
   6   3  -3  160.09    5.12
  -6   3   3  160.29    5.06
   6   3  -3  165.40    4.89
  -5  -3   3  107.44    4.17
   5  -3  -3  115.03    3.79
   5  -3  -3  108.44    3.61
  -5  -3   3  106.51    3.65
  -5  -3   3  104.71    3.76
  -5   3   3  113.79    3.66
   5   3  -3  110.72    3.57
   5   3  -3  105.41    3.69
  -5   3   3  113.09    3.79
  -5   3   3  111.20    3.60
   5   3  -3  109.31    3.76
   4  -3  -3   77.72    2.88
  -4  -3   3   79.34    3.51
   4  -3  -3   79.00    2.70
  -4  -3   3   79.45    3.01
  -4  -3   3   80.95    2.87
   4   3  -3   80.76    2.89
   4   3  -3   76.83    2.77
  -4   3   3   79.47    2.87
   4   3  -3   76.58    2.73
  -4   3   3   79.78    2.85
  -3  -3   3   49.83    2.13
   3  -3  -3   50.56    1.95
  -3  -3   3   48.52    1.90
   3  -3  -3   48.20    2.04
   3  -3  -3   50.99    1.99
  -3  -3   3   49.80    2.59
  -3   3   3   47.95    1.91
   3   3  -3   50.57    1.96
   3   3  -3   48.90    1.94
   3   3  -3   49.25    2.02
  -3   3   3   47.58    1.90
   2  -3  -3  124.53    3.87
   2  -3  -3  125.09    3.82
  -2  -3   3  119.20    3.77
   2  -3  -3  119.53    3.78
  -2  -3   3  123.35    3.90
  -2   3   3  121.64    3.81
  -2   3   3  122.88    3.87
   2   3  -3  125.57    3.86
   2   3  -3  122.16    3.83
   2   3  -3  124.48    3.81
   1  -3  -3   27.54    1.38
   1  -3  -3   27.76    1.25
   1  -3  -3   28.11    1.30
   1  -3  -3   26.08    1.39
  -1  -3   3   25.84    1.16
  -1  -3   3   27.94    1.35
  -1   3   3   26.46    1.22
   1   3  -3   27.64    1.29
  -1   3   3   27.97    1.26
   1   3  -3   28.88    1.44
   1   3  -3   27.07    1.42
   0  -3  -3  427.51   11.73
   0  -3  -3  402.57   11.68
   0  -3  -3  428.57   11.58
   0  -3   3  429.62   11.53
   0  -3   3  424.01   11.54
   0  -3  -3  407.38   11.58
   0   3  -3  409.71   11.60
   0   3   3  409.74   11.55
   0   3  -3  431.70   11.55
   0   3  -3  408.26   11.66
   0   3   3  409.98   11.60
  -1  -3  -3    6.93    0.77
  -1  -3  -3    9.43    0.78
  -1  -3  -3    7.23    0.62
   1  -3   3    6.95    0.51
   1  -3   3    7.21    0.58
  -1   3  -3    6.36    0.72
   1   3   3    6.45    0.69
  -1   3  -3    6.88    0.71
  -1   3  -3    6.93    0.56
  -2  -3  -3  113.24    3.61
   2  -3   3  110.33    3.07
  -2  -3  -3  108.24    2.96
  -2  -3  -3  108.93    3.22
  -2  -3  -3  111.31    3.36
  -2  -3  -3  111.02    3.77
  -2   3  -3  112.40    3.48
  -2   3  -3  110.46    3.38
   2   3   3  105.39    3.32
  -2   3  -3  105.54    3.12
   2   3   3   90.72    3.27
  -3  -3  -3   55.64    2.44
  -3  -3  -3   58.37    2.06
  -3  -3  -3   59.55    2.36
   3   3   3   59.53    2.03
  -3   3  -3   58.20    2.08
  -3   3  -3   56.24    2.17
   4  -3   3  164.97    4.83
  -4  -3  -3  156.86    5.33
  -4  -3  -3  159.96    5.10
  -4  -3  -3  157.67    4.78
  -4   3  -3  162.23    4.78
   4   3   3  162.50    4.84
  -4   3  -3  162.44    4.96
  -4   3  -3  155.48    4.71
  -5  -3  -3    4.48    1.27
   5  -3   3    3.83    0.69
  -5  -3  -3    5.22    0.68
  -5   3  -3    4.71    0.68
   5   3   3    4.34    0.67
  -5   3  -3    5.01    0.70
  -6  -3  -3    1.67    1.25
  -6  -3  -3    2.19    0.61
  -6  -3  -3    1.98    0.67
   6  -3   3    1.34    0.63
  -6   3  -3    2.20    0.63
   6   3   3    2.23    0.63
  -6   3  -3    2.54    0.63
  -7  -3  -3   58.31    3.03
   7  -3   3   64.79    2.40
  -7  -3  -3   61.01    2.71
  -7  -3  -3   61.10    2.37
  -7   3  -3   57.39    2.40
  -7   3  -3   57.33    2.31
   7   3   3   63.01    2.41
   8  -3   3   64.59    2.63
  -8  -3  -3   62.15    2.81
  -8  -3  -3   57.82    3.53
  -8  -3  -3   61.87    2.50
  -8   3  -3   60.04    2.46
   8   3   3   63.98    2.55
   9  -4  -3    1.64    1.13
  -9  -4   3   -0.92    1.03
  -9  -4   3   -1.15    1.15
  -9  -4   3   -0.50    0.77
   9   4  -3   -0.74    1.02
  -9   4   3   -1.32    1.03
  -8  -4   3    7.69    1.99
  -8  -4   3    8.90    1.26
   8  -4  -3    9.17    1.33
  -8  -4   3    6.01    1.07
   8   4  -3    8.62    0.98
   8   4  -3    8.67    1.15
  -8   4   3    8.03    1.36
  -7  -4   3  155.21    5.36
  -7  -4   3  161.74    5.50
   7  -4  -3  161.04    5.38
  -7  -4   3  158.22    6.11
  -7   4   3  152.46    5.35
   7   4  -3  164.52    5.05
   7   4  -3  162.44    5.33
  -6  -4   3   83.22    3.51
   6  -4  -3   84.53    3.19
  -6  -4   3   85.38    3.22
  -6  -4   3   85.70    3.75
   6  -4  -3   89.15    3.39
  -6   4   3   89.99    3.20
  -6   4   3   83.26    3.21
   6   4  -3   82.69    3.21
   6   4  -3   87.46    3.38
  -6   4   3   85.78    3.33
   6   4  -3   82.86    3.04
  -5  -4   3   26.69    1.59
   5  -4  -3   29.17    1.65
  -5  -4   3   28.30    2.58
  -5  -4   3   27.56    1.74
   5  -4  -3   25.99    1.61
   5   4  -3   28.64    1.43
  -5   4   3   28.48    1.86
   5   4  -3   29.31    1.62
  -5   4   3   24.17    1.71
   5   4  -3   26.58    1.76
   4  -4  -3    9.85    1.16
  -4  -4   3   10.19    1.08
  -4  -4   3    9.66    1.06
   4  -4  -3    9.72    1.06
  -4  -4   3   10.25    1.34
   4   4  -3    9.13    0.95
   4   4  -3    8.39    1.09
  -4   4   3    7.71    1.01
   4   4  -3    9.07    1.00
  -4   4   3    8.09    0.92
  -3  -4   3  152.98    4.73
   3  -4  -3  151.67    4.64
  -3  -4   3  157.53    5.16
   3  -4  -3  143.15    4.59
  -3  -4   3  147.77    4.74
   3  -4  -3  145.54    4.68
   3   4  -3  143.44    4.64
  -3   4   3  144.73    4.73
   3   4  -3  148.90    4.67
   3   4  -3  145.65    4.68
  -3   4   3  147.25    4.73
   2  -4  -3   53.32    2.14
  -2  -4   3   54.31    2.14
  -2  -4   3   53.86    2.55
   2  -4  -3   52.97    2.10
   2  -4  -3   54.08    2.18
  -2  -4   3   54.13    2.17
  -2   4   3   52.66    2.27
  -2   4   3   53.95    2.24
   2   4  -3   54.29    2.10
   2   4  -3   52.08    2.24
   2   4  -3   54.65    2.16
   1  -4  -3    3.09    0.52
   1  -4  -3    2.30    0.79
  -1  -4   3    3.65    0.75
   1  -4  -3    3.12    0.63
   1  -4  -3    2.99    0.61
  -1  -4   3    1.41    0.61
  -1  -4   3    3.43    0.73
  -1   4   3    2.66    0.75
   1   4  -3    3.70    0.73
   1   4  -3    4.21    0.68
  -1   4   3    2.10    0.75
   1   4  -3    3.07    0.66
   0  -4  -3    1.44    0.56
   0  -4   3    2.68    0.61
   0  -4  -3    1.60    0.68
   0  -4  -3    0.98    0.66
   0  -4   3    2.75    0.59
   0  -4   3    0.83    0.70
   0  -4  -3    0.70    0.48
   0   4  -3    2.21    0.79
   0   4   3    2.87    0.68
   0   4   3    2.00    0.72
   0   4  -3    0.92    0.58
   0   4  -3    1.33    0.57
   1  -4   3   37.22    1.51
  -1  -4  -3   32.52    1.67
   1  -4   3   32.23    1.41
  -1  -4  -3   33.41    1.69
  -1  -4  -3   41.60    1.91
  -1  -4  -3   38.49    1.66
   1   4   3   36.16    1.72
  -1   4  -3   33.34    1.60
  -1   4  -3   36.54    1.51
   1   4   3   40.97    1.63
  -1   4  -3   36.68    1.85
   2  -4   3   34.92    1.27
   2  -4   3   32.65    1.74
   2  -4   3   34.39    1.37
  -2  -4  -3   35.54    1.90
  -2  -4  -3   33.61    1.50
  -2  -4  -3   34.01    2.01
  -2  -4  -3   33.06    1.63
  -2   4  -3   35.20    1.72
   2   4   3   34.40    1.70
  -2   4  -3   32.52    1.44
  -2   4  -3   35.21    1.69
   2   4   3   35.03    1.48
   3  -4   3    1.34    0.77
  -3  -4  -3    0.05    0.59
   3  -4   3    0.40    0.22
  -3  -4  -3    0.35    0.70
  -3  -4  -3    0.43    0.61
  -3   4  -3    0.84    0.62
  -3   4  -3    0.32    0.70
   3   4   3   -0.07    0.64
  -4  -4  -3    9.78    1.06
   4  -4   3    9.79    0.90
  -4  -4  -3   12.13    1.51
  -4  -4  -3    9.44    0.94
   4   4   3   12.28    1.05
  -4   4  -3    9.97    1.00
  -4   4  -3    9.59    1.18
  -5  -4  -3   85.19    3.32
  -5  -4  -3   81.14    3.51
  -5  -4  -3   80.89    2.96
   5  -4   3   83.77    3.00
  -5   4  -3   82.98    2.96
   5   4   3   81.10    2.98
  -5   4  -3   80.83    2.87
  -6  -4  -3   22.69    1.85
   6  -4   3   20.94    1.56
  -6  -4  -3   21.46    1.92
  -6  -4  -3   21.04    1.44
  -6   4  -3   23.13    1.42
  -6   4  -3   23.08    1.49
   6   4   3   22.30    1.33
  -7  -4  -3    2.70    0.79
  -7  -4  -3    2.38    0.80
  -7  -4  -3    3.85    1.54
   7  -4   3    3.06    0.88
   7   4   3    1.98    0.79
  -7   4  -3    0.89    0.77
  -8  -4  -3    2.87    1.11
  -8  -4  -3    3.50    0.88
  -8  -4  -3    1.22    1.19
   8  -4   3    2.67    0.94
  -8   4  -3    1.98    0.85
   8   4   3    2.66    1.06
  -9  -5   3   -1.78    1.74
  -9  -5   3    1.72    0.95
  -9  -5   3    0.53    1.39
   9  -5  -3   -0.13    0.83
  -9   5   3    0.13    1.18
   9   5  -3   -0.25    0.83
  -8  -5   3   25.74    2.48
   8  -5  -3   24.77    1.86
  -8  -5   3   22.93    2.15
  -8  -5   3   27.18    2.20
  -8   5   3   28.58    2.18
   8   5  -3   25.02    2.05
   7  -5  -3    1.02    0.81
  -7  -5   3    1.85    0.91
  -7  -5   3    1.61    1.62
  -7  -5   3   -0.03    1.02
   7   5  -3    2.11    1.12
  -7   5   3    1.29    1.06
  -7   5   3    1.11    0.79
   7   5  -3    0.56    0.75
  -6  -5   3   15.23    2.04
  -6  -5   3   13.64    1.63
  -6  -5   3   21.43    1.58
   6  -5  -3   18.82    1.63
  -6   5   3   20.91    1.71
   6   5  -3   18.64    1.54
  -6   5   3   12.42    1.29
   6   5  -3   19.30    1.51
  -5  -5   3   53.30    3.16
  -5  -5   3   54.29    2.79
   5  -5  -3   52.90    2.41
   5  -5  -3   54.53    2.68
  -5  -5   3   53.23    2.61
   5   5  -3   52.71    2.37
   5   5  -3   57.23    2.62
   5   5  -3   53.73    2.44
  -5   5   3   58.88    2.71
  -5   5   3   54.42    2.35
  -4  -5   3   20.78    1.48
  -4  -5   3   17.74    1.64
   4  -5  -3   19.77    1.39
  -4  -5   3   21.29    1.96
   4  -5  -3   20.71    1.32
   4  -5  -3   23.35    1.59
   4   5  -3   20.93    1.60
  -4   5   3   24.43    1.85
   4   5  -3   23.19    1.56
  -4   5   3   21.61    1.74
   4   5  -3   22.50    1.80
  -3  -5   3    7.20    0.92
   3  -5  -3    7.86    1.08
  -3  -5   3    7.44    1.40
   3  -5  -3    7.43    1.00
  -3  -5   3    9.53    1.06
   3  -5  -3    8.27    1.03
  -3   5   3    8.59    1.17
   3   5  -3    8.47    1.02
  -3   5   3    7.51    0.93
   3   5  -3    8.49    1.13
   3   5  -3    9.55    0.96
   2  -5  -3    0.20    0.75
   2  -5  -3   -0.03    0.62
  -2  -5   3   -0.41    0.72
  -2  -5   3   -0.22    0.58
   2  -5  -3    0.47    0.80
  -2  -5   3    0.23    0.98
  -2   5   3   -0.45    0.84
   2   5  -3    0.07    0.86
   2   5  -3    0.08    0.93
   2   5  -3   -0.14    0.56
  -2   5   3    0.35    0.85
   1  -5  -3   69.43    2.80
   1  -5  -3   68.07    2.53
  -1  -5   3   68.38    2.57
   1  -5  -3   66.71    2.62
   1  -5  -3   66.79    2.76
  -1  -5   3   68.22    2.67
  -1  -5   3   70.54    2.68
  -1   5   3   68.81    2.74
   1   5  -3   69.57    2.69
   1   5  -3   70.03    2.70
  -1   5   3   69.23    2.80
   1   5  -3   70.91    2.83
   0  -5   3   23.13    1.39
   0  -5  -3   14.44    1.16
   0  -5   3   18.93    1.22
   0  -5   3   24.78    1.42
   0  -5  -3   20.90    1.32
   0  -5  -3   14.95    1.31
   0  -5  -3   19.08    1.32
   0   5   3   26.34    1.55
   0   5   3   22.59    1.60
   0   5  -3   21.82    1.66
   0   5  -3   15.82    1.35
   0   5  -3   24.57    1.43
   1  -5   3   72.87    2.36
  -1  -5  -3   76.61    3.02
  -1  -5  -3   73.79    2.77
   1  -5   3   77.23    2.97
  -1  -5  -3   70.58    2.92
   1  -5   3   72.68    2.63
  -1  -5  -3   78.07    2.87
   1  -5   3   70.99    2.55
  -1   5  -3   73.04    2.93
  -1   5  -3   68.19    2.79
   1   5   3   74.22    2.73
   1   5   3   73.94    2.88
  -1   5  -3   71.08    2.62
  -2  -5  -3   11.65    1.04
  -2  -5  -3   11.97    1.37
  -2  -5  -3    9.62    1.10
   2  -5   3   11.49    0.84
   2  -5   3   11.63    1.24
  -2  -5  -3   11.14    1.01
  -2   5  -3   12.58    1.24
  -2   5  -3    9.97    0.92
  -2   5  -3   13.05    1.35
   2   5   3    8.02    1.09
  -3  -5  -3   99.30    3.76
   3  -5   3  113.67    3.74
  -3  -5  -3  103.46    3.92
  -3  -5  -3  104.41    3.57
  -3   5  -3   98.99    3.70
   3   5   3  101.31    3.57
  -3   5  -3  103.55    3.66
  -4  -5  -3    7.63    1.22
  -4  -5  -3    6.46    0.99
  -4  -5  -3    7.44    1.07
   4  -5   3    6.45    0.88
   4   5   3    6.62    1.02
  -4   5  -3    7.22    0.90
  -5  -5  -3   34.91    1.95
   5  -5   3   37.84    2.09
  -5  -5  -3   38.31    2.33
  -5  -5  -3   36.74    2.36
  -5   5  -3   34.91    1.98
  -5   5  -3   34.07    1.66
   5   5   3   35.22    2.01
  -6  -5  -3   15.91    2.08
  -6  -5  -3   13.14    1.29
   6  -5   3   16.01    1.42
  -6  -5  -3   13.98    1.62
   6   5   3   13.80    1.35
  -6   5  -3   12.52    1.31
  -6   5  -3   13.86    1.23
  -7  -5  -3    4.80    1.00
  -7  -5  -3    2.49    1.22
  -7  -5  -3    3.28    1.23
   7  -5   3    5.25    1.11
  -7   5  -3    5.59    1.09
   7   5   3    3.95    1.04
  -7  -6   3    3.48    1.30
  -7  -6   3    2.52    0.91
   7  -6  -3    1.13    1.24
  -7  -6   3    0.97    0.94
   7   6  -3    1.20    0.87
  -7   6   3    2.65    0.94
  -7   6   3    2.87    1.21
   7   6  -3    2.94    0.93
  -6  -6   3    2.05    1.28
   6  -6  -3    3.04    1.25
  -6  -6   3    2.33    1.21
  -6  -6   3    2.93    0.91
   6   6  -3    4.27    1.01
   6   6  -3    2.81    1.20
  -6   6   3    3.85    1.24
  -5  -6   3    9.65    1.42
  -5  -6   3    8.41    1.15
  -5  -6   3   10.04    1.43
  -5  -6   3    8.97    1.51
   5  -6  -3   10.30    1.24
   5   6  -3   10.30    1.30
   5   6  -3    8.68    1.19
  -5   6   3   12.28    1.34
   5   6  -3    9.69    1.42
  -5   6   3    8.79    1.42
  -4  -6   3   39.60    2.13
   4  -6  -3   39.42    2.06
  -4  -6   3   37.68    2.17
   4  -6  -3   52.18    2.66
  -4  -6   3   39.18    2.22
  -4  -6   3   37.28    2.64
   4  -6  -3   45.98    2.21
  -4   6   3   39.14    2.36
  -4   6   3   41.14    2.44
   4   6  -3   55.11    2.60
  -3  -6   3   10.79    1.24
   3  -6  -3   10.58    1.44
  -3  -6   3   10.83    1.27
  -3  -6   3   11.59    1.34
  -3  -6   3    9.71    1.38
   3  -6  -3   11.04    1.08
   3  -6  -3   11.89    1.17
   3   6  -3   10.60    1.32
   3   6  -3   12.63    1.22
  -3   6   3   11.57    1.36
   3   6  -3   12.94    1.50
  -3   6   3   12.61    1.23
   2  -6  -3   52.72    2.63
  -2  -6   3   50.46    2.43
  -2  -6   3   56.59    2.39
   2  -6  -3   52.50    2.51
  -2  -6   3   52.51    2.48
  -2  -6   3   51.12    2.31
   2  -6  -3   49.32    2.42
   2   6  -3   52.61    2.66
  -2   6   3   52.19    2.37
   2   6  -3   51.04    2.51
  -2   6   3   51.65    2.59
   2   6  -3   51.16    2.35
  -1  -6   3    1.77    0.76
  -1  -6   3    0.16    0.79
   1  -6  -3    1.17    0.90
  -1  -6   3    1.03    1.09
   1  -6  -3    1.65    0.67
   1  -6  -3    1.23    0.95
  -1  -6   3    0.15    0.79
   1  -6  -3    2.28    0.99
  -1   6   3    2.70    0.97
  -1   6   3    0.47    0.68
   1   6  -3    1.20    0.99
   1   6  -3    1.79    1.05
   1   6  -3    1.71    0.67
   0  -6   3   34.15    1.84
   0  -6  -3   30.74    2.05
   0  -6  -3   34.44    2.03
   0  -6   3   34.60    2.23
   0  -6  -3   23.31    1.67
   0   6  -3   35.15    1.86
   0   6  -3   31.16    2.16
   0   6   3   34.11    1.97
   0   6  -3   32.72    2.12
   0   6   3   33.60    2.08
  -1  -6  -3   14.29    1.40
   1  -6   3   14.25    1.47
  -1  -6  -3   14.62    1.48
  -1  -6  -3   15.06    1.31
   1  -6   3   14.97    1.23
  -1  -6  -3   15.00    1.39
  -1   6  -3   15.18    1.54
  -1   6  -3   11.63    1.07
   1   6   3   13.82    1.41
  -1   6  -3   15.05    1.47
  -2  -6  -3   93.82    3.80
  -2  -6  -3   97.07    3.69
  -2  -6  -3  100.34    3.68
   2  -6   3   94.88    3.69
   2  -6   3   97.37    3.18
  -2   6  -3   87.98    3.63
  -2   6  -3   96.14    3.78
   2   6   3   91.29    3.65
  -3  -6  -3   11.47    1.32
  -3  -6  -3   14.80    1.70
   3  -6   3   11.79    1.44
  -3  -6  -3   14.30    1.28
  -3   6  -3   13.54    1.61
   3   6   3   13.98    1.27
  -3   6  -3   14.18    1.48
  -4  -6  -3    6.25    1.12
   4  -6   3    7.53    1.30
  -4  -6  -3   11.08    1.65
  -4  -6  -3    5.87    1.14
  -4   6  -3    4.67    0.93
   4   6   3    5.77    1.15
  -5  -6  -3    0.43    0.98
   5  -6   3   -0.07    1.00
  -5  -6  -3   -0.24    0.63
  -5  -6  -3    0.10    0.79
  -5   6  -3   -1.43    0.94
   5   6   3    0.62    0.98
  -6  -6  -3   40.24    2.76
  -6  -6  -3   44.28    2.81
   6  -6   3   41.38    2.53
  -6  -6  -3   43.64    2.43
   6   6   3   43.92    2.53
  -6   6  -3   43.72    2.46
  -6  -7   3    3.47    1.58
   6  -7  -3    4.86    1.45
  -6  -7   3    0.09    1.29
  -6  -7   3    1.71    0.91
   6   7  -3    1.10    0.98
   6   7  -3    1.92    1.29
  -6   7   3    0.88    0.92
  -5  -7   3   40.63    2.64
   5  -7  -3   36.41    2.34
  -5  -7   3   39.31    2.52
  -5  -7   3   46.96    3.23
  -5  -7   3   37.62    2.68
   5   7  -3   35.35    2.28
   5   7  -3   38.27    2.33
  -5   7   3   40.54    2.67
  -4  -7   3   14.21    1.77
  -4  -7   3   14.86    1.61
  -4  -7   3   13.19    1.47
   4  -7  -3   11.92    1.65
  -4  -7   3   11.19    1.59
   4  -7  -3   10.78    1.33
   4   7  -3   11.86    1.61
   4   7  -3   13.28    1.47
   4   7  -3   12.01    1.37
  -4   7   3   13.60    1.66
  -4   7   3   10.63    1.49
  -3  -7   3   11.90    1.36
   3  -7  -3   11.62    1.19
   3  -7  -3   13.92    1.35
   3  -7  -3    9.57    1.51
  -3  -7   3   10.28    1.25
  -3  -7   3   10.31    1.47
  -3  -7   3   13.46    1.54
   3   7  -3   12.23    1.61
   3   7  -3   11.48    1.27
  -3   7   3   11.43    1.52
   3   7  -3   11.54    1.48
  -3   7   3   10.60    1.49
  -2  -7   3    2.60    0.86
  -2  -7   3    2.89    0.97
   2  -7  -3    4.55    1.01
   2  -7  -3    5.79    0.98
   2  -7  -3    3.11    0.83
  -2  -7   3    3.61    0.99
  -2   7   3    7.71    1.33
   2   7  -3    5.82    1.39
   2   7  -3    5.05    1.18
   2   7  -3    4.18    0.96
  -2   7   3   11.01    1.42
   1  -7  -3   10.30    1.40
  -1  -7   3    8.46    1.23
   1  -7  -3    5.83    1.32
   1  -7  -3    9.53    1.39
  -1  -7   3    8.63    1.07
  -1  -7   3    8.14    1.47
   1   7  -3    7.66    1.37
   1   7  -3    8.71    1.27
   1   7  -3    4.31    1.33
  -1   7   3    5.98    1.07
  -1   7   3    7.43    1.09
   0  -7  -3    1.88    0.85
   0  -7  -3    3.94    0.90
   0  -7   3    1.49    0.65
   0  -7   3    2.39    1.25
   0  -7  -3    4.53    1.20
   0  -7  -3    2.68    1.11
   0   7  -3    2.62    1.20
   0   7  -3    2.76    0.98
   0   7   3    1.07    0.78
   0   7  -3    0.84    0.85
  -1  -7  -3   24.24    1.81
  -1  -7  -3   17.75    1.52
   1  -7   3   19.34    1.49
   1  -7   3   22.37    1.89
  -1  -7  -3   20.59    1.89
  -1   7  -3   21.87    1.85
   1   7   3   17.52    1.70
  -1   7  -3   18.81    1.83
  -2  -7  -3    4.61    1.04
   2  -7   3    1.54    0.90
  -2  -7  -3    4.51    1.17
  -2  -7  -3    5.10    1.23
  -2   7  -3    3.40    1.02
   2   7   3    2.77    1.16
  -2   7  -3    3.74    0.99
  -3  -7  -3   41.60    2.44
  -3  -7  -3   30.05    2.17
  -3  -7  -3   41.68    2.70
   3  -7   3   32.86    2.50
  -3   7  -3   35.71    2.42
   3   7   3   43.05    2.53
   4  -7   3    6.32    1.44
  -4  -7  -3    7.17    1.36
  -4  -7  -3    6.50    1.53
  -4  -7  -3    6.35    1.33
  -4   7  -3    7.00    1.42
   4   7   3    7.45    1.36
  -3  -8   3   20.97    2.13
  -3  -8   3   22.21    1.87
   3  -8  -3   22.37    2.14
  -3  -8   3   22.45    2.03
   3  -8  -3   24.14    2.01
   3   8  -3   21.83    1.99
  -3   8   3   19.56    1.97
  -3   8   3   22.30    1.95
   3   8  -3   20.29    1.79
   3   8  -3   24.35    2.13
   2  -8  -3   17.97    1.94
   2  -8  -3   20.54    1.90
  -2  -8   3   20.27    1.84
   2  -8  -3   19.45    1.79
  -2  -8   3   21.86    1.75
   2   8  -3   21.42    1.98
   2   8  -3   20.81    1.79
  -2   8   3   19.65    1.74
  -2   8   3   19.09    1.94
   2   8  -3   24.54    2.14
   1  -8  -3   -0.33    0.79
   1  -8  -3    0.63    1.19
   1  -8  -3    0.04    1.15
  -1  -8   3    0.87    1.37
  -1  -8   3   -0.20    0.99
  -1   8   3   -0.88    1.21
   1   8  -3   -0.06    0.90
   1   8  -3   -0.69    0.82
   1   8  -3   -0.09    0.73
   0  -8   3   -0.16    0.60
   0  -8   3   -0.12    0.96
   0  -8  -3    0.51    1.17
   0  -8  -3   -0.79    1.14
   0   8   3   -0.33    1.17
   0   8  -3    0.75    0.93
   0   8  -3   -0.87    0.86
   1  -8   3   21.26    1.51
  -1  -8  -3   25.54    1.90
  -1  -8  -3   23.66    2.11
   1  -8   3   23.36    2.04
   1   8   3   24.00    1.93
  -1   8  -3   22.55    1.95
  -1   8  -3   21.51    2.12
  11   0  -4   -0.05    0.87
  11   0  -4   -0.15    0.89
 -11   0   4   -0.85    1.03
  11   0  -4   -0.38    1.10
 -11   0   4    2.66    1.71
 -11   0   4    1.21    1.08
 -11   0   4    0.76    1.24
  10   0  -4   62.82    3.27
  10   0  -4   63.42    2.99
 -10   0   4   63.26    2.92
 -10   0   4   53.13    3.14
 -10   0   4   56.77    2.99
  10   0  -4   59.72    2.73
  -9   0   4   -0.13    0.74
   9   0  -4    0.53    0.68
  -9   0   4    0.17    0.64
   9   0  -4    0.81    0.81
   9   0  -4    0.51    0.83
  -9   0   4   -0.51    1.53
   8   0  -4  106.59    4.16
  -8   0   4  112.11    4.01
  -8   0   4   98.04    4.50
  -8   0   4  108.60    3.76
   8   0  -4  107.96    3.79
   7   0  -4    0.53    0.70
  -7   0   4    0.26    0.63
   7   0  -4    0.63    0.52
  -7   0   4   -0.25    0.79
  -7   0   4    0.18    1.08
  -7   0   4   -0.98    0.75
   7   0  -4    0.87    0.82
  -6   0   4  215.55    6.36
   6   0  -4  209.32    6.34
   6   0  -4  209.07    6.32
  -6   0   4  215.04    6.38
  -6   0   4  212.36    6.33
   6   0  -4  203.40    6.50
   5   0  -4   -0.74    0.78
   5   0  -4    0.84    0.65
   5   0  -4    0.63    0.68
  -5   0   4   -0.90    0.66
  -5   0   4    0.25    0.52
  -5   0   4   -0.15    0.44
  -4   0   4  102.23    3.37
   4   0  -4  107.03    3.36
   4   0  -4  107.88    3.52
   4   0  -4  106.65    3.37
  -4   0   4  104.53    3.40
  -4   0   4  104.21    3.43
   3   0  -4   -1.13    0.54
  -3   0   4    0.47    0.50
  -3   0   4    0.03    0.51
  -3   0   4   -0.35    0.60
   3   0  -4    0.61    0.66
   3   0  -4   -0.23    0.37
   3   0  -4   -0.03    0.56
   2   0  -4  250.04    7.21
  -2   0   4  246.84    6.99
   2   0  -4  251.78    7.07
   2   0  -4  245.81    7.11
  -2   0   4  259.36    7.06
   2   0  -4  247.71    7.05
  -2   0   4  250.76    7.10
   1   0  -4   -0.10    0.28
  -1   0   4   -0.12    0.42
   1   0  -4   -0.50    0.30
   1   0  -4   -0.17    0.46
  -1   0   4    0.04    0.29
  -1   0   4   -0.28    0.31
   0   0   4   55.91    1.76
   0   0  -4   56.52    1.76
   0   0   4   56.87    1.76
   0   0   4   61.81    1.68
   0   0  -4   57.58    1.76
  -1   0  -4   -0.01    0.21
  -1   0  -4   -0.08    0.14
   1   0   4   -0.07    0.14
  -1   0  -4    0.66    0.61
   1   0   4   -0.05    0.13
  -1   0  -4   -0.11    0.13
  -2   0  -4  137.14    3.86
  -2   0  -4  133.10    4.22
  -2   0  -4  137.19    3.95
  -3   0  -4   -0.18    0.22
  -3   0  -4    0.06    0.67
  -3   0  -4    0.17    0.36
  -4   0  -4  143.30    4.16
  -4   0  -4  143.43    4.70
   5   0   4    0.02    0.12
  -5   0  -4    0.29    0.33
  -5   0  -4   -0.12    0.84
  -5   0  -4   -0.18    0.14
  -5   0  -4    0.22    0.15
  -6   0  -4   92.77    3.58
   6   0   4   88.40    2.63
  -7   0  -4   -1.04    0.97
   7   0   4   -0.30    0.41
  -8   0  -4   23.48    1.21
  -8   0  -4   23.48    1.82
   8   0   4   23.76    1.32
   9   0   4   -0.33    0.50
  -9   0  -4   -0.40    1.19
  -9   0  -4   -1.11    0.54
 -11  -1   4   20.83    1.94
  11  -1  -4   17.90    2.12
 -11  -1   4   16.59    1.55
 -11  -1   4   16.17    2.41
  11  -1  -4   21.99    1.94
  11   1  -4   18.13    1.83
 -11   1   4   19.19    1.75
 -11   1   4   22.50    1.91
  11   1  -4   19.74    1.86
 -11   1   4   20.72    2.06
  10  -1  -4   -0.42    0.98
 -10  -1   4    1.45    1.19
  10  -1  -4    0.50    0.93
 -10  -1   4    0.94    0.72
 -10  -1   4    1.30    1.09
 -10  -1   4   -1.54    1.58
 -10   1   4    1.10    1.04
  10   1  -4   -0.32    1.05
 -10   1   4    1.45    1.47
  10   1  -4    1.27    0.82
 -10   1   4    1.30    0.83
  10   1  -4    1.41    0.77
  -9  -1   4   93.91    3.72
   9  -1  -4   94.95    3.79
   9  -1  -4   90.04    3.56
  -9  -1   4   90.50    3.41
  -9  -1   4   79.28    3.98
   9   1  -4   88.75    3.70
   9   1  -4   92.27    3.60
   9   1  -4   89.94    3.32
  -9   1   4   76.83    3.99
  -9   1   4   93.74    3.53
  -8  -1   4   88.66    3.36
  -8  -1   4   93.64    3.42
   8  -1  -4   83.27    3.25
   8  -1  -4   90.49    3.59
  -8  -1   4   82.28    4.14
   8   1  -4   91.22    3.25
  -8   1   4   93.91    3.40
  -8   1   4   74.32    3.82
   8   1  -4   89.05    3.43
   8   1  -4   91.37    3.57
  -7   1   4   25.00    1.64
  -6  -1   4   36.69    2.47
   6  -1  -4   37.87    1.89
   6  -1  -4   45.00    2.15
  -6  -1   4   37.08    1.94
  -6  -1   4   40.59    2.05
   6  -1  -4   41.37    2.03
  -6  -1   4   42.58    2.04
  -6   1   4   42.17    2.06
   6   1  -4   41.54    1.77
   6   1  -4   39.96    1.84
   6   1  -4   40.13    1.80
   6   1  -4   41.42    2.17
  -6   1   4   39.85    1.78
  -5  -1   4  292.41    8.40
  -5  -1   4  294.00    8.41
   5  -1  -4  278.86    8.54
   5  -1  -4  282.45    8.38
  -5  -1   4  293.84    8.39
   5  -1  -4  289.31    8.36
   5   1  -4  289.51    8.39
  -5   1   4  301.07    8.39
   5   1  -4  291.70    8.35
  -5   1   4  292.37    8.37
   5   1  -4  282.79    8.50
   5   1  -4  285.96    8.39
   4  -1  -4   45.94    2.17
  -4  -1   4   45.40    1.88
  -4  -1   4   44.86    1.98
  -4  -1   4   46.13    1.86
   4  -1  -4   43.88    1.79
   4  -1  -4   48.88    1.79
   4   1  -4   45.63    1.92
  -4   1   4   43.67    1.76
   4   1  -4   45.73    2.06
   4   1  -4   46.70    1.90
   4   1  -4   45.99    1.87
  -4   1   4   44.59    1.93
  -3  -1   4    5.20    0.63
  -3  -1   4    5.04    0.56
  -3  -1   4    4.49    0.77
   3  -1  -4    5.64    0.71
   3  -1  -4    5.79    0.73
   3  -1  -4    5.96    0.88
  -3   1   4    4.56    0.55
   3   1  -4    4.75    0.67
   3   1  -4    4.84    0.70
   3   1  -4    4.93    0.62
  -3   1   4    5.54    0.75
  -2  -1   4  290.72    8.13
   2  -1  -4  285.51    8.08
  -2  -1   4  293.46    8.06
   2  -1  -4  284.66    8.24
   2  -1  -4  285.14    8.08
  -2  -1   4  291.98    8.00
  -2   1   4  290.34    8.10
   2   1  -4  280.29    8.11
   2   1  -4  291.92    8.08
   2   1  -4  289.73    8.15
  -1  -1   4  525.84   14.89
  -1  -1   4  568.38   15.00
  -1  -1   4  603.67   14.85
   1  -1  -4  581.87   14.95
   1  -1  -4  519.70   14.94
   1  -1  -4  536.85   15.04
   1   1  -4  585.63   15.01
   1   1  -4  513.90   15.00
   1   1  -4  527.49   14.89
  -1   1   4  521.28   14.94
   0  -1  -4   10.30    1.04
   0  -1  -4   10.57    0.53
   0  -1   4   10.26    0.72
   0  -1   4   10.54    0.67
   0  -1  -4    9.94    0.86
   0  -1  -4   11.35    0.65
   0   1  -4   11.01    0.48
   0   1  -4   11.77    0.60
   0   1  -4   10.66    0.84
   0   1   4   10.57    0.57
   0   1  -4   11.81    0.70
  -1  -1  -4    0.33    0.63
  -1  -1  -4    0.27    0.24
   1  -1   4    0.09    0.27
  -1  -1  -4   -0.12    0.24
   1  -1   4    0.05    0.21
  -1  -1  -4   -0.30    0.42
   1   1   4    0.15    0.22
   1   1   4    0.32    0.25
  -1   1  -4    0.19    0.21
  -1   1  -4    0.48    0.41
  -1   1  -4    0.27    0.23
  -2  -1  -4   14.27    0.53
   2  -1   4   12.98    0.50
  -2  -1  -4   14.36    0.80
  -2  -1  -4   14.49    1.25
  -2  -1  -4   13.59    0.54
   2  -1   4   14.25    0.48
  -2   1  -4   13.98    0.83
   2   1   4   13.47    0.53
  -2   1  -4   12.83    0.53
  -2   1  -4   13.68    0.49
   2   1   4   13.20    0.53
  -2   1  -4   13.18    1.03
  -3  -1  -4  263.47    7.20
  -3  -1  -4  268.47    7.94
  -3  -1  -4  269.12    7.20
  -3  -1  -4  269.89    7.56
  -3   1  -4  261.87    7.14
  -3   1  -4  267.92    7.46
  -3   1  -4  270.24    7.14
   3   1   4  255.09    7.18
   3   1   4  265.53    7.18
  -3   1  -4  265.26    7.73
  -4  -1  -4    8.47    1.00
  -4  -1  -4    9.58    0.86
  -4  -1  -4    9.55    0.47
   4  -1   4    9.21    0.37
  -4  -1  -4   10.11    0.47
   4   1   4    9.59    0.46
  -4   1  -4    9.31    0.41
  -4   1  -4    9.73    0.77
  -4   1  -4    9.43    0.91
  -4   1  -4    9.19    0.40
   4   1   4   10.02    0.47
   5  -1   4   19.36    0.75
   5  -1   4   19.38    0.78
  -5  -1  -4   20.19    0.79
  -5  -1  -4   21.52    1.19
  -5  -1  -4   20.42    0.80
  -5  -1  -4   17.98    1.79
  -5   1  -4   21.15    1.51
  -5   1  -4   20.43    0.75
   5   1   4   19.38    0.82
  -5   1  -4   19.19    0.77
  -7  -1  -4  126.52    3.85
   7  -1   4  124.28    3.82
  -7  -1  -4  123.74    4.74
  -7   1  -4  139.46    4.65
   7   1   4  130.82    3.89
   8  -1   4   11.48    1.00
  -8  -1  -4   13.96    1.81
  -8  -1  -4   11.37    1.01
  -8   1  -4   14.39    1.57
   8   1   4   12.57    1.04
 -10  -2   4   19.50    1.72
 -10  -2   4   15.08    2.03
 -10  -2   4   13.35    1.57
  10  -2  -4   16.76    1.50
  10  -2  -4   17.17    1.86
  10   2  -4   13.42    1.30
  10   2  -4   14.04    1.67
 -10   2   4   15.99    1.54
 -10   2   4   16.70    1.89
   9  -2  -4   37.03    2.29
  -9  -2   4   33.50    2.19
  -9  -2   4   37.24    2.15
  -9  -2   4   32.36    2.60
   9  -2  -4   33.51    2.81
  -9   2   4   34.66    2.34
   9   2  -4   32.93    2.22
  -9   2   4   33.71    2.46
   9   2  -4   35.06    1.89
  -8  -2   4  113.44    5.11
   8  -2  -4  124.09    4.34
  -8  -2   4  124.35    4.31
  -8   2   4  125.04    4.28
   8   2  -4  121.96    4.31
   8   2  -4  125.50    4.01
  -8   2   4  108.43    4.30
  -7  -2   4    1.99    0.90
   7  -2  -4    2.87    0.74
   7  -2  -4    3.64    0.68
  -7  -2   4    3.67    1.34
   7   2  -4    2.34    0.65
  -7   2   4    3.65    1.29
  -7   2   4    4.14    1.02
   7   2  -4    2.89    0.95
  -7   2   4    3.73    0.88
   7   2  -4    2.41    0.60
   6  -2  -4   18.74    1.62
   6  -2  -4   17.63    1.41
  -6  -2   4   18.81    2.16
  -6  -2   4   20.87    1.56
  -6   2   4   20.01    1.63
   6   2  -4   19.70    1.58
   6   2  -4   18.66    1.37
  -6   2   4   19.42    1.54
   6   2  -4   18.85    1.27
  -5  -2   4  108.47    3.67
   5  -2  -4  105.64    3.61
   5  -2  -4  103.60    3.53
  -5  -2   4  105.26    3.52
  -5  -2   4   98.91    4.34
   5   2  -4  108.29    3.51
  -5   2   4  108.78    3.60
   5   2  -4  106.75    3.52
   5   2  -4  103.34    3.52
  -5   2   4  107.61    3.62
   4  -2  -4  431.83   12.19
  -4  -2   4  428.27   12.17
  -4  -2   4  432.47   12.21
   4  -2  -4  443.75   12.18
   4   2  -4  432.23   12.21
   4   2  -4  433.36   12.22
  -4   2   4  433.15   12.20
   4   2  -4  440.95   12.15
  -4   2   4  428.41   12.16
  -3  -2   4    0.96    0.56
  -3  -2   4    0.31    0.53
   3  -2  -4    0.00    0.57
   3  -2  -4   -0.06    0.61
  -3   2   4    0.86    0.63
   3   2  -4    0.11    0.43
   3   2  -4    0.81    0.67
   3   2  -4    0.72    0.42
   2  -2  -4  103.83    3.24
  -2  -2   4  101.69    3.30
  -2  -2   4  104.66    3.24
   2  -2  -4  103.73    3.30
   2  -2  -4   99.29    3.27
   2   2  -4  104.77    3.29
   2   2  -4  103.41    3.24
  -2   2   4  105.81    3.27
   2   2  -4  104.51    3.27
   1  -2  -4  115.43    3.69
  -1  -2   4  118.92    3.48
   1  -2  -4  118.17    3.58
  -1  -2   4  120.01    3.66
   1  -2  -4  114.67    3.55
   1  -2  -4  114.05    3.65
   1   2  -4  117.85    3.62
   1   2  -4  118.74    3.63
   1   2  -4  117.69    3.51
  -1   2   4  119.23    3.60
   0  -2   4  385.39   10.81
   0  -2  -4  414.04   10.93
   0  -2  -4  404.88   11.08
   0  -2  -4  409.68   10.87
   0  -2   4  384.87   10.94
   0  -2  -4  382.17   10.91
   0  -2  -4  382.21   11.14
   0   2  -4  399.97   10.82
   0   2  -4  380.46   11.02
   0   2  -4  417.03   10.96
   0   2   4  390.14   10.92
  -1  -2  -4   30.90    1.15
  -1  -2  -4   31.00    1.64
  -1  -2  -4   29.72    1.34
   1  -2   4   30.84    1.27
  -1   2  -4   30.86    1.23
  -1   2  -4   31.75    1.16
  -1   2  -4   30.20    1.42
   1   2   4   30.70    1.21
  -2  -2  -4  190.76    5.26
  -2  -2  -4  191.14    5.40
  -2  -2  -4  190.84    5.40
  -2  -2  -4  191.13    5.69
   2  -2   4  195.77    5.38
  -2  -2  -4  187.28    5.87
  -2   2  -4  192.68    5.37
  -2   2  -4  190.95    5.61
   2   2   4  192.81    5.41
   2   2   4  191.61    5.41
  -2   2  -4  186.57    5.27
  -2   2  -4  189.75    5.39
  -3  -2  -4   69.99    2.66
  -3  -2  -4   63.07    2.05
  -3  -2  -4   62.07    2.38
  -3  -2  -4   65.16    2.04
   3  -2   4   66.07    2.02
   3   2   4   64.31    2.08
  -3   2  -4   64.52    1.99
  -3   2  -4   62.38    1.98
  -3   2  -4   64.29    2.24
  -3   2  -4   66.74    2.07
   3   2   4   64.70    2.07
  -4  -2  -4   47.47    2.50
  -4  -2  -4   47.96    1.63
   4  -2   4   48.44    1.62
  -4  -2  -4   51.29    2.05
  -4  -2  -4   49.57    1.68
  -4   2  -4   49.61    1.97
  -4   2  -4   48.14    1.66
  -4   2  -4   49.60    1.95
  -4   2  -4   46.16    1.64
   4   2   4   49.28    1.65
   4   2   4   47.03    1.67
  -4   2  -4   47.79    1.58
  -5  -2  -4    7.66    0.91
  -5  -2  -4    6.22    0.60
  -5  -2  -4    6.75    1.11
   5  -2   4    7.27    0.58
  -5   2  -4    6.69    0.89
  -5   2  -4    7.34    0.63
   5   2   4    6.32    0.58
  -5   2  -4    7.46    0.62
  -6  -2  -4   48.80    1.76
  -6  -2  -4   52.77    2.61
  -6  -2  -4   55.79    2.21
   6  -2   4   47.11    1.78
   6   2   4   49.27    1.77
  -6   2  -4   42.72    1.68
  -6   2  -4   47.53    2.17
  -7  -2  -4   16.46    1.01
  -7  -2  -4   17.83    1.77
  -7  -2  -4   15.40    1.35
   7  -2   4   15.85    1.14
  -7   2  -4   14.01    1.05
   7   2   4   15.27    1.02
  -7   2  -4   15.19    1.42
  -8  -2  -4    0.95    1.35
  -8  -2  -4    0.33    0.48
   8  -2   4   -0.21    0.62
   8   2   4    0.32    0.50
  -8   2  -4    0.67    0.59
 -10  -3   4   23.45    2.45
  10  -3  -4   25.55    2.28
 -10  -3   4   24.38    2.22
 -10  -3   4   27.36    2.17
  10   3  -4   25.30    2.23
 -10   3   4   25.84    1.91
  -9  -3   4    3.87    1.41
  -9  -3   4    1.69    1.08
   9  -3  -4    4.02    0.94
  -9  -3   4    2.72    1.03
  -9   3   4    3.96    1.23
   9   3  -4    3.39    0.87
   9   3  -4    4.63    1.22
  -8  -3   4    4.21    1.11
  -8  -3   4    3.47    1.35
  -8  -3   4    3.62    1.26
   8  -3  -4    5.36    0.91
  -8   3   4    3.58    1.08
  -8   3   4    2.15    1.03
  -7  -3   4   79.21    3.39
  -7  -3   4   73.26    3.64
   7  -3  -4   82.56    3.19
  -7  -3   4   78.25    3.15
   7   3  -4   67.97    3.05
  -7   3   4   82.20    3.02
   7   3  -4   78.45    2.91
  -7   3   4   82.92    3.09
   7   3  -4   77.79    3.18
  -7   3   4   70.34    3.11
  -6  -3   4    1.85    1.25
  -6  -3   4    2.80    0.94
   6  -3  -4    1.22    0.58
   6  -3  -4    1.27    0.67
   6   3  -4    1.81    0.68
  -6   3   4    2.53    0.90
  -6   3   4    0.75    0.90
   6   3  -4    1.56    0.91
   6   3  -4    1.25    0.73
  -5  -3   4   47.49    3.19
   5  -3  -4   47.56    2.26
  -5  -3   4   45.85    2.23
   5  -3  -4   47.70    2.13
   5   3  -4   51.72    2.12
   5   3  -4   47.58    2.09
   5   3  -4   48.48    2.27
  -5   3   4   52.10    2.10
   4  -3  -4    3.94    0.65
  -4  -3   4    4.73    1.19
  -4  -3   4    4.05    0.65
   4  -3  -4    2.72    0.83
   4   3  -4    5.29    0.76
  -4   3   4    3.81    0.86
   4   3  -4    3.51    0.64
   4   3  -4    4.19    0.84
   3  -3  -4  217.89    6.53
   3  -3  -4  225.65    6.60
   3  -3  -4  218.91    6.58
  -3  -3   4  223.17    6.57
  -3   3   4  224.59    6.61
   3   3  -4  222.63    6.54
   3   3  -4  220.54    6.54
   3   3  -4  223.82    6.64
   2  -3  -4   47.57    1.89
  -2  -3   4   47.63    1.78
   2  -3  -4   45.62    1.83
   2  -3  -4   46.50    1.84
  -2   3   4   47.60    1.91
   2   3  -4   45.90    2.03
  -2   3   4   48.46    1.99
   2   3  -4   50.71    2.01
   2   3  -4   44.59    1.86
   1  -3  -4   74.24    2.62
   1  -3  -4   70.66    2.53
  -1  -3   4   74.03    2.38
   1  -3  -4   71.96    2.51
   1  -3  -4   72.59    2.54
   1   3  -4   73.79    2.52
   1   3  -4   73.13    2.39
  -1   3   4   68.56    2.45
  -1   3   4   69.67    2.55
   1   3  -4   75.28    2.63
   0  -3   4  102.19    3.09
   0  -3   4  100.48    3.05
   0  -3  -4   98.57    3.34
   0  -3  -4  101.29    3.16
   0  -3  -4   98.87    3.35
   0   3  -4   99.90    3.08
   0   3  -4   97.76    3.26
   0   3   4   97.78    3.16
   0   3  -4  103.20    3.26
  -1  -3  -4   52.17    1.81
   1  -3   4   54.73    1.81
  -1  -3  -4   56.50    2.01
  -1  -3  -4   56.47    1.87
  -1  -3  -4   54.63    2.13
  -1  -3  -4   55.32    2.36
  -1   3  -4   54.57    1.80
  -1   3  -4   57.05    2.12
   1   3   4   54.44    2.02
  -1   3  -4   57.53    2.06
  -2  -3  -4   47.67    1.99
  -2  -3  -4   49.22    2.19
  -2  -3  -4   46.49    1.80
   2  -3   4   49.29    1.50
   2   3   4   48.47    1.84
  -2   3  -4   46.03    1.91
  -2   3  -4   49.36    1.84
  -3  -3  -4   85.76    3.40
  -3  -3  -4   90.20    3.11
  -3  -3  -4   85.30    2.73
  -3   3  -4   83.56    2.59
   3   3   4   82.48    2.75
  -3   3  -4   78.93    2.88
  -3   3  -4   80.65    2.73
  -4  -3  -4    0.84    0.49
  -4  -3  -4   -0.13    0.74
   4  -3   4    1.72    0.58
  -4  -3  -4    2.91    1.12
  -4   3  -4    0.81    0.64
  -4   3  -4    1.61    0.78
   4   3   4    1.35    0.52
  -4   3  -4    0.26    0.48
  -5  -3  -4    6.17    1.38
  -5  -3  -4    6.60    0.70
   5  -3   4    6.53    0.82
  -5  -3  -4    5.67    0.85
  -5   3  -4    7.83    0.71
  -5   3  -4    6.71    0.72
   5   3   4    5.61    0.77
  -6  -3  -4  140.65    5.40
   6  -3   4  143.15    4.45
  -6  -3  -4  143.77    4.84
  -6  -3  -4  143.57    4.44
  -6   3  -4  142.79    4.41
   6   3   4  147.27    4.52
  -7  -3  -4   29.79    1.49
  -7  -3  -4   26.47    1.66
   7  -3   4   27.93    1.65
  -7  -3  -4   28.48    2.21
   7   3   4   31.65    1.57
  -7   3  -4   26.68    1.47
  -8  -3  -4    1.21    1.53
  -8  -3  -4    1.36    0.65
  -8  -3  -4    1.08    0.93
   8  -3   4    2.71    0.76
  -8   3  -4    2.77    0.70
   8   3   4    1.98    0.82
  -9  -4   4    5.60    1.35
  -9  -4   4    2.87    1.95
   9  -4  -4    6.37    1.37
  -9  -4   4    7.09    1.29
   9   4  -4    6.64    1.39
   9   4  -4    3.89    1.12
  -9   4   4    6.27    1.11
  -8  -4   4   21.05    2.21
   8  -4  -4   27.27    2.08
  -8  -4   4   18.33    1.72
  -8  -4   4   19.30    1.76
   8   4  -4   23.19    1.63
  -8   4   4   22.94    1.73
   8   4  -4   22.14    1.72
  -7  -4   4   47.63    2.94
   7  -4  -4   43.99    2.47
  -7  -4   4   46.28    2.50
  -7  -4   4   45.99    2.43
  -7   4   4   48.65    2.38
  -7   4   4   46.25    2.30
   7   4  -4   45.65    2.51
   7   4  -4   43.18    2.00
   6  -4  -4   16.77    1.48
  -6  -4   4   16.29    2.13
  -6  -4   4   16.28    1.36
  -6  -4   4   15.13    1.41
   6  -4  -4   15.38    1.47
   6   4  -4   16.37    1.42
  -6   4   4   14.56    1.37
   6   4  -4   12.58    1.39
   6   4  -4   16.15    1.45
  -6   4   4   14.62    1.30
  -5  -4   4    0.32    0.61
  -5  -4   4    1.20    1.07
   5  -4  -4    0.65    0.95
  -5  -4   4   -0.92    1.55
   5  -4  -4    0.55    0.83
  -5   4   4   -0.06    0.62
   5   4  -4    1.73    0.66
   5   4  -4    0.89    0.94
  -5   4   4    0.54    0.89
   5   4  -4    1.15    0.78
  -4  -4   4    2.91    1.51
   4  -4  -4    0.34    0.55
  -4  -4   4    0.38    0.80
  -4  -4   4   -0.02    0.94
   4  -4  -4    0.41    0.88
  -4   4   4    0.26    0.83
   4   4  -4    1.17    0.79
   4   4  -4   -0.02    0.79
  -4   4   4    0.78    0.86
   4   4  -4    0.73    0.67
  -3  -4   4   62.01    2.51
  -3  -4   4   65.44    3.21
   3  -4  -4   66.41    2.54
   3  -4  -4   60.75    2.59
   3  -4  -4   65.16    2.54
  -3  -4   4   57.69    2.60
   3   4  -4   62.44    2.50
  -3   4   4   60.27    2.43
   3   4  -4   63.06    2.55
  -3   4   4   62.29    2.54
   3   4  -4   63.58    2.42
  -2  -4   4   27.26    1.53
   2  -4  -4   28.86    1.66
   2  -4  -4   29.58    1.52
   2  -4  -4   28.86    1.48
  -2  -4   4   28.58    1.50
   2   4  -4   28.06    1.56
  -2   4   4   29.40    1.64
   2   4  -4   27.32    1.69
   2   4  -4   28.30    1.60
  -2   4   4   28.52    1.72
   1  -4  -4    6.18    0.74
   1  -4  -4    5.70    0.74
  -1  -4   4    6.80    0.66
   1   4  -4    5.47    0.79
   0  -4  -4   55.74    2.17
   0  -4   4   56.09    2.00
   0  -4  -4   53.23    2.10
   0  -4  -4   56.52    2.38
   0  -4  -4   59.82    2.40
   0  -4   4   54.37    1.98
   0   4   4   59.63    2.16
   0   4  -4   55.71    2.18
   0   4  -4   53.15    2.22
   0   4   4   52.23    2.11
   0   4  -4   53.59    1.98
  -1  -4  -4   47.25    1.87
   1  -4   4   47.81    1.72
   1  -4   4   44.95    1.72
  -1  -4  -4   45.27    2.05
  -1  -4  -4   46.20    1.99
  -1  -4  -4   47.35    2.12
  -1   4  -4   47.05    2.03
   1   4   4   48.05    1.84
   1   4   4   49.96    2.05
  -1   4  -4   47.17    1.92
  -1   4  -4   45.13    1.72
  -2  -4  -4   61.28    2.30
  -2  -4  -4   63.24    2.66
  -2  -4  -4   61.14    1.99
   2  -4   4   63.99    1.99
  -2  -4  -4   66.17    2.86
  -2   4  -4   65.18    2.45
  -2   4  -4   61.96    2.47
   2   4   4   60.11    2.40
  -3  -4  -4    8.63    0.90
  -3  -4  -4    9.18    1.01
  -3  -4  -4    8.05    1.33
   3  -4   4    6.84    0.95
   3   4   4    8.38    0.81
  -3   4  -4   10.04    1.15
  -3   4  -4    8.50    0.82
  -4  -4  -4  113.74    3.71
  -4  -4  -4  110.84    4.42
   4  -4   4  113.74    3.73
  -4  -4  -4  109.53    4.05
  -4   4  -4  109.33    3.53
  -4   4  -4  114.48    3.71
  -4   4  -4  112.36    3.99
   4   4   4  114.31    3.74
  -5  -4  -4   78.02    3.48
   5  -4   4   76.91    2.89
  -5  -4  -4   80.88    3.15
  -5  -4  -4   83.07    2.91
  -5   4  -4   77.95    2.78
  -5   4  -4   77.12    2.76
   5   4   4   81.31    2.93
  -6  -4  -4    2.83    0.61
  -6  -4  -4    5.19    1.48
   6  -4   4    5.39    0.88
  -6  -4  -4    3.69    1.09
   6   4   4    5.01    0.85
  -6   4  -4    3.66    0.81
  -7  -4  -4    4.22    1.23
  -7  -4  -4    2.51    0.83
   7  -4   4    4.75    0.90
  -7  -4  -4    2.04    0.77
  -7   4  -4    4.32    0.86
   7   4   4    3.43    0.82
   9  -5  -4    2.74    1.30
  -9  -5   4    1.70    1.30
  -9  -5   4    0.62    1.36
  -9  -5   4    1.36    1.89
   9   5  -4   -0.99    1.18
  -9   5   4    1.35    0.90
   8  -5  -4   -0.39    0.78
  -8  -5   4    3.04    1.80
  -8  -5   4    0.07    1.26
  -8  -5   4    1.02    1.15
   8   5  -4   -0.39    1.11
   8   5  -4    0.96    0.82
  -8   5   4   -0.81    0.76
   7  -5  -4    1.40    0.84
  -7  -5   4    3.42    1.18
  -6  -5   4   98.47    4.17
  -6  -5   4  111.11    4.07
   6  -5  -4  109.15    4.09
  -6  -5   4  102.36    4.39
   6   5  -4  106.94    3.80
  -6   5   4  105.10    3.77
  -6   5   4  106.34    4.02
   6   5  -4  100.38    3.88
   6   5  -4  100.78    3.97
   5  -5  -4    0.82    0.65
   5  -5  -4    0.88    1.06
  -5  -5   4   -0.31    1.07
  -5  -5   4    2.33    1.54
  -5  -5   4   -0.07    0.92
   5   5  -4    0.54    1.01
  -5   5   4    0.63    0.93
   5   5  -4    1.78    0.77
   5   5  -4    1.29    0.86
  -5   5   4    1.18    0.74
  -4  -5   4   94.29    3.51
   4  -5  -4  100.94    3.51
  -4  -5   4   94.33    3.76
  -4  -5   4   98.87    3.92
   4  -5  -4   97.05    3.57
   4  -5  -4   95.26    3.52
   4   5  -4   98.04    3.72
  -4   5   4   95.43    3.67
   4   5  -4  101.67    3.60
   4   5  -4   96.49    3.69
  -4   5   4   94.87    3.66
  -3  -5   4    6.40    1.46
  -3  -5   4    7.61    1.00
   3  -5  -4    6.33    0.88
  -3  -5   4    6.12    0.87
   3  -5  -4    7.20    0.93
   3  -5  -4    7.96    1.16
   3   5  -4    9.41    1.14
   3   5  -4    9.17    1.02
  -3   5   4    8.67    1.19
   3   5  -4    8.93    1.28
  -3   5   4    9.27    1.22
   2  -5  -4  202.87    6.19
  -2  -5   4  209.67    6.45
   2  -5  -4  197.31    6.23
   2  -5  -4  199.28    6.25
  -2  -5   4  197.12    6.15
  -2  -5   4  197.10    6.16
   2   5  -4  206.29    6.34
   2   5  -4  191.44    6.16
  -2   5   4  191.87    6.14
  -2   5   4  201.96    6.28
   2   5  -4  199.26    6.27
  -1  -5   4    4.25    0.69
  -1  -5   4    6.99    0.94
  -1  -5   4    3.89    1.07
   1  -5  -4    9.18    1.01
   1  -5  -4    7.89    1.07
   1  -5  -4    9.36    1.12
   1  -5  -4    6.72    1.06
   1   5  -4    7.24    1.14
  -1   5   4    7.71    1.12
   1   5  -4    5.32    1.12
   1   5  -4    7.11    0.94
  -1   5   4    8.17    1.05
   0  -5   4  153.26    4.91
   0  -5   4  161.99    5.02
   0  -5  -4  160.65    5.15
   0  -5   4  157.37    4.96
   0  -5  -4  155.95    5.20
   0  -5  -4  166.27    5.25
   0  -5  -4  164.78    5.10
   0   5  -4  159.81    5.00
   0   5  -4  155.29    5.17
   0   5   4  163.68    5.21
   0   5  -4  163.54    5.25
   0   5   4  168.41    5.10
  -1  -5  -4   29.64    1.63
   1  -5   4   28.03    1.52
  -1  -5  -4   28.22    1.69
   1  -5   4   28.70    1.39
  -1  -5  -4   29.13    1.92
  -1  -5  -4   28.61    1.54
  -1   5  -4   27.86    1.92
  -1   5  -4   28.92    1.85
  -1   5  -4   29.61    1.45
   1   5   4   28.34    1.78
  -2  -5  -4   21.84    1.80
   2  -5   4   18.30    1.63
   2  -5   4   19.12    0.98
  -2  -5  -4   17.77    1.25
  -2  -5  -4   18.25    1.80
   2   5   4   18.21    1.30
  -2   5  -4   18.86    1.60
  -2   5  -4   16.50    1.38
  -3  -5  -4    6.33    1.37
  -3  -5  -4    6.26    0.81
   3  -5   4    6.33    1.07
  -3  -5  -4    6.76    1.22
   3   5   4    6.07    0.83
  -3   5  -4    6.53    0.86
  -3   5  -4    7.09    1.03
   4  -5   4  164.58    5.31
  -4  -5  -4  168.97    5.30
  -4  -5  -4  162.92    5.62
  -4  -5  -4  164.37    5.81
  -4   5  -4  160.31    5.20
  -4   5  -4  161.65    5.52
   4   5   4  165.75    5.32
   5  -5   4   23.83    1.77
  -5  -5  -4   25.92    2.08
  -5  -5  -4   21.98    2.22
  -5  -5  -4   21.56    1.62
  -5   5  -4   23.73    1.70
   5   5   4   26.13    1.74
  -6  -5  -4    2.39    0.85
   6  -5   4    1.93    0.96
  -6  -5  -4    3.33    1.55
  -6  -5  -4    3.01    1.18
  -6   5  -4    3.47    0.96
   6   5   4    2.24    0.88
  -7  -6   4   50.25    3.55
  -7  -6   4   47.91    2.84
   7  -6  -4   49.36    2.90
  -7  -6   4   47.94    2.73
  -7   6   4   49.85    2.84
   7   6  -4   51.34    2.95
   7   6  -4   44.04    2.26
   6  -6  -4    0.52    1.17
  -6  -6   4    0.07    1.24
  -6  -6   4    2.05    1.57
  -6  -6   4   -0.91    0.73
  -6  -6   4   -0.71    1.13
  -6   6   4    0.59    1.16
   6   6  -4    0.84    0.93
   6   6  -4   -0.59    1.10
   5  -6  -4   17.44    1.72
   5  -6  -4   16.27    1.41
  -5  -6   4   16.33    1.75
  -5  -6   4   17.00    2.10
  -5   6   4   16.82    1.51
   5   6  -4   13.55    1.42
   5   6  -4   12.80    1.60
  -5   6   4   15.14    1.57
   5   6  -4   14.08    1.31
  -4  -6   4   22.32    1.62
  -4  -6   4   20.67    1.73
   4  -6  -4   24.36    1.65
   4  -6  -4   23.37    1.79
  -4  -6   4   19.00    2.02
   4  -6  -4   26.00    2.14
   4   6  -4   22.69    2.00
   4   6  -4   25.69    1.81
  -4   6   4   24.09    1.74
   4   6  -4   23.26    1.92
  -4   6   4   24.73    2.06
   3  -6  -4  252.63    7.61
  -3  -6   4  233.25    7.61
  -3  -6   4  241.26    7.54
  -3  -6   4  235.19    7.62
   3  -6  -4  256.41    7.67
   3  -6  -4  239.39    7.49
   3   6  -4  241.03    7.50
   3   6  -4  247.20    7.52
  -3   6   4  234.08    7.52
  -3   6   4  243.28    7.54
   3   6  -4  245.00    7.60
  -2  -6   4   14.66    1.26
   2  -6  -4   15.90    1.35
   2  -6  -4   15.38    1.32
  -2  -6   4   18.95    1.75
   2  -6  -4   16.20    1.36
  -2  -6   4   14.30    1.26
   2   6  -4   16.33    1.54
   2   6  -4   15.62    1.44
   2   6  -4   17.82    1.64
  -2   6   4   16.74    1.55
  -2   6   4   16.77    1.51
   1  -6  -4    8.95    1.06
   1  -6  -4   14.04    1.39
  -1  -6   4   13.46    1.23
   1  -6  -4   15.86    1.47
  -1   6   4    6.31    0.94
   1   6  -4   14.03    1.26
   0  -6  -4    8.15    1.13
   0  -6   4    4.22    1.20
   0  -6  -4    7.01    1.11
   0  -6   4    5.75    0.91
   0  -6  -4    6.27    1.13
   0  -6  -4    6.95    1.22
   0   6  -4    8.49    1.08
   0   6   4    6.03    1.15
   0   6  -4    7.12    0.98
   0   6  -4    7.35    1.05
  -1  -6  -4  183.52    5.93
   1  -6   4  167.38    5.41
  -1  -6  -4  176.01    5.98
   1  -6   4  183.57    5.88
  -1  -6  -4  182.06    5.81
  -1   6  -4  184.26    5.89
   1   6   4  170.33    5.79
  -1   6  -4  172.49    5.81
   2  -6   4   50.66    2.50
  -2  -6  -4   42.57    2.13
  -2  -6  -4   45.92    2.59
  -2  -6  -4   41.83    2.32
  -2   6  -4   49.80    2.48
   2   6   4   45.09    2.20
  -2   6  -4   43.26    2.31
  -3  -6  -4   60.55    3.16
  -3  -6  -4   59.27    2.72
   3  -6   4   57.22    2.79
  -3  -6  -4   55.35    2.74
  -3   6  -4   61.98    2.79
  -3   6  -4   57.20    2.94
   3   6   4   58.88    2.76
  -4  -6  -4    1.11    0.99
   4  -6   4    1.13    0.75
  -4  -6  -4    2.19    0.95
  -4  -6  -4   -0.34    1.10
  -4   6  -4    0.91    1.03
   4   6   4    2.19    1.01
  -5  -6  -4   66.25    3.13
  -5  -6  -4   66.64    3.71
   5  -6   4   65.31    3.07
  -5  -6  -4   67.22    2.98
   5   6   4   65.71    3.04
  -5   6  -4   65.67    2.80
  -6  -7   4   21.89    2.06
  -6  -7   4   17.74    2.03
   6  -7  -4   21.36    2.10
  -6  -7   4   19.21    2.36
   6   7  -4   21.38    1.84
   6   7  -4   19.60    1.85
  -6   7   4   21.54    1.87
  -5  -7   4    9.37    1.36
  -5  -7   4   10.10    1.65
  -5  -7   4    9.30    1.54
  -5  -7   4   12.24    1.85
   5  -7  -4   11.27    1.69
  -5   7   4   11.98    1.44
  -5   7   4   11.58    1.35
   5   7  -4   13.35    1.52
   5   7  -4   13.20    1.69
  -4  -7   4   27.79    2.30
  -4  -7   4   28.86    2.08
  -4  -7   4   32.42    2.27
   4  -7  -4   32.28    2.44
   4  -7  -4   23.80    1.75
   4  -7  -4   29.94    1.93
  -4  -7   4   27.64    2.37
  -4   7   4   30.16    2.34
   4   7  -4   28.83    2.39
   4   7  -4   27.45    1.97
  -4   7   4   29.24    2.35
   4   7  -4   24.16    2.14
  -3  -7   4    2.77    1.34
  -3  -7   4    1.56    0.87
   3  -7  -4    1.93    0.80
  -3  -7   4    2.11    0.85
  -3  -7   4    2.66    1.13
   3  -7  -4    3.06    1.24
   3  -7  -4   -0.04    1.06
   3   7  -4    2.73    1.30
   3   7  -4    0.99    1.08
   3   7  -4    2.59    1.15
  -3   7   4    1.47    0.83
  -3   7   4    1.45    0.87
  -2  -7   4   46.26    2.34
   2  -7  -4   49.45    2.55
  -2  -7   4   44.42    2.47
   2  -7  -4   41.39    2.33
  -2  -7   4   44.70    2.45
   2  -7  -4   42.87    2.53
  -2  -7   4   44.43    2.45
  -2   7   4   42.53    2.55
  -2   7   4   45.29    2.41
   2   7  -4   42.41    2.62
   2   7  -4   45.85    2.78
   2   7  -4   42.72    2.48
   1  -7  -4   46.90    2.64
  -1  -7   4   50.71    2.46
   1  -7  -4   51.63    2.40
   1  -7  -4   48.23    2.65
   1  -7  -4   48.28    2.45
  -1  -7   4   52.18    2.91
  -1   7   4   47.16    2.75
   1   7  -4   44.61    2.45
   1   7  -4   48.87    2.81
   1   7  -4   45.49    2.46
   0  -7  -4    2.84    0.98
   0  -7  -4    2.92    0.88
   0  -7  -4    1.47    0.86
   0  -7   4    2.44    1.30
   0  -7   4    2.55    0.88
   0   7  -4    3.75    1.27
   0   7  -4    3.34    1.27
   0   7   4    2.42    0.87
   1  -7   4   29.30    1.68
  -1  -7  -4   30.27    2.30
   1  -7   4   30.84    2.37
  -1  -7  -4   28.55    2.09
  -1  -7  -4   26.89    2.11
  -1   7  -4   26.55    2.25
   1   7   4   25.44    2.20
  -1   7  -4   28.04    2.00
   2  -7   4   19.38    1.84
  -2  -7  -4   21.63    1.96
  -2  -7  -4   18.74    1.71
  -2  -7  -4   18.27    1.59
   2   7   4   15.67    1.49
  -2   7  -4   21.76    1.84
  -2   7  -4   17.79    1.57
  -3  -7  -4    2.78    0.91
  -3  -7  -4    4.11    1.10
   3  -7   4    4.63    1.02
  -3  -7  -4    5.62    1.21
  -3   7  -4    3.01    0.96
   3   7   4    3.60    0.95
  -3   7  -4    3.38    1.07
   4  -7   4   16.13    1.82
  -4  -7  -4   21.84    2.11
  -4  -7  -4   20.72    2.05
  -4  -7  -4   18.12    1.61
  -4   7  -4   19.52    1.83
   4   7   4   19.97    1.81
  -2  -8   4    2.67    1.20
   2  -8  -4    2.71    1.33
   2  -8  -4    2.13    0.93
  -2  -8   4    1.42    1.07
   2  -8  -4    0.35    1.22
   2   8  -4    0.67    1.31
   2   8  -4    3.19    1.45
  -2   8   4    3.93    1.43
   2   8  -4    1.04    1.44
   1  -8  -4   15.13    1.76
   1  -8  -4   15.73    1.77
  -1  -8   4   13.01    1.52
  -1  -8   4   12.02    1.82
   1   8  -4   14.94    1.84
   1   8  -4   15.13    1.87
  -1   8   4   13.92    1.57
   0  -8   4   12.84    1.36
   0  -8  -4   11.11    1.39
   0  -8   4   11.58    1.78
   0  -8  -4   11.09    1.43
   0   8  -4   12.24    1.76
   0   8   4    7.58    1.58
   0   8  -4   14.04    1.57
 -11   0   5   24.57    2.14
  11   0  -5   21.86    1.97
  11   0  -5   22.57    1.98
 -11   0   5   20.07    1.76
  11   0  -5   21.99    1.92
 -11   0   5   22.25    2.33
 -10   0   5   -1.06    0.73
 -10   0   5    0.60    1.72
  10   0  -5    1.67    1.01
  10   0  -5    0.41    0.75
 -10   0   5    0.18    0.74
  10   0  -5    0.53    1.22
   9   0  -5   58.32    2.60
  -9   0   5   53.93    2.53
  -9   0   5   53.74    3.57
   9   0  -5   56.65    3.11
   9   0  -5   57.92    2.68
  -9   0   5   57.80    2.87
  -8   0   5   -1.13    0.82
  -8   0   5   -1.02    0.66
   8   0  -5   -0.58    0.88
  -8   0   5    0.75    0.91
  -8   0   5   -0.67    1.14
   8   0  -5    0.04    0.78
   8   0  -5    1.08    0.88
   7   0  -5   50.83    2.32
   7   0  -5   49.77    2.35
  -7   0   5   51.47    2.44
   7   0  -5   50.73    2.24
  -7   0   5   50.99    2.41
  -7   0   5   51.11    2.22
   7   0  -5   49.66    2.46
   6   0  -5    0.21    0.97
  -6   0   5    0.73    0.78
   6   0  -5   -0.10    0.78
   6   0  -5   -0.46    0.56
  -6   0   5   -0.84    0.81
  -6   0   5   -0.23    0.60
   6   0  -5    0.01    0.79
  -5   0   5  222.57    6.65
   5   0  -5  221.94    6.72
   5   0  -5  228.88    6.74
   5   0  -5  223.71    6.70
  -5   0   5  225.73    6.67
  -5   0   5  225.92    6.65
   5   0  -5  222.98    6.92
   4   0  -5   -0.90    0.44
   4   0  -5   -1.01    0.61
  -4   0   5   -0.52    0.73
   4   0  -5   -0.26    0.54
  -4   0   5    0.55    0.62
   4   0  -5   -0.74    0.67
  -4   0   5   -0.61    0.59
   3   0  -5   10.67    1.03
   3   0  -5    9.58    0.79
  -3   0   5   11.05    0.86
   3   0  -5    8.09    0.88
   3   0  -5    9.93    0.79
  -3   0   5   10.80    0.83
  -3   0   5    9.65    0.81
   2   0  -5   -0.64    0.37
  -2   0   5    1.32    0.42
  -2   0   5   -0.02    0.31
  -2   0   5    0.70    0.58
   2   0  -5   -0.20    0.52
   2   0  -5    0.31    0.44
  -1   0   5  465.11   12.12
  -1   0   5  434.86   12.14
  -1   0   5  418.50   12.22
   1   0  -5  429.66   12.13
   1   0  -5  466.97   12.26
   1   0  -5  456.70   12.32
   0   0   5   -0.39    0.26
   0   0   5   -0.03    0.31
   0   0  -5   -0.26    0.29
   0   0  -5    0.00    0.27
   0   0   5   -0.11    0.16
   0   0  -5   -0.19    0.29
  -1   0  -5   93.83    3.29
  -1   0  -5   97.26    2.75
   1   0   5   99.64    2.75
  -1   0  -5   92.98    2.88
  -1   0  -5   97.03    2.76
   1   0   5   97.18    2.75
  -2   0  -5   -0.09    0.08
  -2   0  -5   -0.03    0.08
  -2   0  -5   -0.08    0.29
  -2   0  -5   -0.52    0.48
  -3   0  -5  492.14   14.05
  -3   0  -5  498.77   13.47
  -3   0  -5  492.63   13.58
  -4   0  -5    0.68    0.44
  -4   0  -5    0.31    0.82
  -5   0  -5  177.09    5.81
  -5   0  -5  175.02    5.11
   6   0   5   -0.17    0.22
  -6   0  -5   -0.18    0.71
  -7   0  -5   77.33    3.42
   7   0   5   72.67    2.31
  -8   0  -5   -0.19    0.80
   8   0   5   -0.68    0.46
  -8   0  -5   -0.28    0.38
  11  -1  -5    0.61    1.44
 -11  -1   5   -0.56    0.84
 -11  -1   5    2.88    1.91
 -11  -1   5    0.70    1.12
  11  -1  -5    0.38    1.15
 -11  -1   5    0.03    1.15
  11  -1  -5   -0.25    1.07
 -11   1   5    0.09    1.20
  11   1  -5   -0.48    0.90
 -11   1   5    2.22    1.60
 -11   1   5    0.23    1.14
  11   1  -5    0.25    1.18
  11   1  -5    1.24    1.19
  10  -1  -5   75.86    3.90
 -10  -1   5   75.00    3.57
  10  -1  -5   78.85    3.31
 -10  -1   5   80.13    3.48
 -10  -1   5   79.15    4.38
 -10   1   5   79.83    3.49
 -10   1   5   74.61    3.69
  10   1  -5   85.34    3.72
  10   1  -5   78.25    3.49
  10   1  -5   81.22    3.26
 -10   1   5   84.18    3.60
  -9  -1   5   10.21    1.45
   9  -1  -5   11.34    1.38
   9  -1  -5    9.70    1.67
  -9  -1   5    9.25    1.12
  -9  -1   5    9.93    1.70
  -9   1   5   10.33    1.94
   9   1  -5    9.83    1.18
   9   1  -5   10.51    1.28
  -9   1   5    9.11    1.42
  -9   1   5    8.49    1.30
   9   1  -5   10.50    1.26
   8  -1  -5   50.57    2.49
   8  -1  -5   53.72    2.66
  -8  -1   5   49.73    2.40
  -8  -1   5   50.71    3.45
  -8  -1   5   47.42    2.43
  -8   1   5   38.61    3.07
   8   1  -5   47.72    2.16
   8   1  -5   52.46    2.52
  -8   1   5   47.27    2.32
   8   1  -5   51.15    2.46
  -8   1   5   49.51    2.55
  -7  -1   5   43.10    2.20
  -7  -1   5   43.45    2.77
  -7  -1   5   43.40    2.26
   7  -1  -5   42.83    2.63
  -7  -1   5   40.47    2.25
   7  -1  -5   39.41    2.06
   7  -1  -5   44.57    2.24
   7   1  -5   41.90    2.39
  -7   1   5   42.98    2.27
   7   1  -5   44.14    2.24
   7   1  -5   46.70    2.16
   7   1  -5   41.01    1.96
  -7   1   5   40.72    1.96
  -6  -1   5  198.97    6.18
   6  -1  -5  201.16    6.15
   6  -1  -5  191.43    6.10
   6  -1  -5  196.07    6.47
  -6  -1   5  204.82    6.14
  -6  -1   5  205.68    6.14
  -6   1   5  209.83    6.16
   6   1  -5  198.92    6.19
   6   1  -5  195.67    6.16
   6   1  -5  200.55    6.28
  -6   1   5  201.23    6.15
   6   1  -5  196.21    6.12
   5  -1  -5    0.77    0.55
   5  -1  -5    0.32    0.53
  -5  -1   5    0.94    0.84
  -5  -1   5    0.35    0.52
   5  -1  -5    0.80    0.68
  -5  -1   5    0.08    0.49
   5   1  -5    0.25    0.83
   5   1  -5    0.24    0.53
   5   1  -5   -0.27    0.69
   5   1  -5   -0.01    0.71
  -5   1   5    0.97    0.80
  -5   1   5    0.64    0.74
  -4  -1   5   49.08    1.94
  -4  -1   5   50.54    2.17
   4  -1  -5   43.72    1.86
   4  -1  -5   47.75    2.04
   4  -1  -5   46.84    2.10
  -4  -1   5   48.08    1.88
   4   1  -5   48.06    2.01
   4   1  -5   46.52    2.01
  -4   1   5   46.86    1.86
   4   1  -5   46.62    1.92
  -4   1   5   49.98    2.10
   3  -1  -5   -1.02    0.38
   3  -1  -5    0.32    0.59
  -3  -1   5   -0.36    0.34
   3  -1  -5    0.51    0.55
  -3  -1   5    0.19    0.50
  -3  -1   5   -0.38    0.33
  -3   1   5   -0.76    0.52
  -3   1   5    0.16    0.64
   3   1  -5   -0.26    0.58
   3   1  -5   -0.69    0.50
   3   1  -5   -0.48    0.43
   2  -1  -5  333.35    9.44
  -2  -1   5  331.19    9.24
   2  -1  -5  336.52    9.31
   2  -1  -5  338.46    9.29
  -2  -1   5  325.82    9.16
  -2  -1   5  328.64    9.34
   2   1  -5  336.71    9.35
   2   1  -5  335.66    9.37
  -2   1   5  327.91    9.26
   2   1  -5  320.91    9.24
  -2   1   5  330.27    9.32
  -1  -1   5   97.30    2.96
   1  -1  -5  105.14    3.02
   1  -1  -5   94.30    3.03
  -1  -1   5  100.65    2.89
   1  -1  -5  103.69    3.23
  -1  -1   5  105.51    3.16
   1   1  -5  100.87    3.15
  -1   1   5   95.87    3.08
  -1   1   5  105.16    3.02
   1   1  -5   97.97    3.12
   1   1  -5   94.79    2.95
   0  -1  -5    6.09    0.52
   0  -1  -5    6.33    0.75
   0  -1   5    5.33    0.55
   0  -1  -5    5.15    0.71
   0  -1  -5    5.26    0.56
   0   1  -5    6.03    0.52
   0   1   5    6.10    0.53
   0   1  -5    5.73    0.57
   0   1  -5    6.25    0.51
  -1  -1  -5   22.05    1.09
  -1  -1  -5   22.45    0.87
   1  -1   5   21.04    0.89
  -1  -1  -5   23.14    1.32
  -1  -1  -5   22.30    0.93
   1  -1   5   23.65    0.87
  -1   1  -5   22.82    1.03
  -1   1  -5   23.46    0.84
   1   1   5   21.52    0.88
  -1   1  -5   21.24    0.91
   1   1   5   23.61    0.88
  -2  -1  -5  441.08   12.00
  -2  -1  -5  448.66   11.98
   2  -1   5  427.27   11.95
   2  -1   5  449.22   11.94
  -2  -1  -5  438.60   12.30
  -2  -1  -5  440.61   12.62
  -2   1  -5  453.36   12.22
   2   1   5  442.32   11.97
   2   1   5  437.82   11.98
  -2   1  -5  441.59   11.97
  -2   1  -5  441.85   11.94
  -3  -1  -5    0.03    0.17
  -3  -1  -5    0.89    0.86
  -3  -1  -5    0.02    0.35
   3  -1   5   -0.06    0.13
   3  -1   5    0.40    0.11
  -3  -1  -5    0.21    0.16
  -3   1  -5    0.22    0.13
   3   1   5    0.12    0.17
  -3   1  -5    0.21    0.41
  -3   1  -5    0.14    0.16
   3   1   5    0.14    0.18
  -3   1  -5   -0.05    0.70
  -4  -1  -5    2.33    0.58
  -4  -1  -5    1.19    0.98
  -4  -1  -5    2.07    0.26
  -4  -1  -5    2.04    0.23
   4   1   5    2.11    0.25
  -4   1  -5    2.22    0.19
   4   1   5    2.14    0.23
  -4   1  -5    2.49    0.50
  -4   1  -5    1.44    0.81
  -4   1  -5    2.41    0.19
  -5  -1  -5   60.71    2.17
  -5  -1  -5   60.58    2.84
  -5   1  -5   53.89    1.67
  -5   1  -5   62.52    2.61
   5   1   5   54.35    1.72
  -6  -1  -5  154.73    4.42
  -6  -1  -5  156.27    4.78
   6  -1   5  153.02    4.36
  -6  -1  -5  158.02    5.44
   6   1   5  152.06    4.42
  -6   1  -5  154.97    4.37
  -6   1  -5  159.06    5.28
  -7  -1  -5   19.08    0.94
  -7  -1  -5   18.76    1.78
   7  -1   5   19.10    0.98
  -7   1  -5   18.77    0.92
  -7   1  -5   18.74    1.79
   7   1   5   17.24    0.94
   8  -1   5    3.18    0.60
  -8  -1  -5    3.20    0.55
  -8  -1  -5    2.84    1.40
  -8   1  -5    2.31    1.18
   8   1   5    2.44    0.62
  10  -2  -5    8.07    1.43
 -10  -2   5    8.52    1.18
 -10  -2   5    8.79    1.30
  10  -2  -5    8.91    1.82
 -10  -2   5    5.96    2.16
 -10   2   5    8.18    1.49
  10   2  -5    8.26    1.03
 -10   2   5    8.06    1.78
  10   2  -5    9.03    1.21
   9  -2  -5  120.92    4.41
   9  -2  -5  127.48    4.95
  -9  -2   5  109.92    4.30
  -9  -2   5  115.39    5.28
  -9   2   5  107.40    4.40
   9   2  -5  113.54    4.23
   9   2  -5  118.58    4.12
  -9   2   5  113.64    4.25
  -8  -2   5    2.17    1.80
   8  -2  -5    1.01    1.30
   8  -2  -5    2.22    1.03
  -8   2   5    1.85    1.40
   8   2  -5    1.36    0.72
  -8   2   5    2.33    0.90
  -8   2   5    0.58    1.02
   8   2  -5    1.22    0.85
   7  -2  -5    6.53    1.14
  -7  -2   5    5.39    1.50
  -7  -2   5    8.89    1.22
  -7  -2   5    7.99    1.17
   7  -2  -5    5.84    1.03
   7  -2  -5    6.15    1.17
   7   2  -5    6.45    1.13
   7   2  -5    5.38    0.89
   7   2  -5    6.97    1.03
  -7   2   5    6.86    0.95
  -7   2   5    5.70    0.86
  -6  -2   5    3.88    1.08
   6  -2  -5    4.99    1.05
  -6  -2   5    2.64    0.95
   6  -2  -5    2.81    0.90
   6  -2  -5    3.25    1.22
  -6  -2   5    3.94    0.75
   6   2  -5    3.12    0.87
   6   2  -5    3.85    0.80
  -6   2   5    3.28    0.98
  -6   2   5    3.43    0.75
   6   2  -5    2.47    0.95
   5  -2  -5  359.65   10.33
  -5  -2   5  356.20   10.32
   5  -2  -5  364.05   10.30
  -5  -2   5  356.25   10.31
   5  -2  -5  353.20   10.59
   5   2  -5  370.70   10.37
  -5   2   5  350.32   10.26
   5   2  -5  357.41   10.25
   5   2  -5  348.04   10.28
  -5   2   5  362.99   10.32
   4  -2  -5   11.62    1.08
   4  -2  -5   11.93    1.10
  -4  -2   5   11.93    1.21
   4  -2  -5   13.22    1.17
  -4  -2   5   10.68    0.97
  -4   2   5   12.87    1.15
   4   2  -5   11.13    1.04
  -4   2   5   13.12    1.03
   4   2  -5   11.85    1.06
   4   2  -5   12.64    1.13
   3  -2  -5  157.53    4.79
   3  -2  -5  149.23    4.89
  -3  -2   5  159.36    4.81
  -3  -2   5  157.49    4.73
   3  -2  -5  153.15    4.71
   3   2  -5  154.72    4.76
   3   2  -5  156.14    4.78
   3   2  -5  154.92    4.74
  -3   2   5  155.89    4.75
   2  -2  -5    2.60    0.49
  -2  -2   5    2.25    0.53
   2  -2  -5    2.04    0.62
  -2  -2   5    3.17    0.78
   2  -2  -5    2.15    0.73
   2   2  -5    2.07    0.52
  -2   2   5    1.88    0.50
   2   2  -5    3.05    0.70
   2   2  -5    2.24    0.53
   1  -2  -5  131.09    4.13
   1  -2  -5  131.62    4.00
   1  -2  -5  130.34    4.04
  -1  -2   5  131.41    3.90
  -1  -2   5  141.10    4.14
   1  -2  -5  134.13    4.16
   1   2  -5  131.76    3.93
  -1   2   5  135.08    4.06
   1   2  -5  133.50    4.11
   1   2  -5  133.44    4.05
   0  -2  -5    3.87    0.73
   0  -2  -5    4.23    0.56
   0  -2   5    4.55    0.65
   0  -2  -5    5.06    0.47
   0  -2  -5    4.48    0.55
   0  -2  -5    5.22    0.89
   0   2  -5    4.57    0.59
   0   2  -5    4.28    0.36
   0   2  -5    3.59    0.59
   0   2   5    4.80    0.59
  -1  -2  -5  120.75    3.91
  -1  -2  -5  118.51    4.13
  -1  -2  -5  122.28    3.64
  -1  -2  -5  124.65    3.69
   1  -2   5  122.22    3.69
  -1   2  -5  125.24    3.68
  -1   2  -5  124.31    3.86
  -1   2  -5  124.09    3.61
   1   2   5  122.58    3.66
   2  -2   5   13.49    0.71
   2  -2   5   14.19    0.96
  -2  -2  -5   12.64    1.20
  -2  -2  -5   12.64    0.61
  -2  -2  -5   13.56    0.77
  -2  -2  -5   13.35    1.15
  -2  -2  -5   13.90    0.86
  -2   2  -5   15.12    0.45
  -2   2  -5   15.33    1.12
   2   2   5   13.03    0.82
   2   2   5   13.50    0.79
  -2   2  -5   18.19    0.93
  -2   2  -5   13.53    0.70
  -3  -2  -5    2.83    0.44
   3  -2   5    3.64    0.42
  -3  -2  -5    3.10    0.72
  -3  -2  -5    3.04    0.79
  -3  -2  -5    3.13    0.42
  -3   2  -5    3.27    0.27
  -3   2  -5    2.91    0.39
  -3   2  -5    2.38    0.38
   3   2   5    3.41    0.44
   3   2   5    3.09    0.40
  -3   2  -5    2.78    0.66
  -4  -2  -5    0.06    0.72
  -4  -2  -5    0.27    0.62
  -4  -2  -5    1.66    0.35
  -4   2  -5    0.92    0.68
   4   2   5    1.32    0.41
  -4   2  -5    1.52    0.33
  -4   2  -5    2.82    0.67
  -4   2  -5    1.34    0.40
  -5  -2  -5   29.36    1.23
  -5  -2  -5   32.50    1.68
  -5  -2  -5   31.15    1.98
  -5   2  -5   31.02    1.73
   5   2   5   28.87    1.24
  -6  -2  -5    1.29    0.90
   6  -2   5    0.20    0.43
  -6  -2  -5    0.04    0.34
  -6  -2  -5    0.79    0.70
  -6   2  -5    0.23    0.36
  -6   2  -5    0.91    0.76
   6   2   5    0.24    0.43
   7  -2   5    1.69    0.56
  -7  -2  -5    2.11    1.05
  -7  -2  -5    1.29    0.75
  -7  -2  -5    1.61    0.54
  -7   2  -5    1.65    0.46
  -7   2  -5    1.47    0.87
   7   2   5    2.48    0.59
  -8  -2  -5   -0.51    1.41
   8  -2   5    0.43    0.59
  -8  -2  -5    0.92    0.58
  -8   2  -5    1.96    0.58
   8   2   5    1.23    0.54
  10  -3  -5    0.77    1.19
 -10  -3   5    2.27    1.96
 -10  -3   5    1.85    1.38
  10  -3  -5    2.30    1.70
 -10  -3   5    0.70    1.15
  10   3  -5    1.49    0.93
 -10   3   5   -0.02    1.17
  10   3  -5    0.29    1.17
  -9  -3   5   15.84    1.68
  -9  -3   5   17.77    2.53
   9  -3  -5   24.33    2.08
  -9  -3   5   15.12    1.58
   9   3  -5   17.71    1.35
   9   3  -5   14.09    1.60
  -9   3   5   13.63    1.45
  -8  -3   5   32.87    3.00
  -8  -3   5   33.59    1.97
   8  -3  -5   32.58    2.01
  -8  -3   5   36.85    2.50
   8   3  -5   37.83    2.31
  -8   3   5   40.11    2.34
  -8   3   5   32.11    2.39
   8   3  -5   36.24    2.00
   7  -3  -5    1.11    0.85
  -7  -3   5   -1.48    0.89
   7  -3  -5   -1.36    0.93
  -7  -3   5   -1.26    1.76
  -7   3   5    2.50    1.04
   7   3  -5    0.02    0.68
   7   3  -5    1.58    0.65
  -7   3   5   -0.30    0.61
   7   3  -5   -0.93    0.61
   6  -3  -5   48.65    2.27
   6  -3  -5   43.85    2.35
  -6  -3   5   45.02    2.91
  -6  -3   5   44.90    2.12
  -6   3   5   45.30    2.10
   6   3  -5   46.21    2.19
   6   3  -5   45.26    2.36
  -6   3   5   47.22    2.38
   6   3  -5   46.02    2.36
   5  -3  -5   22.63    1.62
   5  -3  -5   22.73    1.75
  -5  -3   5   23.89    1.45
  -5  -3   5   23.38    2.37
  -5   3   5   23.78    1.78
  -5   3   5   24.89    1.74
   5   3  -5   22.92    1.52
   5   3  -5   25.39    1.62
   5   3  -5   24.78    1.48
   4  -3  -5   29.42    1.57
   4  -3  -5   30.13    1.55
  -4  -3   5   30.57    1.71
   4   3  -5   32.24    1.58
   4   3  -5   29.27    1.54
   4   3  -5   32.12    1.90
  -4   3   5   30.77    1.85
   3  -3  -5    1.33    0.55
  -3  -3   5    0.75    0.47
   3  -3  -5    1.69    0.76
   3   3  -5    0.50    0.82
  -3   3   5    1.72    0.61
   3   3  -5    1.23    0.58
   3   3  -5    0.73    0.67
   2  -3  -5   39.30    1.80
   2  -3  -5   38.97    1.82
  -2  -3   5   39.29    1.67
   2  -3  -5   37.88    1.75
   2   3  -5   38.99    1.69
   2   3  -5   41.11    1.95
  -2   3   5   40.53    1.86
   2   3  -5   39.49    1.89
   1  -3  -5    2.04    0.64
   1  -3  -5    1.59    0.65
   1  -3  -5    1.26    0.57
  -1  -3   5    0.91    0.34
  -1   3   5    1.73    0.68
   1   3  -5    3.13    0.77
   0  -3   5   10.02    0.70
   0  -3  -5   10.57    1.17
   0  -3  -5   10.34    0.93
   0  -3  -5   10.00    0.87
   0  -3  -5   10.21    0.78
   0  -3  -5   10.20    1.03
   0   3  -5    9.45    0.91
   0   3  -5    9.41    0.88
   0   3  -5   10.41    0.72
   0   3   5    9.16    0.87
  -1  -3  -5  116.66    3.95
  -1  -3  -5  118.47    3.76
  -1  -3  -5  122.66    3.56
  -1  -3  -5  124.92    4.25
   1   3   5  123.57    3.80
  -1   3  -5  120.49    3.80
  -1   3  -5  122.92    4.00
  -2  -3  -5   82.68    2.91
  -2  -3  -5   82.07    3.13
  -2  -3  -5   79.67    2.65
   2  -3   5   78.01    2.35
   2   3   5   79.57    2.67
  -2   3  -5   76.99    2.90
  -2   3  -5   78.53    2.66
  -3  -3  -5    0.58    0.55
  -3  -3  -5    0.84    0.48
  -3  -3  -5    3.14    1.11
   3   3   5    1.07    0.52
  -3   3  -5    1.28    0.35
  -3   3  -5    0.56    0.51
  -3   3  -5    0.43    0.74
  -4  -3  -5    0.39    0.55
  -4  -3  -5   -0.06    0.74
  -4  -3  -5   -0.62    0.43
   4   3   5    0.11    0.58
  -4   3  -5    0.67    0.72
  -4   3  -5    0.16    0.48
  -5  -3  -5   37.27    1.57
  -5  -3  -5   36.16    2.53
  -5  -3  -5   37.01    2.02
   5  -3   5   36.00    1.66
  -5   3  -5   37.81    1.64
   5   3   5   38.65    1.62
  -6  -3  -5    1.80    0.53
   6  -3   5    0.32    0.54
  -6  -3  -5    6.67    1.51
   6   3   5    0.47    0.51
  -6   3  -5    0.85    0.53
  -7  -3  -5   31.34    1.63
  -7  -3  -5   30.79    2.74
  -7  -3  -5   30.83    1.99
   7  -3   5   34.07    1.69
  -7   3  -5   32.44    1.62
   7   3   5   33.80    1.71
   9  -4  -5    6.39    1.13
  -9  -4   5    7.88    2.18
  -9  -4   5    4.28    1.16
  -9  -4   5    4.42    1.32
   9   4  -5    5.65    1.09
   9   4  -5    5.38    1.35
  -9   4   5    3.31    1.28
  -8  -4   5   38.88    3.39
  -8  -4   5   31.61    2.18
  -8  -4   5   36.56    2.12
   8  -4  -5   38.71    2.47
   8   4  -5   33.78    2.04
  -8   4   5   32.96    2.38
   8   4  -5   31.79    2.06
  -7  -4   5    2.45    1.09
  -7  -4   5    2.63    0.98
   7  -4  -5    2.20    0.83
  -7  -4   5    2.35    1.83
  -7   4   5    1.80    0.83
   7   4  -5    1.29    0.90
  -7   4   5    2.83    1.03
   7   4  -5    1.47    1.24
   7   4  -5    2.38    0.86
   6  -4  -5    4.46    1.02
  -6  -4   5    6.55    1.96
   6  -4  -5    4.98    1.15
  -6  -4   5    3.18    0.95
  -6  -4   5    5.25    0.93
   6   4  -5    5.00    0.94
   6   4  -5    3.20    1.00
  -6   4   5    4.30    1.10
   6   4  -5    4.18    1.08
  -6   4   5    4.25    0.91
  -5  -4   5    1.23    0.67
   5  -4  -5    0.98    0.96
  -5  -4   5    1.21    1.74
  -5  -4   5    2.12    1.14
   5  -4  -5    1.00    0.89
   5   4  -5    2.29    0.79
   5   4  -5    0.78    0.64
   5   4  -5   -0.37    0.90
  -5   4   5    2.54    1.02
  -4  -4   5   31.60    1.85
  -4  -4   5   32.79    1.88
  -4  -4   5   36.09    2.96
   4  -4  -5   32.40    1.76
   4  -4  -5   33.28    1.94
   4   4  -5   35.60    1.78
  -4   4   5   37.50    2.08
   4   4  -5   30.52    2.08
   4   4  -5   34.65    1.95
   3  -4  -5   14.49    1.22
  -3  -4   5   16.33    1.15
  -3  -4   5   14.45    1.28
   3  -4  -5   15.94    1.33
   3  -4  -5   16.16    1.31
   3   4  -5   15.01    1.39
  -3   4   5   19.72    1.65
   3   4  -5   17.70    1.47
   3   4  -5   15.25    1.33
   2  -4  -5   31.87    1.78
   2  -4  -5   32.89    1.87
  -2   4   5   31.05    1.85
   1  -4  -5   36.68    1.96
   1  -4  -5   44.27    2.07
  -1  -4   5   39.80    1.70
   1  -4  -5   37.13    1.74
   1  -4  -5   39.04    1.85
  -1  -4   5   39.52    1.68
  -1   4   5   38.62    1.80
   1   4  -5   38.95    2.03
   1   4  -5   38.50    1.72
   1   4  -5   40.00    1.86
   0  -4  -5  124.51    4.02
   0  -4  -5  121.88    4.16
   0  -4  -5  122.92    3.93
   0  -4   5  122.67    3.81
   0  -4   5  125.01    3.91
   0  -4  -5  123.88    4.30
   0   4  -5  125.57    3.86
   0   4  -5  130.99    4.26
   0   4  -5  126.71    4.14
   0   4   5  125.21    4.02
  -1  -4  -5   14.77    1.24
   1  -4   5   14.47    0.92
  -1  -4  -5   16.19    1.48
  -1  -4  -5   13.11    1.03
  -1  -4  -5   14.11    0.99
  -1  -4  -5   13.77    1.25
  -1   4  -5   15.64    1.35
  -1   4  -5   15.28    1.20
   1   4   5   14.14    1.07
   2  -4   5   28.78    1.11
  -2  -4  -5   25.12    1.80
  -2  -4  -5   26.94    2.04
  -2  -4  -5   28.84    1.54
   2   4   5   29.59    1.59
  -2   4  -5   26.89    1.56
  -2   4  -5   29.16    1.59
  -3  -4  -5   20.14    1.35
  -3  -4  -5   22.05    1.49
  -3  -4  -5   21.63    1.72
  -3   4  -5   21.64    1.40
  -3   4  -5   21.70    1.45
   3   4   5   21.58    1.41
   4  -4   5   86.75    3.04
  -4  -4  -5   83.93    3.40
  -4  -4  -5   82.39    3.57
  -4  -4  -5   86.54    3.01
   4   4   5   81.14    3.01
  -4   4  -5   89.66    3.36
  -4   4  -5   82.53    3.00
   5  -4   5   37.48    1.83
  -5  -4  -5   32.79    1.96
  -5  -4  -5   38.49    1.79
  -5  -4  -5   37.63    2.76
   5   4   5   37.35    1.83
  -6  -4  -5    1.58    0.78
   6  -4   5    0.88    0.74
  -6  -4  -5    1.78    0.69
  -6  -4  -5    3.38    1.50
   6   4   5    3.05    0.76
  -6   4  -5    3.00    0.76
   7  -4   5    7.31    1.00
  -7  -4  -5    7.29    1.12
  -7  -4  -5    7.07    0.98
  -7  -4  -5    7.38    1.85
   7   4   5    7.71    1.00
  -7   4  -5    8.39    1.13
   8  -5  -5    2.72    1.29
  -8  -5   5    5.77    1.35
  -8  -5   5    2.06    1.88
  -8  -5   5    4.91    1.18
   8   5  -5    2.82    1.01
  -8   5   5    2.90    1.25
   8   5  -5    2.05    1.24
  -7  -5   5  180.68    6.27
   7  -5  -5  177.12    6.16
  -7  -5   5  186.37    6.24
  -7  -5   5  182.25    6.73
   7   5  -5  178.12    5.93
   7   5  -5  192.25    6.29
  -7   5   5  175.97    6.05
   6  -5  -5    1.99    0.74
  -6  -5   5    1.44    1.09
  -6  -5   5    0.44    1.22
  -6  -5   5    1.67    1.71
   6  -5  -5    1.81    0.83
   6   5  -5    1.11    0.97
  -6   5   5    2.57    1.10
   6   5  -5    1.38    0.84
   6   5  -5    2.07    0.83
   5  -5  -5   53.97    2.58
  -5  -5   5   54.19    2.85
   5  -5  -5   55.47    2.52
  -5  -5   5   54.27    2.67
  -5  -5   5   54.57    3.03
   5   5  -5   51.36    2.47
   5   5  -5   55.10    2.80
  -5   5   5   54.87    2.69
   5   5  -5   55.88    2.42
  -4  -5   5    6.34    1.25
  -4  -5   5    5.56    0.87
   4  -5  -5    6.72    1.13
   4  -5  -5    7.28    0.99
  -4  -5   5    7.63    1.70
   4  -5  -5    6.18    1.10
   4   5  -5    6.87    1.16
  -4   5   5    5.76    0.94
  -4   5   5    8.10    1.19
   4   5  -5    4.85    1.06
   4   5  -5    3.80    0.94
   3  -5  -5  121.00    4.31
   3  -5  -5  126.04    4.30
  -3  -5   5  128.41    4.88
  -3  -5   5  124.17    4.24
   3  -5  -5  125.87    4.41
  -3  -5   5  125.78    4.34
   3   5  -5  124.62    4.38
  -3   5   5  131.52    4.49
  -3   5   5  127.39    4.29
   3   5  -5  127.26    4.36
   3   5  -5  133.52    4.47
   2  -5  -5    2.93    0.96
  -2  -5   5    3.20    0.63
   2  -5  -5    3.56    0.79
   2  -5  -5    3.47    0.96
  -2  -5   5    3.46    1.00
  -2  -5   5    2.41    0.70
  -2   5   5    2.72    0.87
  -2   5   5    5.21    1.08
   2   5  -5    2.87    1.07
   2   5  -5    2.62    1.01
   2   5  -5    2.07    0.83
   1  -5  -5  163.06    5.26
  -1  -5   5  164.43    5.42
   1  -5  -5  160.85    5.17
  -1  -5   5  166.54    5.15
   1  -5  -5  156.62    5.33
   1  -5  -5  160.37    5.26
  -1  -5   5  162.90    5.08
   1   5  -5  164.01    5.09
   1   5  -5  160.89    5.23
  -1   5   5  163.80    5.32
   1   5  -5  159.05    5.34
  -1   5   5  157.49    5.13
   0  -5  -5    9.98    1.13
   0  -5  -5    9.41    1.25
   0  -5  -5   11.10    1.27
   0  -5   5    9.39    0.84
   0  -5  -5   11.57    0.98
   0   5   5    7.27    1.09
   0   5  -5    9.39    0.89
   0   5  -5    9.02    1.07
   0   5  -5   10.48    1.25
  -1  -5  -5   56.90    2.65
   1  -5   5   51.65    1.99
  -1  -5  -5   51.33    2.46
  -1  -5  -5   53.94    2.24
   1   5   5   50.52    2.23
  -1   5  -5   65.18    2.68
  -1   5  -5   47.99    2.24
  -2  -5  -5   21.77    1.62
  -2  -5  -5   23.79    2.06
  -2  -5  -5   24.33    1.42
  -2   5  -5   23.44    1.70
  -2   5  -5   23.16    1.61
   2   5   5   20.90    1.41
  -3  -5  -5   65.38    3.18
  -3  -5  -5   57.19    2.69
  -3  -5  -5   58.53    2.54
   3  -5   5   59.73    2.64
  -3   5  -5   58.99    2.43
  -3   5  -5   61.39    2.87
   3   5   5   61.28    2.60
  -4  -5  -5    8.08    1.37
   4  -5   5    7.13    1.12
  -4  -5  -5    7.93    0.92
  -4  -5  -5    8.40    1.59
  -4   5  -5    7.75    1.09
   4   5   5    8.17    1.11
  -4   5  -5    9.73    1.37
  -5  -5  -5   13.29    1.69
  -5  -5  -5   12.64    1.23
   5  -5   5   14.67    1.34
  -5  -5  -5   14.20    1.45
  -5   5  -5   13.90    1.31
   5   5   5   12.61    1.28
   6  -5   5   10.30    1.26
  -6  -5  -5   14.41    1.50
  -6  -5  -5   12.02    2.03
  -6  -5  -5   13.04    1.27
   6   5   5   11.35    1.28
  -6   5  -5   11.12    1.24
   7  -6  -5    4.03    1.36
  -7  -6   5    3.55    1.91
  -7  -6   5    4.77    1.33
  -7  -6   5    1.71    1.37
  -7   6   5    3.53    1.36
   7   6  -5    2.58    1.12
   7   6  -5    3.93    1.36
  -6  -6   5   44.06    2.36
  -6  -6   5   41.75    3.26
   6  -6  -5   37.65    2.30
  -6  -6   5   34.70    2.37
   6   6  -5   40.66    2.67
  -6   6   5   39.04    2.54
   6   6  -5   42.55    2.43
  -5  -6   5   25.02    1.94
  -5  -6   5   26.68    2.11
   5  -6  -5   24.27    1.73
  -5  -6   5   24.73    2.23
   5  -6  -5   24.84    1.86
   5   6  -5   25.35    1.94
   5   6  -5   27.10    2.31
  -5   6   5   25.83    2.18
  -5   6   5   26.33    2.14
   5   6  -5   25.19    1.88
   4  -6  -5  188.22    6.16
  -4  -6   5  188.16    6.08
  -4  -6   5  187.73    6.41
   4  -6  -5  181.65    6.10
   4  -6  -5  189.48    6.19
  -4  -6   5  187.90    6.30
  -4   6   5  189.77    6.22
   4   6  -5  183.51    6.18
   4   6  -5  184.48    6.18
  -4   6   5  187.09    6.13
   4   6  -5  181.31    6.16
  -3  -6   5   20.13    1.82
  -3  -6   5   19.96    1.61
  -3  -6   5   20.87    1.53
   3  -6  -5   25.20    1.91
   3  -6  -5   22.49    2.04
   3  -6  -5   22.33    1.95
   3   6  -5   23.62    1.82
  -3   6   5   24.52    2.09
   3   6  -5   24.69    2.04
   3   6  -5   23.81    1.90
  -3   6   5   23.14    1.63
   2  -6  -5    2.49    1.07
   2  -6  -5    0.54    0.72
  -2  -6   5   -0.29    1.04
   2  -6  -5    3.04    1.05
  -2  -6   5    0.42    0.62
  -2  -6   5    2.64    0.88
  -2   6   5    2.50    1.10
   2   6  -5    1.24    1.14
  -2   6   5    3.37    1.00
   2   6  -5    2.75    0.89
   2   6  -5    2.14    0.68
  -1  -6   5    2.38    0.98
  -1  -6   5    3.05    0.71
   1  -6  -5    2.58    1.08
   1  -6  -5    3.63    1.00
   1  -6  -5    3.54    0.97
   1  -6  -5    2.75    0.80
  -1   6   5    3.73    0.88
   1   6  -5    2.44    0.88
   1   6  -5    2.01    1.12
   1   6  -5    2.23    0.66
   0  -6   5  195.02    5.92
   0  -6  -5  187.14    6.33
   0  -6  -5  185.62    6.09
   0  -6  -5  191.48    6.25
   0   6  -5  188.18    6.29
   0   6   5  191.76    6.14
   0   6  -5  194.23    6.24
  -1  -6  -5   16.26    1.65
   1  -6   5   11.86    1.48
  -1  -6  -5   16.27    1.64
   1  -6   5   14.46    1.15
  -1  -6  -5   13.50    1.41
  -1   6  -5   17.29    1.65
  -1   6  -5   14.94    1.35
   1   6   5   14.92    1.46
  -2  -6  -5   11.76    1.59
  -2  -6  -5   10.72    1.28
   2  -6   5   10.65    1.39
  -2  -6  -5   12.00    1.58
   2   6   5   11.79    1.35
  -2   6  -5   11.81    1.31
  -2   6  -5   12.15    1.42
  -3  -6  -5    2.62    1.23
   3  -6   5    0.46    1.04
  -3  -6  -5    1.44    0.95
  -3  -6  -5    3.65    1.06
   3   6   5    1.53    1.00
  -3   6  -5    1.62    1.16
  -3   6  -5    0.99    0.70
  -4  -6  -5   23.76    1.94
   4  -6   5   25.03    2.05
  -4  -6  -5   28.10    1.96
  -4  -6  -5   27.15    2.17
  -4   6  -5   26.36    1.96
  -4   6  -5   28.37    1.97
   4   6   5   28.10    2.05
  -5  -6  -5    0.83    0.70
   5  -6   5   -0.44    1.01
  -5  -6  -5    1.64    1.28
  -5  -6  -5    1.45    1.53
   5   6   5    1.44    1.00
  -5   6  -5    0.08    1.00
  -5  -7   5   -0.43    1.20
  -5  -7   5   -0.52    1.13
  -5  -7   5   -0.21    1.31
  -5  -7   5    3.13    1.52
   5  -7  -5   -0.58    1.26
   5   7  -5   -0.08    1.07
  -5   7   5    0.75    0.87
   5   7  -5   -2.12    1.22
   5   7  -5    0.30    1.16
  -5   7   5   -0.25    0.84
  -4  -7   5    0.84    1.00
  -4  -7   5    1.32    0.95
  -4  -7   5   -0.22    0.81
   4  -7  -5   -0.31    0.75
   4  -7  -5   -0.08    1.19
   4  -7  -5    0.71    1.11
  -4  -7   5    1.46    1.11
   4   7  -5    0.62    0.83
  -4   7   5   -2.08    1.08
   4   7  -5    0.71    1.26
   4   7  -5    1.57    0.85
  -4   7   5    3.17    1.31
   3  -7  -5   32.15    2.35
  -3  -7   5   32.12    2.36
  -3  -7   5   31.30    2.26
   3  -7  -5   33.30    2.05
  -3  -7   5   34.20    2.24
   3  -7  -5   30.95    2.40
   3   7  -5   34.75    2.30
   3   7  -5   28.12    2.49
   3   7  -5   28.30    2.04
  -3   7   5   33.10    2.36
  -3   7   5   33.84    2.49
   2  -7  -5   34.29    2.36
  -2  -7   5   32.99    1.95
  -2  -7   5   33.70    2.57
  -2  -7   5   32.11    2.60
   2  -7  -5   34.88    2.37
   2  -7  -5   32.56    2.37
   2   7  -5   34.94    2.14
   2   7  -5   33.35    2.18
   2   7  -5   35.57    2.25
  -2   7   5   38.87    2.53
   1  -7  -5   12.06    1.57
  -1  -7   5    8.59    1.20
  -1  -7   5    8.18    1.27
   1  -7  -5   16.14    1.65
   1  -7  -5    9.36    1.23
  -1   7   5   10.94    1.51
   1   7  -5   12.96    1.58
   1   7  -5    8.58    1.53
   0  -7   5   11.67    1.23
   0  -7  -5   10.05    1.24
   0  -7  -5    9.30    1.37
   0  -7  -5   11.30    1.57
   0  -7   5   11.09    1.62
   0   7  -5   11.80    1.65
   0   7   5    9.15    1.25
   0   7  -5   11.04    1.61
  -1  -7  -5   83.06    3.57
  -1  -7  -5   73.81    3.58
  -1  -7  -5   80.33    3.46
   1  -7   5   79.22    3.34
   1   7   5   82.13    3.52
  -1   7  -5   70.67    3.23
  -1   7  -5   73.31    3.34
  -2  -7  -5    2.43    1.12
  -2  -7  -5    0.63    0.87
   2  -7   5    1.16    1.20
  -2  -7  -5    1.55    1.26
  -2   7  -5   -0.43    0.87
   2   7   5    3.11    1.16
  -2   7  -5    1.84    1.21
  -3  -7  -5   18.02    1.78
  -3  -7  -5   23.19    2.22
   3  -7   5   17.09    1.80
  -3  -7  -5   17.52    1.93
   3   7   5   18.78    1.81
  -3   7  -5   16.85    1.73
  -3   7  -5   21.36    1.91
  11   0  -6   -1.35    1.00
 -11   0   6    0.34    0.83
  11   0  -6    0.92    0.87
 -11   0   6   -2.37    1.82
  11   0  -6    0.16    1.35
 -11   0   6   -1.65    0.78
  10   0  -6   46.44    3.05
 -10   0   6   42.79    2.37
 -10   0   6   45.19    3.56
  10   0  -6   48.56    2.35
 -10   0   6   43.43    2.69
  10   0  -6   43.72    2.42
  -9   0   6    0.46    0.73
  -9   0   6   -0.48    0.73
   9   0  -6    0.54    0.71
   9   0  -6    0.26    0.83
   9   0  -6    0.76    1.01
  -9   0   6   -0.98    1.73
  -8   0   6   37.86    2.28
   8   0  -6   34.68    2.08
   8   0  -6   35.46    1.99
  -8   0   6   36.46    2.20
   8   0  -6   37.81    2.20
  -8   0   6   34.97    2.19
   8   0  -6   38.11    2.27
  -7   0   6    0.67    0.94
   7   0  -6   -0.24    0.74
  -7   0   6   -0.17    0.87
   7   0  -6   -0.61    0.89
   7   0  -6    0.50    0.93
   7   0  -6   -0.88    0.61
  -7   0   6   -0.43    0.60
  -6   0   6  244.40    7.41
   6   0  -6  250.98    7.70
   6   0  -6  251.51    7.40
  -6   0   6  239.43    7.42
  -6   0   6  235.13    7.37
   6   0  -6  249.60    7.40
   6   0  -6  245.84    7.36
  -5   0   6   -0.49    0.87
  -5   0   6   -0.20    0.53
   5   0  -6    0.47    0.66
   5   0  -6   -0.59    0.74
   5   0  -6   -0.15    0.58
   5   0  -6    0.49    0.56
  -5   0   6    0.40    0.72
   4   0  -6   14.61    1.12
  -4   0   6   14.78    1.20
  -4   0   6   15.72    1.27
   4   0  -6   15.09    1.29
   4   0  -6   14.67    1.22
  -4   0   6   17.89    1.26
   4   0  -6   14.36    1.32
  -3   0   6   -0.80    0.67
  -3   0   6   -0.03    0.36
   3   0  -6    0.57    0.56
   3   0  -6   -0.83    0.63
   3   0  -6    0.23    0.68
  -3   0   6   -0.52    0.35
  -2   0   6  974.45   25.79
   2   0  -6  891.19   25.66
   2   0  -6  928.76   25.81
   2   0  -6  959.10   25.79
  -2   0   6  957.25   25.68
  -2   0   6  968.70   25.62
   1   0  -6    0.46    0.27
   1   0  -6   -0.93    0.50
  -1   0   6   -0.32    0.25
   1   0  -6    0.67    0.35
  -1   0   6    0.09    0.49
  -1   0   6    0.62    0.29
   0   0   6   27.25    1.14
   0   0  -6   27.24    1.06
   0   0  -6   26.10    1.09
   0   0   6   26.74    0.91
   0   0  -6   27.44    1.29
  -1   0  -6    0.32    0.24
  -1   0  -6   -0.07    0.31
   1   0   6   -0.42    0.24
   1   0   6   -0.26    0.21
  -1   0  -6   -0.41    0.37
   1   0   6    0.03    0.12
  -2   0  -6  472.31   12.76
  -2   0  -6  468.30   13.50
   2   0   6  469.51   12.75
  -2   0  -6  474.76   12.97
  -2   0  -6  479.69   12.76
   2   0   6  469.42   12.75
  -3   0  -6    0.36    0.63
  -3   0  -6    0.38    0.33
  -4   0  -6  206.16    6.15
  -4   0  -6  226.20    6.91
  -5   0  -6   -0.09    0.97
  -6   0  -6  111.47    4.38
  -7   0  -6   -0.36    0.27
  -7   0  -6   -0.72    1.13
 -11  -1   6   17.35    1.82
 -11  -1   6   19.86    2.31
 -11  -1   6   11.39    1.77
  11  -1  -6   16.93    1.79
  11  -1  -6   16.47    1.79
  11  -1  -6   12.28    1.73
 -11   1   6   16.42    1.66
  11   1  -6   19.30    1.72
 -11   1   6   16.17    1.61
 -11   1   6   22.94    2.63
  11   1  -6   14.74    1.70
  11   1  -6   16.06    1.59
 -10  -1   6   16.12    1.57
  10  -1  -6   16.10    1.75
 -10  -1   6   14.76    1.46
  10  -1  -6   15.83    1.54
 -10  -1   6   17.92    2.53
 -10   1   6   16.11    1.52
 -10   1   6   17.34    2.30
  10   1  -6   13.99    1.68
  10   1  -6   16.97    1.93
  10   1  -6   14.31    1.53
 -10   1   6   13.42    1.45
   9  -1  -6   78.17    3.77
  -9  -1   6   72.19    3.14
  -9  -1   6   76.65    3.31
  -9  -1   6   71.90    4.24
   9  -1  -6   74.90    3.14
   9   1  -6   71.27    2.97
   9   1  -6   79.87    3.59
  -9   1   6   76.88    4.08
  -9   1   6   71.43    3.07
  -9   1   6   71.25    3.12
   9   1  -6   72.72    3.11
  -8  -1   6    9.51    1.31
  -8  -1   6    9.74    1.17
  -8  -1   6   12.84    2.27
   8  -1  -6   12.26    1.14
   8  -1  -6   10.35    1.39
  -8  -1   6   12.44    1.21
   8  -1  -6   11.28    1.39
   8   1  -6    8.98    1.30
  -8   1   6   13.53    1.36
   8   1  -6   10.78    1.32
  -8   1   6   10.34    1.14
   8   1  -6   12.15    1.54
  -8   1   6   12.40    1.26
   8   1  -6   11.78    1.33
  -7  -1   6   55.88    2.49
  -7  -1   6   59.75    2.78
  -7  -1   6   59.70    2.68
   7  -1  -6   61.30    2.83
   7  -1  -6   60.67    2.74
   7  -1  -6   58.21    2.61
  -7   1   6   57.34    2.52
  -7   1   6   60.08    2.69
   7   1  -6   61.51    2.53
   7   1  -6   56.41    2.68
   7   1  -6   59.13    2.53
   7   1  -6   58.97    2.61
  -7   1   6   56.27    2.66
  -6  -1   6  140.41    4.60
  -6  -1   6  140.26    4.61
   6  -1  -6  134.84    4.80
   6  -1  -6  139.75    4.66
   6  -1  -6  142.75    4.65
  -6  -1   6  135.73    4.61
  -6   1   6  133.82    4.52
   6   1  -6  144.12    4.68
   6   1  -6  145.24    4.70
   6   1  -6  144.05    4.65
  -6   1   6  130.58    4.51
   5  -1  -6   60.86    2.73
   5  -1  -6   67.77    2.66
  -5  -1   6   66.84    2.61
   5  -1  -6   64.13    2.65
  -5  -1   6   66.60    2.56
  -5  -1   6   68.70    2.79
   5   1  -6   65.87    2.51
   5   1  -6   57.96    2.57
  -5   1   6   67.72    2.48
   5   1  -6   65.31    2.71
  -5   1   6   64.79    2.72
  -5   1   6   65.49    2.61
   4  -1  -6   25.03    1.92
   4  -1  -6   29.31    1.48
  -4  -1   6   26.03    1.51
  -4  -1   6   27.71    1.47
   4  -1  -6   26.22    1.60
  -4  -1   6   26.13    1.78
  -4   1   6   26.81    1.49
  -4   1   6   27.53    1.53
   4   1  -6   30.70    1.67
  -4   1   6   27.96    1.40
   4   1  -6   26.94    1.68
   4   1  -6   28.43    1.58
  -3  -1   6  326.58    9.43
   3  -1  -6  334.82    9.40
   3  -1  -6  331.59    9.37
  -3  -1   6  328.09    9.21
  -3  -1   6  326.64    9.30
   3  -1  -6  319.39    9.58
  -3   1   6  330.20    9.34
  -3   1   6  327.35    9.41
   3   1  -6  332.39    9.33
  -3   1   6  329.63    9.30
   3   1  -6  332.82    9.43
   3   1  -6  323.70    9.43
  -2  -1   6  140.65    3.99
   2  -1  -6  124.11    3.87
  -2  -1   6  125.74    3.66
   2  -1  -6  121.47    3.79
  -2  -1   6  116.83    3.70
   2  -1  -6  123.08    4.04
  -2   1   6  124.36    3.79
   2   1  -6  127.89    3.91
  -2   1   6  123.49    3.89
   2   1  -6  122.58    3.91
   2   1  -6  120.19    3.74
  -2   1   6  118.46    3.71
   1  -1  -6  140.19    4.18
   1  -1  -6  141.61    4.26
  -1  -1   6  137.94    4.22
  -1  -1   6  137.73    3.99
   1  -1  -6  138.17    4.03
  -1  -1   6  139.73    3.93
   1   1  -6  142.22    4.31
   1   1  -6  138.86    4.22
  -1   1   6  134.81    4.18
  -1   1   6  135.02    4.03
   1   1  -6  141.57    4.00
   0  -1  -6   98.02    2.96
   0  -1  -6   96.47    2.99
   0  -1   6   94.07    2.99
   0   1  -6   93.10    2.99
   0   1  -6   95.42    3.07
   0   1   6   95.21    2.95
   0   1  -6   99.26    2.92
  -1  -1  -6  284.58    7.92
   1  -1   6  279.16    7.88
   1  -1   6  284.50    7.85
  -1  -1  -6  280.75    8.47
  -1  -1  -6  285.28    8.15
  -1  -1  -6  290.69    7.87
   1   1   6  276.42    7.87
  -1   1  -6  285.21    7.84
  -1   1  -6  286.59    7.89
  -1   1  -6  279.09    8.06
   1   1   6  286.83    7.87
  -2  -1  -6    1.08    0.35
   2  -1   6    0.76    0.32
  -2  -1  -6    0.43    0.57
  -2  -1  -6    0.58    0.91
  -2  -1  -6    0.71    0.29
   2  -1   6    0.99    0.26
   2   1   6    1.24    0.31
  -2   1  -6    1.22    0.51
  -2   1  -6    0.97    0.25
   2   1   6    0.53    0.30
  -2   1  -6    0.97    0.33
   3  -1   6    5.92    0.46
   3  -1   6    6.04    0.38
  -3  -1  -6    5.52    1.18
  -3  -1  -6    6.39    0.45
  -3  -1  -6    6.20    0.45
  -3  -1  -6    6.48    0.68
   3   1   6    5.21    0.44
  -3   1  -6    5.82    0.45
  -3   1  -6    6.44    0.38
   3   1   6    5.27    0.45
  -3   1  -6    7.32    0.69
  -3   1  -6    4.87    0.82
  -4  -1  -6   40.46    2.16
  -4  -1  -6   39.75    1.26
  -4  -1  -6   42.45    1.76
  -4  -1  -6   39.94    1.25
   4  -1   6   39.80    1.17
   4  -1   6   39.15    1.18
  -4   1  -6   39.66    1.99
   4   1   6   39.97    1.25
  -4   1  -6   39.33    1.19
  -4   1  -6   42.97    1.61
  -4   1  -6   40.33    1.21
  -5  -1  -6  161.43    5.15
  -5  -1  -6  169.33    5.89
  -5  -1  -6  167.55    4.71
  -5   1  -6  183.86    4.76
  -5   1  -6  167.49    4.66
  -5   1  -6  168.72    5.66
   5   1   6  168.21    4.71
  -6  -1  -6    5.24    0.42
   6  -1   6    4.75    0.41
  -6  -1  -6    4.88    1.35
   6   1   6    5.46    0.45
  -6   1  -6    5.40    1.19
  -6   1  -6    5.56    0.40
  -7  -1  -6    0.15    1.23
  -7  -1  -6   -0.13    0.28
  -7   1  -6    0.37    0.31
  -7   1  -6    1.04    1.06
 -10  -2   6  109.96    4.38
  10  -2  -6  113.85    4.44
 -10  -2   6  110.22    5.38
  10  -2  -6  111.35    4.96
  10   2  -6  109.81    4.14
 -10   2   6  103.96    4.22
  10   2  -6  114.38    4.48
 -10   2   6  109.69    4.80
   9  -2  -6   24.41    2.34
  -9  -2   6   25.90    2.10
   9  -2  -6   24.29    2.15
  -9  -2   6   23.65    2.41
  -9   2   6   29.75    2.51
  -9   2   6   21.74    1.93
   9   2  -6   25.92    1.67
   9   2  -6   24.39    2.00
  -8  -2   6   40.95    2.40
   8  -2  -6   39.16    2.41
  -8  -2   6   39.63    2.38
  -8  -2   6   41.15    2.32
   8  -2  -6   38.13    2.46
  -8  -2   6   37.54    3.46
   8   2  -6   40.28    2.01
   8   2  -6   36.92    2.11
   8   2  -6   44.40    2.44
  -8   2   6   41.64    2.43
  -8   2   6   37.72    2.24
  -7  -2   6   26.96    1.71
   7  -2  -6   26.93    1.90
  -7  -2   6   30.70    2.84
   7  -2  -6   27.11    2.02
  -7  -2   6   28.32    2.14
  -7  -2   6   29.47    1.73
   7  -2  -6   29.31    2.45
  -7   2   6   28.32    1.73
   7   2  -6   29.12    2.03
   7   2  -6   29.26    1.67
  -7   2   6   26.26    1.69
   7   2  -6   26.96    1.70
  -6  -2   6  119.48    4.06
  -6  -2   6  115.68    4.30
  -6  -2   6  120.12    4.10
   6  -2  -6  122.63    4.09
   6  -2  -6  122.26    4.59
   6  -2  -6  119.56    4.13
   6   2  -6  125.30    4.25
   6   2  -6  121.53    4.15
   6   2  -6  121.62    4.17
  -6   2   6  119.45    4.23
  -6   2   6  122.53    4.22
   5  -2  -6   61.52    2.98
  -5  -2   6   58.67    2.40
  -5  -2   6   60.80    2.56
   5  -2  -6   60.00    2.59
  -5  -2   6   59.33    2.48
   5  -2  -6   63.42    2.65
   5   2  -6   58.88    2.66
   5   2  -6   63.35    2.61
  -5   2   6   59.39    2.66
   5   2  -6   61.79    2.58
  -5   2   6   68.96    2.62
  -4  -2   6  127.16    4.42
   4  -2  -6  134.14    4.33
   4  -2  -6  129.55    4.60
  -4  -2   6  134.26    4.26
   4  -2  -6  133.78    4.33
   4   2  -6  130.04    4.29
   4   2  -6  126.93    4.24
  -4   2   6  136.14    4.29
   4   2  -6  135.70    4.24
  -4   2   6  133.00    4.37
  -3  -2   6   56.53    2.27
   3  -2  -6   54.78    2.27
   3  -2  -6   60.13    2.29
  -3  -2   6   52.50    2.04
   3  -2  -6   57.70    2.55
   3   2  -6   55.54    2.22
   3   2  -6   56.46    2.21
   3   2  -6   55.46    2.17
  -3   2   6   57.44    2.34
  -2  -2   6   15.58    0.88
   2   2  -6   14.16    0.87
   2   2  -6   21.31    1.40
   1  -2  -6   -0.07    0.49
  -1  -2   6    0.72    0.67
   1  -2  -6    0.33    0.42
   1  -2  -6    0.20    0.39
  -1  -2   6    0.10    0.33
   1  -2  -6   -0.06    0.41
   1   2  -6    0.14    0.35
  -1   2   6   -0.19    0.55
   1   2  -6    1.17    0.67
   1   2  -6    0.48    0.44
   0  -2  -6   68.19    2.32
   0  -2  -6   69.35    2.55
   0  -2   6   73.90    2.49
   0  -2  -6   70.61    2.87
   0   2  -6   70.10    2.44
   0   2   6   68.13    2.39
   0   2  -6   72.88    2.59
  -1  -2  -6  116.07    3.57
  -1  -2  -6  119.13    4.10
  -1  -2  -6  119.49    3.90
  -1  -2  -6  118.82    3.60
  -1  -2  -6  118.95    3.54
   1  -2   6  114.54    3.62
   1   2   6  118.76    3.59
  -1   2  -6  116.66    3.75
  -1   2  -6  119.24    3.54
  -1   2  -6  119.16    3.61
  -2  -2  -6    1.67    0.99
  -2  -2  -6    2.30    0.72
  -2  -2  -6    2.39    0.44
  -2  -2  -6    1.99    0.31
  -2  -2  -6    1.81    0.41
   2  -2   6    2.77    0.40
   2  -2   6    2.11    0.57
  -2   2  -6    1.64    0.44
  -2   2  -6    1.72    0.65
   2   2   6    1.35    0.57
   2   2   6    1.13    0.48
  -2   2  -6    2.26    0.41
  -3  -2  -6    2.02    0.56
   3  -2   6    2.38    0.42
  -3  -2  -6    1.76    0.44
  -3  -2  -6    2.55    0.87
  -3   2  -6    2.69    0.47
  -3   2  -6    2.36    0.67
   3   2   6    2.08    0.46
  -4  -2  -6   14.22    1.25
  -4  -2  -6   12.19    0.80
  -4  -2  -6   14.19    1.61
  -4   2  -6   14.02    0.80
  -4   2  -6   12.87    1.14
   4   2   6   15.12    0.84
  -5  -2  -6    5.65    1.12
  -5  -2  -6    5.98    0.52
  -5  -2  -6    6.21    0.92
  -5   2  -6    7.51    0.58
   5   2   6    5.97    0.57
  -6  -2  -6   29.92    1.72
   6  -2   6   29.91    1.30
  -6  -2  -6   31.75    2.46
  -6  -2  -6   29.88    1.22
  -6   2  -6   29.60    1.23
   6   2   6   31.33    1.30
  -6   2  -6   28.38    1.94
   7  -2   6    6.29    0.65
  -7  -2  -6    5.06    0.61
  -7  -2  -6    5.01    1.59
  -7   2  -6    6.35    0.64
   7   2   6    5.92    0.67
  10  -3  -6    4.81    1.41
  10  -3  -6    3.51    1.32
 -10  -3   6    2.81    0.99
 -10  -3   6    3.31    2.11
 -10  -3   6    2.78    1.49
  10   3  -6    3.01    1.01
  10   3  -6    3.60    0.87
 -10   3   6    4.08    1.06
  -9  -3   6    4.11    1.02
   9  -3  -6    3.09    1.23
  -9  -3   6   -0.53    1.90
   9  -3  -6    5.77    1.38
   9   3  -6    1.78    1.18
   9   3  -6    2.63    1.02
  -9   3   6    2.73    1.53
  -9   3   6    3.11    1.29
  -8  -3   6   -0.20    1.34
  -8  -3   6   -1.01    0.96
   8  -3  -6   -3.06    1.30
   8  -3  -6    0.04    0.77
  -8   3   6    1.00    0.76
  -8   3   6    0.45    0.70
   8   3  -6   -0.10    1.07
   8   3  -6   -0.05    0.91
   7  -3  -6   46.84    3.04
   7  -3  -6   51.54    2.48
  -7  -3   6   50.39    2.54
   7  -3  -6   47.46    2.37
  -7  -3   6   52.31    3.19
   7   3  -6   50.09    2.44
   7   3  -6   51.70    2.59
  -7   3   6   52.22    2.58
   7   3  -6   50.98    2.62
  -7   3   6   47.22    2.55
  -6  -3   6    2.91    1.97
   6  -3  -6    1.43    0.74
  -6  -3   6    1.94    0.93
   6  -3  -6    3.08    1.28
   6  -3  -6    2.51    0.75
  -6   3   6    1.36    0.73
   6   3  -6   -0.23    0.64
   6   3  -6    0.97    0.64
   6   3  -6    2.02    0.80
  -6   3   6    2.38    1.04
   5  -3  -6   49.42    2.80
   5  -3  -6   50.07    2.44
   5  -3  -6   51.84    2.36
  -5  -3   6   50.56    2.62
  -5  -3   6   47.16    2.31
  -5   3   6   48.25    2.19
   5   3  -6   49.32    2.27
  -5   3   6   48.14    2.45
   5   3  -6   48.00    2.19
   5   3  -6   49.84    2.35
  -4  -3   6   43.44    2.41
  -4  -3   6   46.33    1.95
   4  -3  -6   40.16    2.20
   4  -3  -6   40.87    2.16
   4  -3  -6   42.84    2.16
   4   3  -6   47.42    2.10
   4   3  -6   44.15    2.18
   4   3  -6   45.86    2.12
  -4   3   6   43.80    2.04
   3  -3  -6  149.42    4.69
  -3  -3   6  143.69    4.58
  -3  -3   6  141.88    4.71
   3  -3  -6  153.31    4.73
   3  -3  -6  144.94    4.80
  -3   3   6  141.44    4.64
   3   3  -6  142.39    4.76
   3   3  -6  150.39    4.78
   3   3  -6  146.87    4.62
   2  -3  -6   20.32    1.41
   2  -3  -6   19.37    1.52
   2  -3  -6   18.67    1.38
   2  -3  -6   18.79    1.33
  -2  -3   6   18.64    1.16
  -2  -3   6   21.53    1.71
   2   3  -6   19.00    1.53
  -2   3   6   18.20    1.48
   2   3  -6   18.93    1.29
   2   3  -6   19.71    1.21
   1  -3  -6   25.25    1.52
  -1  -3   6   23.80    1.06
   1  -3  -6   24.79    1.65
   1  -3  -6   22.96    1.42
  -1  -3   6   24.56    1.43
   1  -3  -6   22.05    1.33
   1   3  -6   24.58    1.61
   1   3  -6   24.86    1.35
  -1   3   6   23.70    1.49
   1   3  -6   24.59    1.17
   0  -3  -6   67.36    2.41
   0  -3   6   71.66    2.64
   0  -3  -6   70.59    2.93
   0  -3  -6   68.37    2.50
   0  -3  -6   68.59    2.31
   0  -3  -6   71.75    2.66
   0   3   6   67.71    2.45
   0   3  -6   71.44    2.60
   0   3  -6   68.04    2.20
   0   3  -6   70.91    2.47
  -1  -3  -6   37.43    1.81
  -1  -3  -6   38.67    1.65
  -1  -3  -6   38.90    2.24
  -1   3  -6   37.70    1.58
   1   3   6   36.16    1.67
  -1   3  -6   40.62    1.96
   2  -3   6   76.58    2.38
  -2  -3  -6   76.09    3.00
  -2  -3  -6   78.51    3.36
  -2  -3  -6   79.62    2.44
  -2  -3  -6   78.23    2.66
  -2   3  -6   78.70    2.68
  -2   3  -6   83.82    3.00
   2   3   6   77.80    2.68
  -3  -3  -6   35.92    2.08
  -3  -3  -6   30.63    1.69
  -3  -3  -6   33.98    1.48
  -3   3  -6   34.43    1.50
  -3   3  -6   34.65    1.84
   3   3   6   34.29    1.61
  -4  -3  -6    4.17    0.59
  -4  -3  -6    2.84    0.98
  -4  -3  -6    4.76    1.00
   4   3   6    3.44    0.60
  -4   3  -6    3.89    0.88
  -4   3  -6    4.16    0.60
  -5  -3  -6    4.32    1.14
   5  -3   6    6.23    0.70
  -5   3  -6    4.42    0.93
  -5   3  -6    5.23    0.67
  -6  -3  -6   67.14    3.39
  -6  -3  -6   72.10    3.01
  -6  -3  -6   70.83    2.55
   6  -3   6   73.00    2.49
  -6   3  -6   70.65    2.47
   6   3   6   71.38    2.59
  -7  -3  -6    5.66    0.93
   7  -3   6    5.33    0.73
  -7  -3  -6    5.09    1.36
  -7  -3  -6    5.36    0.72
  -7   3  -6    5.14    0.71
   7   3   6    5.10    0.75
  -9  -4   6    7.29    2.26
  -9  -4   6    6.62    1.66
   9  -4  -6    9.76    1.31
  -9  -4   6   10.64    1.62
   9   4  -6    8.04    1.52
  -9   4   6    9.58    1.53
   9   4  -6   10.00    1.31
  -8  -4   6    8.33    1.34
  -8  -4   6    9.44    1.27
  -8  -4   6    6.25    2.14
   8  -4  -6    9.67    1.49
   8   4  -6    7.18    1.42
   8   4  -6    8.85    1.28
  -8   4   6    9.19    1.50
  -7  -4   6   21.76    2.56
   7  -4  -6   19.42    1.66
  -7  -4   6   19.88    1.78
  -7  -4   6   16.60    1.49
   7  -4  -6   22.66    1.84
   7   4  -6   17.23    1.48
  -7   4   6   19.99    1.70
  -7   4   6   19.10    1.63
   7   4  -6   19.13    1.76
   7   4  -6   20.81    1.69
   6  -4  -6    6.13    1.23
   6  -4  -6    7.69    1.02
  -6  -4   6    6.68    1.56
  -6  -4   6    6.26    1.20
   6   4  -6    6.47    1.05
   6   4  -6    5.34    0.99
  -6   4   6    5.04    0.98
  -6   4   6    5.21    1.19
   6   4  -6    7.04    1.16
  -5  -4   6   50.18    3.01
   5  -4  -6   47.17    2.39
   5  -4  -6   51.67    2.52
  -5  -4   6   48.26    2.40
  -5   4   6   48.60    2.30
   5   4  -6   50.27    2.36
   5   4  -6   45.42    2.24
   5   4  -6   45.94    2.39
   4  -4  -6    3.97    0.80
   4  -4  -6    3.13    0.98
  -4  -4   6    4.00    0.75
   4   4  -6    1.76    0.97
  -4   4   6    2.91    1.05
   4   4  -6    3.03    1.12
   4   4  -6    3.50    0.96
   3  -4  -6   60.58    2.49
   3  -4  -6   57.12    2.50
   3  -4  -6   61.71    2.46
  -3  -4   6   62.27    2.49
   3   4  -6   60.85    2.55
   3   4  -6   61.83    2.78
   3   4  -6   60.80    2.69
  -3   4   6   65.44    2.75
   2  -4  -6   12.08    1.15
  -2  -4   6   12.84    0.97
   1  -4  -6  107.18    3.63
  -1  -4   6  113.16    3.69
   1  -4  -6  106.54    3.91
   1  -4  -6  107.45    3.75
  -1  -4   6  107.17    3.49
   1  -4  -6  110.97    3.96
   1  -4  -6  110.14    3.67
   1   4  -6  103.86    3.76
   1   4  -6  112.18    3.85
  -1   4   6  111.89    3.80
   1   4  -6  110.15    3.53
   0  -4  -6   66.26    2.85
   0  -4  -6   70.45    3.01
   0  -4  -6   67.48    2.58
   0  -4  -6   58.63    2.64
   0  -4  -6   69.92    2.56
   0  -4   6   71.53    2.48
   0   4  -6   67.56    2.88
   0   4   6   69.95    2.60
   0   4  -6   72.39    2.75
  -1  -4  -6    7.32    1.12
  -1  -4  -6    6.46    0.88
   1  -4   6    6.58    0.66
  -1  -4  -6    5.37    0.99
   1   4   6    6.55    0.92
  -1   4  -6    5.75    0.94
  -1   4  -6    7.02    1.11
  -2  -4  -6    6.09    0.85
  -2  -4  -6    5.09    0.91
  -2  -4  -6    4.66    1.01
   2   4   6    6.71    0.77
  -2   4  -6    5.93    0.90
  -2   4  -6    7.09    0.78
  -3  -4  -6  152.84    5.17
  -3  -4  -6  158.64    5.64
  -3  -4  -6  156.30    4.88
  -3   4  -6  157.49    5.18
   3   4   6  151.24    4.88
  -3   4  -6  155.04    4.87
  -4  -4  -6   97.36    3.74
  -4  -4  -6   93.29    4.15
  -4  -4  -6   99.36    3.31
  -4   4  -6   99.21    3.64
   4   4   6   83.07    3.25
  -4   4  -6   98.72    3.29
  -5  -4  -6    2.46    0.71
  -5  -4  -6    1.59    0.77
   5  -4   6    1.35    0.72
  -5  -4  -6    2.47    1.05
  -5   4  -6    4.11    1.08
   5   4   6   -0.14    0.63
  -5   4  -6    0.00    0.64
   6  -4   6    4.98    0.88
  -6  -4  -6    6.00    1.01
  -6  -4  -6    5.29    0.84
  -6  -4  -6    6.85    1.68
   6   4   6    4.55    0.95
  -6   4  -6    4.82    0.86
  -8  -5   6   79.16    3.84
   8  -5  -6   76.45    3.64
  -8  -5   6   69.06    4.48
  -8  -5   6   80.13    3.65
   8   5  -6   74.55    3.32
  -8   5   6   84.30    3.65
   8   5  -6   72.64    3.64
  -7  -5   6   -0.41    1.10
   7  -5  -6   -0.04    1.18
  -7  -5   6   -0.90    1.30
  -7  -5   6    1.29    1.33
  -7   5   6    1.22    1.12
   7   5  -6    0.04    1.14
  -7   5   6    0.12    0.80
   7   5  -6   -0.59    0.97
  -6  -5   6   34.64    2.21
   6  -5  -6   34.37    2.35
   6  -5  -6   31.46    1.92
  -6  -5   6   36.06    2.73
  -6  -5   6   33.45    2.00
   6   5  -6   33.58    2.11
   6   5  -6   32.96    2.37
   6   5  -6   33.71    2.18
  -6   5   6   32.24    2.33
   5  -5  -6    0.06    1.04
  -5  -5   6   -2.02    1.60
  -5  -5   6    0.38    0.67
  -5  -5   6    0.71    0.84
   5  -5  -6    0.88    0.99
  -5   5   6    0.11    0.74
   5   5  -6    1.67    0.76
   5   5  -6    0.52    1.11
   5   5  -6   -0.62    0.95
   4  -5  -6  128.90    4.56
  -4  -5   6  137.68    5.40
  -4  -5   6  136.88    4.68
   4  -5  -6  133.83    4.61
  -4  -5   6  135.78    4.72
   4   5  -6  128.34    4.55
   4   5  -6  133.64    4.75
   4   5  -6  139.17    4.75
  -4   5   6  140.02    4.81
  -3  -5   6   23.57    2.23
  -3  -5   6   22.60    1.62
   3  -5  -6   26.40    1.94
   3  -5  -6   27.28    1.92
   3  -5  -6   28.16    1.95
  -3  -5   6   28.90    1.77
   3   5  -6   27.09    1.75
  -3   5   6   24.28    1.69
   3   5  -6   23.66    1.74
   3   5  -6   30.24    2.03
   2  -5  -6   12.79    1.25
  -2  -5   6   15.52    1.32
   2  -5  -6   14.31    1.39
  -2  -5   6   12.57    1.15
   2  -5  -6   12.31    1.13
   2   5  -6   15.74    1.52
  -2   5   6   14.54    1.42
   2   5  -6   15.30    1.36
   2   5  -6   13.32    1.48
   1  -5  -6    4.88    0.90
   1  -5  -6    5.36    1.11
   1  -5  -6    4.47    0.81
   1  -5  -6    5.70    0.93
  -1  -5   6    5.14    0.92
   1   5  -6    2.76    0.86
   1   5  -6    3.86    1.13
   1   5  -6    5.97    1.15
  -1   5   6    4.05    1.04
   0  -5  -6   44.48    2.48
   0  -5  -6   46.66    2.11
   0  -5   6   45.94    1.87
   0  -5  -6   42.18    2.12
   0  -5  -6   47.24    2.45
   0   5  -6   46.82    2.27
   0   5  -6   45.85    2.36
   0   5   6   48.61    2.17
  -1  -5  -6   27.98    1.91
  -1  -5  -6   29.67    1.84
  -1  -5  -6   32.54    1.67
   1  -5   6   32.48    1.43
   1   5   6   28.95    1.67
  -1   5  -6   26.87    1.87
  -1   5  -6   31.47    2.11
  -2  -5  -6   10.97    1.38
  -2  -5  -6   11.81    1.19
  -2  -5  -6   12.10    1.47
  -2   5  -6   10.50    1.19
  -2   5  -6   10.08    1.23
   2   5   6    9.42    1.18
  -3  -5  -6   10.61    1.68
  -3  -5  -6    8.07    1.37
  -3  -5  -6    8.84    1.08
   3   5   6    7.73    1.09
  -3   5  -6    8.65    1.16
  -3   5  -6    9.82    1.20
  -4  -5  -6   74.14    2.93
  -4  -5  -6   67.87    3.10
   4  -5   6   71.84    2.95
  -4  -5  -6   74.12    3.70
  -4   5  -6   77.17    2.96
   4   5   6   72.78    2.95
  -4   5  -6   69.09    3.04
  -5  -5  -6   14.98    1.24
  -5  -5  -6   14.97    1.71
  -5  -5  -6   12.15    1.94
   5  -5   6   14.64    1.49
   5   5   6   15.93    1.40
  -5   5  -6   15.15    1.36
   7  -6  -6   31.89    2.60
  -7  -6   6   34.16    3.15
  -7  -6   6   34.23    2.53
  -7  -6   6   29.76    2.31
  -7   6   6   30.92    2.47
   7   6  -6   28.63    1.97
   7   6  -6   32.59    2.23
  -6  -6   6   16.37    2.33
   6  -6  -6   17.16    1.77
   6  -6  -6   17.58    1.84
  -6  -6   6   14.10    1.48
  -6  -6   6   15.75    1.86
   6   6  -6   18.42    1.84
   6   6  -6   13.72    1.56
  -6   6   6   18.01    1.83
   6   6  -6   14.13    1.65
   5  -6  -6   87.86    3.69
  -5  -6   6   77.10    3.71
  -5  -6   6   84.19    3.90
  -5  -6   6   79.90    3.37
   5  -6  -6   83.63    3.57
   5   6  -6   83.26    3.76
  -5   6   6   83.89    3.46
   5   6  -6   81.15    3.61
   5   6  -6   85.18    3.61
   4  -6  -6    6.88    1.29
  -4  -6   6    4.88    1.68
  -4  -6   6    4.26    1.03
   4  -6  -6    4.64    1.23
  -4  -6   6    3.62    1.13
   4  -6  -6    6.84    1.08
   4   6  -6    4.75    1.30
   4   6  -6    6.50    1.14
  -4   6   6    5.48    1.34
   4   6  -6    5.06    0.96
   3  -6  -6    9.41    1.35
   3  -6  -6    8.20    1.11
  -3  -6   6   10.37    1.69
   3  -6  -6    9.47    1.41
  -3  -6   6    9.39    1.37
   3   6  -6    8.28    1.49
   3   6  -6   10.40    1.10
  -3   6   6   12.31    1.49
   3   6  -6   10.19    1.49
   2  -6  -6    0.57    0.94
   2  -6  -6    0.76    0.77
  -2  -6   6    0.63    0.92
  -2  -6   6    2.16    1.27
   2  -6  -6   -0.03    0.73
   2   6  -6    0.53    1.16
   2   6  -6    1.57    0.86
   2   6  -6    0.86    0.79
  -2   6   6    0.26    1.06
  -1  -6   6   47.99    2.60
   1  -6  -6   51.50    2.59
  -1  -6   6   49.45    2.35
   1  -6  -6   51.63    2.51
   1  -6  -6   51.89    2.62
  -1   6   6   54.19    2.75
   1   6  -6   50.65    2.77
   1   6  -6   50.46    2.75
   0  -6  -6    1.10    0.78
   0  -6   6    0.33    0.48
   0  -6  -6    0.11    0.95
   0  -6  -6   -0.29    1.03
   0   6  -6   -0.75    1.06
   0   6   6   -0.46    0.98
   0   6  -6   -0.56    1.07
  -1  -6  -6    5.03    1.04
  -1  -6  -6    7.03    1.42
  -1  -6  -6    7.43    1.01
  -1   6  -6    7.37    1.30
  -1   6  -6    5.26    1.06
   1   6   6    5.21    0.93
  -2  -6  -6    1.40    1.16
  -2  -6  -6    1.41    0.95
   2  -6   6    0.70    1.07
  -2  -6  -6    2.08    1.31
  -2   6  -6   -0.53    0.98
  -2   6  -6    0.83    0.82
   2   6   6   -0.61    0.91
   3  -6   6   38.21    2.38
  -3  -6  -6   38.14    2.23
  -3  -6  -6   41.34    2.67
  -3  -6  -6   39.31    2.84
  -3   6  -6   38.75    2.29
  -3   6  -6   40.03    2.58
   3   6   6   39.00    2.33
  -4  -6  -6    0.04    0.91
  -4  -6  -6    2.76    0.98
   4  -6   6    1.05    1.07
  -4  -6  -6    0.43    1.47
  -4   6  -6    1.48    0.94
  -4   6  -6    1.08    1.04
   4   6   6    0.62    0.97
  -5  -7   6    4.74    1.34
  -5  -7   6    5.85    1.77
   5  -7  -6    3.16    1.06
   5  -7  -6    3.29    1.02
  -5  -7   6    2.55    1.08
  -5   7   6    5.10    1.45
   5   7  -6    2.36    1.03
   5   7  -6    4.65    1.21
   5   7  -6    1.67    0.92
  -4  -7   6   62.43    3.25
   4  -7  -6   66.24    3.05
   4  -7  -6   68.54    3.31
  -4  -7   6   65.30    3.55
   4  -7  -6   60.89    2.99
   4   7  -6   68.59    3.52
   4   7  -6   65.62    3.23
   4   7  -6   61.89    3.03
  -4   7   6   68.10    3.39
   3  -7  -6   -0.16    0.81
   3  -7  -6   -0.07    0.80
  -3  -7   6   -0.95    1.01
  -3  -7   6    0.36    0.87
   3  -7  -6    1.09    1.18
  -3   7   6   -0.36    1.22
   3   7  -6    0.83    0.94
   3   7  -6    0.55    0.86
   2  -7  -6    2.71    1.27
  -2  -7   6    3.08    1.12
   2  -7  -6    0.46    0.82
   2   7  -6    2.88    0.98
   2   7  -6    2.23    1.34
  -2   7   6    4.19    1.33
   1  -7  -6    0.35    0.83
   1  -7  -6    0.60    1.14
  -1  -7   6    1.28    0.92
   1   7  -6    0.14    0.90
   1   7  -6   -1.74    1.16
  -1   7   6   -0.64    0.76
   0  -7   6   70.97    3.43
   0  -7  -6   65.72    3.02
   0  -7  -6   64.98    3.20
   0  -7  -6   70.54    3.39
   0   7  -6   65.84    3.31
   0   7   6   69.07    3.34
   0   7  -6   65.05    3.37
  -1  -7  -6    2.92    1.38
   1  -7   6    2.47    1.33
  -1  -7  -6    2.54    1.00
  -1  -7  -6    1.43    0.85
   1   7   6    0.28    0.82
  -1   7  -6    1.83    1.01
  -1   7  -6    0.91    1.27
  -2  -7  -6   25.08    2.45
  -2  -7  -6   23.10    2.00
   2  -7   6   22.39    1.99
  -2  -7  -6   22.67    1.77
  -2   7  -6   26.67    2.24
  -2   7  -6   25.14    2.07
   2   7   6   22.88    1.84
 -10   0   7    0.35    1.33
  10   0  -7   -0.01    0.78
 -10   0   7    1.88    0.88
 -10   0   7   -0.40    0.82
  10   0  -7   -1.37    1.04
  10   0  -7    1.54    1.04
  -9   0   7   37.74    2.48
  -9   0   7   43.70    2.98
   9   0  -7   39.93    2.49
   9   0  -7   41.83    2.19
  -9   0   7   37.17    2.40
  -9   0   7   38.43    2.42
   9   0  -7   36.17    2.78
   8   0  -7    0.73    1.03
   8   0  -7    0.34    1.00
  -8   0   7   -0.61    0.66
   8   0  -7    0.97    1.16
  -8   0   7    0.07    0.72
   8   0  -7    0.26    0.67
  -8   0   7    0.36    1.04
  -7   0   7  166.48    5.54
   7   0  -7  169.36    5.80
   7   0  -7  173.42    5.66
   7   0  -7  173.72    5.64
  -7   0   7  172.57    5.53
   7   0  -7  177.88    5.69
  -7   0   7  169.12    5.54
   6   0  -7    0.56    0.64
  -6   0   7    0.15    0.98
   6   0  -7   -1.27    0.67
   6   0  -7   -0.67    0.62
   6   0  -7    0.24    0.89
  -6   0   7   -0.26    0.85
  -6   0   7   -0.35    0.80
   5   0  -7    0.74    0.64
   5   0  -7   -0.08    0.88
   5   0  -7    0.93    0.57
  -5   0   7   -0.31    0.94
  -5   0   7    0.41    0.55
  -5   0   7    0.68    0.77
   5   0  -7    1.12    0.76
   4   0  -7    0.56    0.56
   4   0  -7   -0.28    0.56
  -4   0   7   -0.65    0.42
  -4   0   7    0.07    0.61
   4   0  -7    0.10    0.67
  -4   0   7    0.27    0.45
   3   0  -7  344.57    9.85
   3   0  -7  351.42    9.98
  -3   0   7  353.45    9.78
  -3   0   7  342.93    9.82
   3   0  -7  342.92   10.00
  -3   0   7  349.77    9.98
   2   0  -7   -0.10    0.62
   2   0  -7   -0.26    0.45
  -2   0   7   -0.31    0.41
  -2   0   7   -0.45    0.39
  -2   0   7   -0.78    0.63
   2   0  -7    0.56    0.42
   1   0  -7  109.38    3.14
  -1   0   7  105.77    3.18
   1   0  -7  109.23    3.53
  -1   0   7  108.58    3.44
   1   0  -7  107.21    3.38
   0   0  -7    0.29    0.44
   0   0   7    0.20    0.46
   0   0   7    0.15    0.24
   0   0  -7    0.09    0.37
   0   0  -7   -0.31    0.51
  -1   0  -7  132.03    3.75
  -1   0  -7  127.15    3.89
   1   0   7  124.75    3.73
   1   0   7  123.54    3.73
  -1   0  -7  127.79    3.73
  -2   0  -7   -0.16    0.26
  -2   0  -7    0.18    0.24
  -2   0  -7   -0.12    0.40
   2   0   7    0.23    0.26
   2   0   7    0.22    0.30
  -2   0  -7    0.44    0.95
  -3   0  -7   88.02    2.86
   3   0   7   92.32    2.63
  -3   0  -7   97.17    2.65
  -4   0  -7    0.15    0.13
  -4   0  -7    0.11    0.13
  -4   0  -7    0.23    0.72
  -5   0  -7    0.35    0.78
  -6   0  -7   -0.44    1.10
  -7   0  -7   18.03    1.78
 -10  -1   7   10.30    1.58
  10  -1  -7   12.02    1.37
  10  -1  -7    9.43    1.83
 -10  -1   7   13.52    2.01
 -10  -1   7   10.91    1.33
 -10   1   7    9.50    1.56
 -10   1   7   12.33    2.24
 -10   1   7   10.90    1.32
  10   1  -7   10.09    1.32
  -9  -1   7    2.46    1.20
  -9  -1   7   -0.61    1.12
   9  -1  -7    2.45    1.48
   9  -1  -7    3.68    1.23
  -9  -1   7    1.09    1.09
  -9  -1   7    3.10    1.58
  -9   1   7    1.15    1.25
  -9   1   7    2.32    1.14
  -9   1   7    1.47    0.86
   9   1  -7    3.95    1.40
   9   1  -7    1.60    0.87
   9   1  -7    2.36    1.10
  -8  -1   7   72.80    3.10
   8  -1  -7   67.59    2.91
   8  -1  -7   64.62    3.18
  -8  -1   7   63.79    3.00
   8  -1  -7   64.27    2.76
  -8  -1   7   65.35    3.07
  -8   1   7   63.87    2.87
   8   1  -7   69.46    3.01
   8   1  -7   70.04    3.05
   8   1  -7   70.94    2.93
  -8   1   7   66.73    3.04
  -8   1   7   71.11    3.08
   7  -1  -7  114.22    4.20
  -7  -1   7  113.59    4.23
   7  -1  -7  114.54    4.02
  -7  -1   7  112.52    3.99
  -7  -1   7  113.06    4.03
   7  -1  -7  119.98    4.40
   7   1  -7  113.91    4.02
   7   1  -7  120.45    4.20
   7   1  -7  111.68    4.16
  -7   1   7  116.16    4.04
  -7   1   7  110.74    4.14
  -7   1   7  114.51    4.14
   6  -1  -7   73.45    2.95
  -6  -1   7   74.61    3.24
  -6  -1   7   75.50    2.87
   6  -1  -7   73.57    3.45
  -6  -1   7   75.13    2.92
   6  -1  -7   78.60    2.99
   6   1  -7   76.14    3.10
   6   1  -7   79.00    3.12
  -6   1   7   77.66    3.06
   6   1  -7   75.53    2.98
  -6   1   7   78.08    3.19
  -6   1   7   79.85    2.94
   5  -1  -7    8.88    1.15
   5  -1  -7    7.90    1.32
   5  -1  -7    8.82    0.99
  -5  -1   7    8.23    1.24
  -5  -1   7    9.63    1.09
  -5  -1   7    9.20    1.05
   5   1  -7    6.74    1.09
  -5   1   7    8.09    0.90
   5   1  -7    8.46    1.02
  -5   1   7   10.46    0.96
   5   1  -7    9.41    0.95
  -5   1   7    8.72    1.24
   4  -1  -7   82.89    3.03
   4  -1  -7   77.29    2.95
  -4  -1   7   83.49    3.19
  -4  -1   7   83.59    2.87
   4  -1  -7   82.90    3.37
  -4  -1   7   84.84    2.97
  -4   1   7   78.45    2.83
  -4   1   7   84.89    2.91
   4   1  -7   85.08    3.13
   4   1  -7   82.99    3.00
  -4   1   7   79.28    2.98
   4   1  -7   90.45    3.19
  -3  -1   7   14.07    1.00
   3  -1  -7   15.65    1.38
   3  -1  -7   15.55    1.23
  -3  -1   7   15.84    0.95
   3  -1  -7   15.12    1.37
   3  -1  -7   14.12    1.22
  -3  -1   7   16.57    1.27
  -3   1   7   15.78    1.24
   3   1  -7   16.54    1.41
   3   1  -7   13.46    1.19
  -3   1   7   13.56    0.96
  -3   1   7   13.49    1.13
   3   1  -7   13.93    1.04
   2  -1  -7    2.81    0.72
  -2  -1   7    2.14    0.79
  -2  -1   7    3.71    0.53
   2  -1  -7    3.76    0.58
  -2  -1   7    3.01    0.46
   2  -1  -7    3.57    0.79
   2   1  -7    2.75    0.62
   2   1  -7    3.02    0.52
  -2   1   7    3.36    0.56
   2   1  -7    2.80    0.61
  -2   1   7    3.01    0.58
  -2   1   7    2.92    0.75
  -1  -1   7   13.99    1.21
   1  -1  -7   13.72    1.15
   1  -1  -7   16.02    1.09
   1  -1  -7   14.49    0.79
   1   1  -7   15.67    0.74
  -1   1   7   13.43    1.14
   1   1  -7   14.31    1.24
   1   1  -7   12.82    1.03
   0  -1  -7  216.83    6.09
   0  -1   7  204.02    6.11
   0  -1  -7  211.37    6.15
   0   1  -7  209.46    6.12
   0   1  -7  213.45    6.26
   0   1   7  212.73    6.09
   0   1  -7  209.87    6.06
  -1  -1  -7   -0.08    0.45
  -1  -1  -7    0.61    0.41
   1  -1   7    0.22    0.38
   1  -1   7   -0.37    0.41
  -1  -1  -7   -0.64    0.91
   1   1   7   -0.26    0.46
  -1   1  -7    0.66    0.32
  -1   1  -7    0.53    0.55
  -1   1  -7    0.23    0.42
   1   1   7   -0.16    0.36
  -2  -1  -7    2.93    0.46
  -2  -1  -7    1.96    0.35
   2  -1   7    2.11    0.44
  -2  -1  -7    1.95    0.78
  -2  -1  -7    1.46    0.50
  -2   1  -7    1.60    0.44
  -2   1  -7    2.08    0.32
   2   1   7    1.19    0.39
  -2   1  -7    2.32    0.48
  -3  -1  -7   16.42    1.17
  -3  -1  -7   15.22    1.45
   3  -1   7   13.25    0.72
  -3  -1  -7   11.05    0.62
   3   1   7    9.98    0.62
  -3   1  -7    9.95    0.56
  -3   1  -7   15.90    1.03
  -4  -1  -7   49.59    1.57
   4  -1   7   48.54    1.53
  -4  -1  -7   53.83    2.11
  -4  -1  -7   58.09    2.87
  -4   1  -7   55.70    2.60
  -4   1  -7   47.52    1.53
  -4   1  -7   48.10    1.90
   4   1   7   48.87    1.56
   5  -1   7    3.69    0.33
  -5  -1  -7    4.11    0.77
  -5  -1  -7    4.07    0.34
  -5  -1  -7    2.87    0.99
  -5   1  -7    3.55    0.94
  -5   1  -7    3.65    0.31
   5   1   7    3.49    0.35
  -6  -1  -7    3.08    1.36
  -6  -1  -7    3.69    0.38
  -6   1  -7    3.81    1.21
  -6   1  -7    3.84    0.33
  -7  -1  -7   25.93    1.01
  -7  -1  -7   25.31    2.53
  -7   1  -7   26.57    2.26
  10  -2  -7   59.06    2.98
  10  -2  -7   60.46    3.42
 -10  -2   7   68.26    4.44
 -10  -2   7   65.83    3.04
 -10   2   7   64.84    3.27
 -10   2   7   70.41    3.93
 -10   2   7   62.40    3.00
  10   2  -7   66.54    3.08
  10   2  -7   59.17    3.26
  -9  -2   7   57.46    2.72
  -9  -2   7   56.58    4.12
   9  -2  -7   57.84    3.49
   9  -2  -7   54.51    2.72
  -9   2   7   58.26    3.01
   9   2  -7   56.45    2.81
   9   2  -7   54.82    2.98
   8  -2  -7    2.57    1.08
  -8  -2   7    5.71    1.30
   8  -2  -7    3.94    0.91
  -8  -2   7    2.51    1.12
   8  -2  -7    4.57    1.24
  -8  -2   7    5.15    1.63
  -8  -2   7    2.82    1.13
  -8   2   7    3.91    1.16
   8   2  -7    3.99    1.20
  -8   2   7    2.76    1.20
   8   2  -7    3.57    0.88
   8   2  -7    3.75    0.93
  -7  -2   7   31.47    1.82
  -7  -2   7   32.83    1.84
   7  -2  -7   33.16    2.09
  -7  -2   7   32.60    2.28
   7  -2  -7   32.23    2.21
   7  -2  -7   34.00    2.17
   7   2  -7   34.20    1.93
   7   2  -7   30.23    2.05
  -7   2   7   29.83    1.82
  -7   2   7   27.67    2.15
   7   2  -7   30.09    2.11
  -6  -2   7   39.30    1.90
   6  -2  -7   38.89    2.27
  -6  -2   7   39.05    2.13
   6  -2  -7   40.40    2.33
   6  -2  -7   40.29    2.24
  -6  -2   7   37.69    2.12
   6   2  -7   36.16    2.29
   6   2  -7   38.53    2.20
   6   2  -7   39.34    1.99
  -6   2   7   37.84    2.20
  -6   2   7   39.95    2.06
   5  -2  -7   64.05    2.72
   5  -2  -7   60.33    2.70
  -5  -2   7   60.05    2.52
   5  -2  -7   61.62    3.08
  -5  -2   7   62.26    2.47
  -5  -2   7   59.32    2.87
  -5   2   7   63.79    2.50
   5   2  -7   63.29    2.62
   5   2  -7   62.78    2.66
   5   2  -7   66.63    2.59
  -5   2   7   65.28    2.81
   4  -2  -7   56.53    2.23
   4  -2  -7   57.01    2.51
  -4  -2   7   53.00    2.25
   4  -2  -7   49.88    2.21
  -4  -2   7   54.94    2.36
  -4   2   7   53.53    2.48
   4   2  -7   53.45    2.49
   4   2  -7   52.15    2.30
  -4   2   7   51.79    2.28
   4   2  -7   56.18    2.44
   3  -2  -7    4.29    0.89
   3  -2  -7    3.64    0.78
  -3  -2   7    2.80    0.96
  -3  -2   7    4.35    0.69
   3  -2  -7    2.82    0.78
   3   2  -7    3.92    0.73
   3   2  -7    3.93    0.94
   3   2  -7    5.44    0.97
  -3   2   7    2.97    0.89
   2  -2  -7   77.46    2.77
   2  -2  -7   79.12    2.80
   2  -2  -7   77.33    3.06
  -2  -2   7   81.87    2.68
  -2  -2   7   81.34    2.90
  -2   2   7   85.24    2.87
   2   2  -7   83.39    2.88
  -2   2   7   80.67    2.75
   2   2  -7   82.21    2.69
   2   2  -7   82.49    2.92
   1  -2  -7   47.80    1.86
   1  -2  -7   47.72    1.73
  -1  -2   7   49.37    2.12
   1   2  -7   51.88    1.66
  -1   2   7   46.29    2.01
   1   2  -7   45.98    2.04
   1   2  -7   47.71    2.01
  -1   2   7   47.25    1.72
   0  -2  -7    5.84    0.62
   0  -2  -7    7.80    0.99
   0  -2   7    7.57    0.86
   0  -2  -7    5.57    0.70
   0   2   7    6.19    0.75
   0   2  -7    6.39    0.68
   0   2  -7    6.68    0.91
  -1  -2  -7   59.55    2.05
  -1  -2  -7   58.15    2.64
  -1  -2  -7   59.36    2.49
   1  -2   7   58.57    2.20
  -1  -2  -7   61.85    2.13
  -1   2  -7   60.61    2.17
   1   2   7   63.05    2.17
  -1   2  -7   60.49    2.39
  -2  -2  -7   35.40    2.05
  -2  -2  -7   34.51    1.29
  -2  -2  -7   35.79    1.86
  -2  -2  -7   36.46    1.41
   2  -2   7   34.49    1.49
   2   2   7   34.43    1.48
  -2   2  -7   34.34    1.43
  -2   2  -7   35.12    1.62
   3  -2   7    3.12    0.55
  -3  -2  -7    3.51    0.52
  -3  -2  -7    3.49    0.83
  -3  -2  -7    3.76    1.22
  -3   2  -7    1.96    0.56
  -3   2  -7    3.02    0.52
   3   2   7    5.18    0.58
  -4  -2  -7    9.17    1.05
  -4  -2  -7    7.54    1.47
  -4  -2  -7    7.10    0.60
  -4   2  -7    8.11    0.63
   4   2   7    8.07    0.66
  -4   2  -7    8.38    0.93
  -5  -2  -7   28.97    2.46
  -5  -2  -7   27.57    1.71
  -5  -2  -7   30.60    1.25
   5   2   7   30.74    1.28
  -5   2  -7   31.22    1.23
   6  -2   7   31.85    1.30
  -6  -2  -7   33.09    1.33
  -6  -2  -7   33.18    2.34
   6   2   7   33.38    1.36
  -6   2  -7   31.96    1.29
  10  -3  -7    3.08    1.35
 -10  -3   7    2.33    1.33
 -10  -3   7    4.61    2.31
  10  -3  -7   -0.83    1.71
  10   3  -7    3.67    1.17
  10   3  -7    1.30    1.34
 -10   3   7    3.11    1.04
   9  -3  -7   19.41    1.71
   9  -3  -7   23.77    2.21
  -9  -3   7   20.83    1.96
  -9  -3   7   25.21    2.95
   9   3  -7   25.42    2.07
   9   3  -7   24.18    2.02
  -9   3   7   21.68    1.99
  -8  -3   7  107.84    4.81
   8  -3  -7  108.59    4.67
   8  -3  -7  101.42    3.96
  -8  -3   7  103.69    3.95
   8   3  -7  104.69    4.17
   8   3  -7  103.15    3.85
   8   3  -7   97.55    4.04
  -8   3   7  106.38    4.13
  -8   3   7  101.86    4.05
  -7  -3   7    2.86    2.07
   7  -3  -7    4.62    1.19
   7  -3  -7    3.56    1.11
  -7  -3   7    4.07    0.89
   7  -3  -7    5.73    1.16
   7   3  -7    3.83    1.19
  -7   3   7    3.29    1.17
   7   3  -7    4.38    1.13
   7   3  -7    4.24    1.21
  -7   3   7    5.28    1.23
   6  -3  -7    5.45    1.17
  -6  -3   7    7.03    1.14
   6  -3  -7    5.77    1.19
   6  -3  -7    5.24    0.91
  -6  -3   7    4.21    1.00
   6   3  -7    5.46    0.93
   6   3  -7    6.03    1.29
  -6   3   7    4.06    1.15
   6   3  -7    3.81    0.90
  -6   3   7    6.77    1.02
   5  -3  -7  115.00    4.56
   5  -3  -7  117.34    4.23
  -5  -3   7  122.49    4.42
  -5  -3   7  120.20    4.16
   5  -3  -7  118.42    4.22
  -5   3   7  124.14    4.23
   5   3  -7  118.39    4.31
   5   3  -7  121.42    4.11
   5   3  -7  116.94    4.12
  -5   3   7  120.71    4.16
  -4  -3   7  105.78    4.09
  -4  -3   7  104.58    3.71
   4  -3  -7  114.74    3.95
   4  -3  -7  116.36    4.25
   4  -3  -7  116.83    3.95
   4   3  -7  101.52    3.98
   4   3  -7  117.11    3.88
   4   3  -7  113.38    3.98
  -4   3   7  107.63    3.98
   3  -3  -7   59.31    2.39
  -3  -3   7   60.74    2.74
   3  -3  -7   61.16    2.49
   3  -3  -7   58.46    2.56
  -3  -3   7   56.53    2.21
   3   3  -7   56.54    2.59
   3   3  -7   62.83    2.50
   3   3  -7   58.44    2.35
  -3   3   7   56.97    2.41
  -2  -3   7    9.38    1.03
   2  -3  -7   10.36    1.17
   2  -3  -7    9.02    1.05
   2  -3  -7   10.65    1.01
  -2  -3   7    8.83    0.82
   2   3  -7    6.68    1.09
  -2   3   7    8.58    1.08
   2   3  -7    8.68    0.83
   2   3  -7    8.50    0.96
   1  -3  -7   73.11    2.97
   1  -3  -7   71.43    2.79
   1  -3  -7   76.22    2.76
  -1  -3   7   74.02    2.91
   1  -3  -7   70.84    2.54
   1   3  -7   73.84    2.42
  -1   3   7   74.62    2.77
   1   3  -7   75.16    2.94
   1   3  -7   72.41    2.82
   0  -3  -7  117.98    4.18
   0  -3   7  117.05    3.98
   0  -3  -7  115.16    3.86
   0  -3  -7  120.88    4.40
   0   3  -7  124.90    3.96
   0   3  -7  121.69    4.10
   0   3   7  120.43    3.92
  -1  -3  -7  175.03    5.30
   1  -3   7  177.75    5.40
  -1  -3  -7  176.15    5.68
  -1  -3  -7  178.78    5.24
  -1  -3  -7  175.38    5.87
  -1   3  -7  174.35    5.52
  -1   3  -7  177.08    5.36
   1   3   7  177.09    5.36
  -2  -3  -7    9.10    0.99
  -2  -3  -7    8.46    0.81
  -2  -3  -7    9.12    1.23
  -2   3  -7    8.21    1.07
   2   3   7    8.02    0.83
  -2   3  -7    8.97    0.88
  -3  -3  -7    4.15    0.81
  -3  -3  -7    4.22    1.34
  -3  -3  -7    3.80    0.63
  -3   3  -7    3.92    0.90
  -3   3  -7    3.07    0.73
   3   3   7    3.74    0.64
  -4  -3  -7   84.84    2.98
  -4  -3  -7   91.51    3.48
  -4  -3  -7   95.94    4.11
   4   3   7   95.31    3.09
  -4   3  -7   84.38    3.21
  -4   3  -7   94.41    3.04
  -5  -3  -7   68.21    3.68
  -5  -3  -7   72.84    2.95
  -5  -3  -7   72.58    2.60
  -5   3  -7   75.86    2.95
  -5   3  -7   77.14    2.55
   5   3   7   73.63    2.64
   6  -3   7    1.78    0.67
  -6  -3  -7    3.51    0.82
  -6  -3  -7    2.50    0.66
  -6  -3  -7   -0.29    1.39
  -6   3  -7    2.39    0.67
   6   3   7    2.59    0.70
  -9  -4   7    1.97    1.48
   9  -4  -7    2.05    1.34
  -9  -4   7    3.31    1.40
   9  -4  -7    2.98    1.41
  -9  -4   7    4.21    2.23
  -9   4   7    3.23    1.04
   9   4  -7    1.69    1.00
   9   4  -7    2.81    0.89
  -8  -4   7   32.29    3.17
   8  -4  -7   33.37    2.51
  -8  -4   7   28.90    2.61
   8  -4  -7   37.63    3.09
  -8  -4   7   33.16    2.43
   8   4  -7   33.05    2.50
  -8   4   7   30.89    2.42
  -8   4   7   29.72    2.38
   8   4  -7   30.56    1.96
   7  -4  -7   61.47    3.25
   7  -4  -7   63.76    3.17
  -7  -4   7   66.29    3.10
   7  -4  -7   69.54    3.08
  -7  -4   7   61.36    3.68
  -7   4   7   67.04    2.91
   7   4  -7   66.97    2.95
   7   4  -7   64.42    2.94
   7   4  -7   63.50    3.02
  -7   4   7   59.55    2.86
   6  -4  -7   35.10    2.48
  -6  -4   7   38.89    2.12
   6  -4  -7   44.98    2.42
   6  -4  -7   41.36    2.20
  -6  -4   7   39.91    2.99
  -6   4   7   42.63    2.53
   6   4  -7   41.70    2.16
   6   4  -7   38.65    2.23
  -6   4   7   42.86    2.46
   6   4  -7   42.12    2.45
  -5  -4   7   20.91    1.48
   5  -4  -7   20.63    1.77
   5  -4  -7   17.31    1.48
   5  -4  -7   20.51    1.66
   5   4  -7   19.25    1.72
   5   4  -7   20.58    1.62
   5   4  -7   18.53    1.52
  -5   4   7   19.17    1.68
   4  -4  -7   28.19    2.27
   4   4  -7   29.71    1.88
   3  -4  -7   96.56    3.41
   3  -4  -7   94.61    3.47
   3  -4  -7   91.81    3.63
  -3  -4   7   88.73    3.23
   3   4  -7   80.50    3.48
   3   4  -7   87.12    3.25
  -3   4   7   92.99    3.53
   3   4  -7   87.07    3.36
   2  -4  -7  149.60    4.84
   2  -4  -7  145.90    4.98
   2  -4  -7  152.03    4.82
   2  -4  -7  145.69    5.00
   2   4  -7  150.04    4.95
   2   4  -7  154.24    4.92
   2   4  -7  148.20    4.68
  -2   4   7  148.32    4.86
   1  -4  -7  180.56    5.86
   1  -4  -7  169.15    5.58
   1  -4  -7  177.84    5.62
   1   4  -7  180.24    5.69
  -1   4   7  178.14    5.65
   1   4  -7  181.43    5.79
   0  -4  -7    0.99    0.65
   0  -4   7    1.02    0.62
   0  -4  -7    1.04    0.97
   0  -4  -7    2.27    1.11
   0  -4  -7    1.20    0.78
   0   4  -7    1.75    0.76
   0   4  -7    0.30    0.59
   0   4   7    0.86    0.81
  -1  -4  -7   45.25    2.06
  -1  -4  -7   43.62    2.17
   1  -4   7   45.25    1.74
  -1  -4  -7   42.81    2.37
  -1   4  -7   43.69    2.14
   1   4   7   45.70    1.97
  -1   4  -7   44.54    2.11
  -2  -4  -7   67.80    2.97
  -2  -4  -7   68.57    3.34
  -2  -4  -7   65.35    2.58
  -2   4  -7   65.12    2.73
   2   4   7   67.29    2.63
  -2   4  -7   65.79    2.61
  -3  -4  -7   85.62    3.87
  -3  -4  -7   99.48    3.77
  -3  -4  -7   95.79    3.31
  -3   4  -7   96.91    3.66
   3   4   7   89.22    3.31
  -3   4  -7  100.88    3.34
  -4  -4  -7   16.17    1.23
  -4  -4  -7   11.34    1.55
  -4  -4  -7   15.01    1.40
   4   4   7   13.86    1.15
  -4   4  -7   14.96    1.28
  -4   4  -7   13.51    1.26
  -5  -4  -7    9.28    1.85
  -5  -4  -7    8.77    1.38
  -5  -4  -7   10.56    1.01
   5  -4   7   10.57    1.14
  -5   4  -7   11.15    1.06
   5   4   7   12.69    1.12
  -5   4  -7   10.86    1.34
  -8  -5   7    8.63    1.47
   8  -5  -7   10.41    1.65
  -8  -5   7   10.97    2.51
  -8  -5   7    9.79    1.61
   8   5  -7    9.42    1.35
   8   5  -7   12.32    1.53
  -8   5   7   11.14    1.41
  -7  -5   7    5.67    1.26
  -7  -5   7    5.67    1.67
  -7  -5   7    5.03    1.08
   7  -5  -7    8.72    1.45
   7  -5  -7    7.97    1.51
  -7   5   7    4.68    1.06
   7   5  -7    6.64    1.11
   7   5  -7    7.67    1.43
  -7   5   7    4.22    1.35
   7   5  -7    5.39    1.20
   6  -5  -7   19.41    1.76
   6  -5  -7   18.43    1.59
  -6  -5   7   12.66    1.76
  -6  -5   7   16.56    2.09
  -6  -5   7   18.48    1.73
  -6   5   7   17.44    1.75
   6   5  -7   16.68    1.51
   6   5  -7   15.90    1.82
   6   5  -7   16.51    1.69
   5  -5  -7   14.25    1.38
  -5  -5   7   11.23    1.40
   5  -5  -7   12.01    1.47
  -5  -5   7   10.16    1.57
  -5  -5   7   12.70    2.24
   5   5  -7   13.71    1.56
   5   5  -7   13.18    1.33
   5   5  -7   11.36    1.65
  -5   5   7   14.46    1.61
  -4  -5   7   49.24    3.55
   4  -5  -7   53.91    2.64
  -4  -5   7   50.11    2.32
  -4  -5   7   52.58    2.75
   4  -5  -7   52.42    2.45
  -4   5   7   50.67    2.74
   4   5  -7   47.37    2.69
   4   5  -7   54.73    2.88
   4   5  -7   54.04    2.58
   3  -5  -7    3.36    0.98
   3  -5  -7    3.50    0.87
  -3  -5   7    1.21    1.02
   3  -5  -7    3.45    0.83
   3  -5  -7    1.38    1.02
   3   5  -7    1.64    0.81
  -3   5   7    2.36    0.85
   3   5  -7    2.04    1.20
   3   5  -7    2.94    0.87
   2  -5  -7    0.96    0.85
   2  -5  -7    1.19    0.69
  -2  -5   7    1.70    0.90
   2  -5  -7    0.60    1.04
   2  -5  -7    0.06    0.86
  -2   5   7    0.61    0.71
   2   5  -7    0.84    0.79
   2   5  -7    0.59    0.73
   1  -5  -7   14.80    1.60
   1  -5  -7   15.48    1.33
  -1  -5   7   13.71    1.15
   1  -5  -7   15.91    1.37
  -1   5   7   14.49    1.28
   1   5  -7   17.20    1.48
   1   5  -7   13.94    1.37
   0  -5  -7   59.66    3.03
   0  -5  -7   59.48    2.53
   0  -5   7   57.64    2.37
   0  -5  -7   66.69    2.99
   0   5  -7   60.08    2.58
   0   5  -7   63.69    2.76
   0   5   7   60.39    2.60
  -1  -5  -7    0.17    0.72
  -1  -5  -7    1.30    0.87
  -1  -5  -7   -0.43    0.80
  -1   5  -7    0.80    1.08
   1   5   7    1.36    0.90
  -1   5  -7    0.70    0.65
  -2  -5  -7   22.67    2.13
  -2  -5  -7   20.67    1.67
  -2  -5  -7   21.71    1.63
  -2   5  -7   24.10    1.74
   2   5   7   20.03    1.72
  -2   5  -7   22.74    1.82
  -3  -5  -7   44.00    2.32
  -3  -5  -7   38.60    2.52
  -3  -5  -7   42.42    2.11
  -3   5  -7   41.23    2.46
  -3   5  -7   34.71    1.88
   3   5   7   41.16    2.17
   4  -5   7   25.82    1.86
  -4  -5  -7   27.57    1.76
  -4  -5  -7   26.47    2.20
  -4  -5  -7   23.65    2.20
  -4   5  -7   26.29    1.80
  -4   5  -7   26.37    2.18
   4   5   7   31.20    1.88
  -7  -6   7    0.90    1.23
   7  -6  -7    0.39    1.28
  -7  -6   7    0.68    1.39
  -7  -6   7   -3.37    1.80
   7   6  -7    0.06    0.79
   7   6  -7   -1.03    1.22
  -7   6   7   -0.24    0.87
  -7   6   7    0.99    1.32
  -6  -6   7   13.91    1.67
  -6  -6   7   13.16    2.33
   6  -6  -7   13.76    1.47
   6  -6  -7   16.47    1.79
  -6  -6   7   12.02    1.80
   6   6  -7   15.40    1.65
   6   6  -7   14.07    1.52
   6   6  -7   13.37    1.67
  -6   6   7   11.81    1.72
  -5  -6   7    0.41    1.76
   5  -6  -7    0.26    0.81
   5  -6  -7   -0.48    0.79
  -5  -6   7    2.55    1.29
  -5  -6   7    0.90    1.07
   5   6  -7    0.67    1.19
  -5   6   7    1.90    1.25
   5   6  -7    3.28    1.41
   5   6  -7    2.62    0.87
  -4  -6   7    1.17    1.11
   4  -6  -7    0.41    1.06
   4  -6  -7    0.93    0.81
  -4  -6   7   -0.25    1.57
  -4   6   7    1.10    1.16
   4   6  -7   -0.40    1.11
   4   6  -7   -0.51    0.92
   4   6  -7    0.91    1.31
   3  -6  -7   -0.84    0.96
  -3  -6   7    0.03    0.72
   3  -6  -7   -0.66    0.72
   3  -6  -7   -0.57    0.70
  -3  -6   7   -1.79    1.40
  -3   6   7    0.86    1.17
   3   6  -7    1.66    1.21
   3   6  -7    1.00    0.91
   2  -6  -7   10.84    1.37
  -2  -6   7    9.98    1.71
   2  -6  -7   10.53    1.43
  -2  -6   7    9.93    1.30
   2  -6  -7   10.27    1.51
  -2   6   7    9.32    1.45
   2   6  -7    9.27    1.52
   2   6  -7    8.69    1.51
   1  -6  -7    4.09    1.02
  -1  -6   7    4.16    0.77
   1  -6  -7    4.90    1.19
  -1  -6   7    3.05    1.34
   1   6  -7    5.15    1.07
  -1   6   7    2.46    1.17
   1   6  -7    4.13    1.04
   0  -6   7   19.47    1.66
   0  -6  -7   17.27    1.84
   0  -6  -7   16.75    1.49
   0  -6  -7   14.57    1.51
   0   6  -7   18.22    1.60
   0   6   7   17.03    1.62
   0   6  -7   20.14    1.78
  -1  -6  -7    1.47    0.87
  -1  -6  -7    1.40    1.26
  -1  -6  -7    0.70    0.71
   1   6   7   -0.20    0.98
  -1   6  -7    1.09    0.85
  -1   6  -7    0.98    0.80
  -2  -6  -7    7.36    1.52
  -2  -6  -7    4.52    1.12
  -2  -6  -7    7.05    1.61
  -2   6  -7    6.29    1.03
  -2   6  -7    8.55    1.49
   2   6   7    6.01    1.23
  -3  -6  -7    5.60    1.19
  -3  -6  -7    3.16    1.58
   3  -6   7    3.52    1.18
  -3  -6  -7    4.25    1.08
  -3   6  -7    5.56    1.21
  -3   6  -7    3.13    1.03
   3   6   7    4.62    1.14
  -4  -7   7   18.47    2.19
  -4  -7   7   17.55    1.92
   4  -7  -7   16.88    1.89
   4  -7  -7   15.86    1.64
  -4   7   7   17.18    1.73
   4   7  -7   16.47    1.73
   4   7  -7   18.52    2.05
  -3  -7   7    8.76    1.44
  -3  -7   7    8.48    1.69
   3  -7  -7   11.12    1.65
   3  -7  -7   11.34    1.40
   3   7  -7    8.74    1.36
  -3   7   7    7.10    1.54
   3   7  -7   10.62    1.80
   2  -7  -7   -0.52    1.15
  -2  -7   7    0.78    1.02
   2  -7  -7    0.21    1.27
   2   7  -7    1.36    1.32
   2   7  -7   -0.74    0.96
  -2   7   7    0.04    1.26
  -1  -7   7   29.39    1.95
   1  -7  -7   28.68    1.99
   1  -7  -7   30.42    2.47
   1   7  -7   27.39    2.13
   1   7  -7   27.93    2.10
  -1   7   7   31.64    2.46
   0  -7  -7   20.32    1.87
   0  -7  -7   20.30    1.87
   0  -7  -7   19.78    1.99
   0   7  -7   18.79    1.99
   0   7   7   18.27    1.66
   0   7  -7   17.50    1.67
  10   0  -8   -0.27    1.18
  10   0  -8   -0.26    1.38
  10   0  -8   -0.08    1.20
 -10   0   8    0.53    0.84
 -10   0   8    0.93    1.49
 -10   0   8   -1.05    0.78
  -9   0   8   -0.31    1.05
   9   0  -8    0.58    0.79
   9   0  -8   -0.25    0.78
  -9   0   8   -1.59    1.06
   9   0  -8    0.79    1.32
  -9   0   8    0.32    1.07
   8   0  -8   62.38    2.83
   8   0  -8   65.22    2.82
  -8   0   8   66.62    3.00
  -8   0   8   60.44    3.04
   8   0  -8   64.82    3.40
  -8   0   8   61.67    2.97
   8   0  -8   65.62    3.05
   7   0  -8   -0.56    1.00
   7   0  -8   -0.03    0.99
  -7   0   8   -1.16    0.60
  -7   0   8   -0.04    0.63
   7   0  -8   -0.62    0.78
   7   0  -8   -0.06    0.92
  -7   0   8    1.24    0.81
   6   0  -8   73.87    2.93
   6   0  -8   73.66    2.98
   6   0  -8   73.47    3.21
  -6   0   8   75.88    3.00
  -6   0   8   75.56    3.22
  -6   0   8   75.91    3.04
   6   0  -8   74.99    3.15
   5   0  -8    0.28    0.89
  -5   0   8    0.65    0.77
   5   0  -8    0.17    0.80
  -5   0   8   -0.62    0.67
  -5   0   8    0.23    0.76
   5   0  -8    0.18    0.68
   4   0  -8   80.91    2.87
  -4   0   8   74.31    2.80
   4   0  -8   70.05    2.99
   4   0  -8   74.00    2.99
  -4   0   8   74.56    3.04
  -4   0   8   77.61    2.74
   3   0  -8    0.75    0.58
  -3   0   8    0.32    0.53
   3   0  -8   -0.66    0.76
   3   0  -8   -0.35    0.76
  -3   0   8   -0.03    0.53
  -3   0   8    0.53    0.87
   2   0  -8  114.65    3.48
  -2   0   8  115.44    3.46
  -2   0   8  111.78    3.70
   2   0  -8  115.52    3.85
   2   0  -8  110.47    3.75
  -2   0   8  111.58    3.46
   1   0  -8    0.43    0.44
  -1   0   8    0.10    0.64
   1   0  -8    0.39    0.47
  -1   0   8    0.10    0.30
   0   0  -8   17.42    1.12
   0   0   8   18.56    0.70
   0   0  -8   17.97    1.09
   0   0   8   18.86    1.18
  -1   0  -8    0.29    0.41
  -1   0  -8    0.59    0.52
   1   0   8   -0.51    0.42
  -2   0  -8  125.40    3.69
  -2   0  -8  108.45    3.46
   2   0   8  120.59    3.52
  -3   0  -8    0.61    1.06
   3   0   8    0.12    0.33
  -3   0  -8   -0.04    0.27
   4   0   8   13.46    0.66
  -4   0  -8   14.45    0.64
  -4   0  -8   14.33    1.69
  -5   0  -8    0.95    1.20
  -5   0  -8    0.16    0.18
  -6   0  -8   16.80    1.95
 -10  -1   8   -0.02    1.18
  10  -1  -8    1.71    1.31
 -10  -1   8    1.17    0.89
  10  -1  -8    2.81    1.57
  10  -1  -8    1.05    0.93
 -10  -1   8    0.96    1.60
 -10   1   8    1.07    1.19
  10   1  -8   -0.66    1.09
 -10   1   8    1.32    1.99
  10   1  -8    3.02    1.32
 -10   1   8    0.79    1.22
   9  -1  -8   18.84    1.81
  -9  -1   8   19.69    1.81
  -9  -1   8   22.98    1.90
   9  -1  -8   17.10    1.85
  -9  -1   8   17.66    1.78
   9  -1  -8   17.80    1.81
  -9   1   8   20.25    1.77
  -9   1   8   15.98    1.55
   9   1  -8   17.65    1.62
  -9   1   8   16.70    1.55
   9   1  -8   17.00    1.75
   8  -1  -8    9.28    1.46
  -8  -1   8   10.56    1.40
   8  -1  -8   11.98    1.53
  -8  -1   8   12.77    1.56
   8  -1  -8   10.93    1.24
  -8  -1   8    8.90    1.16
   8  -1  -8   10.85    1.20
   8   1  -8   13.95    1.55
  -8   1   8   10.29    1.39
   8   1  -8   12.36    1.48
  -8   1   8    9.95    1.44
  -8   1   8    9.78    1.19
   8   1  -8   11.72    1.26
  -7  -1   8    0.80    1.15
   7  -1  -8    2.15    1.10
   7  -1  -8    2.15    0.84
  -7  -1   8    2.61    0.81
  -7  -1   8    1.95    1.02
   7  -1  -8    2.23    1.14
   7  -1  -8    0.26    1.26
  -7   1   8    3.24    1.07
   7   1  -8    2.88    0.88
  -7   1   8    1.53    1.13
   7   1  -8    1.43    0.80
   7   1  -8    1.35    0.80
  -7   1   8    2.49    1.09
  -6  -1   8    2.81    0.96
   6  -1  -8    2.88    1.14
   6  -1  -8    4.81    1.17
  -6  -1   8    4.13    0.99
   6  -1  -8    2.94    1.00
   6  -1  -8    3.65    1.04
  -6  -1   8    2.26    1.15
  -6   1   8    2.60    0.98
  -6   1   8    4.99    0.93
  -6   1   8    3.15    1.01
   6   1  -8    3.00    0.79
   6   1  -8    3.31    1.07
   6   1  -8    2.12    1.12
   5  -1  -8   93.51    3.43
  -5  -1   8   94.09    3.31
   5  -1  -8   95.00    3.37
   5  -1  -8   91.21    3.82
  -5  -1   8   93.03    3.66
  -5  -1   8   93.36    3.22
   5  -1  -8   86.25    3.41
  -5   1   8   96.33    3.39
   5   1  -8   91.10    3.43
  -5   1   8   98.95    3.49
   5   1  -8   93.73    3.57
  -5   1   8   96.42    3.45
   5   1  -8   95.15    3.60
  -4  -1   8    6.59    1.12
  -4  -1   8    5.67    0.86
   4  -1  -8    4.88    1.06
   4  -1  -8    5.80    0.92
   4   1  -8    5.58    0.86
   4   1  -8    5.94    1.07
  -4   1   8    5.44    1.08
  -3  -1   8    6.70    0.76
  -3  -1   8    6.28    0.71
   3  -1  -8    5.08    0.82
   3  -1  -8    6.29    0.81
  -3  -1   8    5.77    0.84
   3  -1  -8    7.03    1.00
  -3   1   8    7.50    1.05
   3   1  -8    6.03    1.03
   3   1  -8    6.22    0.79
  -3   1   8    6.74    0.80
  -3   1   8    6.33    0.81
   3   1  -8    5.92    0.84
   2  -1  -8   32.08    1.68
   2  -1  -8   29.50    1.73
  -2  -1   8   33.38    1.83
   2  -1  -8   31.11    1.38
  -2  -1   8   31.07    1.25
  -2  -1   8   30.06    1.31
   2   1  -8   33.75    1.33
   2   1  -8   29.26    1.71
   2   1  -8   31.34    1.61
  -2   1   8   29.99    1.41
  -2   1   8   29.22    1.72
  -2   1   8   30.12    1.36
   1  -1  -8   66.54    2.53
   1  -1  -8   68.76    2.48
  -1  -1   8   70.21    2.57
  -1   1   8   66.99    2.52
   1   1  -8   69.19    2.55
  -1   1   8   67.72    2.28
   1   1  -8   65.73    2.62
   0  -1  -8    0.64    0.52
   0  -1   8   -0.12    0.62
   0  -1  -8    0.97    0.57
   0   1  -8    0.89    0.49
   0   1   8    0.77    0.57
   0   1  -8    0.44    0.58
  -1  -1  -8   19.16    1.05
   1  -1   8   19.60    1.15
  -1  -1  -8   19.81    1.10
  -1   1  -8   21.43    1.34
  -1   1  -8   19.65    1.14
   1   1   8   18.73    1.10
  -2  -1  -8  120.32    3.65
  -2  -1  -8  115.39    4.41
   2  -1   8  121.70    3.70
  -2  -1  -8  127.57    3.70
  -2   1  -8  122.77    3.71
  -2   1  -8  123.70    3.93
   2   1   8  123.98    3.68
  -3  -1  -8   25.37    1.10
   3   1   8   30.22    1.21
  -4  -1  -8   19.91    1.82
  -4  -1  -8   21.78    0.89
   4  -1   8   20.60    0.91
   4   1   8   21.25    0.92
  -4   1  -8   21.23    0.89
  -5  -1  -8    6.17    0.47
  -5  -1  -8    8.04    1.60
  -5   1  -8    6.24    0.48
  -6  -1  -8   24.86    0.94
  -6  -1  -8   23.85    2.35
  -6   1  -8   27.41    2.26
  10  -2  -8   28.76    2.69
  10  -2  -8   27.54    2.30
 -10  -2   8   27.74    2.05
 -10  -2   8   32.79    3.29
  10   2  -8   24.83    1.90
 -10   2   8   24.37    2.19
  10   2  -8   23.44    2.21
 -10   2   8   27.12    2.58
 -10   2   8   29.86    2.40
   9  -2  -8    7.36    1.45
  -9  -2   8    9.20    2.49
   9  -2  -8   10.09    1.56
  -9  -2   8   10.81    1.59
  -9  -2   8    8.48    1.26
  -9  -2   8    9.10    1.49
   9   2  -8   10.71    1.49
  -9   2   8    8.98    1.55
  -9   2   8    8.47    1.19
   9   2  -8    8.34    1.47
  -9   2   8   11.24    1.54
   8  -2  -8    3.89    1.25
  -8  -2   8    5.01    1.07
   8  -2  -8    3.29    1.18
  -8  -2   8    6.23    1.03
  -8  -2   8    5.47    1.24
   8  -2  -8    6.42    1.29
   8   2  -8    5.22    1.28
  -8   2   8    5.66    1.06
  -8   2   8    3.68    0.97
   8   2  -8    4.78    1.23
   8   2  -8    5.06    1.28
  -8   2   8    4.13    1.24
   7  -2  -8   46.50    2.49
   7  -2  -8   39.66    2.49
  -7  -2   8   41.95    2.62
  -7  -2   8   34.85    2.26
   7  -2  -8   44.01    2.22
  -7  -2   8   42.25    2.10
   7   2  -8   42.11    2.43
  -7   2   8   42.62    2.38
  -7   2   8   37.68    2.50
   7   2  -8   40.02    2.22
  -7   2   8   43.17    2.41
   7   2  -8   41.60    2.20
   6  -2  -8   33.67    1.92
   6  -2  -8   36.69    2.64
  -6  -2   8   36.68    1.82
   6  -2  -8   34.03    2.16
  -6  -2   8   33.69    2.38
  -6  -2   8   37.78    2.07
   6   2  -8   33.58    1.89
  -6   2   8   34.44    2.02
  -6   2   8   35.03    2.10
   6   2  -8   30.21    2.12
   6   2  -8   35.43    2.25
  -6   2   8   31.15    2.05
   5  -2  -8   11.05    1.31
  -5  -2   8    9.42    1.18
  -5  -2   8   11.00    1.19
   5  -2  -8   11.96    1.29
  -5  -2   8    9.62    1.07
   5  -2  -8    9.65    1.49
   5   2  -8   10.07    1.13
   5   2  -8    7.83    1.24
   5   2  -8    9.93    1.03
  -5   2   8    9.73    1.12
  -5   2   8    9.85    1.18
  -5   2   8   10.83    1.05
  -4  -2   8   56.45    2.50
   4  -2  -8   57.49    2.67
  -4  -2   8   56.73    2.37
   4  -2  -8   58.76    2.61
   4  -2  -8   58.51    2.50
   4   2  -8   60.85    2.50
   4   2  -8   57.73    2.30
   4   2  -8   57.39    2.68
  -4   2   8   53.14    2.64
  -4   2   8   62.05    2.48
  -4   2   8   56.71    2.43
   3  -2  -8  117.68    3.92
   3  -2  -8  119.70    4.04
  -3  -2   8  125.46    4.20
  -3  -2   8  117.13    3.81
   3  -2  -8  117.37    4.26
  -3   2   8  113.17    3.86
   3   2  -8  117.91    3.82
   3   2  -8  121.10    4.02
   3   2  -8  115.04    4.02
  -3   2   8  120.27    4.08
  -3   2   8  115.70    3.87
   2  -2  -8    1.26    0.84
   2  -2  -8    0.97    0.53
   2  -2  -8    1.43    0.78
  -2  -2   8    0.60    0.64
  -2   2   8    0.67    0.80
   2   2  -8   -0.38    0.80
   2   2  -8    0.78    0.46
   2   2  -8    1.62    0.87
   1  -2  -8   21.32    1.45
  -1  -2   8   25.89    1.66
   1  -2  -8   24.43    1.45
   1   2  -8   23.22    1.43
  -1   2   8   22.23    1.29
   1   2  -8   22.90    1.35
   0  -2   8   58.31    2.35
   0  -2  -8   60.16    2.23
   0  -2  -8   55.28    2.19
   0   2   8   59.68    2.27
   0   2  -8   57.45    2.29
   0   2  -8   60.20    2.47
  -1  -2  -8   95.62    3.13
  -1  -2  -8   95.57    3.76
   1  -2   8   95.00    3.21
  -1  -2  -8   95.13    3.42
  -1  -2  -8   95.53    3.08
  -1   2  -8   97.32    3.19
   1   2   8   99.28    3.18
  -1   2  -8   96.95    3.40
  -2  -2  -8   66.49    2.70
   2  -2   8   65.81    2.38
  -2  -2  -8   62.27    2.23
  -2  -2  -8   62.48    2.95
  -2   2  -8   64.48    2.58
  -2   2  -8   66.43    2.27
   2   2   8   65.15    2.28
   3  -2   8    1.00    0.55
  -3  -2  -8    1.70    1.28
  -3  -2  -8    0.93    0.50
  -3  -2  -8    1.45    0.78
  -3   2  -8    2.23    0.75
   3   2   8   -0.20    0.48
  -3   2  -8    0.28    0.41
  -4  -2  -8   89.08    2.80
  -4  -2  -8   86.48    3.24
  -4  -2  -8   86.75    4.04
  -4   2  -8   88.64    2.80
  -4   2  -8   89.47    3.17
   4   2   8   90.82    2.85
  -5  -2  -8  113.86    3.48
  -5  -2  -8  110.55    4.64
  -5  -2  -8  113.72    4.05
  -5   2  -8  116.34    3.46
   5   2   8  115.41    3.50
  -6  -2  -8   78.86    2.49
  -6  -2  -8   72.03    3.94
  -6   2  -8   75.36    2.41
   9  -3  -8   41.13    2.90
  -9  -3   8   43.58    2.45
  -9  -3   8   41.19    3.91
   9  -3  -8   44.78    2.49
  -9   3   8   40.79    2.71
   9   3  -8   39.19    2.60
   9   3  -8   42.84    2.82
   8  -3  -8    3.48    1.19
   8  -3  -8    1.82    0.93
  -8  -3   8    2.22    1.57
  -8  -3   8    3.00    0.91
   8  -3  -8    5.37    1.73
  -8   3   8    2.15    1.18
   8   3  -8    1.85    1.22
   8   3  -8    2.08    1.16
  -8   3   8    4.04    1.29
   8   3  -8    1.18    1.19
  -7  -3   8    7.48    1.10
  -7  -3   8    5.74    1.44
   7  -3  -8    5.03    1.02
   7  -3  -8    4.54    1.26
   7  -3  -8    7.44    1.63
   7   3  -8    5.46    1.27
   7   3  -8    6.33    1.34
   7   3  -8    7.59    1.33
  -7   3   8    6.08    1.07
  -7   3   8    6.98    1.38
   6  -3  -8  150.73    5.21
  -6  -3   8  156.86    5.40
   6  -3  -8  151.63    5.10
  -6  -3   8  150.55    5.13
   6  -3  -8  149.27    5.42
   6   3  -8  149.72    5.08
  -6   3   8  146.51    5.24
  -6   3   8  148.85    5.16
   6   3  -8  156.87    5.24
   6   3  -8  146.14    5.13
   5  -3  -8  101.35    3.72
   5  -3  -8  100.54    4.20
  -5  -3   8  106.27    3.76
   5  -3  -8  105.68    3.86
  -5  -3   8   97.39    4.03
   5   3  -8  103.79    3.67
  -5   3   8  103.42    3.80
  -5   3   8  103.22    3.94
   5   3  -8  102.16    3.80
   5   3  -8   97.04    3.87
   4  -3  -8   80.12    3.04
   4  -3  -8   81.75    3.11
   4  -3  -8   83.22    3.55
  -4  -3   8   80.75    3.06
  -4  -3   8   81.24    3.46
  -4   3   8   82.95    3.34
   4   3  -8   83.26    3.12
   4   3  -8   81.01    3.35
   4   3  -8   81.27    3.32
   3  -3  -8    9.18    1.10
   3  -3  -8    5.89    1.22
   3  -3  -8    5.93    0.89
  -3  -3   8    7.90    0.89
  -3  -3   8    5.66    1.00
  -3   3   8    7.82    0.99
   3   3  -8    9.00    0.95
   3   3  -8    9.61    1.27
   3   3  -8    8.18    1.05
   2  -3  -8   70.78    2.69
  -2  -3   8   74.59    2.82
   2  -3  -8   68.30    2.93
   2  -3  -8   65.37    2.63
   2   3  -8   69.95    2.75
  -2   3   8   72.60    2.73
   2   3  -8   71.48    2.97
  -1  -3   8  179.63    5.70
   1  -3  -8  173.35    5.61
   1  -3  -8  178.60    5.59
   1  -3  -8  189.51    5.90
  -1   3   8  179.18    5.62
   1   3  -8  179.53    5.78
   1   3  -8  179.00    5.65
   0  -3  -8  134.99    4.37
   0  -3   8  133.91    4.42
   0  -3  -8  132.64    4.72
   0  -3  -8  142.62    4.43
   0   3  -8  139.60    4.48
   0   3   8  140.37    4.46
   0   3  -8  136.53    4.63
  -1  -3  -8    3.60    0.99
  -1  -3  -8    2.23    0.54
  -1  -3  -8    4.86    0.76
   1  -3   8    2.26    0.81
  -1  -3  -8    2.91    0.79
   1   3   8    3.04    0.78
  -1   3  -8    4.19    0.98
  -1   3  -8    2.12    0.74
  -2  -3  -8    8.17    0.84
  -2  -3  -8    9.58    1.33
  -2  -3  -8   10.29    1.27
   2   3   8   11.22    0.95
  -2   3  -8    7.72    0.86
  -2   3  -8   11.83    1.21
  -3  -3  -8  156.79    5.30
  -3  -3  -8  159.82    4.90
  -3  -3  -8  166.73    5.99
   3   3   8  164.14    4.93
  -3   3  -8  156.67    4.89
  -3   3  -8  158.47    5.22
  -4  -3  -8   28.06    2.52
  -4  -3  -8   26.30    1.87
  -4  -3  -8   26.12    1.34
  -4   3  -8   25.42    1.34
   4   3   8   25.52    1.39
  -4   3  -8   24.67    1.73
  -5  -3  -8    1.45    0.53
  -5  -3  -8    1.56    0.93
  -5  -3  -8    2.59    1.16
  -5   3  -8    1.94    0.67
   5   3   8    1.54    0.56
   9  -4  -8    8.64    1.70
  -9  -4   8    4.82    1.66
  -9  -4   8    5.41    2.47
   9  -4  -8    6.24    1.57
  -9  -4   8    6.02    1.53
   9   4  -8    6.98    1.43
  -9   4   8    6.10    1.52
   9   4  -8    5.15    1.52
   8  -4  -8  129.50    4.92
  -8  -4   8  126.87    5.96
   8  -4  -8  126.36    5.41
  -8  -4   8  131.24    4.76
  -8   4   8  123.67    4.72
  -8   4   8  131.04    4.91
   8   4  -8  126.72    4.93
   8   4  -8  123.22    4.77
   8   4  -8  123.19    4.86
  -7  -4   8   58.70    4.24
   7  -4  -8   57.40    2.96
   7  -4  -8   58.68    3.55
  -7  -4   8   60.27    2.97
   7  -4  -8   54.75    2.74
   7   4  -8   58.39    2.76
   7   4  -8   57.50    3.09
  -7   4   8   56.73    2.77
   7   4  -8   55.64    2.98
  -7   4   8   56.99    2.99
   6  -4  -8   37.62    2.33
   6  -4  -8   31.67    2.78
  -6  -4   8   33.11    1.95
   6  -4  -8   30.83    2.31
   6   4  -8   29.66    2.38
   6   4  -8   33.24    2.02
   6   4  -8   31.06    2.23
  -6   4   8   32.46    2.00
  -6   4   8   33.09    2.08
   5  -4  -8    4.90    1.11
   5  -4  -8    3.76    1.01
   5  -4  -8    7.10    1.23
  -5   4   8    2.41    0.91
   4  -4  -8  206.32    6.54
  -4  -4   8  199.76    6.30
   4  -4  -8  209.85    6.49
   4  -4  -8  194.46    6.63
   4   4  -8  203.55    6.63
  -4   4   8  202.09    6.59
   4   4  -8  202.24    6.40
   4   4  -8  207.52    6.55
   3  -4  -8   66.59    2.89
   3  -4  -8   65.35    2.75
   3  -4  -8   61.79    3.06
   3   4  -8   63.96    2.97
  -3   4   8   66.31    2.93
   3   4  -8   65.29    2.60
   3   4  -8   62.96    2.77
   2  -4  -8   92.09    3.43
   2  -4  -8   83.53    3.47
   2  -4  -8   85.81    3.56
  -2   4   8   88.31    3.47
   2   4  -8   90.35    3.43
   2   4  -8   92.54    3.52
   1  -4  -8   15.06    1.30
   1  -4  -8   17.50    1.61
   1  -4  -8   16.53    1.38
  -1   4   8   15.97    1.38
   1   4  -8   16.51    1.39
   1   4  -8   16.26    1.43
   0  -4  -8   26.86    2.21
   0  -4  -8   25.51    1.68
   0  -4  -8   26.75    2.06
   0   4  -8   21.90    1.93
   0   4  -8   25.68    1.78
   0   4   8   26.92    1.80
  -1  -4  -8   25.34    2.00
  -1  -4  -8   26.47    1.48
  -1  -4  -8   28.23    2.01
  -1   4  -8   26.75    1.72
   1   4   8   25.24    1.76
  -1   4  -8   29.14    2.02
  -2  -4  -8  110.93    3.82
  -2  -4  -8  109.41    4.10
  -2  -4  -8  111.76    4.62
   2   4   8  110.66    3.85
  -2   4  -8  112.18    4.13
  -2   4  -8  112.19    3.84
  -3  -4  -8   16.67    1.32
  -3  -4  -8   16.86    1.64
  -3  -4  -8   17.30    1.82
  -3   4  -8   16.72    1.41
   3   4   8   17.30    1.43
  -3   4  -8   15.58    1.27
  -4  -4  -8    4.19    0.81
  -4  -4  -8    3.51    0.94
  -4  -4  -8    5.96    1.35
  -4   4  -8    5.84    1.16
   4   4   8    5.20    0.90
  -4   4  -8    5.20    0.88
   8  -5  -8   10.12    2.17
  -8  -5   8    8.52    1.80
  -8  -5   8    9.44    2.01
  -8  -5   8    6.82    1.26
   8  -5  -8    6.85    1.26
   8   5  -8   10.22    1.66
  -8   5   8   10.82    1.68
  -8   5   8    8.62    1.36
   8   5  -8    8.36    1.25
   7  -5  -8   24.08    2.24
   7  -5  -8   23.33    2.03
  -7  -5   8   21.11    1.92
  -7  -5   8   22.56    1.98
  -7  -5   8   22.93    2.48
   7  -5  -8   22.15    1.92
   7   5  -8   20.75    2.12
  -7   5   8   22.37    2.07
   7   5  -8   20.87    1.88
  -7   5   8   23.97    2.07
   7   5  -8   22.38    2.02
  -6  -5   8   11.52    1.69
   6  -5  -8   11.67    1.57
  -6  -5   8   12.08    1.33
  -6  -5   8    9.27    2.34
   6  -5  -8    9.57    1.50
   6  -5  -8   10.71    1.52
   6   5  -8   10.04    1.46
   6   5  -8    9.00    1.30
   6   5  -8    8.38    1.37
  -6   5   8   11.17    1.37
  -5  -5   8   57.00    2.80
   5  -5  -8   53.90    2.86
   5  -5  -8   61.24    3.36
  -5  -5   8   54.82    3.95
   5  -5  -8   53.32    2.83
  -5   5   8   58.63    2.78
   5   5  -8   54.67    3.08
   5   5  -8   56.84    2.62
   5   5  -8   54.43    2.70
  -4  -5   8    6.21    1.07
   4  -5  -8    7.28    1.18
   4  -5  -8    6.09    1.19
   4  -5  -8    7.91    1.11
  -4   5   8    7.80    1.14
   4   5  -8    5.87    1.11
   4   5  -8    5.29    1.04
   4   5  -8    6.64    1.16
   3  -5  -8    0.33    0.71
   3  -5  -8   -2.21    0.92
  -3  -5   8   -1.59    0.90
   3   5  -8   -0.21    1.12
  -3   5   8    0.42    1.07
   3   5  -8   -0.14    1.09
   2  -5  -8    3.21    1.04
   2  -5  -8    2.65    1.06
  -2  -5   8    3.36    1.01
   2  -5  -8    3.88    0.97
  -2   5   8    2.00    1.10
  -1  -5   8   62.20    2.63
   1  -5  -8   62.99    2.90
   1  -5  -8   59.92    2.80
  -1   5   8   63.72    2.90
   1   5  -8   63.23    2.96
   1   5  -8   64.83    3.10
   0  -5  -8    1.46    0.89
   0  -5   8    0.67    0.65
   0  -5  -8   -0.57    0.60
   0  -5  -8   -0.56    1.08
   0   5  -8    0.60    1.10
   0   5  -8    0.37    0.72
   0   5   8   -0.15    0.65
  -1  -5  -8    4.93    1.20
  -1  -5  -8    6.13    1.37
  -1  -5  -8    7.47    1.10
  -1   5  -8    6.24    1.15
  -1   5  -8    4.77    1.28
   1   5   8    7.57    1.20
  -2  -5  -8    6.37    1.62
  -2  -5  -8    5.17    1.34
  -2  -5  -8    5.57    1.05
  -2   5  -8    5.00    0.89
  -2   5  -8    4.81    0.99
   2   5   8    6.57    1.15
  -3  -5  -8   11.76    1.23
  -3  -5  -8    8.82    1.49
  -3  -5  -8   10.83    1.58
   3   5   8    5.89    0.93
  -3   5  -8    9.27    1.25
  -3   5  -8   10.06    1.25
  -6  -6   8    5.26    2.09
   6  -6  -8    2.73    1.35
   6  -6  -8    2.47    1.20
  -6  -6   8    0.12    0.97
   6  -6  -8    2.58    1.30
   6   6  -8   -0.82    1.12
  -6   6   8    0.35    0.97
   6   6  -8    1.14    1.42
   6   6  -8    1.73    0.97
  -5  -6   8    5.42    1.14
   5  -6  -8   11.08    1.57
   5  -6  -8    3.73    1.47
  -5  -6   8    1.50    1.39
   5  -6  -8    6.19    1.34
  -5   6   8    3.37    1.06
   5   6  -8    3.41    1.46
   5   6  -8    7.26    1.21
   4  -6  -8    6.41    1.49
  -4  -6   8    5.62    1.33
  -4  -6   8    0.92    1.80
   4  -6  -8    2.07    0.93
   4   6  -8    2.15    1.35
  -4   6   8    2.43    1.32
   4   6  -8    2.28    1.02
   3  -6  -8    1.87    1.18
   3  -6  -8    2.42    1.26
   3  -6  -8    0.10    1.05
  -3  -6   8    1.75    0.81
  -3  -6   8   -0.54    1.58
  -3   6   8    0.50    1.21
   3   6  -8    2.35    1.32
   3   6  -8    1.71    0.97
   2  -6  -8    9.33    1.42
   2  -6  -8    6.88    1.49
  -2  -6   8    9.15    1.30
   2  -6  -8   10.14    1.42
   2   6  -8   12.22    1.65
   2   6  -8    9.16    1.31
  -2   6   8    8.24    1.23
   1  -6  -8   21.65    2.03
  -1  -6   8   19.26    1.39
   1  -6  -8   19.89    1.77
   1   6  -8   23.61    2.05
  -1   6   8   15.28    1.69
   1   6  -8   17.51    1.61
   0  -6  -8    0.84    0.90
   0  -6  -8    1.44    1.28
   0  -6  -8    1.16    0.79
   0   6  -8    1.44    1.20
   0   6  -8    0.26    1.22
   0   6   8   -0.52    0.74
  -1  -6  -8   10.63    1.40
  -1  -6  -8   11.16    1.83
  -1  -6  -8    8.33    1.31
  -1   6  -8    9.82    1.26
  -1   6  -8    9.57    1.58
   1   6   8    9.74    1.44
  -2  -6  -8    0.91    0.76
  -2  -6  -8    3.12    1.55
  -2  -6  -8    0.63    0.94
   2   6   8    0.29    1.05
  -2   6  -8    0.48    0.80
  -2   6  -8    1.47    0.99
 -10   0   9    1.83    1.24
  10   0  -9    1.55    1.30
  10   0  -9   -2.11    1.16
 -10   0   9    0.97    0.92
  10   0  -9    0.36    1.51
  -9   0   9   97.76    4.18
  -9   0   9  104.35    4.01
   9   0  -9  100.60    4.23
   9   0  -9  106.17    4.06
   9   0  -9   99.97    4.34
   9   0  -9  103.73    4.22
  -9   0   9  101.82    4.14
  -8   0   9    1.26    1.10
   8   0  -9    1.28    0.81
  -8   0   9   -0.76    0.68
   8   0  -9   -0.56    1.12
  -8   0   9    0.73    1.20
   8   0  -9    0.12    1.34
   8   0  -9   -1.62    1.00
   7   0  -9  108.37    4.01
  -7   0   9  108.83    4.01
   7   0  -9  105.60    3.95
   7   0  -9  105.31    4.02
  -7   0   9  109.72    4.24
  -7   0   9  110.61    4.08
   6   0  -9   -0.87    0.97
  -6   0   9    0.10    0.85
  -6   0   9   -0.59    0.82
   6   0  -9    0.40    0.74
  -6   0   9   -0.17    1.08
   6   0  -9   -0.26    0.63
  -5   0   9    2.16    0.82
   5   0  -9    1.78    0.73
   4   0  -9   -1.75    0.87
  -4   0   9   -0.84    0.62
   4   0  -9    0.22    0.69
   4   0  -9    0.28    0.68
  -4   0   9    0.45    0.74
  -4   0   9    0.09    0.65
  -3   0   9  380.01   10.52
   3   0  -9  377.87   10.80
   3   0  -9  367.92   10.84
   3   0  -9  370.70   10.56
  -3   0   9  369.29   10.79
  -2   0   9    0.17    0.81
   2   0  -9    0.31    0.53
  -2   0   9    0.30    0.41
   2   0  -9    0.21    0.80
  -1   0   9    0.39    0.51
   1   0  -9    0.08    0.70
   1   0  -9    0.40    0.68
  -1   0   9    0.00    0.34
   0   0  -9   -0.47    0.59
   0   0  -9   -0.96    0.53
   0   0   9    0.46    0.62
   1   0   9   70.32    2.48
  -1   0  -9   73.13    2.47
  -1   0  -9   71.37    2.58
  -2   0  -9   -0.57    0.37
  -2   0  -9   -0.41    0.47
   2   0   9    0.88    0.51
   3   0   9   20.05    1.01
  -3   0  -9   19.81    0.98
  -4   0  -9    0.27    0.33
   4   0   9    0.11    0.33
  -5   0  -9   36.41    2.65
  -5   0  -9   32.66    1.14
  10  -1  -9   43.49    2.96
 -10  -1   9   55.08    4.25
 -10  -1   9   48.71    2.62
 -10  -1   9   45.10    2.86
  10  -1  -9   44.97    2.60
  10  -1  -9   44.27    2.94
  10   1  -9   46.10    2.97
 -10   1   9   45.27    2.58
 -10   1   9   49.35    2.92
  10   1  -9   44.52    2.83
  -9  -1   9    9.86    1.31
   9  -1  -9   12.39    1.68
  -9  -1   9   10.59    1.53
   9  -1  -9    9.29    1.87
   9  -1  -9   10.23    1.33
  -9  -1   9   11.64    1.44
  -9   1   9    8.22    1.53
   9   1  -9    9.42    1.28
  -9   1   9   10.63    1.34
   9   1  -9   12.10    1.61
  -9   1   9    9.29    1.52
  -8  -1   9    3.63    0.93
   8  -1  -9    3.39    1.01
   8  -1  -9    6.04    1.29
  -8  -1   9    3.83    1.22
   8  -1  -9    4.86    1.25
  -8  -1   9    5.23    1.43
   8  -1  -9    4.94    1.28
  -8   1   9    7.22    1.33
   8   1  -9    5.59    1.34
  -8   1   9    4.91    1.23
   8   1  -9    4.90    1.26
  -8   1   9    5.60    1.09
   8   1  -9    4.57    1.03
  -7  -1   9    2.01    1.01
  -7  -1   9    4.77    1.30
   7  -1  -9    2.52    0.86
  -7  -1   9    4.28    0.89
   7  -1  -9    2.70    0.92
   7  -1  -9    3.14    0.93
   7  -1  -9    2.37    1.36
  -7   1   9    1.67    1.02
   7   1  -9    2.70    1.10
   7   1  -9    1.30    0.84
  -7   1   9    3.50    1.25
   7   1  -9    2.23    1.15
  -7   1   9    2.90    0.85
   6  -1  -9  120.22    4.37
   6  -1  -9  123.80    4.50
  -6  -1   9  117.39    4.28
  -6  -1   9  125.62    4.23
   6  -1  -9  123.04    4.80
  -6  -1   9  118.54    4.34
   6  -1  -9  124.09    4.50
   6   1  -9  125.14    4.26
   6   1  -9  120.07    4.46
  -6   1   9  121.22    4.22
  -6   1   9  117.10    4.49
   6   1  -9  123.42    4.48
  -6   1   9  126.53    4.31
  -5  -1   9   33.65    1.73
  -5  -1   9   37.69    1.87
   5  -1  -9   36.91    2.05
   5  -1  -9   29.84    1.86
  -5  -1   9   34.82    2.01
   5  -1  -9   35.82    2.51
   5  -1  -9   30.36    1.90
  -5   1   9   36.25    1.96
   5   1  -9   33.42    2.20
   5   1  -9   34.64    1.96
  -5   1   9   33.71    2.29
  -5   1   9   34.93    1.78
   5   1  -9   36.21    1.99
   4  -1  -9   14.36    1.40
   4  -1  -9   12.63    1.16
  -4  -1   9   14.13    1.16
  -4  -1   9   12.59    1.12
  -4  -1   9   12.56    1.42
   4  -1  -9   12.14    1.19
   4   1  -9   11.39    1.17
   4   1  -9   13.20    1.39
  -4   1   9   13.92    1.45
  -4   1   9   14.41    1.21
  -4   1   9   13.21    1.05
   4   1  -9   14.04    1.18
   3  -1  -9   67.03    2.83
  -3  -1   9   71.18    2.37
  -3  -1   9   65.20    2.66
   3  -1  -9   65.85    2.50
   3  -1  -9   70.85    2.82
  -3   1   9   68.61    2.49
  -3   1   9   67.34    2.83
   3   1  -9   63.21    2.42
   3   1  -9   66.78    2.71
   3   1  -9   67.63    2.66
  -2  -1   9  133.24    4.03
  -2  -1   9  126.67    4.50
   2  -1  -9  141.50    4.44
   2  -1  -9  143.40    4.58
   2   1  -9  143.25    4.48
  -2   1   9  134.45    4.20
   2   1  -9  142.04    4.62
  -2   1   9  137.24    4.52
   1  -1  -9    1.75    0.70
   1  -1  -9    1.77    0.72
  -1  -1   9    1.55    0.77
  -1   1   9    0.78    0.71
   1   1  -9    1.14    0.56
   1   1  -9    0.69    0.77
  -1   1   9    1.26    0.53
   0  -1  -9   35.08    1.67
   0  -1  -9   34.22    1.62
   0  -1   9   37.88    1.76
   0   1  -9   37.13    1.73
   0   1   9   34.76    1.69
   0   1   9   33.43    1.33
   0   1  -9   34.87    1.69
  -1  -1  -9   82.08    2.73
  -1  -1  -9   82.38    2.69
   1  -1   9   75.67    2.79
  -1   1  -9   79.15    2.91
  -1   1  -9   76.06    2.71
   1   1   9   80.55    2.77
  -2  -1  -9   52.97    1.97
   2  -1   9   61.41    2.07
   2   1   9   57.78    2.08
  -2   1  -9   56.36    2.03
  -2   1  -9   51.24    2.23
  -3  -1  -9   15.88    1.87
  -3  -1  -9   16.72    0.96
   3  -1   9   15.46    1.00
  -3   1  -9   18.70    1.50
  -3   1  -9   16.50    0.97
   3   1   9   16.39    1.01
  -4  -1  -9   33.94    2.64
   4  -1   9   35.09    1.37
  -4  -1  -9   34.24    1.31
  -4   1  -9   34.10    1.30
   4   1   9   34.81    1.38
  -5  -1  -9   10.43    1.81
  -5  -1  -9    8.74    0.65
  -5   1  -9    7.99    0.61
  -9  -2   9   16.32    1.74
   9  -2  -9   14.53    1.88
  -9  -2   9   15.95    1.57
   9  -2  -9   16.08    1.83
  -9  -2   9   15.61    1.86
   9   2  -9   15.85    1.79
  -9   2   9   14.26    1.72
   9   2  -9   16.98    1.60
  -9   2   9   20.85    1.92
  -9   2   9   17.20    1.80
  -8  -2   9    9.67    1.40
  -8  -2   9   10.19    1.37
   8  -2  -9   11.92    1.58
  -8  -2   9   10.32    1.50
   8  -2  -9    9.10    1.27
   8  -2  -9   10.30    1.56
   8   2  -9   10.77    1.60
  -8   2   9   10.61    1.31
   8   2  -9   10.38    1.30
   8   2  -9    8.17    1.23
  -8   2   9   10.28    1.28
  -8   2   9   13.13    1.66
  -7  -2   9    1.29    1.24
   7  -2  -9   -1.14    1.30
  -7  -2   9   -0.03    0.93
   7  -2  -9    0.96    1.16
   7  -2  -9    2.35    1.13
  -7  -2   9    0.36    0.97
  -7   2   9    1.46    1.19
   7   2  -9   -0.66    0.69
  -7   2   9    2.07    0.81
   7   2  -9   -0.50    0.80
   7   2  -9   -0.29    1.11
  -7   2   9    1.59    1.04
   6  -2  -9   28.73    2.18
  -6  -2   9   31.61    1.78
  -6  -2   9   30.46    2.39
   6  -2  -9   31.60    2.15
   6  -2  -9   29.33    2.16
  -6  -2   9   28.70    1.87
  -6   2   9   30.92    1.80
   6   2  -9   34.49    2.30
   6   2  -9   30.54    1.92
  -6   2   9   30.63    1.80
  -6   2   9   29.83    1.97
   6   2  -9   29.64    2.07
   5  -2  -9   33.86    2.10
  -5  -2   9   40.37    2.58
   5  -2  -9   49.54    2.89
   5  -2  -9   52.31    2.42
  -5  -2   9   42.61    2.03
  -5   2   9   51.22    2.58
   5   2  -9   43.54    2.45
   5   2  -9   49.84    2.33
   5   2  -9   41.73    2.25
  -5   2   9   46.33    2.10
  -5   2   9   47.75    2.30
   4  -2  -9   17.04    1.39
   4  -2  -9   17.81    1.54
  -4  -2   9   17.30    1.60
   4  -2  -9   16.92    1.62
  -4  -2   9   14.98    1.18
  -4   2   9   15.61    1.21
   4   2  -9   19.06    1.61
  -4   2   9   17.05    1.33
   4   2  -9   16.02    1.37
  -4   2   9   17.45    1.57
   4   2  -9   17.57    1.44
   3  -2  -9   18.69    1.48
  -3  -2   9   20.10    1.62
   3  -2  -9   20.84    1.74
   3  -2  -9   20.72    1.47
   3  -2  -9   19.32    1.42
   3   2  -9   21.99    1.81
  -3   2   9   20.88    1.77
  -3   2   9   21.98    1.46
   3   2  -9   23.44    1.82
   2  -2  -9   13.43    1.13
   2  -2  -9   13.76    1.15
  -2  -2   9   13.07    1.33
   2   2  -9   12.93    1.17
   2   2  -9   13.15    1.14
  -2   2   9   13.11    1.11
  -1  -2   9  140.66    4.63
   1  -2  -9  139.45    4.51
   1  -2  -9  139.87    4.57
   1   2  -9  141.85    4.59
  -1   2   9  138.93    4.55
   1   2  -9  139.92    4.71
   0  -2   9   50.27    2.23
   0  -2  -9   49.26    2.07
   0  -2  -9   51.33    2.11
   0   2   9   49.99    2.15
   0   2  -9   51.71    2.21
   0   2  -9   52.47    2.19
  -1  -2  -9   81.74    2.80
  -1  -2  -9   79.85    2.72
   1  -2   9   77.23    2.87
  -1   2  -9   81.42    2.84
   1   2   9   79.31    2.82
  -1   2  -9   83.36    3.10
  -2  -2  -9    8.77    0.81
   2  -2   9    8.44    0.86
  -2  -2  -9    8.83    1.32
   2   2   9    9.20    0.84
  -2   2  -9    9.60    1.10
  -2   2  -9   10.20    0.86
  -3  -2  -9   28.68    2.54
   3  -2   9   30.99    1.58
  -3  -2  -9   32.46    1.42
  -3  -2  -9   31.94    1.94
  -3   2  -9   32.90    1.43
  -3   2  -9   35.08    1.84
   3   2   9   33.26    1.48
  -4  -2  -9   19.17    1.15
  -4  -2  -9   31.47    2.64
  -4  -2  -9   21.62    1.48
  -4   2  -9   21.50    1.16
   4   2   9   23.69    1.27
  -5  -2  -9   98.55    4.46
  -5  -2  -9  102.49    3.23
  -5   2  -9  106.69    3.19
   5   2   9  102.13    3.25
   9  -3  -9    7.56    1.58
   9  -3  -9   10.21    1.71
  -9  -3   9   11.32    1.42
  -9  -3   9    8.94    2.07
  -9   3   9   10.46    1.62
   9   3  -9    9.16    1.56
  -9   3   9    9.28    1.59
  -9   3   9    9.35    1.38
   9   3  -9   11.87    1.72
  -8  -3   9   19.58    1.78
   8  -3  -9   19.96    1.75
   8  -3  -9   20.11    1.92
   8  -3  -9   23.54    2.44
  -8  -3   9   20.99    1.91
   8   3  -9   18.66    1.93
   8   3  -9   21.50    1.98
  -8   3   9   20.44    1.75
  -8   3   9   17.29    1.88
   8   3  -9   20.40    1.95
   7  -3  -9   49.43    2.57
   7  -3  -9   53.30    2.89
   7  -3  -9   53.66    3.02
  -7  -3   9   53.97    2.58
  -7  -3   9   54.11    3.12
  -7   3   9   58.14    2.87
   7   3  -9   57.38    2.74
   7   3  -9   52.91    2.85
   7   3  -9   52.76    2.61
  -7   3   9   54.53    3.03
   6  -3  -9   38.67    2.40
   6  -3  -9   34.31    2.00
   6  -3  -9   32.87    2.76
  -6  -3   9   38.23    2.64
  -6  -3   9   33.57    2.14
   6   3  -9   33.93    2.32
   6   3  -9   36.37    2.25
   6   3  -9   37.01    2.18
  -6   3   9   28.74    2.05
  -6   3   9   31.87    2.23
  -5  -3   9   55.35    2.57
  -5  -3   9   55.92    2.99
   5  -3  -9   58.16    2.62
   5  -3  -9   55.92    3.20
   5  -3  -9   56.47    2.70
   5   3  -9   58.22    2.68
  -5   3   9   55.90    2.65
  -5   3   9   59.38    2.71
   5   3  -9   57.29    2.63
   5   3  -9   55.24    2.82
   4  -3  -9   15.49    1.53
   4  -3  -9   16.17    1.38
   4  -3  -9   18.00    1.48
  -4  -3   9   15.96    1.66
   4   3  -9   17.88    1.66
   4   3  -9   17.49    1.36
  -4   3   9   15.21    1.32
  -4   3   9   16.33    1.56
   4   3  -9   15.26    1.42
   3  -3  -9    5.40    1.10
   3  -3  -9    6.86    1.04
  -3  -3   9    4.69    1.24
  -3   3   9    7.02    1.19
   3   3  -9    5.20    1.18
   3   3  -9    6.80    1.03
   2  -3  -9  110.49    4.03
   2  -3  -9  110.94    3.88
  -2  -3   9  108.63    4.01
   2   3  -9  101.63    3.88
   2   3  -9  111.06    3.97
  -2   3   9  109.71    3.92
  -1  -3   9   27.31    1.95
   1  -3  -9   26.15    1.52
   1  -3  -9   27.72    1.73
   1   3  -9   29.73    1.97
   1   3  -9   28.30    1.84
  -1   3   9   26.02    1.80
   0  -3  -9   13.58    1.48
   0  -3  -9   16.50    1.35
   0  -3   9   16.72    1.38
   0  -3  -9   14.60    1.24
   0   3  -9   15.98    1.32
   0   3  -9   18.13    1.51
   0   3   9   13.92    1.24
  -1  -3  -9   26.27    2.34
  -2  -3  -9   52.04    2.04
   2  -3   9   52.02    2.24
  -2  -3  -9   50.80    2.59
  -2  -3  -9   53.19    2.84
   2   3   9   51.06    2.18
  -2   3  -9   49.44    2.48
  -2   3  -9   50.41    2.13
  -3  -3  -9    0.47    0.56
  -3  -3  -9   -0.60    0.93
  -3  -3  -9    0.21    1.36
  -3   3  -9    1.64    0.88
   3   3   9    1.55    0.65
  -3   3  -9    0.70    0.58
  -4  -3  -9    7.20    1.76
  -4  -3  -9    6.97    1.21
  -4  -3  -9    6.45    0.78
  -4   3  -9    8.30    0.83
   4   3   9    7.06    0.84
  -4   3  -9    5.11    1.09
   8  -4  -9   46.55    3.09
  -8  -4   9   47.71    3.55
   8  -4  -9   42.90    2.56
   8  -4  -9   41.97    2.78
  -8  -4   9   45.46    2.53
   8   4  -9   49.89    2.94
  -8   4   9   47.18    2.96
   8   4  -9   43.64    2.79
   8   4  -9   49.07    3.01
  -8   4   9   44.57    2.86
  -7  -4   9   13.46    1.46
   7  -4  -9   13.22    1.68
   7  -4  -9   15.23    1.80
   7  -4  -9   13.82    1.48
   7   4  -9   13.79    1.78
  -7   4   9   13.44    1.45
   7   4  -9   14.56    1.70
  -7   4   9   11.73    1.72
   7   4  -9   12.54    1.45
   6  -4  -9    5.28    1.03
   6  -4  -9    6.41    1.57
   6  -4  -9    5.43    1.28
   6   4  -9    5.74    1.07
   6   4  -9    1.44    1.29
   6   4  -9    6.46    1.24
  -6   4   9    5.52    1.38
  -6   4   9    3.90    1.01
   5  -4  -9   47.23    2.57
   5  -4  -9   40.90    2.54
   5  -4  -9   43.12    2.46
   5   4  -9   42.51    2.34
  -5   4   9   37.34    2.57
  -5   4   9   37.36    2.40
   5   4  -9   40.98    2.30
   5   4  -9   41.14    2.12
   4  -4  -9   38.73    2.67
   4  -4  -9   40.56    2.41
   4   4  -9   42.11    2.53
  -4   4   9   38.82    2.51
   4   4  -9   41.23    2.25
   3  -4  -9   28.55    2.23
   3  -4  -9   31.50    1.86
  -3  -4   9   31.21    2.38
   3   4  -9   34.45    2.25
   3   4  -9   27.91    1.91
  -3   4   9   30.56    1.89
   2  -4  -9   34.28    2.07
   2  -4  -9   32.10    2.10
  -2   4   9   36.10    2.17
   2   4  -9   28.70    1.94
   2   4  -9   31.81    1.90
   1  -4  -9    2.94    1.16
   1  -4  -9    1.24    0.90
   1   4  -9    2.56    0.85
   1   4  -9    3.11    1.04
  -1   4   9    4.01    1.06
   0  -4  -9   22.63    2.06
   0  -4  -9   23.83    1.72
   0   4   9   23.96    1.56
   0   4  -9   27.18    2.06
   0   4  -9   26.07    1.60
  -1  -4  -9    6.62    1.01
  -1  -4  -9    6.26    1.31
  -1  -4  -9    6.91    1.29
   1   4   9    7.35    1.08
  -1   4  -9    5.21    1.03
  -1   4  -9    8.88    1.35
  -2  -4  -9    3.26    0.85
  -2  -4  -9    5.04    1.54
  -2  -4  -9    3.30    1.19
   2   4   9    3.88    0.92
  -2   4  -9    3.56    0.90
  -2   4  -9    3.48    1.12
  -3  -4  -9    7.63    0.98
  -3  -4  -9    7.35    1.17
  -3  -4  -9    7.71    1.46
   3   4   9    6.85    1.01
  -3   4  -9    6.12    0.99
  -3   4  -9    7.49    1.07
   7  -5  -9    0.40    1.25
  -7  -5   9    0.24    1.03
   7  -5  -9    1.94    1.01
   7  -5  -9    0.51    1.68
  -7  -5   9    1.44    2.25
   7   5  -9    1.01    0.93
  -7   5   9    0.90    1.30
   7   5  -9    0.66    1.22
  -7   5   9    0.11    1.33
   7   5  -9    1.04    1.48
  -6  -5   9   24.80    2.97
  -6  -5   9   23.62    2.20
   6  -5  -9   24.26    2.04
   6  -5  -9   31.19    2.62
   6  -5  -9   25.16    2.11
   6   5  -9   26.43    2.08
   6   5  -9   22.73    1.90
  -6   5   9   25.80    2.20
  -6   5   9   22.06    1.87
   6   5  -9   30.78    2.62
   5  -5  -9    5.23    1.29
   5  -5  -9    6.50    1.60
   5  -5  -9    4.89    1.33
   5   5  -9    6.22    1.16
  -5   5   9    7.04    1.21
   5   5  -9    6.08    1.51
   4  -5  -9    1.72    0.84
   4  -5  -9    0.84    1.21
  -4   5   9   -0.79    0.77
   4   5  -9    3.11    0.99
   4   5  -9    1.94    0.97
   3  -5  -9   14.29    1.55
   3  -5  -9   12.51    1.59
  -3  -5   9   12.95    1.54
   3   5  -9   10.34    1.60
   3   5  -9   12.58    1.65
  -3   5   9   13.81    1.62
   2  -5  -9    7.90    1.12
  -2  -5   9    9.57    1.25
   2  -5  -9   11.23    1.34
   2  -5  -9    9.27    1.49
   2   5  -9    9.58    1.26
   2   5  -9    9.80    1.52
  -2   5   9    7.51    1.16
  -1  -5   9   33.54    1.92
   1  -5  -9   31.38    2.10
   1  -5  -9   31.93    2.11
  -1   5   9   31.69    2.25
   1   5  -9   35.95    2.48
   1   5  -9   32.76    2.23
   0  -5  -9    0.36    1.18
   0  -5  -9    1.00    0.92
   0   5  -9    1.67    1.18
   0   5   9    0.65    0.70
   0   5  -9    0.73    0.75
  -1  -5  -9   10.66    1.61
  -1  -5  -9   10.11    1.11
  -1  -5  -9   13.26    1.91
   1   5   9   12.17    1.41
  -1   5  -9   11.46    1.40
  -1   5  -9   13.60    1.45
  -2  -5  -9    1.55    0.67
  -2  -5  -9    0.13    1.03
  -2  -5  -9    1.92    1.26
   2   5   9    0.45    0.95
  -2   5  -9    1.13    0.97
  -2   5  -9    0.50    1.13
  -5  -6   9    0.70    1.26
   5  -6  -9    0.64    1.41
  -5  -6   9   -1.03    1.93
   5  -6  -9    0.06    1.27
  -5   6   9    2.34    1.43
   5   6  -9    1.25    1.32
   5   6  -9    0.15    1.47
   4  -6  -9   18.54    1.83
  -4  -6   9   18.32    2.19
  -4  -6   9   18.57    1.91
   4  -6  -9   19.69    1.73
  -4   6   9   19.99    2.03
   4   6  -9   17.74    2.03
   4   6  -9   14.31    1.87
   3  -6  -9   -0.08    1.16
   3  -6  -9    1.84    1.17
  -3  -6   9    0.96    0.79
   3   6  -9   -0.86    0.87
   3   6  -9    0.04    1.34
  -3   6   9   -0.92    1.24
   2  -6  -9    8.79    1.36
   2  -6  -9    8.82    1.23
  -2  -6   9    7.46    1.28
   2   6  -9    7.42    1.28
  -2   6   9   10.22    1.58
   2   6  -9    8.64    1.65
   1  -6  -9    8.06    1.37
   1  -6  -9    7.32    1.13
   1   6  -9    7.36    1.55
   1   6  -9    5.31    1.15
  -1   6   9    6.85    1.14
   0  -6  -9   74.81    3.19
   0  -6  -9   77.89    3.55
   0   6  -9   74.85    3.50
   0   6   9   69.97    3.42
   0   6  -9   76.99    3.70
   9   0 -10   -0.01    1.24
   9   0 -10    0.43    0.89
  -9   0  10    0.02    0.79
  -9   0  10    0.91    1.32
  -9   0  10   -0.20    1.13
   9   0 -10    0.37    0.83
   8   0 -10  213.39    7.23
  -8   0  10  226.40    7.11
   8   0 -10  224.65    7.24
  -8   0  10  227.92    7.40
  -8   0  10  218.82    7.15
   8   0 -10  218.50    7.23
   7   0 -10   -0.97    0.66
  -7   0  10   -0.18    0.92
   7   0 -10    0.94    1.12
   7   0 -10    0.11    0.80
  -7   0  10   -0.67    0.66
  -7   0  10   -0.46    0.81
  -6   0  10   42.84    2.30
   6   0 -10   47.36    2.37
  -6   0  10   42.99    2.04
  -6   0  10   40.73    2.30
   6   0 -10   40.80    2.27
   6   0 -10   45.70    2.42
   5   0 -10   -0.85    0.71
   5   0 -10    0.13    0.71
  -5   0  10    0.30    0.77
  -5   0  10   -0.19    0.77
   5   0 -10   -0.36    0.76
   4   0 -10  186.91    6.18
  -4   0  10  194.94    6.27
  -4   0  10  195.86    5.83
   4   0 -10  194.46    6.26
  -3   0  10   -0.04    0.51
  -3   0  10    0.75    0.96
   3   0 -10    0.10    0.88
   3   0 -10   -0.52    0.63
   2   0 -10    3.03    0.95
   2   0 -10    4.89    0.94
  -2   0  10    4.32    0.61
  -2   0  10    2.92    0.97
   1   0 -10   -0.16    0.68
   1   0 -10    0.64    0.75
  -1   0  10   -0.34    0.74
   0   0  10   97.31    3.40
   0   0 -10   98.68    3.37
   0   0 -10  100.32    3.40
  -1   0 -10    0.13    0.60
   1   0  10   -0.14    0.69
  -1   0 -10    1.25    0.69
  -2   0 -10    5.12    0.67
   2   0  10    6.26    0.73
   3   0  10   -0.03    0.49
  -3   0 -10   -0.48    0.45
  -4   0 -10   79.47    2.53
   9  -1 -10   -1.46    1.12
   9  -1 -10   -0.88    1.45
  -9  -1  10    1.78    1.39
  -9  -1  10    0.20    1.16
   9  -1 -10   -0.05    1.21
  -9  -1  10   -0.79    0.78
   9  -1 -10   -0.61    0.88
   9   1 -10   -0.11    1.19
   9   1 -10   -0.83    0.86
  -9   1  10    1.66    1.25
  -9   1  10    0.43    0.84
   9   1 -10    1.77    1.30
  -9   1  10    1.03    0.96
  -8  -1  10   -0.07    1.03
   8  -1 -10   -0.10    1.07
  -8  -1  10   -0.11    0.93
   8  -1 -10    0.95    1.05
   8  -1 -10   -1.09    1.13
   8  -1 -10   -0.24    1.14
  -8  -1  10   -0.45    1.06
   8   1 -10    0.46    1.21
   8   1 -10    0.71    0.86
  -8   1  10    0.03    0.79
   8   1 -10   -0.14    1.07
  -8   1  10    0.89    0.79
  -8   1  10    2.19    1.31
  -7  -1  10  142.44    5.16
   7  -1 -10  145.79    5.53
   7  -1 -10  137.63    4.86
   7  -1 -10  139.31    4.96
   7  -1 -10  140.70    5.14
  -7  -1  10  141.06    4.94
  -7  -1  10  141.09    4.83
  -7   1  10  129.36    4.88
   7   1 -10  134.97    5.07
  -7   1  10  133.48    5.09
   7   1 -10  142.90    5.00
   7   1 -10  136.75    4.95
  -7   1  10  143.42    4.94
  -6  -1  10   19.83    1.62
   6  -1 -10   16.37    1.42
  -6  -1  10   18.28    1.39
   6  -1 -10   18.89    2.00
  -6  -1  10   18.27    1.84
   6  -1 -10   19.24    1.80
   6  -1 -10   19.53    1.68
   6   1 -10   18.76    1.78
   6   1 -10   19.24    1.65
  -6   1  10   18.22    1.59
  -6   1  10   17.91    1.43
   6   1 -10   17.55    1.56
  -6   1  10   19.95    1.62
   5  -1 -10    6.43    1.28
   5  -1 -10    7.38    1.08
  -5  -1  10    4.29    1.01
  -5  -1  10    6.34    0.97
   5  -1 -10    5.38    1.03
   5   1 -10    5.74    1.03
   5   1 -10    5.19    0.86
  -5   1  10    8.11    1.10
  -5   1  10    4.87    1.26
   5   1 -10    5.61    1.02
  -4  -1  10   31.28    1.60
  -4  -1  10   32.15    2.20
   4  -1 -10   29.12    1.84
   4  -1 -10   35.23    2.12
   4   1 -10   32.48    2.12
   4   1 -10   30.12    2.13
  -4   1  10   30.56    2.18
  -4   1  10   33.08    1.76
  -3  -1  10  158.85    4.86
   3  -1 -10  160.92    5.40
   3  -1 -10  174.48    5.41
  -3  -1  10  158.83    5.38
   3   1 -10  164.65    5.35
   3   1 -10  162.86    5.37
  -3   1  10  165.70    5.38
  -3   1  10  158.78    5.00
  -2  -1  10    2.38    0.95
   2  -1 -10    1.87    0.86
   2  -1 -10    1.84    0.68
   2   1 -10    0.34    0.91
  -2   1  10    1.39    0.88
  -2   1  10    1.98    0.57
   2   1 -10    0.92    0.87
   1  -1 -10   43.53    2.05
   1  -1 -10   40.09    2.07
  -1  -1  10   43.91    2.15
   1   1 -10   48.66    2.23
   1   1 -10   44.86    2.11
  -1   1  10   39.36    2.07
   0  -1 -10    4.44    0.78
   0  -1  10    4.10    0.83
   0  -1 -10    3.16    0.73
   0   1  10    2.33    0.75
   0   1 -10    3.92    0.72
   0   1 -10    3.42    0.79
  -1  -1 -10  139.35    4.50
   1  -1  10  143.94    4.53
  -1  -1 -10  146.20    4.50
  -1   1 -10  140.98    4.62
  -1   1 -10  146.34    4.58
   1   1  10  147.69    4.52
  -2  -1 -10   10.93    0.93
   2  -1  10    9.35    0.91
  -2   1 -10    9.40    0.84
  -2   1 -10   11.42    1.08
   2   1  10   10.67    0.88
  -3  -1 -10   17.83    0.99
   3  -1  10   14.66    1.12
  -3   1 -10   17.13    1.10
   3   1  10   15.39    1.13
  -4  -1 -10    4.96    0.57
   4   1  10    4.23    0.60
   9  -2 -10    2.42    1.38
  -9  -2  10    1.69    1.04
   9  -2 -10    2.21    1.54
   9  -2 -10    1.36    1.00
   9  -2 -10    4.51    1.38
  -9  -2  10    1.31    0.94
   9   2 -10    2.15    1.32
   9   2 -10    2.09    1.42
  -9   2  10    1.82    0.92
  -9   2  10    1.65    1.01
   9   2 -10    4.80    1.40
  -9   2  10    1.32    0.93
   8  -2 -10   -1.03    1.46
   8  -2 -10    0.78    1.30
  -8  -2  10    2.23    1.13
   8  -2 -10    0.40    1.16
  -8  -2  10   -0.21    0.98
   8  -2 -10    2.12    0.98
  -8  -2  10    1.65    0.87
  -8   2  10    2.30    1.22
   8   2 -10    1.36    0.92
   8   2 -10    2.27    1.33
  -8   2  10    0.55    1.33
  -8   2  10    1.08    0.84
   8   2 -10    0.14    1.15
  -7  -2  10    5.76    0.98
   7  -2 -10    7.21    1.66
  -7  -2  10    5.64    1.50
   7  -2 -10    6.17    1.28
   7  -2 -10    5.63    1.38
  -7  -2  10    3.07    1.05
   7  -2 -10    7.49    1.43
  -7   2  10    5.25    1.41
  -7   2  10    5.54    0.98
   7   2 -10    4.24    1.07
   7   2 -10    4.43    1.23
   7   2 -10    5.10    1.34
  -7   2  10    5.39    1.24
   6  -2 -10   90.42    3.74
  -6  -2  10  101.11    3.91
   6  -2 -10   96.56    4.02
   6  -2 -10  101.18    4.37
   6  -2 -10  101.67    3.87
  -6   2  10   85.96    4.08
  -6   2  10  100.38    3.63
   6   2 -10   97.53    3.81
  -6   2  10  102.91    4.10
   6   2 -10  101.91    3.85
   6   2 -10   92.98    3.79
  -5  -2  10    0.83    0.88
   5  -2 -10    1.51    0.96
   5  -2 -10    2.40    1.12
   5  -2 -10    0.17    0.89
   5  -2 -10   -0.25    1.02
  -5   2  10    1.02    0.66
   5   2 -10    0.72    1.13
  -5   2  10    1.59    0.90
   5   2 -10    0.59    0.86
   5   2 -10    1.77    0.82
   4  -2 -10   25.78    2.05
   4  -2 -10   26.64    1.99
  -4  -2  10   28.22    1.86
   4   2 -10   28.29    1.80
  -4   2  10   24.37    2.05
  -4   2  10   22.53    1.66
   4   2 -10   25.19    2.05
   3  -2 -10   11.12    1.11
  -3  -2  10    9.52    1.12
   3  -2 -10   10.16    1.32
   3   2 -10   11.02    1.35
  -3   2  10   11.50    1.09
   3   2 -10    9.01    1.31
  -3   2  10    8.81    1.06
  -2  -2  10   72.25    3.14
   2  -2 -10   75.88    3.07
   2  -2 -10   73.35    2.86
   2   2 -10   75.17    3.17
  -2   2  10   77.90    3.07
   2   2 -10   76.02    3.10
  -2   2  10   75.62    2.73
   1  -2 -10   -0.05    0.71
  -1  -2  10    1.06    0.90
   1  -2 -10    1.63    0.78
   1   2 -10    0.28    0.90
   1   2 -10    1.27    0.64
  -1   2  10    0.38    0.81
   0  -2  10  128.33    4.30
   0  -2 -10  129.75    4.19
   0  -2 -10  129.10    4.19
   0   2 -10  125.47    4.24
   0   2  10  117.67    4.19
   0   2 -10  135.37    4.47
  -1  -2 -10    2.79    0.70
   1  -2  10    2.47    0.93
  -1   2 -10    3.09    0.71
   1   2  10    3.00    0.75
  -1   2 -10    1.81    0.72
   2  -2  10    3.56    0.89
  -2  -2 -10    3.33    0.67
   2   2  10    3.83    0.74
  -2   2 -10    2.78    0.78
  -2   2 -10    2.55    0.90
  -3  -2 -10    0.00    0.48
  -3  -2 -10    1.90    1.44
   3  -2  10    0.76    0.69
  -3   2 -10    0.79    0.52
   3   2  10    0.89    0.54
  -4  -2 -10   79.83    2.76
  -4  -2 -10   80.88    4.15
   4   2  10   82.31    2.81
  -4   2 -10   80.62    2.73
  -8  -3  10   -1.84    0.93
   8  -3 -10    0.17    1.11
   8  -3 -10    1.30    0.97
  -8  -3  10    1.05    0.86
   8  -3 -10    1.05    1.23
  -8   3  10    0.24    0.82
   8   3 -10   -1.52    0.78
  -8   3  10    0.93    1.21
   8   3 -10   -0.84    1.13
  -8   3  10   -0.20    1.34
   8   3 -10    1.54    1.35
   7  -3 -10    7.02    1.38
  -7  -3  10    3.11    1.51
   7  -3 -10    4.28    1.38
   7  -3 -10    5.45    1.66
  -7  -3  10    5.73    1.64
   7   3 -10    3.32    1.18
  -7   3  10    4.76    1.01
   7   3 -10    4.36    1.42
  -7   3  10    4.30    1.12
   7   3 -10    4.08    1.32
  -7   3  10    3.48    1.26
   6  -3 -10   30.87    2.23
   6  -3 -10   28.19    2.00
  -6  -3  10   28.23    2.28
   6  -3 -10   34.56    2.41
   6   3 -10   32.78    2.18
   6   3 -10   30.00    2.02
  -6   3  10   28.02    2.16
   6   3 -10   30.52    2.43
  -6   3  10   27.76    2.41
   5  -3 -10    9.06    1.41
   5  -3 -10    6.85    1.51
  -5  -3  10   11.85    1.66
  -5   3  10    6.45    1.41
  -5   3  10    9.08    1.28
   5   3 -10    7.52    1.48
   5   3 -10    8.62    1.21
   4  -3 -10    4.97    1.05
   4  -3 -10    7.62    1.28
  -4  -3  10    7.16    1.18
  -4   3  10    7.02    1.16
   4   3 -10    4.01    1.03
   4   3 -10    7.35    1.39
  -4   3  10    7.90    1.32
  -3  -3  10   14.65    1.59
   3  -3 -10   16.07    1.62
   3  -3 -10   16.30    1.54
   3   3 -10   14.17    1.56
  -3   3  10   15.76    1.54
   3   3 -10   16.94    1.67
   2  -3 -10   -0.03    0.63
  -2  -3  10    0.16    1.04
   2  -3 -10    1.54    0.92
  -2   3  10    2.50    0.98
   2   3 -10    0.89    0.77
   2   3 -10    1.06    1.06
   1  -3 -10    0.17    0.57
  -1  -3  10    1.38    1.00
   1  -3 -10   -0.30    0.74
  -1   3  10    0.44    0.88
   1   3 -10   -0.86    0.86
   1   3 -10    0.37    0.68
   0   3 -10   10.86    1.32
   1  -3  10   25.38    1.78
  -1  -3 -10   22.78    1.53
  -1   3 -10   22.52    1.61
  -1   3 -10   22.91    1.61
   1   3  10   25.72    1.69
   2  -3  10    0.22    0.93
  -2  -3 -10    2.11    0.70
  -2   3 -10    0.43    0.69
  -2   3 -10    2.29    0.98
   2   3  10    1.82    0.77
  -3  -3 -10    0.18    1.49
  -3  -3 -10    0.22    0.60
  -3  -3 -10    0.23    0.99
  -3   3 -10   -0.10    0.88
   3   3  10    0.44    0.79
  -3   3 -10    0.51    0.64
   7  -4 -10   22.87    2.48
   7  -4 -10   19.94    1.81
   7  -4 -10   23.23    2.12
   7   4 -10   22.96    2.00
   7   4 -10   27.94    2.27
   7   4 -10   19.96    2.02
  -7   4  10   23.26    1.87
  -7   4  10   20.64    2.09
   6  -4 -10    3.39    1.16
   6  -4 -10    6.02    1.38
   6  -4 -10    2.21    0.96
   6   4 -10    3.32    1.39
  -6   4  10    2.78    0.96
  -6   4  10    3.60    1.06
   6   4 -10    2.24    0.97
   5  -4 -10   58.59    3.04
   5  -4 -10   56.68    3.02
  -5  -4  10   61.72    3.28
   5   4 -10   55.40    2.81
   5   4 -10   57.88    2.84
  -5   4  10   58.00    3.10
  -5   4  10   56.81    2.87
   4  -4 -10    1.35    1.11
   4  -4 -10    0.21    1.14
  -4  -4  10    0.04    0.89
  -4   4  10    0.30    0.80
   4   4 -10    0.00    1.11
   4   4 -10   -1.25    0.81
   3  -4 -10    5.61    1.23
   3  -4 -10    7.26    1.29
  -3  -4  10    4.81    1.09
   3   4 -10   10.03    1.22
   3   4 -10    6.11    1.13
  -3   4  10    6.61    1.32
  -2  -4  10    6.02    1.37
   2  -4 -10    6.75    1.03
  -2   4  10    5.76    1.00
   2   4 -10    5.80    1.27
   2   4 -10    7.53    1.14
   1  -4 -10    7.02    1.17
   1  -4 -10    8.28    1.00
   1   4 -10    6.45    1.03
  -1   4  10    8.62    1.28
   1   4 -10    9.09    1.41
   0  -4 -10   15.48    1.44
   0   4  10   20.53    1.80
   0   4 -10   16.18    1.50
   0   4 -10   16.86    1.71
  -1  -4 -10   11.75    1.61
  -1  -4 -10   10.83    1.22
  -1   4 -10   10.54    1.28
  -1   4 -10   16.41    1.66
   1   4  10   13.22    1.31
  -2  -4 -10    1.20    1.51
  -2  -4 -10    1.75    0.81
  -2  -4 -10    0.64    0.84
   2   4  10    0.58    0.87
  -2   4 -10    1.37    0.87
  -2   4 -10    0.06    1.09
   6  -5 -10   26.10    2.55
   6  -5 -10   31.08    2.13
   6   5 -10   27.56    2.25
  -6   5  10   29.38    2.07
   6   5 -10   25.61    2.08
  -6   5  10   28.10    2.39
   5  -5 -10    9.30    1.74
   5  -5 -10    7.19    1.52
   5   5 -10    9.36    1.74
   5   5 -10    6.51    1.25
  -5   5  10   10.15    1.71
   4  -5 -10   51.36    2.62
   4  -5 -10   48.33    3.10
  -4   5  10   49.59    3.01
   4   5 -10   53.95    3.10
   4   5 -10   53.81    2.77
   3  -5 -10    3.93    1.26
   3  -5 -10    6.26    1.35
  -3   5  10    4.39    1.07
   3   5 -10    6.96    1.51
   3   5 -10    5.93    1.46
  -2  -5  10  134.29    4.84
   2  -5 -10  139.18    5.01
   2   5 -10  136.70    4.94
  -2   5  10  142.57    5.08
   2   5 -10  133.01    5.18
   1  -5 -10    0.88    1.02
   1  -5 -10   -1.23    1.20
   1   5 -10    1.80    1.27
  -1   5  10    0.24    1.07
   1   5 -10   -0.23    0.78
   0  -5 -10   25.71    2.24
   0  -5 -10   20.92    1.89
   0   5  10   23.60    2.08
   0   5 -10   24.20    1.93
   0   5 -10   19.66    1.99
  -1  -5 -10    2.86    1.02
  -1  -5 -10   -0.31    1.25
  -9   0  11   67.96    3.34
  -9   0  11   76.71    3.32
   9   0 -11   68.96    3.50
   9   0 -11   69.85    3.57
  -9   0  11   70.18    3.40
   9   0 -11   67.89    3.57
  -8   0  11    0.54    0.95
   8   0 -11   -1.06    1.07
   8   0 -11    0.86    1.30
   8   0 -11   -0.22    1.21
  -8   0  11    2.19    1.17
  -7   0  11   28.05    2.04
  -7   0  11   24.89    2.04
   7   0 -11   26.53    1.99
   7   0 -11   28.32    2.17
   7   0 -11   25.59    1.96
  -6   0  11   -1.06    1.15
  -6   0  11    0.87    0.64
   6   0 -11   -0.90    0.73
   6   0 -11    1.06    1.13
  -5   0  11   22.60    1.93
   5   0 -11   21.20    1.87
  -5   0  11   21.02    1.56
   5   0 -11   19.54    1.81
   4   0 -11    0.81    0.76
  -4   0  11   -1.17    1.00
   4   0 -11   -1.65    0.93
  -4   0  11    0.87    0.65
   3   0 -11   13.87    1.46
  -3   0  11   12.59    1.00
  -3   0  11   11.97    1.44
   3   0 -11   12.28    1.42
   2   0 -11   -0.56    0.83
  -2   0  11   -1.74    0.60
   2   0 -11   -1.09    0.56
  -1   0  11   44.16    2.29
   1   0 -11   47.90    2.25
   1   0 -11   48.06    2.35
   0   0 -11   -0.06    0.65
   0   0 -11   -0.06    0.69
   0   0  11    0.57    0.91
  -1   0 -11   90.15    3.16
  -1   0 -11   88.63    3.24
   1   0  11   90.91    3.20
   2   0  11    0.05    0.56
  -2   0 -11   -0.05    0.53
  -3   0 -11   39.93    1.77
   3   0  11   42.51    1.85
   9  -1 -11    4.28    1.43
  -9  -1  11    5.60    1.37
   9  -1 -11    4.26    1.49
  -9  -1  11    3.59    1.31
  -9  -1  11    2.66    1.55
   9  -1 -11    4.49    1.82
   9  -1 -11    4.92    1.44
  -9   1  11    5.20    1.10
   9   1 -11    5.24    1.22
   9   1 -11    2.64    1.08
  -9   1  11    3.56    1.06
   9   1 -11    6.54    1.47
  -9   1  11    3.29    1.53
   8  -1 -11   58.07    3.15
   8  -1 -11   57.69    3.06
   8  -1 -11   55.85    2.90
  -8  -1  11   55.96    2.87
  -8  -1  11   62.70    3.39
  -8   1  11   57.98    3.01
   8   1 -11   55.44    2.90
   8   1 -11   55.46    2.79
   8   1 -11   55.21    3.17
  -8   1  11   61.37    3.32
  -7  -1  11    2.30    1.00
   7  -1 -11    0.14    1.20
  -7  -1  11    1.09    0.95
   7  -1 -11    0.27    0.86
   7  -1 -11    0.44    1.04
   7   1 -11    0.58    1.04
  -7   1  11    1.83    1.33
  -7   1  11    0.41    1.04
   7   1 -11    1.54    1.27
   7   1 -11    0.90    1.22
  -6  -1  11    7.93    1.11
   6  -1 -11    5.93    1.15
   6  -1 -11    5.18    1.09
  -6  -1  11    5.44    1.45
   6   1 -11    4.69    1.08
  -6   1  11    5.64    0.92
  -6   1  11    7.74    1.47
   6   1 -11    4.53    1.37
  -5  -1  11    3.16    0.97
   5  -1 -11    4.33    1.25
   5  -1 -11    3.67    0.97
  -5  -1  11    4.41    0.89
   5   1 -11    3.23    0.96
  -5   1  11    5.02    1.35
   5   1 -11    3.03    0.96
  -5   1  11    3.39    0.76
  -4  -1  11  142.76    5.17
  -4  -1  11  142.97    4.62
   4  -1 -11  153.75    5.18
   4  -1 -11  149.84    5.10
  -4   1  11  147.74    4.77
   4   1 -11  152.67    5.19
  -4   1  11  146.21    5.19
   4   1 -11  149.55    5.24
   3  -1 -11   30.60    2.09
  -3  -1  11   26.92    2.07
   3  -1 -11   25.98    1.95
  -3   1  11   26.66    1.50
  -3   1  11   32.06    2.15
   3   1 -11   26.48    2.00
   3   1 -11   28.32    2.11
   2  -1 -11    0.56    0.62
   2  -1 -11   -1.50    0.53
  -2  -1  11    0.44    0.97
   2   1 -11    0.58    0.91
  -2   1  11    0.28    0.92
   2   1 -11    0.76    0.64
   1  -1 -11    9.11    1.10
   1  -1 -11    8.39    0.94
  -1  -1  11   10.40    1.18
   1   1 -11    5.08    1.08
   1   1 -11    8.30    1.09
  -1   1  11    8.77    1.12
   0  -1  11   57.92    2.48
   0  -1 -11   58.11    2.44
   0  -1 -11   54.77    2.38
   0   1 -11   58.24    2.44
   0   1  11   57.36    2.45
   0   1 -11   55.59    2.41
  -1  -1 -11   13.82    1.20
   1  -1  11   13.89    1.15
  -1   1 -11   14.38    1.22
   1   1  11   13.71    1.14
  -1   1 -11   12.85    1.11
  -2  -1 -11   12.62    1.10
   2  -1  11   15.10    1.17
  -2   1 -11   13.84    1.12
   2   1  11   14.24    1.11
   3  -1  11   34.26    1.70
  -3  -1 -11   31.44    1.58
  -3   1 -11   34.76    1.54
   3   1  11   35.43    1.70
   8  -2 -11    2.35    0.99
   8  -2 -11    1.93    1.58
  -8  -2  11    4.04    1.52
   8  -2 -11    2.90    1.23
   8  -2 -11    3.13    1.36
   8   2 -11    1.45    1.01
  -8   2  11    2.53    0.89
  -8   2  11    4.32    1.48
   8   2 -11    2.79    1.27
  -7  -2  11   68.23    3.29
   7  -2 -11   72.27    3.58
   7  -2 -11   76.22    3.56
   7  -2 -11   76.74    3.17
   7  -2 -11   66.75    3.20
   7   2 -11   71.07    3.24
   7   2 -11   70.48    3.25
  -7   2  11   74.46    3.27
   7   2 -11   61.68    3.30
  -7   2  11   62.11    3.18
   6  -2 -11   -0.22    1.16
   6  -2 -11    1.08    1.01
   6  -2 -11    0.90    1.20
  -6  -2  11    1.74    1.35
   6   2 -11    1.64    0.92
   6   2 -11    0.83    1.24
  -6   2  11    0.26    0.71
  -6   2  11    0.61    0.94
  -5  -2  11   62.88    3.26
   5  -2 -11   61.49    3.11
   5  -2 -11   65.50    3.19
   5   2 -11   64.60    2.97
  -5   2  11   63.50    2.79
   5   2 -11   68.52    3.23
  -5   2  11   67.01    3.27
  -4  -2  11   21.02    1.86
   4  -2 -11   20.09    1.76
   4  -2 -11   22.11    1.85
   4   2 -11   23.79    1.94
  -4   2  11   20.80    1.62
  -4   2  11   22.08    1.84
   4   2 -11   19.03    1.67
   3  -2 -11   16.00    1.55
   3  -2 -11   17.85    1.48
  -3  -2  11   14.32    1.64
  -3   2  11   17.66    1.33
   3   2 -11   15.02    1.60
   3   2 -11   19.31    1.71
  -3   2  11   17.82    1.66
  -2  -2  11    3.38    1.16
   2  -2 -11    5.11    1.07
   2  -2 -11    6.18    1.10
  -2   2  11    2.56    1.06
   2   2 -11    5.03    0.95
   2   2 -11    4.44    1.19
  -2   2  11    5.97    0.82
  -1  -2  11  140.72    4.87
   1  -2 -11  142.19    4.79
   1  -2 -11  147.00    4.79
   1   2 -11  143.27    4.84
  -1   2  11  143.51    4.82
   1   2 -11  139.54    4.86
   0  -2  11   13.66    1.33
   0  -2 -11   13.02    1.18
   0  -2 -11   11.45    1.12
   0   2 -11   13.11    1.37
   0   2 -11   11.56    1.08
   0   2  11   13.76    1.26
   1  -2  11    2.11    0.85
  -1  -2 -11    1.83    0.74
  -1   2 -11    3.25    1.00
  -1   2 -11    2.16    0.78
   1   2  11    1.13    0.91
  -2  -2 -11    2.42    0.67
   2  -2  11    1.57    0.78
   2   2  11    2.39    0.72
  -2   2 -11    1.39    0.68
  -2   2 -11    1.12    0.88
   8  -3 -11   14.74    1.94
   8  -3 -11   14.72    1.94
  -8   3  11   13.94    1.56
   8   3 -11   12.61    1.60
  -7  -3  11   11.53    1.84
   7  -3 -11    8.53    1.84
   7  -3 -11   10.29    1.41
  -7   3  11    9.53    1.72
   7   3 -11    9.33    1.35
   7   3 -11    6.68    1.32
  -7   3  11   10.45    1.56
  -6  -3  11    1.14    1.43
   6  -3 -11    0.68    0.90
   6  -3 -11   -0.07    1.39
   6   3 -11    0.22    1.24
   6   3 -11    0.66    0.97
  -6   3  11    0.94    1.11
  -6   3  11    1.91    0.99
   5  -3 -11   13.90    1.70
   5  -3 -11   16.39    1.82
  -5  -3  11   13.00    1.75
   5  -3 -11   15.69    1.69
  -5   3  11   14.26    1.73
  -5   3  11   12.13    1.45
   5   3 -11   11.47    1.41
   5   3 -11   13.21    1.73
  -4  -3  11   29.30    2.22
   4  -3 -11   26.68    2.24
   4  -3 -11   30.24    2.21
   4   3 -11   28.91    2.33
   4   3 -11   30.44    2.32
  -4   3  11   28.38    2.28
  -4   3  11   27.90    1.70
   3  -3 -11    0.90    1.02
  -3  -3  11   -0.58    1.18
   3  -3 -11    1.99    1.06
   3   3 -11    0.44    0.79
  -3   3  11    1.65    0.67
   3   3 -11    0.61    1.13
  -3   3  11    1.00    1.07
   2  -3 -11   18.25    1.61
  -2  -3  11   19.38    1.75
   2  -3 -11   17.43    1.56
   2   3 -11   18.59    1.63
   2   3 -11   17.62    1.66
  -2   3  11   17.93    1.63
  -1  -3  11    3.63    1.11
   1  -3 -11    4.23    0.96
   1  -3 -11    2.87    0.89
   1   3 -11    2.70    1.13
  -1   3  11    3.96    1.05
   1   3 -11    2.42    1.06
   0  -3 -11   17.59    1.52
   0  -3  11   13.01    1.41
   0   3 -11   12.64    1.44
   0   3 -11   11.24    1.33
   1  -3  11    0.90    0.92
  -1  -3 -11   -0.18    0.75
  -1   3 -11    1.09    0.82
   1   3  11   -0.04    0.81
  -1   3 -11    1.44    1.03
  -2  -3 -11   24.37    1.59
   2  -3  11   24.71    1.97
  -2   3 -11   24.28    1.63
  -2   3 -11   22.35    1.67
   2   3  11   24.44    1.70
   6  -4 -11   11.13    1.90
  -6  -4  11   10.78    1.89
   6  -4 -11    9.25    1.63
  -6   4  11    9.44    1.29
  -6   4  11    9.18    1.68
   6   4 -11    9.96    1.44
   6   4 -11    8.54    1.64
   5  -4 -11    1.86    1.29
   5  -4 -11    2.10    1.34
  -5  -4  11    0.05    1.01
  -5   4  11    1.26    0.84
   5   4 -11    0.18    1.28
  -5   4  11    2.71    1.39
   5   4 -11    0.55    1.32
   4  -4 -11   10.44    1.66
  -4  -4  11   11.08    1.74
   4  -4 -11   10.14    1.33
   4   4 -11   13.87    1.72
   4   4 -11   10.52    1.37
  -4   4  11   10.66    1.21
  -4   4  11    9.32    1.31
  -3  -4  11    2.68    1.34
   3  -4 -11    3.22    0.92
  -3   4  11    4.45    1.04
   3   4 -11    3.18    1.31
   3   4 -11    3.85    1.33
   2  -4 -11   23.66    1.99
   2  -4 -11   24.60    1.72
  -2  -4  11   20.40    1.84
  -2   4  11   23.92    2.13
   2   4 -11   23.96    1.79
   2   4 -11   27.48    2.26
   1  -4 -11    1.82    0.77
   1   4 -11    1.13    0.77
   1   4 -11    3.22    1.30
  -1   4  11    1.29    1.07
   0  -4 -11    0.97    0.66
   0   4  11    1.18    1.00
   0   4 -11   -0.30    0.96
   0   4 -11   -0.09    0.81
   3  -5 -11  106.73    4.29
   3   5 -11  103.74    4.50
  -3   5  11  103.32    4.37
   3   5 -11  101.36    4.17
   2  -5 -11   -1.32    1.03
   2   5 -11    1.64    1.32
  -8   0  12    1.86    1.07
   8   0 -12    1.62    1.43
  -8   0  12    1.16    1.09
   8   0 -12    1.52    0.99
   7   0 -12   -0.68    0.83
  -7   0  12    0.29    1.00
   7   0 -12   -0.38    0.84
  -7   0  12    0.96    1.35
  -6   0  12    1.83    1.34
  -6   0  12    1.42    0.90
   6   0 -12    0.04    0.87
   6   0 -12    0.48    1.28
   5   0 -12   -0.80    0.77
   5   0 -12    0.24    0.81
  -5   0  12   -0.44    0.84
  -5   0  12    0.38    0.73
   4   0 -12   52.06    2.79
   4   0 -12   46.60    2.75
  -4   0  12   53.56    2.86
  -3   0  12   -0.57    1.01
   3   0 -12    0.62    1.00
   3   0 -12    1.06    1.02
  -2   0  12    1.97    1.02
   2   0 -12    2.37    1.00
   2   0 -12    0.71    0.97
  -1   0  12   -0.46    0.87
   1   0 -12   -0.17    0.84
   1   0 -12    1.78    0.88
   0   0  12   86.24    3.36
   0   0 -12   92.18    3.32
   0   0 -12   88.00    3.34
  -1   0 -12   -0.80    0.66
   1   0  12    0.63    0.91
   8  -1 -12   42.75    2.96
  -8  -1  12   45.77    2.61
   8  -1 -12   50.36    3.07
  -8  -1  12   44.88    3.21
  -8   1  12   51.59    3.18
   8   1 -12   39.64    2.57
  -8   1  12   45.26    2.72
   8   1 -12   47.59    3.08
   7  -1 -12    1.48    1.38
   7  -1 -12    1.56    0.97
  -7  -1  12    2.20    1.02
  -7  -1  12    1.22    1.04
   7   1 -12    0.72    1.29
  -7   1  12    1.01    1.39
   7   1 -12    0.45    1.31
  -7   1  12    1.81    1.07
  -6  -1  12    1.35    0.86
   6  -1 -12   -0.59    1.17
   6  -1 -12    0.00    1.25
  -6  -1  12    3.05    1.41
  -6   1  12   -0.08    1.30
   6   1 -12    1.14    1.30
  -6   1  12    0.64    0.92
   6   1 -12    0.64    1.19
   5  -1 -12   23.31    1.90
  -5  -1  12   27.04    1.66
   5  -1 -12   27.37    2.28
  -5  -1  12   29.65    2.42
   5   1 -12   28.76    2.31
  -5   1  12   27.09    1.80
  -5   1  12   30.49    2.06
   5   1 -12   27.09    2.29
   4  -1 -12   87.52    3.54
  -4  -1  12   83.51    3.68
   4  -1 -12   89.01    3.66
  -4   1  12   83.86    3.70
   4   1 -12   88.87    3.57
  -4   1  12   84.25    3.15
   4   1 -12   86.89    3.67
   3  -1 -12    1.22    1.05
  -3  -1  12   -0.97    1.06
   3  -1 -12    0.19    0.69
  -3   1  12    0.01    1.06
   3   1 -12    0.99    1.05
   3   1 -12   -0.21    0.99
   2  -1 -12   31.66    2.00
  -2  -1  12   28.13    2.07
   2  -1 -12   27.16    1.75
   2   1 -12   26.93    1.82
  -2   1  12   28.78    2.08
   2   1 -12   28.10    1.75
   1  -1 -12   30.62    1.77
  -1  -1  12   30.90    2.06
   1  -1 -12   31.60    1.99
  -1   1  12   33.75    2.08
   1   1 -12   34.39    1.92
   1   1 -12   33.35    2.02
   0  -1 -12   16.26    1.39
   0  -1  12   16.21    1.42
   0  -1 -12   19.74    1.65
   0   1  12   18.38    1.46
   0   1 -12   19.03    1.57
   0   1 -12   17.26    1.43
   1  -1  12    3.64    0.87
  -1  -1 -12    3.62    0.97
  -1   1 -12    2.18    0.92
   1   1  12    2.90    0.84
  -1   1 -12    1.77    0.70
  -7  -2  12   52.57    2.90
   7  -2 -12   50.36    3.12
   7  -2 -12   46.42    2.71
   7   2 -12   47.06    3.08
  -7   2  12   50.53    2.77
  -7   2  12   48.82    3.17
   7   2 -12   45.62    2.67
  -6  -2  12  118.76    4.83
   6  -2 -12  116.54    4.70
   6  -2 -12  113.05    4.69
   6   2 -12  114.48    4.55
  -6   2  12  119.58    4.78
  -6   2  12  115.42    4.32
   6   2 -12  121.52    4.76
   5  -2 -12   30.66    2.30
  -5  -2  12   28.65    2.51
   5  -2 -12   28.62    2.35
  -5   2  12   29.38    1.72
  -5   2  12   29.26    2.31
   5   2 -12   26.89    2.39
   5   2 -12   25.96    2.01
   4  -2 -12    1.74    1.17
   4  -2 -12    0.19    1.12
  -4  -2  12    0.35    0.92
  -4   2  12    1.19    1.21
   4   2 -12    1.44    1.19
  -4   2  12   -0.31    0.78
   4   2 -12    0.21    0.86
   3  -2 -12    9.67    1.38
   3  -2 -12    7.61    1.12
  -3  -2  12    9.21    1.46
   3   2 -12   10.22    1.44
  -3   2  12    8.01    1.17
   3   2 -12    8.21    1.44
  -2  -2  12   84.36    3.57
   2  -2 -12   84.91    3.46
   2  -2 -12   78.52    3.36
  -2   2  12   78.75    3.45
   2   2 -12   83.78    3.58
   2   2 -12   86.97    3.50
  -1  -2  12   76.92    3.29
   1  -2 -12   77.47    3.16
   1  -2 -12   74.33    3.01
  -1   2  12   80.49    3.25
   1   2 -12   76.93    3.21
   1   2 -12   75.70    3.18
   0  -2  12   13.61    1.40
   0  -2 -12   13.82    1.28
   0   2 -12   13.45    1.33
   0   2  12   13.67    1.35
   0   2 -12   12.81    1.31
  -1  -2 -12    4.47    0.91
   1  -2  12    4.66    1.03
  -1   2 -12    2.53    0.86
  -1   2 -12    3.32    1.07
   1   2  12    4.17    1.09
   6  -3 -12    0.52    1.06
   6  -3 -12    1.91    1.35
   6  -3 -12    0.80    0.95
  -6  -3  12   -0.31    1.03
  -6   3  12   -0.56    1.04
  -6   3  12   -0.36    1.42
   6   3 -12   -0.44    1.39
   6   3 -12    0.27    1.33
  -5  -3  12   52.94    3.16
   5  -3 -12   52.24    3.01
   5  -3 -12   51.99    3.00
   5   3 -12   47.98    2.71
  -5   3  12   48.66    2.61
   5   3 -12   52.86    3.07
  -5   3  12   52.12    3.06
   4  -3 -12    6.88    1.14
  -4  -3  12    8.22    1.60
   4  -3 -12    7.97    1.46
  -4   3  12    6.31    1.45
   4   3 -12    4.17    1.13
  -4   3  12    7.54    1.19
   4   3 -12    6.83    1.49
   3  -3 -12   70.74    3.04
  -3  -3  12   73.66    3.46
   3  -3 -12   68.06    3.25
  -3   3  12   69.98    3.32
  -3   3  12   66.96    2.87
   3   3 -12   66.08    3.35
   3   3 -12   71.39    3.35
   2  -3 -12    5.28    1.19
   2  -3 -12    5.62    1.19
  -2  -3  12    3.92    1.36
   2   3 -12    7.64    1.40
   2   3 -12    4.65    1.01
  -2   3  12    5.02    1.00
  -1  -3  12   25.96    2.16
   1  -3 -12   22.03    1.86
  -1   3  12   27.03    2.05
   1   3 -12   17.48    1.71
   0  -3  12   42.88    2.48
   0  -3 -12   40.73    2.04
   0   3 -12   41.71    2.31
   0   3  12   40.21    2.36
   0   3 -12   39.33    2.31
   4  -4 -12    0.72    1.26
   4  -4 -12    2.38    1.32
  -4  -4  12    2.32    1.55
   4   4 -12    3.22    1.46
  -4   4  12    2.30    1.41
  -4   4  12    3.84    1.17
   4   4 -12    1.33    1.38
  -3  -4  12   18.85    2.02
   3  -4 -12   23.29    2.01
   3  -4 -12   19.73    1.90
  -3   4  12   20.00    1.55
  -3   4  12   18.21    1.89
   3   4 -12   18.88    1.96
   3   4 -12   19.12    1.82
  -6   0  13    0.47    0.99
   6   0 -13    1.06    0.97
   6   0 -13   -0.38    1.23
  -6   0  13    0.56    0.85
  -5   0  13   30.05    2.56
   5   0 -13   33.96    2.51
   5   0 -13   29.73    2.36
   4   0 -13    0.48    0.82
  -4   0  13   -0.94    1.14
   4   0 -13   -0.26    1.14
   3   0 -13   16.60    1.68
   3   0 -13   16.57    1.54
  -3   0  13   16.67    1.72
  -2   0  13    0.17    1.06
   2   0 -13   -0.41    0.70
   2   0 -13    0.18    0.95
   1   0 -13    4.67    1.10
  -1   0  13    6.51    1.22
   1   0 -13    6.20    1.18
  -6  -1  13   10.06    1.79
   6  -1 -13   11.75    1.73
   6  -1 -13    7.65    1.67
  -6   1  13   12.34    1.86
   6   1 -13   12.18    1.76
  -6   1  13   10.37    1.36
   6   1 -13   12.62    1.81
   5  -1 -13   34.94    2.60
  -5  -1  13   40.25    2.77
   5  -1 -13   36.54    2.32
  -5   1  13   37.04    2.74
   5   1 -13   36.47    2.34
   5   1 -13   38.40    2.68
   4  -1 -13   11.86    1.62
   4  -1 -13   11.64    1.39
  -4  -1  13   11.57    1.67
   4   1 -13   10.70    1.38
   4   1 -13   11.68    1.63
  -4   1  13   13.16    1.67
   3  -1 -13   10.43    1.49
  -3  -1  13    7.61    1.41
   3  -1 -13    7.29    1.37
   3   1 -13    8.80    1.40
   3   1 -13    7.87    1.19
  -3   1  13    7.67    1.41
  -2  -1  13   37.91    2.43
   2  -1 -13   34.09    2.27
   2  -1 -13   35.48    2.07
   2   1 -13   34.81    2.05
  -2   1  13   38.30    2.16
   2   1 -13   37.32    2.42
  -1  -1  13    0.47    1.01
   1  -1 -13   -0.53    0.60
   1  -1 -13    0.96    0.91
   1   1 -13   -0.39    0.97
   1   1 -13   -0.26    0.63
  -1   1  13   -0.79    0.98
   5  -2 -13    6.81    1.50
  -5  -2  13    6.08    1.26
   5  -2 -13    4.99    1.48
   5   2 -13    3.74    1.11
   5   2 -13    5.08    1.17
  -5   2  13    5.35    1.11
  -5   2  13    4.75    1.52
  -4  -2  13   18.70    1.97
   4  -2 -13   16.50    1.62
   4  -2 -13   16.96    1.64
   4   2 -13   17.91    1.91
  -4   2  13   16.35    1.63
   4   2 -13   19.21    1.94
  -3  -2  13   34.60    2.21
   3  -2 -13   26.02    2.24
   3  -2 -13   34.94    2.39
  -3   2  13   34.31    2.48
   3   2 -13   31.99    2.39
   3   2 -13   32.33    2.47
   2  -2 -13   16.33    1.62
   2  -2 -13   15.67    1.45
  -2  -2  13   15.33    1.51
   2   2 -13   14.03    1.63
  -2   2  13   17.69    1.55
   2   2 -13   16.36    1.75
   0   0   0    0.00    0.00
;
loop_
_symmetry_equiv_pos_as_xyz
'x, y, z'
'-x+1/2, y+1/2, -z+1/2'
'-x, -y, -z'
'x-1/2, -y-1/2, z-1/2'
loop_
_atom_site_label
_atom_site_type_symbol
_atom_site_fract_x
_atom_site_fract_y
_atom_site_fract_z
_atom_site_U_iso_or_equiv
_atom_site_adp_type
_atom_site_occupancy
_atom_site_site_symmetry_order
_atom_site_calc_flag
_atom_site_refinement_flags_posn
_atom_site_refinement_flags_adp
C1 C 0.8455(5) 0.8599(6) 0.0553(4) 0.0108(8) Uani 1 1 d . .
H1A H 0.828547 0.746319 -0.004776 0.013 Uiso 1 1 calc R U
H1B H 0.759892 0.956314 0.016659 0.013 Uiso 1 1 calc R U
C2 C 1.0034(5) 0.9560(6) 0.0653(4) 0.0129(9) Uani 1 1 d . .
H2A H 1.027574 1.061281 0.131838 0.016 Uiso 1 1 calc R U
H2B H 1.088806 0.856257 0.092251 0.016 Uiso 1 1 calc R U
C3 C 1.0104(5) 0.6338(6) 0.2780(4) 0.0126(9) Uani 1 1 d . .
H3A H 1.100971 0.726292 0.299159 0.015 Uiso 1 1 calc R U
H3B H 1.00903 0.573119 0.360186 0.015 Uiso 1 1 calc R U
C4 C 1.0364(5) 0.4732(6) 0.1908(4) 0.0167(10) Uani 1 1 d . .
H4A H 0.943965 0.385897 0.164204 0.025 Uiso 1 1 calc R U
H4B H 1.130545 0.39657 0.237857 0.025 Uiso 1 1 calc R U
H4C H 1.05142 0.532959 0.113906 0.025 Uiso 1 1 calc R U
S1 S 0.82815(11) 0.77363(14) 0.20838(10) 0.0091(2) Uani 1 1 d . .
Cl1 Cl 0.86857(12) 0.86510(16) 0.55200(10) 0.0157(2) Uani 1 1 d . .
Cu1 Cu 0.86714(6) 1.03586(8) 0.35641(5) 0.01335(17) Uani 1 1 d . .
loop_
_atom_site_aniso_label
_atom_site_aniso_U_11
_atom_site_aniso_U_22
_atom_site_aniso_U_33
_atom_site_aniso_U_23
_atom_site_aniso_U_13
_atom_site_aniso_U_12
C1 0.013(2) 0.0085(19) 0.010(2) 0.0032(17) 0.0020(17) 0.0006(16)
C2 0.012(2) 0.012(2) 0.014(2) 0.0002(18) 0.0035(17) -0.0014(18)
C3 0.010(2) 0.013(2) 0.011(2) 0.0040(18) -0.0009(17) 0.0030(17)
C4 0.017(2) 0.013(2) 0.020(2) 0.0027(19) 0.0057(19) 0.0052(18)
S1 0.0092(5) 0.0092(5) 0.0088(5) 0.0003(4) 0.0029(4) -0.0001(4)
Cl1 0.0128(5) 0.0194(5) 0.0138(5) 0.0048(4) 0.0029(4) -0.0038(4)
Cu1 0.0119(3) 0.0156(3) 0.0123(3) -0.0003(2) 0.0037(2) 0.0029(2)
loop_
_atom_type_symbol
_atom_type_description
_atom_type_scat_dispersion_real
_atom_type_scat_dispersion_imag
_atom_type_scat_source
C C 0.0033 0.0016 'International Tables Vol C Tables 4.2.6.8 and 6.1.1.4'
H H 0 0 'International Tables Vol C Tables 4.2.6.8 and 6.1.1.4'
S S 0.1246 0.1234 'International Tables Vol C Tables 4.2.6.8 and 6.1.1.4'
Cl Cl 0.1484 0.1585 'International Tables Vol C Tables 4.2.6.8 and 6.1.1.4'
Cu Cu 0.3201 1.2651 'International Tables Vol C Tables 4.2.6.8 and 6.1.1.4'
loop_
_geom_angle_atom_site_label_1
_geom_angle_atom_site_label_2
_geom_angle_atom_site_label_3
_geom_angle
_geom_angle_site_symmetry_1
_geom_angle_site_symmetry_3
C2 C1 S1 115.1(3) . .
C2 C2 C1 110.2(4) 3_775 .
C4 C3 S1 114.3(3) . .
C1 S1 C3 102.56(19) . .
C1 S1 Cu1 102.96(14) . 2_645
C3 S1 Cu1 104.42(14) . 2_645
C1 S1 Cu1 110.46(14) . .
C3 S1 Cu1 101.19(14) . .
Cu1 S1 Cu1 131.74(4) 2_645 .
Cu1 Cl1 Cu1 87.38(4) 3_776 .
S1 Cu1 Cl1 119.15(4) 2_655 3_776
S1 Cu1 S1 112.88(3) 2_655 .
Cl1 Cu1 S1 114.39(4) 3_776 .
S1 Cu1 Cl1 112.89(4) 2_655 .
Cl1 Cu1 Cl1 92.62(4) 3_776 .
S1 Cu1 Cl1 101.62(4) . .
loop_
_geom_bond_atom_site_label_1
_geom_bond_atom_site_label_2
_geom_bond_distance
_geom_bond_site_symmetry_2
C1 C2 1.527(5) .
C1 S1 1.823(4) .
C2 C2 1.528(8) 3_775
C3 C4 1.513(6) .
C3 S1 1.823(4) .
S1 Cu1 2.3111(11) 2_645
S1 Cu1 2.3498(11) .
Cl1 Cu1 2.3442(12) 3_776
Cl1 Cu1 2.4243(12) .
loop_
_geom_hbond_atom_site_label_D
_geom_hbond_atom_site_label_H
_geom_hbond_atom_site_label_A
_geom_hbond_distance_DH
_geom_hbond_distance_HA
_geom_hbond_distance_DA
_geom_hbond_angle_DHA
_geom_hbond_site_symmetry_A
C1 H1B Cl1 0.99 3 3.911(4) 153.7 2_655
C4 H4B Cl1 0.98 2.9 3.507(5) 121.3 3_766
C1 H1B Cl1 0.99 3 3.911(4) 153.7 2_655
C4 H4B Cl1 0.98 2.9 3.507(5) 121.3 3_766
