#------------------------------------------------------------------------------
#$Date: 2019-11-07 22:06:26 +0200 (Thu, 07 Nov 2019) $
#$Revision: 223704 $
#$URL: file:///home/coder/svn-repositories/cod/cif/7/23/32/7233276.cif $
#------------------------------------------------------------------------------
#
# This file is available in the Crystallography Open Database (COD),
# http://www.crystallography.net/
#
# All data on this site have been placed in the public domain by the
# contributors.
#
data_7233276
loop_
_publ_author_name
'Iman, Khushboo'
'Shahid, M.'
'Khan, M. Shahnawaz'
'Ahmad, Musheer'
'Sama, Farasha'
_publ_section_title
;
 Topology, magnetism and dye adsorption properties of metal organic
 frameworks (MOFs) synthesized from bench chemicals
;
_journal_issue                   35
_journal_name_full               CrystEngComm
_journal_page_first              5299
_journal_paper_doi               10.1039/C9CE01041F
_journal_volume                  21
_journal_year                    2019
_chemical_formula_moiety         'C10 H12 Cl2 Co N2 O10, C10 H8 N2'
_chemical_formula_sum            'C20 H20 Cl2 Co N4 O10'
_chemical_formula_weight         606.24
_space_group_crystal_system      triclinic
_space_group_IT_number           2
_space_group_name_Hall           '-P 1'
_space_group_name_H-M_alt        'P -1'
_symmetry_Int_Tables_number      2
_symmetry_space_group_name_Hall  '-P 1'
_symmetry_space_group_name_H-M   'P -1'
_atom_sites_solution_primary     iterative
_audit_creation_date             2019-06-19
_audit_creation_method
;
Olex2 1.2
(compiled 2018.05.29 svn.r3508 for OlexSys, GUI svn.r5506)
;
_audit_update_record
;
2019-07-04 deposited with the CCDC.    2019-07-26 downloaded from the CCDC.
;
_cell_angle_alpha                105.9650(10)
_cell_angle_beta                 95.0730(10)
_cell_angle_gamma                109.2610(10)
_cell_formula_units_Z            1
_cell_length_a                   7.4296(2)
_cell_length_b                   8.7967(3)
_cell_length_c                   10.0511(3)
_cell_measurement_reflns_used    6534
_cell_measurement_temperature    100(2)
_cell_measurement_theta_max      28.29
_cell_measurement_theta_min      2.59
_cell_volume                     584.48(3)
_computing_cell_refinement       'SAINT V8.38A (?, 2016)'
_computing_data_reduction        'SAINT V8.38A (?, 2016)'
_computing_molecular_graphics    'Olex2 (Dolomanov et al., 2009)'
_computing_publication_material  'Olex2 (Dolomanov et al., 2009)'
_computing_structure_refinement  'olex2.refine (Bourhis et al., 2015)'
_computing_structure_solution    'olex2.solve (Bourhis et al., 2015)'
_diffrn_ambient_temperature      100(2)
_diffrn_measured_fraction_theta_full 0.9918
_diffrn_measured_fraction_theta_max 0.9918
_diffrn_measurement_device_type  'Bruker APEX-II CCD'
_diffrn_measurement_method       '\f and \w scans'
_diffrn_radiation_type           'Mo K\a'
_diffrn_radiation_wavelength     0.71073
_diffrn_reflns_av_R_equivalents  0.0287
_diffrn_reflns_av_unetI/netI     0.0297
_diffrn_reflns_limit_h_max       9
_diffrn_reflns_limit_h_min       -9
_diffrn_reflns_limit_k_max       11
_diffrn_reflns_limit_k_min       -11
_diffrn_reflns_limit_l_max       13
_diffrn_reflns_limit_l_min       -13
_diffrn_reflns_number            9447
_diffrn_reflns_theta_full        28.3159
_diffrn_reflns_theta_max         28.32
_diffrn_reflns_theta_min         2.96
_exptl_absorpt_coefficient_mu    1.029
_exptl_absorpt_correction_T_max  0.7457
_exptl_absorpt_correction_T_min  0.6608
_exptl_absorpt_correction_type   multi-scan
_exptl_absorpt_process_details
;
SADABS-2016/2 (Bruker,2016/2) was used for absorption correction.
wR2(int) was 0.1140 before and 0.0449 after correction.
The Ratio of minimum to maximum transmission is 0.8861.
The \l/2 correction factor is Not present.
;
_exptl_crystal_colour            red
_exptl_crystal_colour_primary    red
_exptl_crystal_density_diffrn    1.7222
_exptl_crystal_description       block
_exptl_crystal_F_000             309.8139
_exptl_crystal_size_max          0.37
_exptl_crystal_size_mid          0.28
_exptl_crystal_size_min          0.18
_refine_diff_density_max         0.4586
_refine_diff_density_min         -0.4740
_refine_diff_density_rms         0.0748
_refine_ls_d_res_high            0.7492
_refine_ls_d_res_low             6.8757
_refine_ls_goodness_of_fit_ref   1.0715
_refine_ls_hydrogen_treatment    mixed
_refine_ls_matrix_type           full
_refine_ls_number_constraints    18
_refine_ls_number_parameters     175
_refine_ls_number_reflns         2889
_refine_ls_number_restraints     5
_refine_ls_restrained_S_all      1.0705
_refine_ls_R_factor_all          0.0315
_refine_ls_R_factor_gt           0.0275
_refine_ls_shift/su_max          0.0000
_refine_ls_shift/su_mean         0.0000
_refine_ls_structure_factor_coef Fsqd
_refine_ls_weighting_details
'w=1/[\s^2^(Fo^2^)+(0.0202P)^2^+0.5307P] where P=(Fo^2^+2Fc^2^)/3'
_refine_ls_weighting_scheme      calc
_refine_ls_wR_factor_gt          0.0646
_refine_ls_wR_factor_ref         0.0672
_reflns_Friedel_coverage         0.0
_reflns_limit_h_max              9
_reflns_limit_h_min              -9
_reflns_limit_k_max              11
_reflns_limit_k_min              -11
_reflns_limit_l_max              13
_reflns_limit_l_min              0
_reflns_number_gt                2635
_reflns_number_total             2889
_reflns_threshold_expression     I>=2u(I)
_iucr_refine_instructions_details
;
TITL 
CELL 0.71073 7.4296 8.7967 10.0511 105.965 95.073 109.261
ZERR 1 0.0002 0.0003 0.0003 0.001 0.001 0.001
LATT 1
SFAC C H Cl Co N O
UNIT 20 20 2 1 4 10
DFIX 0.85 O1 H1a O1 H1b
SADI Co1 H1a Co1 H1b
DANG 1.34 H1a H1b

L.S. 4
PLAN  1
SIZE 0.37 0.28 0.18
TEMP -100(2)
HTAB O1 N2
MORE -1
BOND $H
CONF 
fmap 2
acta 
MERG 2
OMIT 0 1 0
WGHT 0.020224 0.530691
FVAR 0.437344
REM <olex2.extras>
REM <selected_cif_records
REM  <bonds
REM   <row "$M">
REM  >
REM  <angles
REM   <row "$* $M $*">
REM  >
REM >
REM <HklSrc "%.\\k4_0m.hkl">
REM </olex2.extras>

Co1   4     0.00000  0.00000  0.00000  10.50000  0.00762  0.00743  0.00578 =
 0.00128 -0.00078  0.00098 
Cl1   3    -0.37105 -0.11522  0.17036  11.00000  0.00980  0.01507  0.01021 =
 0.00440  0.00251  0.00225 
O1    6    -0.13604  0.15845 -0.02843  11.00000  0.01206  0.01573  0.01113 =
 0.00689  0.00302  0.00598 
H1a   2    -0.12138  0.19897 -0.09469  11.00000 -1.50000 
H1b   2    -0.24671  0.14037 -0.01521  11.00000 -1.50000 
O2    6    -0.19023 -0.11830  0.12543  11.00000  0.00985  0.01708  0.01274 =
 0.00707  0.00411  0.00360 
O3    6    -0.40283  0.03299  0.15609  11.00000  0.02604  0.02800  0.02342 =
 0.01491  0.00951  0.01728 
O4    6    -0.52764 -0.26697  0.08391  11.00000  0.01056  0.02584  0.03125 =
 -0.00377 -0.00058 -0.00451 
O5    6    -0.35250 -0.10790  0.31521  11.00000  0.03223  0.02471  0.01218 =
 0.01099  0.01081  0.01079 
N1    5     0.18003  0.19203  0.18671  11.00000  0.01042  0.00921  0.00794 =
 0.00109 -0.00063  0.00180 
C1    1     0.18918  0.16031  0.30975  11.00000  0.01485  0.00953  0.01125 =
 0.00384 -0.00192  0.00021 
AFIX 43
H1    2     0.10718  0.05249  0.31174  11.00000 -1.20000 
AFIX 0
C2    1     0.31166  0.27626  0.43377  11.00000  0.01650  0.01083  0.00904 =
 0.00415 -0.00144  0.00080 
AFIX 43
H2    2     0.31281  0.24750  0.51820  11.00000 -1.20000 
AFIX 0
C3    1     0.43347  0.43560  0.43429  11.00000  0.00932  0.00854  0.00797 =
 0.00027 -0.00051  0.00247 
C4    1     0.42259  0.46942  0.30676  11.00000  0.01317  0.00933  0.00996 =
 0.00242  0.00026 -0.00010 
AFIX 43
H4    2     0.50224  0.57658  0.30204  11.00000 -1.20000 
AFIX 0
C5    1     0.29568  0.34672  0.18717  11.00000  0.01497  0.01123  0.00807 =
 0.00226  0.00049  0.00137 
AFIX 43
H5    2     0.28982  0.37270  0.10157  11.00000 -1.20000 
AFIX 0

N2    5    -0.08867  0.29202 -0.24122  11.00000  0.02142  0.01896  0.01850 =
 0.01128  0.00833  0.01149 
C6    1     0.05092  0.44554 -0.21127  11.00000  0.02584  0.01870  0.01360 =
 0.00736  0.00344  0.00793 
AFIX 43
H6    2     0.12727  0.49842 -0.11843  11.00000 -1.20000 
AFIX 0
C7    1     0.09036  0.53172 -0.30807  11.00000  0.02129  0.01499  0.01526 =
 0.00613  0.00284  0.00344 
AFIX 43
H7    2     0.19048  0.64122 -0.28101  11.00000 -1.20000 
AFIX 0
C8    1    -0.01819  0.45644 -0.44587  11.00000  0.01548  0.01272  0.01357 =
 0.00612  0.00650  0.00790 
C9    1    -0.16312  0.29614 -0.47679  11.00000  0.01668  0.01469  0.01539 =
 0.00579  0.00307  0.00573 
AFIX 43
H9    2    -0.24079  0.23901 -0.56901  11.00000 -1.20000 
AFIX 0
C10   1    -0.19338  0.22065 -0.37280  11.00000  0.01703  0.01520  0.02140 =
 0.01017  0.00630  0.00611 
AFIX 43
H10   2    -0.29416  0.11203 -0.39608  11.00000 -1.20000 
AFIX 0
HKLF 4

END
Q1 1 0.44 0.433333 0.361111 11 0.05 0.46
Q2 1 0.24 0.266667 0.194444 11 0.05 0.41
Q3 1 0.24 0.233333 0.361111 11 0.05 0.41
Q4 1 0 0.5 -0.5 11 0.05 0.4
Q5 1 -0.16 0.266667 -0.416667 11 0.05 0.39
Q6 1 0.04 0.466667 -0.277778 11 0.05 0.38
Q7 1 0 0.5 -0.361111 11 0.05 0.38
Q8 1 0.36 0.4 0.25 11 0.05 0.36
Q9 1 -0.08 0.366667 -0.472222 11 0.05 0.36
Q10 1 0.5 0.5 0.5 11 0.05 0.35
Q11 1 0.36 0.333333 0.416667 11 0.05 0.29
Q12 1 0.08 0.1 0.111111 11 0.05 0.28
Q13 1 -0.28 -0.133333 0.138889 11 0.05 0.27
Q14 1 -0.44 -0.033333 0.083333 11 0.05 0.27
Q15 1 -0.32 0.033333 0.194444 11 0.05 0.27
Q16 1 -0.16 -0.066667 0.083333 11 0.05 0.26
Q17 1 -0.52 -0.233333 0.027778 11 0.05 0.23
Q18 1 -0.24 0.133333 0.111111 11 0.05 0.21
Q19 1 -0.16 0.233333 -0.555556 11 0.05 0.2
Q20 1 -0.12 0.266667 -0.305556 11 0.05 0.2

  REM The information below was added by Olex2.
  REM
  REM R1 = 0.0275 for 2635 Fo > 4sig(Fo) and 0.0315 for all 2889 data
  REM 175 parameters refined using 5 restraints
  REM Highest difference peak 0.4586, deepest hole -0.4740
  REM Mean Shift 0.0000, Max Shift 0.0000.

  REM +++ Tabular Listing of Refinement Information +++
  REM R1_all = 0.0315
  REM R1_gt = 0.0275
  REM wR_ref = 0.0672
  REM GOOF = 1.0715
  REM Shift_max = 0.0000
  REM Shift_mean = 0.0000
  REM Reflections_all = 2889
  REM Reflections_gt = 2635
  REM Parameters = 175
  REM Hole = -0.4740
  REM Peak = 0.4586
  REM Flack = n/a

  
;
_cod_data_source_file            c9ce01041f2.cif
_cod_data_source_block           k4_0m
_cod_depositor_comments
'Adding full bibliography for 7233275--7233276.cif.'
_cod_database_code               7233276
_olex2_refinement_description
;
1. Fixed Uiso
 At 1.2 times of:
  All C(H) groups
 At 1.5 times of:
  All O(H,H) groups
2. Restrained distances
 O1-H1a = O1-H1b
 0.85 with sigma of 0.02
 H1a-H1b
 1.34 with sigma of 0.04
 Co1-H1a \\sim Co1-H1b
 with sigma of 0.02
3.a Aromatic/amide H refined with riding coordinates:
 C1(H1), C2(H2), C4(H4), C5(H5), C6(H6), C7(H7), C9(H9), C10(H10)
;
_iucr_refine_fcf_details
;
data_k4_0m_CCDC1
_computing_structure_refinement   'olex2.refine (Bourhis et al., 2015)'
_shelx_refln_list_code            4
loop_
  _space_group_symop_id
  _space_group_symop_operation_xyz
  1  x,y,z
  2  -x,-y,-z

_space_group_crystal_system       triclinic
_space_group_IT_number            2
_space_group_name_H-M_alt         'P -1'
_space_group_name_Hall            '-P 1'
_symmetry_space_group_name_H-M    'P -1'
_symmetry_space_group_name_Hall   '-P 1'
_symmetry_Int_Tables_number       2
_cell_length_a                    7.4296(2)
_cell_length_b                    8.7967(3)
_cell_length_c                    10.0511(3)
_cell_angle_alpha                 105.9650(10)
_cell_angle_beta                  95.0730(10)
_cell_angle_gamma                 109.2610(10)
_cell_volume                      584.48(3)
loop_
  _refln_index_h
  _refln_index_k
  _refln_index_l
  _refln_F_squared_calc
  _refln_F_squared_meas
  _refln_F_squared_sigma
  _refln_F_squared_weight
  _refln_observed_status
-9 -1 2 247.596 241.699 8.139 8.896 o
-9 -1 3 324.749 318.111 9.515 6.470 o
-9 -1 4 145.199 162.186 13.286 7.404 o
-9 0 1 110.422 100.309 7.583 16.541 o
-9 0 2 255.756 261.905 8.522 8.319 o
-9 0 3 754.226 746.011 16.282 2.200 o
-9 0 4 446.940 440.175 11.541 4.374 o
-9 0 5 102.297 104.934 6.422 19.616 o
-9 1 1 2.639 -0.044 1.745 494.679 o
-9 1 2 1.228 4.326 2.025 371.349 o
-9 1 3 98.378 102.527 4.623 25.113 o
-9 1 4 287.311 283.724 8.831 7.476 o
-9 1 5 200.934 209.057 7.566 10.799 o
-9 1 6 119.474 117.055 5.580 19.709 o
-9 2 1 10.670 7.111 1.783 238.615 o
-9 2 2 9.789 8.793 1.638 254.377 o
-9 2 3 5.395 -0.512 1.431 496.953 o
-9 2 4 4.069 11.069 2.105 250.929 o
-9 2 5 210.859 223.523 6.977 10.831 o
-9 2 6 168.328 181.109 6.793 13.131 o
-9 3 1 276.066 273.406 7.653 8.356 o
-9 3 2 13.383 6.771 1.984 198.428 o
-9 3 3 2.479 1.481 2.715 231.221 o
-9 3 4 38.126 33.867 3.765 57.552 o
-9 3 5 38.377 40.812 3.337 60.457 o
-9 3 6 151.624 163.007 7.855 12.777 o
-9 4 1 383.242 405.803 10.255 5.249 o
-9 4 2 67.195 73.823 5.742 27.424 o
-9 4 3 4.230 0.921 5.908 53.832 o
-9 4 4 15.896 12.725 2.239 151.690 o
-9 4 5 25.172 28.306 4.335 59.671 o
-9 4 6 148.248 145.402 5.654 16.540 o
-9 5 1 286.147 304.947 9.742 6.906 o
-9 5 2 231.436 227.269 8.089 9.411 o
-9 5 3 9.621 7.068 2.036 222.943 o
-9 5 4 1.862 -0.663 2.118 382.496 o
-9 5 5 11.360 5.716 3.028 138.280 o
-9 6 1 206.141 219.700 12.162 7.084 o
-9 6 2 509.338 505.688 24.233 2.045 o
-9 6 3 260.970 229.220 20.861 3.316 o
-9 6 4 44.466 32.203 4.916 42.547 o
-9 7 1 120.227 135.574 22.220 3.474 o
-9 7 2 391.612 381.150 16.739 3.594 o
-9 7 3 218.383 226.078 12.474 6.722 o
-8 -3 1 13.032 7.929 5.777 49.908 o
-8 -3 2 16.145 13.142 3.075 111.920 o
-8 -3 3 131.464 132.906 9.280 12.056 o
-8 -3 4 21.442 19.626 4.666 59.642 o
-8 -3 5 31.444 32.033 3.875 61.099 o
-8 -2 1 30.681 27.102 4.873 49.516 o
-8 -2 2 75.972 69.253 4.252 33.120 o
-8 -2 3 140.953 146.525 5.739 16.815 o
-8 -2 4 243.342 249.443 7.885 9.070 o
-8 -2 5 448.322 451.534 11.431 4.357 o
-8 -2 6 14.476 13.520 2.169 160.062 o
-8 -2 7 59.149 61.534 4.278 38.161 o
-8 -1 1 12.003 5.066 2.350 183.903 o
-8 -1 2 41.946 53.805 4.361 44.498 o
-8 -1 3 6.036 6.203 1.712 318.512 o
-8 -1 4 346.244 342.247 9.507 6.112 o
-8 -1 5 236.516 236.564 6.992 9.977 o
-8 -1 6 696.508 687.446 14.905 2.502 o
-8 -1 7 13.281 9.917 2.354 163.262 o
-8 -1 8 110.955 103.749 6.020 19.949 o
-8 0 1 539.666 489.053 18.902 2.637 o
-8 0 2 23.082 25.413 3.142 86.455 o
-8 0 3 18.363 16.605 2.264 134.004 o
-8 0 4 58.718 60.058 3.421 44.202 o
-8 0 5 164.611 168.577 5.710 14.921 o
-8 0 6 156.994 155.802 6.248 14.893 o
-8 0 7 553.227 550.177 12.967 3.360 o
-8 0 8 46.573 38.784 3.736 51.688 o
-8 1 1 530.592 541.103 12.845 3.483 o
-8 1 2 76.238 72.015 3.689 35.395 o
-8 1 3 1.750 3.205 1.615 518.571 o
-8 1 4 8.369 9.193 1.459 291.747 o
-8 1 5 282.205 283.503 7.584 8.195 o
-8 1 6 269.319 273.601 8.882 7.794 o
-8 1 7 350.142 357.069 9.819 5.889 o
-8 1 8 28.484 35.792 4.941 47.759 o
-8 2 1 183.344 202.799 7.125 11.841 o
-8 2 2 341.537 340.170 8.310 6.613 o
-8 2 3 5.982 3.469 1.177 477.085 o
-8 2 4 96.017 93.637 4.164 27.501 o
-8 2 5 79.808 74.125 3.658 34.404 o
-8 2 6 118.724 123.938 4.687 21.435 o
-8 2 7 263.790 273.429 7.296 8.784 o
-8 2 8 223.955 235.368 13.123 6.263 o
-8 3 1 3.237 2.954 1.103 681.441 o
-8 3 2 14.169 9.521 1.792 197.334 o
-8 3 3 268.859 270.137 7.401 8.658 o
-8 3 4 1.275 0.205 1.194 1028.520 o
-8 3 5 7.819 6.928 1.488 316.024 o
-8 3 6 74.161 73.717 4.271 32.938 o
-8 3 7 128.932 132.410 5.038 19.424 o
-8 3 8 146.447 166.720 10.232 10.064 o
-8 4 1 4.586 4.202 1.291 487.050 o
-8 4 2 106.243 119.753 5.603 20.680 o
-8 4 3 121.835 129.796 5.379 19.424 o
-8 4 4 104.856 100.382 5.501 21.997 o
-8 4 5 0.350 -2.082 1.288 1104.490 o
-8 4 6 52.781 47.685 3.555 48.226 o
-8 4 7 0.429 -0.357 2.536 298.923 o
-8 4 8 161.118 191.771 13.384 6.979 o
-8 5 1 1.309 -1.683 1.823 519.839 o
-8 5 2 114.300 115.263 5.076 21.403 o
-8 5 3 760.280 756.537 19.205 1.954 o
-8 5 4 224.461 227.862 7.382 10.093 o
-8 5 5 51.789 52.780 3.601 47.164 o
-8 5 6 58.865 57.041 4.102 40.066 o
-8 5 7 54.337 49.156 4.144 42.583 o
-8 6 1 6.665 2.913 2.400 227.742 o
-8 6 2 837.011 789.771 24.878 1.479 o
-8 6 3 29.607 43.005 5.391 41.341 o
-8 6 4 237.905 244.682 10.485 7.542 o
-8 6 5 255.163 252.586 10.807 7.076 o
-8 6 6 74.829 73.900 5.793 26.114 o
-8 7 1 56.388 59.945 5.933 29.329 o
-8 7 2 146.055 120.286 8.551 12.798 o
-8 7 3 345.873 336.067 12.774 5.009 o
-8 7 4 167.752 171.573 8.933 10.864 o
-8 7 5 258.657 249.013 11.067 6.913 o
-8 8 1 55.859 50.212 6.104 29.337 o
-8 8 2 1.637 2.384 2.379 295.515 o
-8 8 3 0.462 -1.747 1.613 711.880 o
-8 8 4 169.247 153.580 10.325 9.619 o
-8 9 1 114.128 113.625 9.000 13.411 o
-7 -5 3 29.824 28.963 4.700 51.630 o
-7 -5 4 153.969 157.221 8.044 12.553 o
-7 -5 5 100.802 96.828 6.556 19.719 o
-7 -4 1 186.540 169.097 10.163 9.261 o
-7 -4 2 17.026 19.403 4.057 75.586 o
-7 -4 3 41.643 38.043 5.960 34.142 o
-7 -4 4 103.129 95.854 6.040 20.924 o
-7 -4 5 67.581 59.348 4.966 32.383 o
-7 -4 6 351.993 336.481 11.455 5.401 o
-7 -4 7 112.701 109.049 6.148 19.289 o
-7 -4 8 23.545 24.728 5.742 42.875 o
-7 -3 1 139.651 131.845 14.090 7.057 o
-7 -3 2 60.921 49.834 5.434 32.147 o
-7 -3 3 4.491 4.216 2.273 262.096 o
-7 -3 4 0.661 0.266 1.245 1074.950 o
-7 -3 5 151.521 143.167 6.618 14.937 o
-7 -3 6 236.422 237.717 6.640 10.213 o
-7 -3 7 329.549 317.079 8.817 6.702 o
-7 -3 8 0.499 1.724 2.772 240.976 o
-7 -3 9 4.785 7.323 3.947 105.930 o
-7 -2 1 86.285 82.162 5.601 24.798 o
-7 -2 2 116.195 117.464 5.349 20.490 o
-7 -2 3 9.130 8.291 1.677 261.037 o
-7 -2 4 0.296 -1.106 1.138 1407.190 o
-7 -2 5 9.731 6.456 1.681 264.507 o
-7 -2 6 6.778 1.881 1.270 452.133 o
-7 -2 7 197.942 191.533 7.414 11.277 o
-7 -2 8 172.532 164.533 6.812 13.268 o
-7 -2 9 57.376 51.306 6.137 28.824 o
-7 -1 1 1009.740 997.806 21.363 1.402 o
-7 -1 2 940.174 960.281 20.717 1.516 o
-7 -1 3 103.957 93.371 4.367 25.734 o
-7 -1 4 9.142 8.626 1.548 273.835 o
-7 -1 5 59.395 52.248 3.016 48.386 o
-7 -1 6 112.797 113.208 4.906 22.063 o
-7 -1 7 9.371 8.929 2.751 157.521 o
-7 -1 8 716.468 711.663 23.069 1.757 o
-7 -1 9 20.885 12.727 5.490 49.320 o
-7 -1 10 25.221 32.249 8.888 20.956 o
-7 0 1 301.314 309.145 8.556 7.230 o
-7 0 2 880.215 880.949 16.949 1.837 o
-7 0 3 515.808 507.557 9.467 4.192 o
-7 0 4 47.027 50.353 3.409 51.643 o
-7 0 5 25.724 24.382 2.214 105.966 o
-7 0 6 0.358 0.920 2.127 408.926 o
-7 0 7 739.842 780.565 27.446 1.421 o
-7 0 8 157.174 153.660 6.081 15.175 o
-7 0 9 44.022 41.201 5.669 35.304 o
-7 0 10 57.261 41.146 7.790 22.037 o
-7 1 1 59.323 68.298 3.673 40.881 o
-7 1 2 105.183 113.063 4.167 24.812 o
-7 1 3 213.964 226.458 5.710 11.729 o
-7 1 4 510.395 512.097 9.484 4.207 o
-7 1 5 156.993 138.633 4.731 17.613 o
-7 1 6 56.578 52.278 3.068 49.310 o
-7 1 7 101.462 100.077 4.903 24.062 o
-7 1 8 410.611 398.658 10.843 4.909 o
-7 1 9 384.513 392.538 16.406 3.673 o
-7 1 10 49.841 52.637 8.548 19.476 o
-7 2 1 1.602 0.124 0.853 1494.540 o
-7 2 2 97.606 106.580 3.671 27.723 o
-7 2 3 150.180 169.522 5.117 16.495 o
-7 2 4 162.674 170.417 5.451 15.309 o
-7 2 5 151.363 134.423 4.830 18.002 o
-7 2 6 22.550 19.854 2.311 115.647 o
-7 2 7 52.226 47.122 2.869 54.545 o
-7 2 8 182.009 186.486 8.452 10.780 o
-7 2 9 406.597 385.842 28.703 1.787 o
-7 2 10 284.612 311.511 35.029 1.388 o
-7 3 1 2.326 4.216 1.109 702.293 o
-7 3 2 2.677 4.299 1.006 722.772 o
-7 3 3 139.702 148.957 5.496 17.218 o
-7 3 4 69.181 84.595 4.114 33.576 o
-7 3 5 192.994 183.326 6.425 12.560 o
-7 3 6 335.554 327.948 10.078 6.082 o
-7 3 7 116.752 113.002 4.515 22.591 o
-7 3 8 12.569 10.196 1.711 213.152 o
-7 3 9 176.418 187.296 12.156 7.672 o
-7 4 1 3.744 2.125 1.343 560.983 o
-7 4 2 9.134 9.577 1.871 232.587 o
-7 4 3 177.751 190.181 6.168 13.291 o
-7 4 4 20.469 26.615 3.313 85.096 o
-7 4 5 153.928 173.978 6.220 14.638 o
-7 4 6 60.310 67.166 4.286 37.007 o
-7 4 7 92.943 92.615 5.514 23.662 o
-7 4 8 4.602 2.986 1.970 325.746 o
-7 4 9 51.208 54.833 6.120 29.647 o
-7 5 1 456.521 453.991 9.059 4.815 o
-7 5 2 6.218 5.630 1.013 464.692 o
-7 5 3 76.972 73.475 3.564 35.605 o
-7 5 4 11.017 13.378 2.002 190.550 o
-7 5 5 61.692 71.911 5.681 28.712 o
-7 5 6 256.989 271.699 12.727 5.983 o
-7 5 7 119.276 119.046 5.918 18.911 o
-7 5 8 0.553 3.554 3.130 185.328 o
-7 6 1 1227.140 1246.140 64.150 0.365 o
-7 6 2 216.069 208.737 8.947 9.282 o
-7 6 3 185.836 171.903 5.430 14.155 o
-7 6 4 8.740 8.162 2.520 180.283 o
-7 6 5 49.026 46.218 4.875 39.188 o
-7 6 6 452.640 445.170 11.503 4.335 o
-7 6 7 135.650 145.608 6.898 15.231 o
-7 7 1 273.543 298.805 13.383 5.449 o
-7 7 2 156.780 157.171 8.247 12.200 o
-7 7 3 265.995 261.778 10.655 6.966 o
-7 7 4 20.316 25.697 3.799 74.650 o
-7 7 5 144.251 136.856 7.759 13.701 o
-7 7 6 15.879 18.075 3.385 96.546 o
-7 8 1 210.574 178.702 18.325 4.295 o
-7 8 2 106.764 108.760 6.762 18.319 o
-7 8 3 111.812 109.041 6.982 17.477 o
-7 8 4 121.485 118.986 7.429 15.726 o
-7 8 5 15.884 11.668 3.460 99.701 o
-7 9 1 0.564 2.412 2.694 249.581 o
-7 9 2 53.566 56.738 6.439 27.466 o
-7 9 3 109.165 106.454 7.355 16.920 o
-7 10 1 0.658 2.084 2.606 266.233 o
-6 -6 1 716.903 745.497 25.039 1.603 o
-6 -6 2 5.045 1.851 2.474 238.849 o
-6 -6 3 6.427 14.887 4.418 80.477 o
-6 -6 4 11.080 7.087 2.693 157.907 o
-6 -6 5 130.923 133.294 7.192 15.292 o
-6 -6 6 47.317 41.966 4.643 42.270 o
-6 -6 7 298.614 291.612 10.849 6.333 o
-6 -5 1 233.643 233.062 11.937 6.819 o
-6 -5 2 266.998 262.301 12.534 6.024 o
-6 -5 3 203.187 189.549 14.404 5.983 o
-6 -5 4 0.405 0.799 1.262 1048.530 o
-6 -5 5 17.928 17.117 2.865 111.154 o
-6 -5 6 356.949 345.020 11.540 5.299 o
-6 -5 7 290.840 274.071 10.050 6.891 o
-6 -5 8 106.028 103.807 5.584 21.492 o
-6 -5 9 39.481 42.186 3.860 53.209 o
-6 -4 1 465.548 441.324 16.577 3.264 o
-6 -4 2 302.499 321.134 13.421 5.140 o
-6 -4 3 98.927 99.100 7.163 18.253 o
-6 -4 4 34.101 34.010 3.607 62.357 o
-6 -4 5 133.852 120.496 4.706 20.155 o
-6 -4 6 35.642 35.768 2.528 76.149 o
-6 -4 7 99.009 96.575 4.591 25.520 o
-6 -4 8 367.002 362.158 17.745 3.494 o
-6 -4 9 119.270 115.305 5.612 19.729 o
-6 -4 10 83.922 79.113 12.914 9.232 o
-6 -3 1 43.654 37.147 2.777 64.684 o
-6 -3 2 948.178 883.391 27.430 1.234 o
-6 -3 3 493.372 476.606 11.991 3.937 o
-6 -3 4 474.548 458.908 10.460 4.388 o
-6 -3 5 18.365 22.143 1.959 136.606 o
-6 -3 6 17.125 15.768 2.130 145.813 o
-6 -3 7 6.108 7.278 3.342 134.499 o
-6 -3 8 105.476 113.757 5.322 21.737 o
-6 -3 9 538.504 500.638 13.184 3.478 o
-6 -3 10 47.532 52.143 6.195 30.095 o
-6 -2 1 2.456 1.746 1.154 783.447 o
-6 -2 2 142.345 145.278 5.724 16.792 o
-6 -2 3 875.879 886.636 18.710 1.737 o
-6 -2 4 552.199 565.292 10.669 3.673 o
-6 -2 5 440.075 432.629 9.091 5.006 o
-6 -2 6 338.128 343.935 8.831 6.438 o
-6 -2 7 4.273 9.244 1.762 314.109 o
-6 -2 8 588.986 570.789 15.742 2.828 o
-6 -2 9 169.080 154.289 12.443 7.781 o
-6 -2 10 10.029 11.846 3.475 110.807 o
-6 -2 11 4.898 3.961 3.294 148.100 o
-6 -1 1 147.580 133.797 5.503 17.188 o
-6 -1 2 5.878 6.016 1.334 398.672 o
-6 -1 3 109.946 109.209 3.913 25.091 o
-6 -1 4 167.711 156.095 4.812 16.257 o
-6 -1 5 472.926 461.706 10.477 4.386 o
-6 -1 6 181.447 185.491 6.679 12.676 o
-6 -1 7 4.470 7.746 3.021 162.799 o
-6 -1 8 4.065 5.073 1.516 424.020 o
-6 -1 9 70.562 77.607 10.143 13.694 o
-6 -1 10 359.930 361.177 15.717 4.006 o
-6 -1 11 18.541 19.105 4.109 72.996 o
-6 0 1 98.025 98.507 4.133 26.917 o
-6 0 2 7.765 6.890 1.360 337.105 o
-6 0 3 3.105 4.674 0.912 712.368 o
-6 0 4 415.412 440.915 8.179 5.388 o
-6 0 5 281.672 285.396 8.569 7.680 o
-6 0 6 220.206 214.146 7.198 10.523 o
-6 0 7 41.798 44.817 3.013 60.487 o
-6 0 8 12.197 11.202 2.160 178.649 o
-6 0 9 142.824 139.559 8.935 12.057 o
-6 0 10 142.774 149.948 9.826 10.803 o
-6 0 11 339.966 345.142 21.279 2.887 o
-6 1 1 441.969 459.431 10.266 4.631 o
-6 1 2 133.200 160.928 4.352 19.142 o
-6 1 3 506.291 549.117 9.372 4.145 o
-6 1 4 418.911 473.439 8.520 5.144 o
-6 1 5 144.150 133.172 4.652 18.879 o
-6 1 6 497.243 496.672 10.327 4.175 o
-6 1 7 68.757 61.275 3.545 39.745 o
-6 1 8 118.928 115.833 6.907 16.976 o
-6 1 9 33.877 33.371 4.854 46.962 o
-6 1 10 332.530 353.785 15.898 4.100 o
-6 1 11 87.888 96.855 8.405 16.103 o
-6 2 1 589.749 556.400 15.820 2.835 o
-6 2 2 263.601 268.897 6.354 9.373 o
-6 2 3 59.145 54.106 2.639 50.716 o
-6 2 4 254.468 274.607 8.374 8.319 o
-6 2 5 653.958 693.093 15.627 2.523 o
-6 2 6 388.898 409.866 9.131 5.505 o
-6 2 7 196.204 191.125 5.519 13.197 o
-6 2 8 22.515 20.777 1.717 133.120 o
-6 2 9 98.910 92.078 7.298 18.166 o
-6 2 10 37.559 33.857 5.360 40.546 o
-6 3 1 499.521 507.947 14.344 3.420 o
-6 3 2 244.254 237.308 6.584 10.059 o
-6 3 3 127.290 135.829 4.827 19.826 o
-6 3 4 19.665 22.263 2.297 120.434 o
-6 3 5 70.489 88.335 4.400 31.587 o
-6 3 6 213.183 210.608 13.934 6.052 o
-6 3 7 429.349 429.297 11.533 4.512 o
-6 3 8 262.564 263.809 8.327 8.299 o
-6 3 9 13.425 15.505 3.881 86.953 o
-6 3 10 402.717 377.594 25.671 2.112 o
-6 4 1 237.646 228.089 7.781 9.488 o
-6 4 2 2494.150 2430.160 56.700 0.280 o
-6 4 3 51.140 47.585 2.736 56.211 o
-6 4 4 27.287 27.896 2.313 97.228 o
-6 4 5 115.001 114.053 5.172 21.168 o
-6 4 6 9.321 9.410 1.928 225.836 o
-6 4 7 422.984 431.007 11.867 4.465 o
-6 4 8 390.482 380.150 10.989 5.081 o
-6 4 9 82.722 72.191 6.884 21.398 o
-6 5 1 1676.680 1664.670 22.818 0.771 o
-6 5 2 3.165 5.006 1.174 580.822 o
-6 5 3 484.513 465.837 17.190 3.062 o
-6 5 4 123.819 124.194 4.788 20.723 o
-6 5 5 0.351 2.930 1.234 908.721 o
-6 5 6 36.565 36.404 3.198 65.293 o
-6 5 7 42.907 49.732 3.819 49.963 o
-6 5 8 253.293 248.237 10.376 7.370 o
-6 5 9 1.059 1.476 2.737 242.134 o
-6 6 1 0.581 2.249 1.376 787.922 o
-6 6 2 729.015 738.327 18.481 2.074 o
-6 6 3 209.585 209.944 4.969 12.785 o
-6 6 4 277.588 284.851 7.924 8.086 o
-6 6 5 59.978 59.617 3.575 42.779 o
-6 6 6 1.817 1.288 3.921 121.154 o
-6 6 7 0.554 -0.913 1.827 556.739 o
-6 6 8 47.993 57.979 4.978 37.074 o
-6 7 1 21.093 21.826 3.270 88.665 o
-6 7 2 145.800 153.003 7.585 13.560 o
-6 7 3 423.126 433.356 13.729 4.023 o
-6 7 4 463.765 446.529 10.549 4.472 o
-6 7 5 18.012 24.998 2.771 105.578 o
-6 7 6 13.380 10.641 2.339 161.990 o
-6 7 7 34.568 33.277 7.166 28.144 o
-6 8 1 46.133 41.713 5.490 36.018 o
-6 8 2 131.299 135.983 7.298 15.027 o
-6 8 3 337.523 337.791 12.348 5.204 o
-6 8 4 94.219 99.447 6.467 20.394 o
-6 8 5 190.860 188.909 9.171 9.850 o
-6 8 6 61.398 71.790 5.740 28.489 o
-6 9 1 97.333 90.906 7.227 18.490 o
-6 9 2 0.331 4.137 2.070 383.253 o
-6 9 3 133.596 128.324 7.526 14.722 o
-6 9 4 134.308 131.147 9.483 11.723 o
-6 10 1 112.002 109.155 8.084 15.221 o
-6 10 2 38.747 60.008 10.822 13.832 o
-5 -7 1 252.766 236.632 12.602 6.246 o
-5 -7 2 298.868 292.436 14.081 5.025 o
-5 -7 3 76.502 64.841 11.084 12.036 o
-5 -7 4 0.490 -1.063 1.915 512.453 o
-5 -7 5 57.057 52.115 6.111 28.943 o
-5 -7 6 25.675 25.638 3.749 70.441 o
-5 -7 7 147.411 134.793 7.220 14.419 o
-5 -6 1 8.063 8.511 2.798 161.153 o
-5 -6 2 334.150 306.406 16.417 4.058 o
-5 -6 3 273.845 282.643 12.845 5.735 o
-5 -6 4 27.059 21.109 4.064 65.447 o
-5 -6 5 22.278 15.897 2.874 102.942 o
-5 -6 6 37.994 39.127 4.027 52.939 o
-5 -6 7 48.598 43.471 4.401 43.593 o
-5 -6 8 149.032 139.452 10.483 10.043 o
-5 -6 9 201.855 200.459 7.814 10.668 o
-5 -5 1 0.802 2.043 1.963 437.478 o
-5 -5 2 473.176 466.282 22.873 2.279 o
-5 -5 3 592.045 591.643 22.926 2.002 o
-5 -5 4 134.443 139.637 6.624 15.909 o
-5 -5 5 184.206 169.156 5.147 14.612 o
-5 -5 6 36.545 36.922 2.757 71.285 o
-5 -5 7 29.585 30.187 2.760 82.749 o
-5 -5 8 77.708 75.381 4.435 31.288 o
-5 -5 9 314.203 327.333 10.141 6.280 o
-5 -5 10 13.092 8.898 2.990 129.499 o
-5 -4 1 9.685 8.919 2.465 177.030 o
-5 -4 2 47.181 53.911 4.721 39.754 o
-5 -4 3 569.494 594.827 27.971 1.606 o
-5 -4 4 937.207 895.331 20.563 1.560 o
-5 -4 5 1085.150 1057.420 16.336 1.501 o
-5 -4 6 104.631 100.078 4.349 25.241 o
-5 -4 7 162.382 171.783 6.529 13.895 o
-5 -4 8 4.604 3.209 2.472 236.716 o
-5 -4 9 455.129 448.114 11.901 4.226 o
-5 -4 10 204.221 209.126 11.311 7.734 o
-5 -4 11 53.002 62.526 8.836 18.031 o
-5 -3 1 0.693 1.174 1.263 961.583 o
-5 -3 2 2.392 2.088 1.319 665.413 o
-5 -3 3 223.171 225.624 9.682 8.444 o
-5 -3 4 472.004 485.198 9.093 4.596 o
-5 -3 5 261.645 256.584 7.022 9.160 o
-5 -3 6 1381.160 1353.720 22.680 0.978 o
-5 -3 7 43.718 39.789 2.987 61.200 o
-5 -3 8 200.008 186.051 6.598 12.090 o
-5 -3 9 10.885 9.451 1.764 226.813 o
-5 -3 10 165.290 161.848 9.820 10.118 o
-5 -3 11 143.294 139.539 9.517 11.299 o
-5 -2 1 199.580 197.186 5.261 13.182 o
-5 -2 2 177.966 178.120 5.060 14.796 o
-5 -2 3 78.947 81.585 3.295 35.260 o
-5 -2 4 17.422 15.291 1.730 164.347 o
-5 -2 5 573.403 596.983 12.017 3.330 o
-5 -2 6 304.517 293.100 12.583 5.546 o
-5 -2 7 1457.520 1486.710 27.590 0.813 o
-5 -2 8 25.868 22.081 2.430 102.469 o
-5 -2 9 11.840 14.327 3.895 89.637 o
-5 -2 10 43.572 45.888 5.803 33.930 o
-5 -2 11 264.053 263.511 13.470 5.625 o
-5 -2 12 515.974 494.590 26.925 1.788 o
-5 -1 1 1539.200 1583.790 28.505 0.750 o
-5 -1 2 15.197 21.314 1.838 155.645 o
-5 -1 3 568.331 626.184 10.806 3.454 o
-5 -1 4 0.623 1.760 0.911 1444.610 o
-5 -1 5 129.872 143.678 4.736 19.453 o
-5 -1 6 1132.160 1138.710 21.861 1.226 o
-5 -1 7 394.266 375.663 7.958 5.949 o
-5 -1 8 6.888 8.385 1.455 324.916 o
-5 -1 9 48.317 51.482 5.516 34.159 o
-5 -1 10 76.155 75.919 6.683 22.522 o
-5 -1 11 146.404 132.028 9.394 11.471 o
-5 -1 12 144.767 151.680 10.569 9.912 o
-5 0 1 845.055 827.018 14.716 2.073 o
-5 0 2 194.644 187.512 4.873 13.971 o
-5 0 3 0.529 0.099 0.520 4143.430 o
-5 0 4 43.635 51.464 2.305 64.055 o
-5 0 5 17.598 20.102 1.742 151.934 o
-5 0 6 424.086 433.705 10.552 4.769 o
-5 0 7 729.163 717.180 12.550 2.599 o
-5 0 8 143.316 141.422 4.052 19.592 o
-5 0 9 48.183 47.431 5.326 35.956 o
-5 0 10 0.516 2.247 3.241 177.532 o
-5 0 11 1.250 4.404 4.627 86.975 o
-5 0 12 45.667 55.764 6.482 28.520 o
-5 1 1 1188.760 1227.600 17.930 1.270 o
-5 1 2 449.628 458.791 7.770 5.121 o
-5 1 3 75.851 76.401 2.814 38.875 o
-5 1 4 41.790 55.251 2.626 60.885 o
-5 1 5 58.325 61.818 2.753 48.486 o
-5 1 6 444.906 454.885 10.161 4.650 o
-5 1 7 416.853 399.028 22.764 2.444 o
-5 1 8 489.961 497.308 17.314 2.981 o
-5 1 9 14.827 14.206 3.227 107.802 o
-5 1 10 1.994 2.109 2.404 286.889 o
-5 1 11 11.062 14.337 4.319 78.216 o
-5 2 1 1033.700 1074.760 18.076 1.479 o
-5 2 2 1316.780 1355.020 19.214 1.095 o
-5 2 3 738.762 806.859 16.383 2.164 o
-5 2 4 184.833 170.245 5.784 13.841 o
-5 2 5 42.549 46.361 2.877 60.914 o
-5 2 6 331.400 341.145 9.191 6.394 o
-5 2 7 311.958 305.487 20.541 3.147 o
-5 2 8 638.449 601.273 10.114 3.309 o
-5 2 9 552.193 529.979 27.945 1.652 o
-5 2 10 9.248 10.825 3.301 122.086 o
-5 2 11 0.804 2.860 2.873 217.687 o
-5 3 1 655.519 713.695 10.224 3.033 o
-5 3 2 2835.000 2942.260 37.555 0.312 o
-5 3 3 499.490 487.637 11.272 4.013 o
-5 3 4 761.140 760.814 15.969 2.198 o
-5 3 5 181.418 168.819 5.990 13.787 o
-5 3 6 16.622 22.329 2.369 126.301 o
-5 3 7 11.457 16.108 2.762 134.835 o
-5 3 8 314.614 290.068 18.409 3.646 o
-5 3 9 238.217 234.975 12.167 6.631 o
-5 3 10 91.085 91.502 7.726 17.654 o
-5 3 11 15.029 20.431 4.589 65.380 o
-5 4 1 83.364 89.624 2.937 34.558 o
-5 4 2 357.789 362.265 15.136 4.166 o
-5 4 3 373.770 377.931 7.463 6.302 o
-5 4 4 739.895 740.755 15.855 2.267 o
-5 4 5 613.180 598.700 13.942 2.944 o
-5 4 6 233.260 245.070 8.052 9.210 o
-5 4 7 8.843 8.235 1.767 254.335 o
-5 4 8 146.001 151.570 6.202 15.638 o
-5 4 9 2.853 1.274 2.437 274.392 o
-5 4 10 215.628 213.398 12.409 6.861 o
-5 5 1 559.203 574.770 14.448 3.083 o
-5 5 2 1024.010 1056.280 15.472 1.605 o
-5 5 3 254.774 271.825 5.983 9.756 o
-5 5 4 425.773 425.057 10.958 4.687 o
-5 5 5 1258.580 1257.050 24.807 1.020 o
-5 5 6 18.881 22.288 2.653 110.443 o
-5 5 7 2.435 3.045 1.574 507.097 o
-5 5 8 16.459 17.767 2.694 120.477 o
-5 5 9 229.905 237.740 12.660 6.437 o
-5 6 1 3.510 5.293 1.568 423.902 o
-5 6 2 129.049 124.444 6.089 17.670 o
-5 6 3 0.528 1.831 0.677 2029.420 o
-5 6 4 252.976 252.073 8.128 8.699 o
-5 6 5 138.916 147.738 6.664 15.388 o
-5 6 6 385.433 377.249 11.311 5.035 o
-5 6 7 17.793 17.258 2.591 121.600 o
-5 6 8 35.202 27.538 3.626 63.680 o
-5 7 1 52.805 58.517 4.289 40.462 o
-5 7 2 5.222 2.495 1.877 338.351 o
-5 7 3 5.715 5.107 1.194 451.189 o
-5 7 4 51.994 59.078 3.457 46.865 o
-5 7 5 206.974 216.913 8.037 10.132 o
-5 7 6 413.407 417.362 12.572 4.389 o
-5 7 7 48.520 48.124 4.775 39.818 o
-5 8 1 223.674 232.052 9.289 8.655 o
-5 8 2 159.203 176.608 8.166 11.902 o
-5 8 3 1.266 1.122 1.583 624.241 o
-5 8 4 25.538 23.954 2.617 96.593 o
-5 8 5 44.963 47.914 3.848 49.145 o
-5 8 6 343.110 327.739 10.228 5.952 o
-5 9 1 638.917 613.963 30.480 1.380 o
-5 9 2 91.490 93.838 6.020 22.196 o
-5 9 3 86.747 90.785 6.013 22.868 o
-5 9 4 39.070 34.495 4.094 52.824 o
-5 9 5 128.566 127.502 7.688 14.704 o
-5 10 1 403.079 383.298 16.075 3.692 o
-5 10 2 346.053 354.850 15.582 4.120 o
-5 10 3 2.875 5.079 2.845 196.572 o
-4 -8 1 73.615 80.092 7.199 20.856 o
-4 -8 2 3.662 -1.068 2.133 336.591 o
-4 -8 3 342.409 336.693 15.143 4.303 o
-4 -8 4 91.151 77.606 5.749 23.978 o
-4 -8 5 302.310 312.010 14.329 4.852 o
-4 -8 6 5.015 4.159 2.718 198.722 o
-4 -8 7 9.674 4.490 3.045 145.634 o
-4 -8 8 191.934 177.064 9.854 9.346 o
-4 -7 1 96.385 89.488 7.417 18.133 o
-4 -7 2 1.063 0.589 4.758 85.155 o
-4 -7 3 530.786 504.099 18.586 2.682 o
-4 -7 4 319.617 316.604 11.136 5.883 o
-4 -7 5 74.878 68.624 4.892 30.412 o
-4 -7 6 100.265 91.785 5.597 22.647 o
-4 -7 7 104.696 108.291 8.352 15.080 o
-4 -7 8 104.123 101.244 6.175 20.246 o
-4 -7 9 570.998 623.392 15.609 2.822 o
-4 -7 10 410.534 405.578 15.784 3.683 o
-4 -6 1 1.257 2.457 3.032 195.367 o
-4 -6 2 1.439 1.218 2.771 234.247 o
-4 -6 3 27.564 27.082 4.152 61.342 o
-4 -6 4 333.097 337.385 10.954 5.734 o
-4 -6 5 769.447 736.725 19.647 1.923 o
-4 -6 6 263.450 261.174 7.091 9.033 o
-4 -6 7 88.157 77.858 4.178 30.120 o
-4 -6 8 147.182 140.359 6.163 15.942 o
-4 -6 9 1.346 2.078 1.830 469.429 o
-4 -6 10 252.704 272.273 9.584 7.662 o
-4 -6 11 289.783 281.609 13.695 5.269 o
-4 -5 1 116.104 88.678 6.193 19.724 o
-4 -5 2 53.896 55.672 12.992 9.895 o
-4 -5 3 0.386 1.527 3.921 124.725 o
-4 -5 4 789.320 768.496 17.742 2.008 o
-4 -5 5 220.288 224.016 5.849 11.454 o
-4 -5 6 395.083 400.909 9.435 5.405 o
-4 -5 7 109.095 108.164 5.048 22.354 o
-4 -5 8 115.424 119.545 5.461 20.213 o
-4 -5 9 2.169 2.641 1.744 460.270 o
-4 -5 10 34.085 32.069 5.068 44.862 o
-4 -5 11 201.894 195.807 11.314 7.861 o
-4 -4 1 1005.940 1008.820 26.176 1.205 o
-4 -4 2 1.169 4.634 2.823 213.821 o
-4 -4 3 2.198 3.135 0.813 986.318 o
-4 -4 4 5.636 4.988 0.891 534.570 o
-4 -4 5 891.091 871.812 16.334 1.863 o
-4 -4 6 96.516 94.974 3.971 27.928 o
-4 -4 7 202.394 200.876 6.862 11.519 o
-4 -4 8 329.613 321.737 10.239 6.111 o
-4 -4 9 10.470 23.524 5.176 56.653 o
-4 -4 10 12.006 14.330 3.563 100.728 o
-4 -4 11 5.832 4.018 5.202 65.951 o
-4 -4 12 119.905 135.212 9.495 12.085 o
-4 -3 1 2136.830 1991.550 48.621 0.375 o
-4 -3 2 1213.150 1216.850 34.597 0.805 o
-4 -3 3 121.803 123.925 3.234 24.119 o
-4 -3 4 0.369 0.366 0.564 3834.120 o
-4 -3 5 66.632 69.614 3.162 41.218 o
-4 -3 6 708.535 710.755 13.407 2.584 o
-4 -3 7 1957.370 1936.400 34.132 0.524 o
-4 -3 8 201.916 189.356 8.241 10.424 o
-4 -3 9 98.630 92.871 3.157 30.230 o
-4 -3 10 18.054 17.505 3.730 83.664 o
-4 -3 11 55.767 63.119 12.365 10.630 o
-4 -3 12 96.904 108.475 8.634 14.892 o
-4 -2 1 1007.570 980.586 15.613 1.666 o
-4 -2 2 1327.290 1296.150 17.668 1.144 o
-4 -2 3 201.077 179.497 4.898 13.837 o
-4 -2 4 431.672 433.694 10.572 4.713 o
-4 -2 5 9.117 10.026 1.660 252.636 o
-4 -2 6 220.845 239.565 6.278 10.875 o
-4 -2 7 740.499 717.835 12.540 2.570 o
-4 -2 8 856.791 841.448 13.732 2.100 o
-4 -2 9 385.935 365.126 14.551 4.174 o
-4 -2 10 6.853 6.651 2.613 188.425 o
-4 -2 11 73.842 62.924 6.444 24.362 o
-4 -2 12 7.116 5.929 9.123 22.673 o
-4 -1 1 921.006 976.074 15.738 1.778 o
-4 -1 2 300.774 259.915 5.401 9.143 o
-4 -1 3 869.997 873.841 14.760 1.987 o
-4 -1 4 193.169 192.407 5.170 13.639 o
-4 -1 5 30.235 46.133 2.167 81.786 o
-4 -1 6 72.110 74.558 3.283 38.110 o
-4 -1 7 548.425 564.195 9.844 3.814 o
-4 -1 8 1172.420 1154.300 30.045 0.947 o
-4 -1 9 708.814 724.541 22.464 1.802 o
-4 -1 10 350.553 325.792 14.422 4.499 o
-4 -1 11 6.985 6.875 2.787 171.562 o
-4 -1 12 7.782 6.463 7.555 32.273 o
-4 0 1 54.728 64.122 2.187 53.407 o
-4 0 2 2939.470 3122.550 38.940 0.290 o
-4 0 3 828.664 823.864 12.354 2.259 o
-4 0 4 1.569 5.296 0.987 797.461 o
-4 0 5 66.144 66.740 2.217 46.956 o
-4 0 6 415.207 417.910 7.867 5.568 o
-4 0 7 225.799 240.771 4.577 11.915 o
-4 0 8 562.973 541.525 17.817 2.664 o
-4 0 9 1407.910 1403.610 36.094 0.689 o
-4 0 10 258.664 259.387 12.893 5.946 o
-4 0 11 2.548 0.109 2.648 248.098 o
-4 0 12 6.459 9.574 3.598 116.174 o
-4 1 1 33.571 40.036 1.944 84.631 o
-4 1 2 1430.450 1457.900 21.962 0.940 o
-4 1 3 2300.470 2399.720 30.460 0.448 o
-4 1 4 783.541 788.259 13.206 2.335 o
-4 1 5 47.258 44.377 2.069 66.215 o
-4 1 6 200.176 211.987 5.104 13.000 o
-4 1 7 315.109 318.315 5.943 8.068 o
-4 1 8 144.701 156.415 8.810 11.894 o
-4 1 9 122.939 117.288 7.977 14.704 o
-4 1 10 532.573 536.158 19.898 2.474 o
-4 1 11 107.172 113.346 8.754 14.112 o
-4 1 12 7.739 4.281 3.180 144.463 o
-4 2 1 519.098 606.112 8.671 4.026 o
-4 2 2 1118.690 1184.430 18.297 1.337 o
-4 2 3 1720.690 1772.750 33.324 0.602 o
-4 2 4 1300.660 1322.890 20.275 1.091 o
-4 2 5 407.514 384.812 8.512 5.622 o
-4 2 6 83.174 80.488 2.852 36.074 o
-4 2 7 30.829 30.448 1.581 102.645 o
-4 2 8 8.311 8.500 2.474 185.805 o
-4 2 9 620.450 616.934 20.968 2.128 o
-4 2 10 65.423 70.260 6.588 24.358 o
-4 2 11 200.847 210.940 16.704 4.867 o
-4 3 1 4212.980 4371.410 52.841 0.157 o
-4 3 2 663.507 737.064 12.272 2.775 o
-4 3 3 14.885 15.695 1.421 193.826 o
-4 3 4 408.569 430.662 10.154 4.988 o
-4 3 5 1231.840 1272.130 23.763 1.058 o
-4 3 6 990.730 987.460 19.715 1.498 o
-4 3 7 102.737 99.740 3.898 26.811 o
-4 3 8 0.396 -0.446 1.592 735.789 o
-4 3 9 38.278 37.915 4.192 51.234 o
-4 3 10 547.467 512.416 20.027 2.452 o
-4 3 11 187.554 205.652 16.547 5.023 o
-4 4 1 1.205 2.700 0.572 1597.410 o
-4 4 2 307.577 331.893 6.181 7.986 o
-4 4 3 17.597 17.530 1.675 160.598 o
-4 4 4 124.509 137.065 5.125 19.425 o
-4 4 5 323.003 326.809 9.088 6.612 o
-4 4 6 1087.090 1085.290 21.932 1.278 o
-4 4 7 495.386 514.664 12.979 3.661 o
-4 4 8 77.262 76.610 4.324 31.744 o
-4 4 9 38.428 44.518 3.488 57.382 o
-4 4 10 182.180 190.919 11.582 7.990 o
-4 5 1 839.679 858.143 18.421 1.821 o
-4 5 2 40.358 35.989 1.351 85.251 o
-4 5 3 19.216 23.399 1.555 145.496 o
-4 5 4 151.109 155.476 5.839 15.801 o
-4 5 5 64.558 71.206 4.052 36.669 o
-4 5 6 273.185 281.585 9.003 7.610 o
-4 5 7 698.242 723.273 17.153 2.254 o
-4 5 8 197.407 207.151 7.994 10.535 o
-4 5 9 3.903 1.347 1.766 415.164 o
-4 5 10 7.400 3.281 3.860 108.679 o
-4 6 1 520.642 471.394 12.567 3.717 o
-4 6 2 196.457 201.072 7.812 10.808 o
-4 6 3 70.758 74.233 2.792 40.943 o
-4 6 4 172.873 179.325 6.716 13.078 o
-4 6 5 10.802 15.507 2.308 164.677 o
-4 6 6 388.064 398.024 14.332 4.138 o
-4 6 7 533.428 517.594 17.523 2.806 o
-4 6 8 222.058 238.192 9.280 8.634 o
-4 6 9 93.409 88.991 7.038 19.340 o
-4 7 1 1238.490 1246.460 25.691 1.010 o
-4 7 2 365.740 366.533 7.152 6.558 o
-4 7 3 7.050 4.572 1.989 270.566 o
-4 7 4 24.755 24.272 2.874 91.296 o
-4 7 5 34.317 38.276 5.337 41.081 o
-4 7 6 1.571 0.196 2.086 398.378 o
-4 7 7 120.776 124.540 6.532 17.341 o
-4 7 8 571.775 535.789 15.751 2.923 o
-4 8 1 321.049 306.658 10.346 6.234 o
-4 8 2 1210.900 1170.290 25.569 1.050 o
-4 8 3 246.723 244.086 7.382 9.388 o
-4 8 4 0.739 5.161 1.958 392.950 o
-4 8 5 101.829 107.405 5.232 22.679 o
-4 8 6 1.227 -3.114 3.826 130.622 o
-4 9 1 120.152 120.189 7.556 15.528 o
-4 9 2 329.748 322.774 8.439 6.815 o
-4 9 3 58.706 62.387 3.770 41.454 o
-4 9 4 414.313 404.244 11.001 4.823 o
-4 9 5 254.157 261.305 10.965 6.949 o
-4 10 1 17.981 18.846 3.695 83.826 o
-4 10 2 8.848 6.201 5.620 54.921 o
-4 10 3 364.585 367.104 16.006 3.900 o
-4 11 1 54.078 43.954 6.145 29.950 o
-3 -9 2 13.252 13.926 5.359 54.764 o
-3 -9 3 65.513 59.706 8.522 18.223 o
-3 -9 4 134.097 130.900 7.113 15.327 o
-3 -9 5 133.235 129.146 6.906 15.775 o
-3 -9 6 236.576 242.714 9.847 7.973 o
-3 -9 7 20.014 26.824 3.353 84.596 o
-3 -8 1 85.284 93.398 7.345 18.963 o
-3 -8 2 17.962 23.068 5.045 54.606 o
-3 -8 3 40.030 39.100 5.277 39.708 o
-3 -8 4 129.057 130.527 8.338 13.563 o
-3 -8 5 526.427 542.677 15.209 3.128 o
-3 -8 6 431.133 421.587 13.005 4.178 o
-3 -8 7 226.194 227.464 9.118 8.772 o
-3 -8 8 20.447 20.485 3.550 83.308 o
-3 -8 9 10.199 16.150 3.584 101.628 o
-3 -7 1 165.027 181.472 9.943 9.781 o
-3 -7 2 16.443 23.500 4.122 72.612 o
-3 -7 3 0.935 1.526 1.488 699.366 o
-3 -7 4 0.800 1.837 1.446 729.364 o
-3 -7 5 518.897 497.587 13.758 3.465 o
-3 -7 6 764.006 774.975 18.790 1.966 o
-3 -7 7 422.375 415.179 11.189 4.684 o
-3 -7 8 52.012 58.321 4.034 42.614 o
-3 -7 9 8.826 11.195 2.235 194.177 o
-3 -7 10 14.573 16.944 3.994 81.339 o
-3 -7 11 154.518 133.678 13.201 7.528 o
-3 -6 1 571.500 535.733 33.748 1.259 o
-3 -6 2 34.287 42.616 4.218 51.767 o
-3 -6 3 90.694 77.594 5.620 24.468 o
-3 -6 4 9.248 15.250 2.357 170.049 o
-3 -6 5 43.882 44.138 2.239 67.561 o
-3 -6 6 576.913 598.001 10.899 3.465 o
-3 -6 7 466.494 488.321 12.381 3.965 o
-3 -6 8 196.438 204.806 7.477 11.067 o
-3 -6 9 4.370 5.750 1.528 401.057 o
-3 -6 10 4.357 2.982 1.612 421.267 o
-3 -6 11 112.597 101.128 8.038 15.478 o
-3 -5 1 493.942 503.116 15.982 3.174 o
-3 -5 2 494.920 509.962 15.877 3.177 o
-3 -5 3 87.723 82.989 6.143 22.759 o
-3 -5 4 80.392 79.856 2.323 38.907 o
-3 -5 5 299.181 294.573 6.151 8.484 o
-3 -5 6 0.584 0.345 1.070 1393.020 o
-3 -5 7 479.488 480.613 12.721 3.855 o
-3 -5 8 1305.490 1305.160 25.380 0.968 o
-3 -5 9 2.356 0.420 1.154 878.681 o
-3 -5 10 85.507 69.762 8.733 16.203 o
-3 -5 11 35.050 40.168 5.990 35.188 o
-3 -5 12 61.782 70.079 13.986 8.501 o
-3 -4 1 733.484 702.895 19.187 2.038 o
-3 -4 2 847.948 866.933 22.028 1.591 o
-3 -4 3 90.265 90.306 2.028 35.561 o
-3 -4 4 3.973 3.864 0.966 650.060 o
-3 -4 5 364.619 348.377 6.904 6.763 o
-3 -4 6 172.293 180.206 5.434 14.594 o
-3 -4 7 1068.780 1093.110 21.362 1.310 o
-3 -4 8 280.661 276.440 8.498 7.802 o
-3 -4 9 165.362 148.475 4.204 17.439 o
-3 -4 10 32.302 40.220 4.986 44.838 o
-3 -4 11 40.055 33.576 8.078 22.903 o
-3 -4 12 0.515 3.918 2.713 239.054 o
-3 -3 1 168.764 191.325 7.674 11.919 o
-3 -3 2 761.295 759.049 11.856 2.521 o
-3 -3 3 152.910 123.897 3.458 20.426 o
-3 -3 4 205.988 211.455 5.398 12.531 o
-3 -3 5 100.825 104.133 3.655 27.453 o
-3 -3 6 487.447 484.567 11.731 3.996 o
-3 -3 7 5.072 6.165 0.812 553.452 o
-3 -3 8 434.467 408.886 7.888 5.431 o
-3 -3 9 324.052 358.155 16.051 4.087 o
-3 -3 10 273.323 275.137 12.766 5.806 o
-3 -3 11 84.523 70.923 6.469 22.646 o
-3 -3 12 85.719 71.980 7.218 20.117 o
-3 -3 13 0.444 -0.156 2.688 266.555 o
-3 -2 1 55.564 75.123 4.633 35.156 o
-3 -2 2 106.737 99.306 3.246 27.996 o
-3 -2 3 1836.340 1908.760 24.688 0.653 o
-3 -2 4 706.198 690.843 8.923 3.016 o
-3 -2 5 709.607 694.126 13.883 2.558 o
-3 -2 6 89.614 97.751 2.969 32.111 o
-3 -2 7 138.178 145.301 3.493 20.749 o
-3 -2 8 176.085 169.732 8.574 11.045 o
-3 -2 9 858.370 863.265 27.344 1.307 o
-3 -2 10 790.670 781.173 24.431 1.552 o
-3 -2 11 193.500 206.656 20.861 3.539 o
-3 -2 12 27.039 28.106 5.552 43.100 o
-3 -2 13 88.774 89.996 8.574 15.862 o
-3 -1 1 27.207 30.957 1.335 114.345 o
-3 -1 2 161.106 181.179 3.937 16.960 o
-3 -1 3 1783.690 1793.430 31.367 0.608 o
-3 -1 4 1931.220 1944.910 24.891 0.619 o
-3 -1 5 978.663 967.069 14.975 1.742 o
-3 -1 6 643.009 672.441 10.863 3.082 o
-3 -1 7 122.835 133.995 7.144 15.779 o
-3 -1 8 27.224 30.795 4.097 61.135 o
-3 -1 9 436.326 413.429 15.550 3.615 o
-3 -1 10 384.012 387.289 15.877 3.807 o
-3 -1 11 578.837 585.962 21.550 2.161 o
-3 -1 12 414.128 425.689 18.649 3.071 o
-3 0 1 256.785 300.615 4.906 9.931 o
-3 0 2 191.692 212.850 3.417 14.766 o
-3 0 3 113.483 131.521 2.648 25.810 o
-3 0 4 1400.070 1401.230 20.247 1.007 o
-3 0 5 4332.690 4272.700 57.213 0.149 o
-3 0 6 378.614 347.012 11.844 5.034 o
-3 0 7 14.685 16.973 2.901 117.785 o
-3 0 8 231.608 235.284 10.639 7.602 o
-3 0 9 251.771 258.655 11.969 6.465 o
-3 0 10 293.848 280.709 13.390 5.361 o
-3 0 11 286.790 297.351 22.612 2.813 o
-3 0 12 393.834 388.927 19.161 3.084 o
-3 1 1 37.475 59.636 1.703 71.499 o
-3 1 2 1.202 2.092 0.343 2153.490 o
-3 1 3 245.062 274.272 4.557 10.784 o
-3 1 4 116.047 123.868 3.242 24.841 o
-3 1 5 120.668 99.222 2.743 26.950 o
-3 1 6 1718.190 1689.770 24.296 0.731 o
-3 1 7 486.968 503.520 16.264 3.149 o
-3 1 8 0.933 1.762 2.693 249.419 o
-3 1 9 227.557 225.410 11.306 7.311 o
-3 1 10 112.600 124.051 8.836 13.539 o
-3 1 11 336.830 322.886 15.563 4.246 o
-3 1 12 338.529 360.374 18.769 3.366 o
-3 2 1 1376.600 1312.850 13.639 1.188 o
-3 2 2 212.786 258.700 4.229 12.287 o
-3 2 3 10.706 14.226 0.919 273.132 o
-3 2 4 10.911 11.473 1.040 280.312 o
-3 2 5 48.834 47.145 1.987 64.502 o
-3 2 6 529.838 510.010 19.371 2.573 o
-3 2 7 618.604 602.919 17.470 2.509 o
-3 2 8 59.770 65.444 2.589 48.031 o
-3 2 9 383.683 394.757 15.989 3.767 o
-3 2 10 11.789 11.388 2.962 131.098 o
-3 2 11 203.468 200.274 12.167 7.232 o
-3 2 12 296.503 291.198 15.547 4.539 o
-3 3 1 4006.580 3969.490 62.068 0.158 o
-3 3 2 43.250 84.092 3.191 47.226 o
-3 3 3 184.293 174.694 3.825 15.856 o
-3 3 4 195.710 190.096 5.675 13.085 o
-3 3 5 703.967 748.862 12.928 2.590 o
-3 3 6 222.664 210.635 6.440 11.117 o
-3 3 7 595.484 597.477 11.189 3.354 o
-3 3 8 3.666 4.229 0.918 680.190 o
-3 3 9 10.590 14.839 2.078 183.130 o
-3 3 10 9.170 10.822 3.452 115.013 o
-3 3 11 0.517 -1.410 2.018 462.416 o
-3 4 1 291.013 258.764 4.004 9.998 o
-3 4 2 1466.540 1465.920 29.119 0.786 o
-3 4 3 570.363 515.118 14.655 3.113 o
-3 4 4 1029.850 1055.010 20.318 1.401 o
-3 4 5 10.001 17.770 1.917 188.866 o
-3 4 6 262.309 275.161 8.440 8.142 o
-3 4 7 457.277 467.985 12.294 4.079 o
-3 4 8 606.741 626.253 15.358 2.753 o
-3 4 9 282.684 293.150 9.493 7.145 o
-3 4 10 1.731 2.685 2.812 218.869 o
-3 5 1 45.663 37.750 2.070 70.615 o
-3 5 2 958.953 932.062 15.033 1.791 o
-3 5 3 684.609 659.974 12.726 2.780 o
-3 5 4 170.101 163.731 8.716 11.143 o
-3 5 5 38.785 41.005 3.128 62.690 o
-3 5 6 1.459 3.856 1.309 675.605 o
-3 5 7 177.206 176.011 7.234 12.385 o
-3 5 8 660.066 665.306 17.194 2.383 o
-3 5 9 370.023 361.614 11.536 5.138 o
-3 5 10 244.315 246.678 13.861 5.677 o
-3 6 1 11.280 15.651 1.135 242.609 o
-3 6 2 712.851 714.236 11.541 2.735 o
-3 6 3 646.267 600.284 32.168 1.285 o
-3 6 4 361.174 347.507 10.125 5.726 o
-3 6 5 89.487 94.740 4.987 25.667 o
-3 6 6 78.757 79.516 4.787 29.206 o
-3 6 7 28.500 32.720 3.615 67.164 o
-3 6 8 395.916 393.670 12.433 4.598 o
-3 6 9 446.683 431.824 20.585 2.667 o
-3 7 1 20.661 21.453 1.743 137.451 o
-3 7 2 56.818 53.745 4.037 41.720 o
-3 7 3 514.822 520.117 11.619 3.798 o
-3 7 4 103.106 107.358 5.404 22.081 o
-3 7 5 549.390 563.446 15.006 3.053 o
-3 7 6 18.545 17.398 2.883 108.824 o
-3 7 7 20.037 34.023 5.900 40.870 o
-3 7 8 4.908 -1.121 3.790 122.201 o
-3 8 1 17.325 14.857 1.731 165.906 o
-3 8 2 42.385 43.077 2.921 61.722 o
-3 8 3 5.407 4.995 1.500 389.269 o
-3 8 4 452.721 473.010 11.780 4.197 o
-3 8 5 54.588 52.400 8.075 20.727 o
-3 8 6 372.982 322.045 19.437 3.182 o
-3 9 1 17.364 19.090 2.400 127.738 o
-3 9 2 160.283 160.660 5.901 15.087 o
-3 9 3 105.263 113.493 5.100 22.343 o
-3 9 4 271.129 265.475 8.635 7.966 o
-3 9 5 224.227 209.134 8.008 9.837 o
-3 10 1 161.561 171.427 6.922 13.435 o
-3 10 2 102.230 103.176 5.520 22.070 o
-3 10 3 86.122 81.269 6.080 23.230 o
-2 -10 4 58.231 65.376 5.360 31.547 o
-2 -10 5 135.859 143.468 7.547 14.240 o
-2 -9 1 79.379 72.709 9.202 15.372 o
-2 -9 2 122.919 133.570 8.966 12.778 o
-2 -9 3 71.950 81.280 9.515 14.836 o
-2 -9 4 99.708 103.119 5.868 21.371 o
-2 -9 5 2.955 6.557 1.718 381.197 o
-2 -9 6 172.046 192.731 8.068 11.369 o
-2 -9 7 351.924 357.073 23.605 2.473 o
-2 -9 8 1.343 3.672 2.474 271.586 o
-2 -9 9 31.461 35.131 5.490 41.079 o
-2 -8 1 167.295 166.711 9.584 10.254 o
-2 -8 2 859.644 881.353 29.775 1.190 o
-2 -8 3 76.987 77.642 6.283 23.750 o
-2 -8 4 15.623 20.288 5.632 48.061 o
-2 -8 5 64.643 67.076 4.514 34.619 o
-2 -8 6 24.239 28.934 2.487 97.680 o
-2 -8 7 163.835 176.700 6.833 13.348 o
-2 -8 8 707.558 747.524 19.124 2.049 o
-2 -8 9 50.504 41.795 5.008 38.394 o
-2 -8 10 8.208 5.353 2.247 220.599 o
-2 -7 1 76.486 78.813 6.044 24.613 o
-2 -7 2 504.854 502.251 16.826 3.008 o
-2 -7 3 300.017 333.484 12.838 5.326 o
-2 -7 4 753.537 728.324 17.110 2.151 o
-2 -7 5 96.089 97.810 2.790 31.292 o
-2 -7 6 65.270 64.245 3.403 41.214 o
-2 -7 7 83.551 80.046 4.470 29.611 o
-2 -7 8 641.574 651.229 15.672 2.597 o
-2 -7 9 579.341 592.917 15.043 2.914 o
-2 -7 10 51.647 44.994 4.170 44.116 o
-2 -7 11 25.992 30.465 5.061 48.595 o
-2 -6 1 44.079 31.118 3.642 56.227 o
-2 -6 2 445.242 474.404 15.250 3.523 o
-2 -6 3 1372.420 1304.840 31.298 0.806 o
-2 -6 4 19.269 22.172 1.146 161.081 o
-2 -6 5 602.279 588.149 15.144 2.842 o
-2 -6 6 0.452 0.050 1.084 1465.020 o
-2 -6 7 16.994 21.389 3.708 83.113 o
-2 -6 8 1025.650 1061.990 21.834 1.341 o
-2 -6 9 677.367 682.748 16.102 2.435 o
-2 -6 10 316.380 293.286 11.637 5.820 o
-2 -6 11 0.545 3.514 2.634 253.856 o
-2 -6 12 2.045 2.425 3.503 146.630 o
-2 -5 1 109.352 97.776 6.483 19.192 o
-2 -5 2 120.639 109.152 5.917 19.189 o
-2 -5 3 372.869 370.680 5.499 6.922 o
-2 -5 4 602.670 583.603 9.449 3.571 o
-2 -5 5 118.186 110.508 3.397 25.118 o
-2 -5 6 7.594 7.507 1.386 330.337 o
-2 -5 7 325.014 323.585 9.109 6.599 o
-2 -5 8 297.197 285.467 8.482 7.491 o
-2 -5 9 401.768 402.898 10.771 4.976 o
-2 -5 10 238.546 246.575 7.692 9.330 o
-2 -5 11 149.807 133.848 9.072 11.751 o
-2 -5 12 10.201 15.044 3.770 95.822 o
-2 -4 1 121.714 150.553 6.594 16.372 o
-2 -4 2 0.520 1.872 1.202 1003.540 o
-2 -4 3 5.730 13.982 0.982 358.215 o
-2 -4 4 55.061 48.888 1.921 59.708 o
-2 -4 5 142.390 133.795 3.945 20.174 o
-2 -4 6 297.961 299.764 8.066 7.572 o
-2 -4 7 142.945 143.462 4.166 19.358 o
-2 -4 8 118.021 103.328 4.633 22.695 o
-2 -4 9 776.439 707.812 10.680 2.638 o
-2 -4 10 361.751 372.235 15.028 4.151 o
-2 -4 11 292.017 286.550 13.666 5.246 o
-2 -4 12 92.144 105.815 8.598 15.251 o
-2 -4 13 4.480 2.191 2.999 179.378 o
-2 -3 1 1834.500 1943.730 40.177 0.487 o
-2 -3 2 43.682 38.331 1.271 80.124 o
-2 -3 3 919.395 961.263 13.331 1.912 o
-2 -3 4 211.731 222.402 4.181 13.063 o
-2 -3 5 343.371 290.142 11.825 5.529 o
-2 -3 6 107.525 99.311 3.305 27.715 o
-2 -3 7 3.898 4.279 0.993 629.353 o
-2 -3 8 83.661 88.409 3.049 34.231 o
-2 -3 9 0.657 -0.933 1.265 1073.470 o
-2 -3 10 647.620 600.402 20.337 2.158 o
-2 -3 11 86.590 93.164 7.533 18.382 o
-2 -3 12 74.277 70.094 7.097 21.581 o
-2 -3 13 38.514 49.892 6.411 30.623 o
-2 -2 1 203.496 152.038 2.996 16.126 o
-2 -2 2 2052.020 2069.510 25.500 0.567 o
-2 -2 3 1419.440 1493.410 21.453 0.947 o
-2 -2 4 29.770 32.941 1.457 104.310 o
-2 -2 5 849.608 882.603 16.806 1.889 o
-2 -2 6 1784.480 1750.110 22.001 0.726 o
-2 -2 7 305.274 301.656 11.194 6.066 o
-2 -2 8 2.674 3.639 1.765 417.892 o
-2 -2 9 21.334 17.708 3.361 88.902 o
-2 -2 10 48.847 49.122 5.700 33.119 o
-2 -2 11 47.915 45.381 10.587 14.267 o
-2 -2 12 332.989 344.477 16.421 3.978 o
-2 -2 13 66.601 66.340 7.611 20.714 o
-2 -1 1 3810.850 3588.940 68.387 0.159 o
-2 -1 2 633.692 592.858 9.791 3.381 o
-2 -1 3 144.472 156.166 2.979 20.374 o
-2 -1 4 1026.980 1145.560 23.312 1.250 o
-2 -1 5 18.130 20.871 1.067 172.772 o
-2 -1 6 560.361 530.515 15.379 3.017 o
-2 -1 7 1809.100 1807.350 40.724 0.498 o
-2 -1 8 1234.070 1257.130 48.544 0.540 o
-2 -1 9 20.320 16.012 4.784 59.556 o
-2 -1 10 0.374 1.875 1.695 589.813 o
-2 -1 11 254.371 220.886 12.133 6.551 o
-2 -1 12 241.612 232.534 13.306 6.021 o
-2 -1 13 213.506 189.816 12.511 6.957 o
-2 0 2 2146.240 2092.480 21.626 0.571 o
-2 0 3 153.366 141.139 2.243 21.081 o
-2 0 4 220.330 241.859 3.730 12.633 o
-2 0 5 29.687 38.367 3.065 72.585 o
-2 0 6 185.168 172.217 7.623 11.754 o
-2 0 7 1682.480 1681.130 38.748 0.554 o
-2 0 8 568.024 585.552 18.729 2.492 o
-2 0 9 731.145 758.301 23.425 1.689 o
-2 0 10 90.555 85.107 7.136 19.443 o
-2 0 11 4.632 7.670 3.084 157.220 o
-2 0 12 74.210 67.825 10.195 13.640 o
-2 1 2 1988.960 1864.990 19.408 0.665 o
-2 1 3 17.270 9.071 0.617 240.585 o
-2 1 4 13.920 17.688 1.183 206.162 o
-2 1 5 20.858 25.192 1.073 149.230 o
-2 1 6 99.877 99.036 2.487 31.198 o
-2 1 7 1376.360 1344.240 32.861 0.767 o
-2 1 8 1253.400 1239.270 32.108 0.844 o
-2 1 9 236.449 234.500 12.417 6.517 o
-2 1 10 102.163 113.611 8.267 15.238 o
-2 1 11 3.478 7.006 3.529 131.818 o
-2 1 12 92.523 104.821 8.961 14.539 o
-2 2 2 366.114 345.598 5.087 7.308 o
-2 2 3 111.472 90.332 2.313 30.178 o
-2 2 4 313.747 320.160 8.512 7.007 o
-2 2 5 38.994 37.866 1.713 81.881 o
-2 2 6 5.255 5.262 1.041 506.577 o
-2 2 7 507.605 489.544 10.429 4.119 o
-2 2 8 214.136 205.505 4.231 13.276 o
-2 2 9 480.706 465.173 8.815 4.658 o
-2 2 10 73.994 75.394 9.385 15.159 o
-2 2 11 16.555 8.756 3.751 91.309 o
-2 2 12 15.816 16.094 4.748 63.316 o
-2 3 1 105.231 118.775 2.368 28.621 o
-2 3 2 64.455 53.651 1.743 53.420 o
-2 3 3 21.105 17.038 1.144 164.744 o
-2 3 4 127.682 120.454 3.572 22.980 o
-2 3 5 232.813 243.332 6.041 10.654 o
-2 3 6 25.331 30.937 3.003 82.855 o
-2 3 7 64.833 66.656 3.661 39.462 o
-2 3 8 661.026 670.814 15.642 2.531 o
-2 3 9 592.419 596.587 14.710 2.913 o
-2 3 10 69.873 73.080 4.241 34.121 o
-2 3 11 43.998 45.828 6.986 26.858 o
-2 4 1 390.198 400.492 6.617 6.228 o
-2 4 2 469.238 458.286 10.842 4.342 o
-2 4 3 1376.850 1414.630 21.556 0.988 o
-2 4 4 26.225 23.408 2.076 109.419 o
-2 4 5 84.132 84.755 4.167 30.271 o
-2 4 6 184.646 192.571 6.922 12.177 o
-2 4 7 17.751 17.513 2.369 130.219 o
-2 4 8 1.597 1.179 1.940 433.682 o
-2 4 9 488.235 475.539 13.302 3.717 o
-2 4 10 149.098 141.152 6.979 14.559 o
-2 5 1 809.539 871.799 12.785 2.222 o
-2 5 2 645.912 656.808 11.687 3.010 o
-2 5 3 228.719 208.387 6.733 10.741 o
-2 5 4 371.591 368.874 10.077 5.553 o
-2 5 5 1001.320 1030.570 21.326 1.397 o
-2 5 6 439.779 451.129 12.349 4.203 o
-2 5 7 1.529 0.301 1.357 807.982 o
-2 5 8 25.882 30.029 3.483 73.165 o
-2 5 9 19.751 27.601 4.497 60.947 o
-2 6 1 45.194 44.921 2.922 59.107 o
-2 6 2 84.979 93.872 3.765 30.752 o
-2 6 3 66.412 67.423 3.892 37.569 o
-2 6 4 253.185 252.556 8.386 8.530 o
-2 6 5 251.335 266.328 9.050 8.041 o
-2 6 6 473.252 501.040 13.866 3.621 o
-2 6 7 566.010 565.743 15.408 2.944 o
-2 6 8 8.414 11.757 2.911 145.079 o
-2 6 9 1.519 10.996 11.633 14.283 o
-2 7 1 804.688 835.973 15.235 2.102 o
-2 7 2 6.405 8.818 1.486 325.016 o
-2 7 3 229.351 243.279 8.365 9.090 o
-2 7 4 3.162 4.794 1.606 432.522 o
-2 7 5 528.470 546.464 14.853 3.169 o
-2 7 6 383.933 374.445 12.114 4.823 o
-2 7 7 175.497 171.845 10.550 9.104 o
-2 8 1 534.214 541.935 11.608 3.662 o
-2 8 2 36.910 40.066 2.922 67.248 o
-2 8 3 138.939 144.127 5.657 17.154 o
-2 8 4 20.790 18.138 2.427 118.466 o
-2 8 5 17.648 17.422 2.988 107.095 o
-2 8 6 323.541 316.140 11.565 5.684 o
-2 9 1 2.078 1.862 1.559 563.043 o
-2 9 2 269.614 246.066 11.199 6.733 o
-2 9 3 133.668 141.105 5.780 17.382 o
-2 9 4 23.992 27.105 3.110 84.798 o
-2 9 5 3.692 7.228 3.305 145.601 o
-2 10 1 232.599 237.272 8.540 8.963 o
-2 10 2 108.647 120.702 6.245 18.931 o
-2 10 3 45.954 54.562 4.448 42.175 o
-1 -10 1 4.561 5.606 5.803 54.236 o
-1 -10 2 85.626 82.012 7.019 20.296 o
-1 -10 3 92.663 88.685 5.630 23.551 o
-1 -10 4 8.753 6.614 2.198 215.684 o
-1 -10 5 99.382 115.564 6.270 19.803 o
-1 -10 6 0.553 -0.522 1.793 577.365 o
-1 -10 7 4.781 7.841 2.531 207.289 o
-1 -10 8 111.615 117.426 10.979 10.579 o
-1 -9 1 3.021 2.951 2.536 245.319 o
-1 -9 2 52.819 60.606 5.400 32.904 o
-1 -9 3 168.793 178.077 7.606 12.215 o
-1 -9 4 93.532 101.864 5.800 22.231 o
-1 -9 5 183.634 173.901 6.920 12.544 o
-1 -9 6 33.952 37.996 3.429 63.491 o
-1 -9 7 71.139 73.824 4.727 31.399 o
-1 -9 8 9.713 5.962 2.105 219.871 o
-1 -9 9 289.545 305.211 10.499 6.514 o
-1 -9 10 6.392 7.318 4.781 74.475 o
-1 -8 1 0.768 -2.015 1.144 1244.840 o
-1 -8 2 4.508 14.587 4.183 90.735 o
-1 -8 3 106.324 105.423 6.967 17.993 o
-1 -8 4 580.105 533.613 9.320 3.808 o
-1 -8 5 350.639 343.916 6.572 7.088 o
-1 -8 6 235.381 237.581 7.944 9.319 o
-1 -8 7 5.236 3.968 1.625 378.225 o
-1 -8 8 10.476 13.434 2.271 174.267 o
-1 -8 9 16.486 23.143 3.163 98.062 o
-1 -8 10 110.491 112.681 6.608 18.268 o
-1 -8 11 101.846 115.333 6.308 19.519 o
-1 -7 1 0.500 0.198 1.255 1101.890 o
-1 -7 2 47.192 44.563 5.281 36.903 o
-1 -7 3 38.257 31.169 1.737 87.133 o
-1 -7 4 1022.010 996.308 39.894 0.772 o
-1 -7 5 700.814 736.751 13.959 2.521 o
-1 -7 6 199.384 209.223 7.127 11.239 o
-1 -7 7 17.663 16.703 2.297 134.783 o
-1 -7 8 102.455 104.771 5.271 22.645 o
-1 -7 9 201.814 210.473 8.869 9.629 o
-1 -7 10 289.841 300.392 10.036 6.750 o
-1 -7 11 30.463 24.893 3.868 64.591 o
-1 -7 12 28.900 22.253 4.898 51.205 o
-1 -6 1 697.403 708.271 19.527 2.063 o
-1 -6 2 78.246 78.078 2.245 40.145 o
-1 -6 3 24.377 26.108 1.983 112.942 o
-1 -6 4 51.999 44.895 2.064 62.278 o
-1 -6 5 865.147 888.201 15.637 1.931 o
-1 -6 6 524.109 553.440 12.924 3.472 o
-1 -6 7 1214.740 1249.320 24.181 1.064 o
-1 -6 8 62.801 53.423 3.505 43.347 o
-1 -6 9 48.678 48.041 3.445 51.068 o
-1 -6 10 321.362 293.341 10.274 6.330 o
-1 -6 11 420.946 434.404 14.198 3.926 o
-1 -6 12 318.100 343.960 16.100 4.133 o
-1 -5 1 1065.790 1065.020 15.615 1.545 o
-1 -5 2 114.810 129.450 3.149 24.824 o
-1 -5 3 61.370 52.661 1.947 54.354 o
-1 -5 4 254.667 268.658 5.486 10.083 o
-1 -5 5 4.240 2.390 0.801 765.813 o
-1 -5 6 2166.220 2216.840 37.752 0.434 o
-1 -5 7 249.067 265.619 7.876 8.801 o
-1 -5 8 2.372 1.944 1.117 809.111 o
-1 -5 9 51.714 41.046 2.859 56.763 o
-1 -5 10 208.948 198.252 5.252 12.796 o
-1 -5 11 752.255 735.532 24.333 1.618 o
-1 -5 12 372.306 366.831 16.769 3.686 o
-1 -5 13 418.505 432.817 19.174 2.958 o
-1 -4 1 551.377 500.982 7.892 4.253 o
-1 -4 2 48.823 87.264 2.041 51.222 o
-1 -4 3 234.635 251.890 4.801 11.296 o
-1 -4 4 323.469 333.241 6.123 7.733 o
-1 -4 5 331.468 337.279 8.295 6.760 o
-1 -4 6 379.807 379.758 7.614 6.180 o
-1 -4 7 295.690 286.445 6.345 8.538 o
-1 -4 8 26.497 32.456 2.267 95.618 o
-1 -4 9 5.359 4.625 0.757 596.891 o
-1 -4 10 115.628 103.784 7.529 16.261 o
-1 -4 11 62.123 60.729 6.229 26.939 o
-1 -4 12 447.830 495.791 32.127 1.441 o
-1 -4 13 119.772 104.583 8.892 13.545 o
-1 -3 1 224.242 187.383 4.482 13.041 o
-1 -3 2 603.273 582.712 7.660 3.781 o
-1 -3 3 37.409 34.014 1.415 90.331 o
-1 -3 4 538.476 551.820 8.702 4.064 o
-1 -3 5 14.613 18.083 1.127 202.088 o
-1 -3 6 4.762 8.591 0.870 495.106 o
-1 -3 7 374.146 358.592 6.887 6.585 o
-1 -3 8 264.765 277.309 5.453 9.743 o
-1 -3 9 133.265 124.540 7.719 14.505 o
-1 -3 10 4.363 0.409 1.788 408.532 o
-1 -3 11 5.522 2.968 2.343 246.693 o
-1 -3 12 93.030 75.322 10.064 13.068 o
-1 -3 13 414.031 435.958 19.561 2.900 o
-1 -2 1 381.271 349.001 5.091 7.063 o
-1 -2 2 2949.270 2713.190 36.250 0.317 o
-1 -2 3 538.554 537.578 6.248 4.442 o
-1 -2 4 182.221 171.312 4.597 15.265 o
-1 -2 5 953.669 1035.910 15.368 1.711 o
-1 -2 6 436.190 529.237 8.686 4.770 o
-1 -2 7 75.346 63.676 4.694 31.728 o
-1 -2 8 204.302 202.791 9.503 9.136 o
-1 -2 9 144.760 171.476 9.336 11.036 o
-1 -2 10 101.638 115.149 7.995 15.765 o
-1 -2 11 26.881 23.370 4.455 58.308 o
-1 -2 12 0.702 7.012 2.562 244.288 o
-1 -2 13 9.810 5.022 3.228 132.970 o
-1 -1 1 93.209 108.698 1.868 32.998 o
-1 -1 5 81.195 72.724 4.182 31.960 o
-1 -1 6 3.676 1.691 2.614 233.313 o
-1 -1 7 4.948 13.227 4.130 92.966 o
-1 -1 8 1517.360 1519.630 36.769 0.635 o
-1 -1 9 36.837 36.592 4.478 49.075 o
-1 -1 10 18.842 23.987 4.301 66.536 o
-1 -1 11 58.757 58.258 8.705 18.180 o
-1 -1 12 6.362 4.971 3.241 144.226 o
-1 -1 13 45.342 44.495 11.032 13.442 o
-1 0 1 231.686 202.380 8.492 9.372 o
-1 0 2 57.060 68.103 1.279 55.639 o
-1 0 3 2354.810 1996.070 82.487 0.196 o
-1 0 4 2651.850 2354.350 36.924 0.366 o
-1 0 5 3303.250 3324.790 66.085 0.186 o
-1 0 6 481.438 510.451 15.223 3.331 o
-1 0 7 22.885 19.537 3.126 91.475 o
-1 0 8 475.545 458.123 16.041 3.298 o
-1 0 9 583.531 578.431 33.330 1.263 o
-1 0 10 211.217 230.758 16.181 4.961 o
-1 0 11 113.045 105.338 10.718 11.028 o
-1 0 12 1.680 -0.999 2.538 279.858 o
-1 1 1 16.427 19.219 0.611 202.772 o
-1 1 2 613.039 609.863 7.533 3.681 o
-1 1 3 189.368 169.436 2.923 16.518 o
-1 1 4 234.629 185.948 3.860 13.096 o
-1 1 5 2105.270 2082.350 29.265 0.522 o
-1 1 6 920.526 950.625 13.149 1.928 o
-1 1 7 92.710 98.459 2.943 31.475 o
-1 1 8 81.197 84.156 2.814 36.254 o
-1 1 9 831.915 815.795 13.900 2.160 o
-1 1 10 1050.790 1031.560 20.818 1.373 o
-1 1 11 392.757 422.511 18.552 3.154 o
-1 1 12 83.520 83.880 8.444 16.605 o
-1 2 1 2244.590 2182.570 60.177 0.288 o
-1 2 2 8.975 16.441 0.846 287.259 o
-1 2 3 186.468 183.125 3.440 15.843 o
-1 2 4 1383.590 1417.000 20.912 0.998 o
-1 2 5 10.546 5.662 0.785 365.828 o
-1 2 6 321.588 321.192 6.923 7.548 o
-1 2 7 68.223 62.895 2.614 44.837 o
-1 2 8 1.600 3.176 0.984 938.177 o
-1 2 9 437.022 435.936 9.541 4.912 o
-1 2 10 456.622 428.870 11.574 4.343 o
-1 2 11 240.185 245.305 13.964 5.668 o
-1 3 1 218.925 211.928 4.727 12.580 o
-1 3 2 255.503 255.569 4.419 10.825 o
-1 3 3 746.189 805.239 12.369 2.463 o
-1 3 4 3.155 4.861 1.041 642.247 o
-1 3 5 274.770 298.053 11.857 6.091 o
-1 3 6 240.462 245.291 7.634 9.342 o
-1 3 7 32.076 36.089 2.888 74.197 o
-1 3 8 3.944 3.719 1.364 502.100 o
-1 3 9 1.857 -0.220 1.304 834.849 o
-1 3 10 101.891 99.474 5.509 22.325 o
-1 3 11 60.833 55.894 8.182 19.726 o
-1 4 1 910.636 834.510 22.691 1.508 o
-1 4 2 347.577 342.026 6.604 7.133 o
-1 4 3 112.680 111.090 7.100 17.105 o
-1 4 4 9.652 8.122 1.513 274.362 o
-1 4 5 117.218 124.956 5.280 20.226 o
-1 4 6 260.479 254.740 8.393 8.376 o
-1 4 7 175.193 185.421 7.235 12.289 o
-1 4 8 63.341 62.083 6.883 23.893 o
-1 4 9 46.501 44.355 4.379 44.400 o
-1 4 10 7.689 8.435 3.159 138.468 o
-1 5 1 2840.740 2812.340 32.342 0.338 o
-1 5 2 1006.040 973.651 18.926 1.524 o
-1 5 3 471.955 483.824 11.705 4.082 o
-1 5 4 6.774 10.443 1.691 276.079 o
-1 5 5 0.580 -1.263 0.795 2352.000 o
-1 5 6 77.457 87.973 5.204 27.064 o
-1 5 7 640.854 609.686 15.882 2.627 o
-1 5 8 125.099 122.723 6.361 17.458 o
-1 5 9 1.212 3.163 3.173 178.004 o
-1 6 1 966.807 941.238 16.028 1.725 o
-1 6 2 1762.420 1752.150 31.490 0.617 o
-1 6 3 184.348 189.203 6.869 12.301 o
-1 6 4 834.144 833.551 18.584 1.836 o
-1 6 5 128.090 132.041 6.151 17.365 o
-1 6 6 102.240 100.238 5.844 21.332 o
-1 6 7 317.990 305.303 10.893 6.049 o
-1 6 8 242.857 246.794 13.598 5.809 o
-1 7 1 295.838 302.974 7.495 7.848 o
-1 7 2 54.819 58.541 3.174 47.879 o
-1 7 3 695.357 695.256 16.500 2.346 o
-1 7 4 388.818 370.169 11.337 5.029 o
-1 7 5 403.830 382.806 13.828 4.222 o
-1 7 6 5.542 5.784 2.765 184.977 o
-1 7 7 57.026 64.052 6.077 28.172 o
-1 8 1 163.948 165.806 6.449 14.060 o
-1 8 2 260.093 260.052 7.450 8.900 o
-1 8 3 517.383 525.839 12.052 3.700 o
-1 8 4 86.340 82.819 4.416 29.092 o
-1 8 5 35.485 33.201 3.973 56.712 o
-1 8 6 1.777 0.792 2.219 345.710 o
-1 9 1 23.689 26.444 3.159 84.538 o
-1 9 2 51.810 57.355 6.531 27.221 o
-1 9 3 67.155 65.609 3.888 37.637 o
-1 9 4 61.870 79.798 6.326 25.266 o
-1 10 1 47.620 39.907 3.969 48.620 o
-1 10 2 21.050 19.120 4.027 72.330 o
0 -11 3 24.139 15.115 2.969 97.392 o
0 -11 4 471.602 512.801 14.591 3.473 o
0 -11 5 163.749 173.145 9.397 10.456 o
0 -10 1 11.959 7.565 3.555 107.838 o
0 -10 2 20.011 17.437 3.638 83.580 o
0 -10 3 15.827 18.400 2.899 113.293 o
0 -10 4 40.123 49.720 4.099 48.529 o
0 -10 5 433.750 436.157 10.403 4.731 o
0 -10 6 252.414 270.131 9.103 7.962 o
0 -10 7 9.516 8.700 2.510 175.111 o
0 -10 8 77.953 96.825 5.631 24.816 o
0 -10 9 83.185 79.575 9.871 13.700 o
0 -9 1 191.753 189.300 6.399 12.523 o
0 -9 2 43.758 45.670 2.842 60.674 o
0 -9 3 112.581 103.314 4.085 24.698 o
0 -9 4 31.214 27.160 3.320 72.270 o
0 -9 5 244.352 252.575 7.261 9.426 o
0 -9 6 210.898 226.958 8.013 9.936 o
0 -9 7 169.812 173.768 12.590 7.533 o
0 -9 8 0.373 1.004 1.587 695.845 o
0 -9 9 6.279 6.395 2.438 211.415 o
0 -9 10 78.897 72.543 8.251 17.697 o
0 -8 1 688.820 674.905 12.349 2.784 o
0 -8 2 18.744 26.480 2.732 103.797 o
0 -8 3 207.886 191.662 5.924 12.356 o
0 -8 4 219.371 204.657 9.818 8.595 o
0 -8 5 30.610 29.072 2.890 79.706 o
0 -8 6 225.115 234.406 7.864 9.637 o
0 -8 7 333.753 341.940 10.182 5.991 o
0 -8 8 181.559 190.861 10.554 8.814 o
0 -8 9 4.530 2.329 1.630 420.896 o
0 -8 10 31.650 32.836 3.944 59.684 o
0 -8 11 1.322 3.298 1.927 413.051 o
0 -7 1 1810.340 1797.110 36.041 0.548 o
0 -7 2 1145.000 1093.570 17.591 1.378 o
0 -7 3 6.554 6.945 1.000 431.172 o
0 -7 4 412.247 415.078 8.909 5.342 o
0 -7 5 343.301 352.442 9.386 6.133 o
0 -7 6 4.773 2.907 1.141 560.365 o
0 -7 7 1442.720 1496.630 28.242 0.805 o
0 -7 8 418.811 402.546 11.291 4.723 o
0 -7 9 8.946 15.063 2.294 176.697 o
0 -7 10 47.961 41.391 5.985 32.286 o
0 -7 11 0.587 5.743 1.996 377.802 o
0 -7 12 27.666 30.585 7.476 27.558 o
0 -6 1 2549.570 2524.860 38.901 0.358 o
0 -6 2 2342.490 2243.550 96.897 0.154 o
0 -6 3 425.116 402.995 6.567 5.855 o
0 -6 4 0.496 0.470 0.626 3025.090 o
0 -6 5 20.209 23.810 2.088 123.717 o
0 -6 6 616.619 648.183 18.580 2.346 o
0 -6 7 830.131 826.594 17.512 1.916 o
0 -6 8 235.802 286.812 8.818 8.269 o
0 -6 9 186.421 193.321 7.146 11.874 o
0 -6 10 28.482 28.840 3.075 78.839 o
0 -6 11 1.744 -0.595 1.890 469.747 o
0 -6 12 21.697 25.000 4.927 53.796 o
0 -5 1 472.157 464.085 8.393 4.804 o
0 -5 2 933.353 867.946 12.239 2.022 o
0 -5 3 1333.620 1325.540 17.797 1.126 o
0 -5 4 300.447 314.709 6.470 8.136 o
0 -5 5 412.967 447.543 10.267 4.868 o
0 -5 6 16.986 16.458 1.765 161.974 o
0 -5 7 292.044 313.188 8.684 7.271 o
0 -5 8 1717.440 1675.990 30.585 0.650 o
0 -5 9 285.338 322.207 9.377 6.977 o
0 -5 10 384.428 369.372 17.795 3.412 o
0 -5 11 41.618 50.487 3.314 55.528 o
0 -5 12 0.599 0.241 2.236 374.505 o
0 -5 13 44.070 43.435 8.444 20.643 o
0 -4 1 406.892 465.957 10.972 4.673 o
0 -4 2 1612.790 1648.270 21.027 0.826 o
0 -4 3 1628.330 1567.490 29.790 0.703 o
0 -4 4 244.395 208.692 5.514 11.191 o
0 -4 5 109.802 116.286 3.465 25.715 o
0 -4 6 9.949 14.152 1.369 247.605 o
0 -4 7 0.522 1.649 0.657 2168.290 o
0 -4 8 572.769 573.958 10.725 3.556 o
0 -4 9 1005.620 953.015 16.126 1.663 o
0 -4 10 126.447 148.090 4.192 20.544 o
0 -4 11 78.326 82.748 2.967 36.617 o
0 -4 12 125.761 120.151 9.140 12.654 o
0 -4 13 16.053 16.148 4.418 69.904 o
0 -3 1 3.547 9.312 0.541 613.834 o
0 -3 2 231.452 243.557 3.565 12.275 o
0 -3 3 8.574 3.903 0.453 498.395 o
0 -3 4 2595.500 2444.580 27.543 0.414 o
0 -3 5 1161.290 1145.690 17.267 1.350 o
0 -3 6 10.998 20.330 1.494 200.837 o
0 -3 7 225.721 231.632 5.311 11.562 o
0 -3 8 419.793 373.841 7.514 5.823 o
0 -3 9 299.986 308.392 5.540 8.600 o
0 -3 10 4.052 3.583 1.214 554.781 o
0 -3 11 239.292 242.967 12.783 6.255 o
0 -3 12 51.382 59.556 6.814 25.784 o
0 -3 13 6.153 0.008 3.213 157.367 o
0 -2 1 379.997 388.766 5.001 6.830 o
0 -2 2 382.117 349.154 4.094 7.289 o
0 -2 3 2.343 3.593 0.389 1215.570 o
0 -2 4 168.501 136.818 2.668 19.463 o
0 -2 5 1106.260 1009.460 15.206 1.546 o
0 -2 6 1184.590 1165.870 17.586 1.310 o
0 -2 7 240.977 244.961 4.518 11.377 o
0 -2 8 270.873 275.614 5.706 9.486 o
0 -2 9 307.242 294.235 9.908 6.640 o
0 -2 10 129.498 131.073 8.761 12.893 o
0 -2 11 52.424 55.355 6.051 29.770 o
0 -2 12 1.433 1.150 2.662 252.485 o
0 -2 13 30.614 36.473 7.555 26.319 o
0 -1 2 179.994 188.035 2.715 16.687 o
0 -1 3 116.309 122.093 2.183 26.880 o
0 -1 4 524.941 615.924 8.019 4.058 o
0 -1 5 565.259 535.058 7.757 4.093 o
0 -1 6 1834.480 1911.840 27.319 0.625 o
0 -1 7 704.016 709.870 11.839 2.739 o
0 -1 8 390.698 367.974 7.214 6.241 o
0 -1 9 465.733 471.885 8.793 4.743 o
0 -1 10 125.744 119.805 3.152 24.040 o
0 -1 11 106.103 113.120 8.763 14.146 o
0 -1 12 537.422 550.680 22.233 2.183 o
0 0 2 156.539 177.714 2.953 18.486 o
0 0 3 196.160 193.368 7.131 11.576 o
0 0 4 63.135 63.932 2.022 49.985 o
0 0 5 489.209 459.313 8.082 4.759 o
0 0 6 2095.550 2000.470 28.823 0.537 o
0 0 7 1069.740 1076.000 17.157 1.477 o
0 0 8 284.254 250.987 10.701 6.788 o
0 0 9 88.514 81.363 2.974 34.183 o
0 0 10 164.214 153.512 5.350 15.819 o
0 0 11 182.804 192.258 11.897 7.739 o
0 0 12 163.074 165.392 11.582 8.482 o
0 1 2 1508.800 1439.000 16.380 1.005 o
0 1 3 617.513 606.716 8.022 3.616 o
0 1 4 69.646 62.711 1.887 47.836 o
0 1 5 575.355 549.960 10.059 3.690 o
0 1 6 2203.580 2091.640 93.872 0.166 o
0 1 7 380.870 394.149 8.258 5.904 o
0 1 8 273.235 276.807 8.222 8.066 o
0 1 9 109.535 107.724 4.835 22.879 o
0 1 10 0.467 -1.723 1.787 585.850 o
0 1 11 124.247 112.937 9.417 12.416 o
0 1 12 134.068 156.413 11.455 9.176 o
0 2 0 142.321 135.269 2.085 22.719 o
0 2 1 2588.530 2365.430 36.824 0.373 o
0 2 2 325.316 273.643 6.660 7.980 o
0 2 3 1289.740 1324.310 19.885 1.107 o
0 2 4 83.734 88.024 2.909 34.765 o
0 2 5 40.293 53.792 2.923 59.410 o
0 2 6 550.803 564.053 13.027 3.334 o
0 2 7 1837.400 1828.410 33.387 0.568 o
0 2 8 428.365 456.300 12.127 4.301 o
0 2 9 123.404 126.098 5.790 18.604 o
0 2 10 57.591 53.210 4.115 41.000 o
0 2 11 1.531 2.472 3.372 159.363 o
0 3 0 573.278 594.410 7.097 3.968 o
0 3 1 651.381 657.180 8.691 3.298 o
0 3 2 1689.160 1674.480 38.967 0.551 o
0 3 3 1.964 7.918 1.028 623.335 o
0 3 4 1.472 2.271 0.787 1275.660 o
0 3 5 2.686 5.161 1.185 601.331 o
0 3 6 2.328 3.152 1.031 804.294 o
0 3 7 254.239 262.607 8.650 8.262 o
0 3 8 953.797 912.029 20.521 1.536 o
0 3 9 56.937 68.783 4.537 36.175 o
0 3 10 16.991 13.577 4.265 73.707 o
0 4 0 69.403 100.108 2.357 39.045 o
0 4 1 117.442 120.276 3.499 24.361 o
0 4 2 635.672 600.045 11.583 3.153 o
0 4 3 271.867 284.194 7.897 8.203 o
0 4 4 700.390 693.995 15.233 2.454 o
0 4 5 10.314 10.936 2.269 182.615 o
0 4 6 342.301 309.547 14.077 4.699 o
0 4 7 80.213 76.378 4.688 29.638 o
0 4 8 172.756 162.107 8.215 11.648 o
0 4 9 97.059 96.576 5.877 21.919 o
0 4 10 36.336 42.184 4.349 49.424 o
0 5 0 190.424 201.723 4.841 13.870 o
0 5 1 97.756 104.224 3.057 29.624 o
0 5 2 408.126 416.424 8.800 5.400 o
0 5 3 353.928 372.779 9.975 5.727 o
0 5 4 232.330 244.815 8.053 9.231 o
0 5 5 624.772 624.539 15.329 2.711 o
0 5 6 132.102 112.703 5.778 18.481 o
0 5 7 10.382 10.003 2.106 198.401 o
0 5 8 1.330 6.538 2.181 308.244 o
0 5 9 54.666 48.494 4.825 37.618 o
0 6 0 140.271 136.665 6.392 16.060 o
0 6 1 37.253 43.248 2.011 77.179 o
0 6 2 416.230 406.056 10.587 4.910 o
0 6 3 404.454 424.206 11.387 4.722 o
0 6 4 1370.300 1346.850 26.834 0.894 o
0 6 5 298.853 297.046 9.872 6.738 o
0 6 6 184.297 190.290 8.090 11.027 o
0 6 7 2.804 5.262 2.568 231.020 o
0 6 8 43.691 33.249 4.904 42.747 o
0 7 0 1036.970 996.424 16.933 1.564 o
0 7 1 219.750 211.145 6.060 11.508 o
0 7 2 32.402 31.927 2.581 81.350 o
0 7 3 77.719 80.874 4.654 29.825 o
0 7 4 208.997 213.057 8.206 9.989 o
0 7 5 700.105 692.608 17.681 2.232 o
0 7 6 92.896 90.599 8.637 15.504 o
0 7 7 5.168 0.395 2.544 235.016 o
0 8 0 225.872 211.835 5.732 11.562 o
0 8 1 273.501 256.673 8.011 8.351 o
0 8 2 69.162 72.309 4.247 34.346 o
0 8 3 1.595 6.788 2.127 312.730 o
0 8 4 66.855 74.305 7.124 21.991 o
0 8 5 141.090 139.753 6.924 15.064 o
0 9 0 446.090 432.726 10.879 4.551 o
0 9 1 35.482 32.304 3.066 69.918 o
0 9 2 36.960 39.773 5.202 41.214 o
0 9 3 10.074 5.440 3.104 138.705 o
0 10 0 56.086 40.893 5.574 33.242 o
0 10 1 415.305 400.364 16.544 3.513 o
1 -11 1 237.956 228.694 8.914 8.685 o
1 -11 2 19.651 14.401 2.773 113.651 o
1 -11 3 0.573 -1.174 2.034 453.505 o
1 -11 4 28.131 30.357 9.385 18.976 o
1 -11 5 95.743 96.702 5.335 23.656 o
1 -11 6 472.062 493.591 17.399 3.024 o
1 -11 7 331.721 344.543 15.639 4.197 o
1 -10 0 92.273 97.537 5.232 24.334 o
1 -10 1 408.477 413.810 11.280 4.757 o
1 -10 2 127.515 132.833 6.168 17.344 o
1 -10 3 1.844 -0.032 1.668 573.146 o
1 -10 4 75.619 73.951 3.584 35.799 o
1 -10 5 4.083 2.851 1.661 417.564 o
1 -10 6 52.960 62.293 5.885 29.975 o
1 -10 7 429.153 447.542 12.666 4.198 o
1 -10 8 543.498 588.504 15.622 2.947 o
1 -10 9 2.349 -3.601 1.998 408.103 o
1 -9 0 24.276 27.787 2.701 93.461 o
1 -9 1 276.007 271.249 8.374 7.984 o
1 -9 2 366.487 375.443 8.751 5.993 o
1 -9 3 67.537 68.716 3.688 38.196 o
1 -9 4 78.844 84.242 5.154 27.331 o
1 -9 5 27.038 31.851 3.325 74.034 o
1 -9 6 46.055 40.048 3.179 57.431 o
1 -9 7 102.344 126.318 5.799 20.260 o
1 -9 8 343.553 359.405 17.453 3.649 o
1 -9 9 196.044 209.697 8.453 10.127 o
1 -9 10 180.582 187.085 8.279 10.986 o
1 -9 11 14.392 14.284 3.581 95.886 o
1 -8 0 165.089 161.892 6.110 14.540 o
1 -8 1 19.456 22.696 3.267 90.533 o
1 -8 2 692.402 702.564 12.999 2.674 o
1 -8 3 1203.410 1242.060 20.171 1.188 o
1 -8 4 4.267 4.737 1.570 408.367 o
1 -8 5 5.733 5.885 1.435 382.730 o
1 -8 6 190.372 191.786 8.100 10.829 o
1 -8 7 322.046 340.125 10.051 6.168 o
1 -8 8 217.902 226.882 8.192 9.636 o
1 -8 9 167.670 191.714 7.861 11.741 o
1 -8 10 21.988 16.472 3.992 73.466 o
1 -8 11 44.563 56.877 4.129 44.893 o
1 -7 0 4.417 2.491 1.462 474.704 o
1 -7 1 7.732 6.716 1.383 335.993 o
1 -7 2 129.428 139.850 5.087 18.994 o
1 -7 3 349.509 367.369 7.878 6.510 o
1 -7 4 1116.380 1143.290 21.413 1.251 o
1 -7 5 1.535 3.567 0.962 936.612 o
1 -7 6 100.298 100.210 4.557 25.209 o
1 -7 7 318.308 309.272 9.226 6.716 o
1 -7 8 163.561 162.152 6.503 14.089 o
1 -7 9 248.662 250.992 8.734 8.408 o
1 -7 10 141.231 154.885 6.825 14.840 o
1 -7 11 159.296 151.900 6.947 13.906 o
1 -7 12 0.468 -1.483 3.477 160.643 o
1 -6 0 180.033 191.478 6.001 13.354 o
1 -6 1 1.470 2.502 0.895 1114.780 o
1 -6 2 51.019 46.340 1.966 63.265 o
1 -6 3 933.503 1007.670 16.092 1.722 o
1 -6 4 851.179 887.090 17.036 1.869 o
1 -6 5 1692.820 1681.930 29.369 0.673 o
1 -6 6 3.376 4.536 1.180 579.768 o
1 -6 7 394.385 413.580 10.748 4.997 o
1 -6 8 54.294 39.470 3.009 54.318 o
1 -6 9 489.709 486.522 12.870 3.766 o
1 -6 10 727.248 705.956 16.996 2.229 o
1 -6 11 95.766 104.931 5.365 23.098 o
1 -6 12 137.324 153.586 10.376 10.266 o
1 -5 0 112.687 82.621 2.387 30.523 o
1 -5 1 265.160 313.308 5.814 9.140 o
1 -5 2 607.391 652.895 8.323 3.526 o
1 -5 3 1303.440 1345.500 20.075 1.086 o
1 -5 4 2434.920 2434.220 39.599 0.372 o
1 -5 5 2660.910 2648.180 46.153 0.306 o
1 -5 6 338.022 334.738 8.727 6.531 o
1 -5 7 47.669 45.118 2.941 57.239 o
1 -5 8 53.260 50.017 3.288 49.692 o
1 -5 9 423.192 384.601 10.805 4.880 o
1 -5 10 294.856 307.163 9.655 6.825 o
1 -5 11 334.600 372.293 11.128 5.508 o
1 -5 12 54.620 45.806 6.927 25.729 o
1 -5 13 11.617 17.950 4.796 64.831 o
1 -4 0 635.714 580.098 7.992 3.597 o
1 -4 1 65.225 83.647 2.108 44.334 o
1 -4 2 0.427 1.139 0.397 3852.620 o
1 -4 3 1056.290 1097.560 20.187 1.363 o
1 -4 4 606.792 589.537 9.746 3.504 o
1 -4 5 2865.480 2837.850 45.757 0.283 o
1 -4 6 1607.420 1545.550 29.111 0.724 o
1 -4 7 428.702 427.497 10.563 4.756 o
1 -4 8 12.143 6.755 2.060 201.261 o
1 -4 9 2.318 2.068 1.108 814.957 o
1 -4 10 278.062 286.116 12.822 5.695 o
1 -4 11 577.646 580.210 11.676 3.393 o
1 -4 12 376.482 382.786 17.448 3.490 o
1 -4 13 1.038 -1.194 5.437 65.763 o
1 -3 0 1783.580 1667.450 17.556 0.794 o
1 -3 1 50.081 32.420 0.897 78.557 o
1 -3 2 876.406 902.025 10.834 2.170 o
1 -3 3 39.613 48.553 1.440 77.441 o
1 -3 4 1073.460 1120.790 22.663 1.248 o
1 -3 5 1.299 11.504 1.273 477.288 o
1 -3 6 1440.110 1417.740 21.532 0.954 o
1 -3 7 459.843 488.928 9.547 4.573 o
1 -3 8 743.037 755.945 13.569 2.433 o
1 -3 9 60.528 61.831 4.430 36.797 o
1 -3 10 54.007 46.723 2.898 53.407 o
1 -3 11 157.648 146.687 5.936 15.542 o
1 -3 12 218.221 203.282 13.593 6.219 o
1 -3 13 466.897 451.139 20.433 2.626 o
1 -2 0 1973.100 1905.590 25.662 0.606 o
1 -2 2 45.262 36.904 1.054 80.703 o
1 -2 3 6.268 4.023 0.517 613.299 o
1 -2 4 1109.760 1168.240 15.448 1.448 o
1 -2 5 196.077 228.867 8.904 9.525 o
1 -2 6 526.112 531.457 9.776 4.020 o
1 -2 7 1591.300 1603.900 21.561 0.837 o
1 -2 8 10.380 14.713 2.041 187.495 o
1 -2 9 14.727 13.488 2.443 144.207 o
1 -2 10 50.263 52.740 5.881 31.362 o
1 -2 11 30.777 28.738 4.728 50.868 o
1 -2 12 185.093 161.106 11.192 8.482 o
1 -1 0 618.391 573.029 18.823 2.391 o
1 -1 2 2801.430 2611.500 69.901 0.209 o
1 -1 3 708.501 728.648 10.910 2.781 o
1 -1 4 6.145 4.044 0.582 607.475 o
1 -1 5 444.958 465.185 15.550 3.484 o
1 -1 6 14.133 11.881 1.047 237.986 o
1 -1 7 1610.440 1582.540 24.286 0.791 o
1 -1 8 30.603 39.261 2.721 76.783 o
1 -1 9 12.752 13.001 1.853 190.911 o
1 -1 10 21.824 19.261 3.593 81.274 o
1 -1 11 1.002 1.004 1.821 511.363 o
1 -1 12 71.922 78.057 8.021 18.600 o
1 0 0 323.834 280.223 9.929 6.521 o
1 0 1 105.697 100.871 1.803 31.284 o
1 0 3 764.067 695.969 8.356 2.861 o
1 0 4 2257.200 2446.560 30.403 0.452 o
1 0 5 64.111 68.989 2.625 45.206 o
1 0 6 61.734 72.883 2.866 44.035 o
1 0 7 18.269 16.980 1.878 149.976 o
1 0 8 1253.680 1256.230 24.717 1.025 o
1 0 9 618.940 646.779 15.495 2.679 o
1 0 10 92.203 98.849 4.874 25.395 o
1 0 11 15.230 13.946 2.479 139.705 o
1 0 12 123.020 121.745 14.116 7.278 o
1 1 0 942.900 973.590 11.035 1.970 o
1 1 1 1295.650 1333.570 14.077 1.236 o
1 1 3 5515.090 5167.700 96.748 0.082 o
1 1 4 99.947 71.664 2.660 33.670 o
1 1 5 86.121 100.565 4.123 28.678 o
1 1 6 295.643 285.679 8.183 7.658 o
1 1 7 17.808 23.967 2.359 121.019 o
1 1 8 1459.850 1411.920 27.773 0.824 o
1 1 9 686.971 683.811 16.561 2.370 o
1 1 10 194.814 207.758 8.192 10.415 o
1 1 11 0.551 3.849 1.878 447.058 o
1 2 0 285.831 303.109 5.785 8.827 o
1 2 1 750.778 768.322 9.618 2.703 o
1 2 2 4457.290 4392.470 90.875 0.105 o
1 2 3 2264.040 2219.410 36.466 0.429 o
1 2 4 1319.300 1282.820 23.521 1.012 o
1 2 5 548.548 532.829 12.434 3.492 o
1 2 6 23.835 23.037 3.061 89.055 o
1 2 7 20.226 17.849 2.193 128.851 o
1 2 8 159.998 168.045 9.092 10.947 o
1 2 9 774.698 742.262 18.203 2.018 o
1 2 10 175.260 163.817 7.388 12.491 o
1 2 11 320.958 342.697 11.730 5.532 o
1 3 0 671.833 773.233 10.443 2.865 o
1 3 1 34.106 37.221 1.518 91.722 o
1 3 2 385.669 403.406 7.749 5.955 o
1 3 3 1393.140 1388.240 21.424 0.989 o
1 3 4 1405.860 1453.440 26.733 0.857 o
1 3 5 770.548 760.353 16.677 2.126 o
1 3 6 79.576 97.243 4.942 27.050 o
1 3 7 42.168 37.774 3.280 59.588 o
1 3 8 62.391 59.240 4.209 37.994 o
1 3 9 50.777 58.382 4.697 38.212 o
1 3 10 258.733 270.682 10.268 7.208 o
1 4 0 632.656 689.590 10.651 3.110 o
1 4 1 196.386 234.090 5.037 12.773 o
1 4 2 19.766 21.154 1.516 149.135 o
1 4 3 234.152 216.076 5.716 11.246 o
1 4 4 791.449 832.801 17.829 1.948 o
1 4 5 402.449 426.139 11.666 4.657 o
1 4 6 599.280 558.767 14.538 2.971 o
1 4 7 20.517 20.558 2.921 100.427 o
1 4 8 4.906 4.828 3.311 145.167 o
1 4 9 45.592 38.350 4.228 47.368 o
1 5 0 1587.080 1537.360 22.151 0.844 o
1 5 1 410.214 409.707 6.773 5.925 o
1 5 2 400.844 395.073 10.134 5.187 o
1 5 3 0.530 1.109 0.923 1592.480 o
1 5 4 226.115 212.527 7.531 10.127 o
1 5 5 696.457 682.806 18.706 2.156 o
1 5 6 437.391 425.275 16.454 3.408 o
1 5 7 54.569 57.607 4.702 37.234 o
1 5 8 45.938 48.031 4.728 41.016 o
1 6 0 1643.270 1654.460 23.840 0.771 o
1 6 1 109.018 112.398 3.290 26.514 o
1 6 2 198.234 188.122 5.678 13.020 o
1 6 3 166.869 158.708 6.254 14.343 o
1 6 4 1.885 1.201 1.602 571.285 o
1 6 5 2.173 4.832 2.852 201.677 o
1 6 6 186.287 189.853 9.653 9.507 o
1 6 7 160.918 160.898 7.928 12.393 o
1 7 0 520.332 514.814 16.908 2.934 o
1 7 1 1106.810 1103.280 17.364 1.418 o
1 7 2 564.728 555.497 17.961 2.626 o
1 7 3 27.109 25.066 2.281 100.875 o
1 7 4 3.630 2.128 1.596 467.216 o
1 7 5 8.865 18.641 3.066 123.857 o
1 7 6 387.119 394.787 16.907 3.548 o
1 8 0 34.114 46.314 4.812 44.727 o
1 8 1 803.690 769.003 23.703 1.589 o
1 8 2 481.434 505.631 18.511 2.810 o
1 8 3 34.793 28.220 4.454 52.391 o
1 8 4 0.529 1.179 2.737 249.641 o
1 9 0 0.776 -0.011 1.647 659.312 o
1 9 1 328.157 343.359 15.098 4.372 o
1 9 2 315.005 318.477 14.916 4.566 o
1 10 0 4.261 5.490 4.078 102.965 o
2 -11 0 3.272 3.272 4.915 76.022 o
2 -11 1 337.661 318.725 8.341 6.780 o
2 -11 2 335.438 338.991 8.484 6.629 o
2 -11 3 134.497 144.571 6.460 16.048 o
2 -11 4 82.042 79.176 6.822 21.335 o
2 -11 5 16.296 14.378 2.430 137.507 o
2 -11 6 24.502 21.731 4.330 62.518 o
2 -11 7 136.456 146.114 6.828 15.291 o
2 -10 0 0.435 4.068 1.507 625.870 o
2 -10 1 21.709 18.358 2.101 126.862 o
2 -10 2 54.448 58.164 4.226 40.437 o
2 -10 3 979.318 986.155 20.267 1.485 o
2 -10 4 389.635 399.758 10.794 5.070 o
2 -10 5 19.973 14.852 2.895 108.088 o
2 -10 6 0.351 -3.050 1.370 983.429 o
2 -10 7 6.949 1.132 4.136 99.533 o
2 -10 8 374.498 386.327 11.932 4.899 o
2 -10 9 387.444 394.683 12.491 4.631 o
2 -9 0 75.579 76.784 4.315 32.112 o
2 -9 1 1.158 0.207 0.975 1409.070 o
2 -9 2 328.938 329.935 7.734 7.058 o
2 -9 3 0.761 0.771 1.316 921.367 o
2 -9 4 670.237 665.921 37.573 1.010 o
2 -9 5 239.757 250.828 12.416 6.399 o
2 -9 6 5.529 6.398 2.099 262.265 o
2 -9 7 42.774 44.840 5.882 33.683 o
2 -9 8 58.784 61.395 4.338 37.904 o
2 -9 9 522.249 521.027 14.560 3.279 o
2 -9 10 205.550 204.693 8.691 9.760 o
2 -9 11 194.243 190.596 8.649 10.226 o
2 -8 0 218.765 227.334 7.373 10.249 o
2 -8 1 12.337 10.357 1.589 224.261 o
2 -8 2 3.133 5.078 0.902 696.685 o
2 -8 3 260.054 276.854 7.707 8.587 o
2 -8 4 23.654 20.325 2.206 115.539 o
2 -8 5 159.929 165.036 5.954 14.922 o
2 -8 6 926.217 957.146 19.789 1.578 o
2 -8 7 28.149 23.894 2.833 87.477 o
2 -8 8 112.115 103.947 5.383 21.415 o
2 -8 9 10.445 12.040 2.616 154.775 o
2 -8 10 308.408 303.845 10.533 6.303 o
2 -8 11 350.230 328.833 11.299 5.500 o
2 -7 0 994.361 965.831 16.148 1.668 o
2 -7 1 61.489 61.038 2.615 48.096 o
2 -7 2 196.156 206.566 7.440 11.084 o
2 -7 3 4.402 4.918 0.891 609.395 o
2 -7 4 44.828 62.021 7.138 24.970 o
2 -7 5 1193.400 1240.050 23.277 1.105 o
2 -7 6 551.505 555.131 13.020 3.349 o
2 -7 7 16.919 12.963 2.379 140.218 o
2 -7 8 21.032 20.340 2.576 110.275 o
2 -7 9 69.440 63.136 4.332 34.929 o
2 -7 10 61.600 45.260 4.051 41.441 o
2 -7 11 291.447 317.092 11.010 6.205 o
2 -7 12 449.459 449.968 15.989 3.412 o
2 -6 0 1725.140 1733.320 41.130 0.514 o
2 -6 1 80.293 65.600 2.482 40.589 o
2 -6 2 12.230 12.764 1.092 251.050 o
2 -6 3 1.712 2.628 0.902 1043.610 o
2 -6 4 138.338 134.593 3.975 20.453 o
2 -6 5 169.221 173.838 5.714 14.560 o
2 -6 6 1370.250 1337.270 24.889 0.939 o
2 -6 7 603.881 600.607 14.040 2.957 o
2 -6 8 31.488 28.067 3.114 75.195 o
2 -6 9 1.735 2.722 1.383 653.875 o
2 -6 10 55.878 50.329 3.979 43.078 o
2 -6 11 1.635 2.287 1.593 558.703 o
2 -6 12 356.988 386.306 12.469 4.859 o
2 -5 0 516.471 498.674 7.990 4.460 o
2 -5 1 2660.770 2734.350 33.156 0.360 o
2 -5 2 279.517 264.843 5.299 9.618 o
2 -5 3 659.460 715.206 11.709 2.874 o
2 -5 4 37.367 44.837 1.781 78.823 o
2 -5 5 308.104 334.017 8.487 7.001 o
2 -5 6 938.910 923.998 18.380 1.654 o
2 -5 7 1161.700 1205.710 23.309 1.135 o
2 -5 8 413.743 404.436 11.045 4.814 o
2 -5 9 0.449 -0.535 1.182 1265.810 o
2 -5 10 77.991 72.897 7.336 20.360 o
2 -5 11 18.051 12.089 3.596 91.308 o
2 -5 12 70.729 74.459 4.158 34.173 o
2 -4 0 1901.580 1936.440 22.276 0.654 o
2 -4 1 4233.540 4054.400 54.439 0.160 o
2 -4 2 1002.140 930.987 13.885 1.784 o
2 -4 3 577.665 568.812 8.360 3.860 o
2 -4 4 10.682 15.777 2.614 146.173 o
2 -4 5 74.110 81.514 3.549 35.384 o
2 -4 6 186.818 179.535 5.963 13.362 o
2 -4 7 3685.730 3576.540 58.678 0.182 o
2 -4 8 434.956 465.777 12.104 4.243 o
2 -4 9 2.201 1.883 1.319 690.037 o
2 -4 10 64.846 65.427 4.512 34.778 o
2 -4 11 11.833 9.715 1.745 218.686 o
2 -4 12 3.646 3.349 1.627 434.030 o
2 -3 0 138.399 135.716 3.978 20.392 o
2 -3 1 2622.200 2511.440 67.030 0.229 o
2 -3 2 2200.080 2015.450 25.213 0.541 o
2 -3 3 1420.890 1327.060 20.554 1.010 o
2 -3 4 252.366 219.145 5.501 10.808 o
2 -3 5 118.028 107.609 4.158 23.589 o
2 -3 6 70.047 76.972 3.701 36.294 o
2 -3 7 487.027 499.569 12.216 3.870 o
2 -3 8 3143.990 3116.990 52.959 0.232 o
2 -3 9 46.031 54.154 4.437 42.309 o
2 -3 10 34.206 44.532 2.880 68.218 o
2 -3 11 28.031 32.114 3.307 73.204 o
2 -3 12 155.014 158.046 6.838 14.109 o
2 -2 1 63.824 66.913 2.665 45.522 o
2 -2 2 350.970 314.867 7.049 7.118 o
2 -2 3 4.188 3.369 0.491 846.521 o
2 -2 4 624.987 607.309 9.463 3.424 o
2 -2 5 474.233 522.517 11.586 3.994 o
2 -2 6 151.727 147.456 5.491 16.520 o
2 -2 7 473.493 459.644 9.775 4.532 o
2 -2 8 9.217 7.037 1.304 315.690 o
2 -2 9 923.972 923.370 17.013 1.744 o
2 -2 10 361.095 373.155 11.149 5.283 o
2 -2 11 252.643 261.549 9.105 8.026 o
2 -2 12 24.334 32.439 5.675 42.017 o
2 -1 1 1113.300 1069.540 13.479 1.564 o
2 -1 2 1.331 3.213 0.440 1594.800 o
2 -1 3 736.102 729.266 9.699 2.797 o
2 -1 4 256.531 220.573 4.700 11.163 o
2 -1 5 302.851 294.027 6.753 8.149 o
2 -1 6 35.255 41.700 2.325 76.222 o
2 -1 7 737.528 728.333 13.733 2.464 o
2 -1 8 177.756 175.531 6.690 12.992 o
2 -1 9 1054.580 1037.900 22.336 1.307 o
2 -1 10 341.957 352.965 10.976 5.580 o
2 -1 11 235.868 235.304 8.757 8.769 o
2 -1 12 7.269 8.193 3.869 103.533 o
2 0 0 231.880 256.638 3.450 12.082 o
2 0 1 138.150 136.373 2.496 22.634 o
2 0 2 7.817 9.994 0.700 389.554 o
2 0 3 1112.600 1158.750 14.442 1.483 o
2 0 4 1556.510 1659.530 24.809 0.789 o
2 0 5 667.710 653.986 14.147 2.689 o
2 0 6 112.603 105.701 4.669 23.073 o
2 0 7 133.605 147.147 5.950 16.897 o
2 0 8 17.042 13.798 2.003 156.399 o
2 0 9 49.834 42.836 3.816 48.371 o
2 0 10 442.395 413.817 34.602 1.309 o
2 0 11 150.043 153.167 7.141 14.009 o
2 1 0 930.238 870.867 9.192 2.171 o
2 1 1 251.996 280.261 4.160 10.699 o
2 1 2 858.930 953.977 14.712 1.942 o
2 1 3 261.978 265.874 5.931 9.685 o
2 1 4 760.782 769.099 17.135 2.100 o
2 1 5 2551.310 2596.280 44.027 0.328 o
2 1 6 751.747 754.643 16.767 2.158 o
2 1 7 85.231 78.186 6.746 21.325 o
2 1 8 5.100 6.662 1.942 290.900 o
2 1 9 1.390 -0.663 1.507 712.145 o
2 1 10 16.251 17.643 2.816 116.361 o
2 1 11 197.626 186.814 8.402 10.417 o
2 2 0 2798.640 2757.300 37.002 0.327 o
2 2 1 195.086 176.045 3.869 15.176 o
2 2 2 79.877 106.978 3.171 32.551 o
2 2 3 0.964 0.996 0.717 1908.310 o
2 2 4 717.713 726.553 15.569 2.351 o
2 2 5 1663.670 1697.010 31.230 0.654 o
2 2 6 1103.340 1138.280 23.378 1.195 o
2 2 7 526.776 500.239 13.533 3.467 o
2 2 8 16.748 9.924 2.149 158.959 o
2 2 9 1.547 0.348 2.913 216.502 o
2 2 10 62.874 65.203 5.101 32.031 o
2 3 0 1232.010 1192.360 26.829 0.997 o
2 3 1 946.594 889.016 13.665 1.910 o
2 3 2 7.509 10.450 3.869 100.931 o
2 3 3 147.546 139.594 4.324 18.895 o
2 3 4 16.920 14.579 2.648 125.525 o
2 3 5 63.952 83.733 5.540 28.055 o
2 3 6 1786.330 1741.250 33.238 0.591 o
2 3 7 767.165 726.713 17.852 2.070 o
2 3 8 19.905 26.849 7.240 30.559 o
2 3 9 0.382 -0.676 2.304 361.729 o
2 4 0 1531.510 1612.310 35.708 0.636 o
2 4 1 1446.740 1445.010 20.958 0.955 o
2 4 2 13.464 14.128 1.347 215.073 o
2 4 3 3.009 1.837 0.647 1087.150 o
2 4 4 382.493 372.738 10.491 5.318 o
2 4 5 30.483 30.347 2.972 77.598 o
2 4 6 242.662 259.890 9.512 7.952 o
2 4 7 293.635 317.933 11.011 6.178 o
2 4 8 176.515 178.962 8.226 11.271 o
2 4 9 3.681 12.235 10.561 17.114 o
2 5 0 74.569 78.825 5.058 28.833 o
2 5 1 10.860 9.657 2.693 153.244 o
2 5 2 752.243 743.681 12.591 2.505 o
2 5 3 318.145 310.683 8.407 7.057 o
2 5 4 0.596 1.115 1.262 983.408 o
2 5 5 23.567 18.292 3.711 77.078 o
2 5 6 10.768 5.372 2.985 143.631 o
2 5 7 324.317 332.681 11.528 5.620 o
2 6 0 450.116 425.552 14.821 3.686 o
2 6 1 151.650 163.426 8.560 11.877 o
2 6 2 551.368 564.613 9.639 3.828 o
2 6 3 199.406 193.121 5.457 13.087 o
2 6 4 52.541 53.022 3.909 44.346 o
2 6 5 54.464 66.855 4.613 36.599 o
2 6 6 26.824 25.971 5.047 49.404 o
2 7 0 66.771 50.697 8.182 19.474 o
2 7 1 66.991 84.583 6.562 23.463 o
2 7 2 205.058 220.530 11.292 7.655 o
2 7 3 450.099 463.612 17.835 3.057 o
2 7 4 29.904 23.564 5.986 38.673 o
2 7 5 16.243 14.115 4.243 74.709 o
2 8 0 12.779 13.490 3.214 113.750 o
2 8 1 122.479 96.539 17.384 5.350 o
2 8 2 156.369 175.928 10.449 9.533 o
2 8 3 118.491 122.871 8.827 13.350 o
2 9 0 152.991 156.885 10.016 10.256 o
2 9 1 0.565 -1.266 2.150 408.034 o
3 -11 0 163.631 179.648 9.503 10.270 o
3 -11 1 0.799 2.792 2.199 350.567 o
3 -11 2 4.330 2.181 3.712 125.361 o
3 -11 3 112.674 109.909 7.461 16.393 o
3 -11 4 79.343 82.235 6.568 22.267 o
3 -11 5 241.748 228.279 13.018 6.182 o
3 -11 6 67.247 56.493 5.851 28.251 o
3 -11 7 0.390 -0.992 2.761 253.656 o
3 -10 0 304.355 315.949 7.596 7.567 o
3 -10 1 74.075 75.376 5.655 26.675 o
3 -10 2 3.261 3.876 1.517 474.709 o
3 -10 3 479.497 485.610 15.019 3.418 o
3 -10 4 152.564 155.991 5.665 15.962 o
3 -10 5 55.027 56.674 3.931 42.598 o
3 -10 6 83.494 90.688 5.932 23.492 o
3 -10 7 162.487 150.412 6.625 14.237 o
3 -10 8 0.386 0.469 2.218 383.097 o
3 -10 9 37.118 44.931 6.228 32.530 o
3 -9 0 431.880 452.570 11.452 4.446 o
3 -9 1 682.377 673.669 10.509 2.983 o
3 -9 2 224.985 214.121 8.679 9.249 o
3 -9 3 0.743 2.537 0.974 1185.450 o
3 -9 4 291.487 292.810 7.177 8.158 o
3 -9 5 28.349 35.445 2.692 82.245 o
3 -9 6 1353.640 1347.620 27.383 0.889 o
3 -9 7 91.874 93.935 5.022 25.286 o
3 -9 8 6.756 8.015 2.171 230.460 o
3 -9 9 1.024 3.406 2.004 395.156 o
3 -9 10 49.512 52.713 5.166 36.066 o
3 -8 0 47.233 55.134 2.378 59.409 o
3 -8 1 314.233 310.651 11.878 5.668 o
3 -8 2 161.605 145.234 4.422 17.514 o
3 -8 3 175.671 161.781 4.609 15.877 o
3 -8 4 0.906 0.591 0.728 2060.910 o
3 -8 5 488.647 525.143 12.449 3.761 o
3 -8 6 227.592 243.665 7.838 9.498 o
3 -8 7 688.256 695.205 16.238 2.385 o
3 -8 8 50.440 41.388 3.528 51.083 o
3 -8 9 11.701 8.968 2.308 177.319 o
3 -8 10 140.387 137.233 6.971 15.086 o
3 -8 11 9.504 7.815 2.699 163.174 o
3 -7 0 10.216 9.594 1.147 295.208 o
3 -7 1 3.988 7.242 2.566 211.992 o
3 -7 2 382.414 391.593 7.644 6.080 o
3 -7 3 63.733 52.942 2.121 51.951 o
3 -7 4 70.447 60.192 2.502 45.076 o
3 -7 5 1.267 3.389 0.959 999.750 o
3 -7 6 1.798 3.783 1.193 720.505 o
3 -7 7 452.724 476.016 12.376 4.065 o
3 -7 8 595.508 563.453 24.632 1.862 o
3 -7 9 255.468 233.436 8.779 8.415 o
3 -7 10 0.716 0.405 1.719 600.011 o
3 -7 11 37.738 47.442 4.705 44.171 o
3 -6 0 47.193 49.225 1.467 69.086 o
3 -6 1 436.602 465.817 14.156 3.795 o
3 -6 2 455.369 475.818 7.855 4.992 o
3 -6 3 531.437 535.753 9.372 4.044 o
3 -6 4 41.251 35.039 1.845 79.300 o
3 -6 5 84.386 83.083 3.839 31.659 o
3 -6 6 241.369 229.629 14.540 5.461 o
3 -6 7 112.649 118.782 5.350 20.749 o
3 -6 8 1266.310 1261.240 25.452 0.998 o
3 -6 9 106.373 114.433 5.856 20.285 o
3 -6 10 0.908 4.188 2.046 375.046 o
3 -6 11 1.450 -2.258 1.666 598.454 o
3 -6 12 1.080 1.222 3.154 186.607 o
3 -5 0 2.917 5.236 1.117 612.783 o
3 -5 1 567.559 582.454 15.896 2.850 o
3 -5 2 1096.150 1165.460 16.827 1.417 o
3 -5 3 336.374 331.572 5.570 7.734 o
3 -5 4 1189.530 1210.250 18.607 1.256 o
3 -5 5 16.715 28.164 2.208 123.473 o
3 -5 6 35.712 40.117 2.872 68.953 o
3 -5 7 58.271 56.161 3.531 44.358 o
3 -5 8 558.123 570.815 14.398 3.099 o
3 -5 9 624.123 648.787 16.349 2.568 o
3 -5 10 129.299 138.163 6.797 15.934 o
3 -5 11 8.666 8.861 1.936 234.017 o
3 -5 12 230.597 258.098 11.223 7.114 o
3 -4 0 110.524 137.590 5.002 20.872 o
3 -4 1 373.255 446.810 12.643 4.518 o
3 -4 2 1584.800 1613.520 25.556 0.775 o
3 -4 3 2197.740 2289.510 33.546 0.454 o
3 -4 4 102.884 83.845 2.935 30.923 o
3 -4 5 199.548 201.515 6.414 12.019 o
3 -4 6 0.807 2.007 0.984 1223.910 o
3 -4 7 421.540 436.155 11.541 4.537 o
3 -4 8 111.035 107.443 5.319 21.510 o
3 -4 9 431.300 438.702 12.791 4.181 o
3 -4 10 319.920 327.689 10.210 6.191 o
3 -4 11 39.370 46.650 3.376 57.397 o
3 -4 12 0.499 -1.058 1.779 589.278 o
3 -3 0 3118.640 3113.950 37.586 0.280 o
3 -3 1 2.445 3.194 0.390 1241.660 o
3 -3 2 637.657 665.499 10.771 3.122 o
3 -3 3 617.380 606.227 12.613 3.082 o
3 -3 4 621.445 628.805 13.228 2.959 o
3 -3 5 677.873 699.401 14.885 2.533 o
3 -3 6 166.185 178.400 6.464 13.670 o
3 -3 7 30.822 37.049 3.057 72.252 o
3 -3 8 44.238 46.619 2.984 58.532 o
3 -3 9 532.917 552.481 12.492 3.507 o
3 -3 10 596.356 566.844 19.862 2.326 o
3 -3 11 297.379 296.280 10.586 6.438 o
3 -3 12 158.336 159.971 9.406 10.750 o
3 -2 0 3884.500 3678.330 67.552 0.157 o
3 -2 1 236.155 224.251 4.057 12.171 o
3 -2 2 832.081 868.442 13.775 2.118 o
3 -2 3 211.894 190.150 4.796 13.234 o
3 -2 4 704.536 711.714 14.699 2.474 o
3 -2 5 1191.530 1197.270 22.776 1.135 o
3 -2 6 1001.740 1042.780 18.071 1.529 o
3 -2 7 322.635 341.291 8.648 6.706 o
3 -2 8 5.917 6.755 1.424 369.269 o
3 -2 9 308.203 292.777 8.403 7.318 o
3 -2 10 519.034 502.947 18.520 2.721 o
3 -2 11 594.757 612.734 16.749 2.635 o
3 -1 0 29.936 12.082 0.776 145.101 o
3 -1 1 219.653 212.978 4.020 13.046 o
3 -1 2 128.174 124.706 3.260 23.259 o
3 -1 3 2151.790 2330.970 38.671 0.422 o
3 -1 4 2.594 0.891 0.592 1378.470 o
3 -1 5 618.540 615.409 12.014 3.134 o
3 -1 6 623.345 610.153 23.992 1.856 o
3 -1 7 189.386 212.220 6.526 12.076 o
3 -1 8 44.492 43.608 6.185 31.491 o
3 -1 9 16.727 19.624 2.756 115.020 o
3 -1 10 33.366 43.621 3.864 56.228 o
3 -1 11 65.559 60.476 4.903 33.026 o
3 0 0 110.170 88.043 2.060 31.187 o
3 0 1 669.052 613.339 8.579 3.326 o
3 0 2 218.690 218.261 4.693 12.495 o
3 0 3 96.526 100.431 3.563 28.726 o
3 0 4 4.466 3.913 0.897 638.133 o
3 0 5 25.897 25.744 2.030 108.681 o
3 0 6 736.445 761.708 18.240 2.061 o
3 0 7 1191.930 1133.030 36.063 0.792 o
3 0 8 20.094 25.478 2.891 97.602 o
3 0 9 0.459 -1.439 3.111 200.057 o
3 0 10 60.022 84.451 6.491 24.543 o
3 0 11 146.167 150.015 7.594 13.593 o
3 1 0 892.334 897.890 14.014 1.972 o
3 1 1 2082.920 2016.750 28.591 0.540 o
3 1 2 99.826 88.580 3.018 30.818 o
3 1 3 9.859 14.778 2.771 142.285 o
3 1 4 0.415 1.553 1.051 1289.470 o
3 1 5 114.594 119.908 5.281 20.680 o
3 1 6 57.758 81.275 4.522 34.521 o
3 1 7 901.695 895.933 20.418 1.606 o
3 1 8 470.088 445.535 15.462 3.445 o
3 1 9 19.866 17.534 3.054 100.407 o
3 1 10 0.415 0.767 1.792 563.648 o
3 2 0 1336.230 1453.280 21.137 1.009 o
3 2 1 2533.610 2545.210 31.607 0.395 o
3 2 2 2009.490 1990.980 29.043 0.555 o
3 2 3 28.949 29.645 1.958 100.091 o
3 2 4 84.703 83.769 4.347 29.557 o
3 2 5 18.179 13.310 2.829 116.459 o
3 2 6 148.613 147.429 6.435 15.252 o
3 2 7 376.761 387.248 11.975 4.868 o
3 2 8 232.524 239.545 9.421 8.343 o
3 2 9 40.728 34.225 4.197 50.881 o
3 3 0 50.974 42.761 3.437 51.309 o
3 3 1 1053.450 1099.210 14.832 1.569 o
3 3 2 221.882 253.369 5.862 10.950 o
3 3 3 1707.500 1698.910 26.134 0.709 o
3 3 4 12.771 13.440 2.439 152.421 o
3 3 5 200.970 178.049 7.165 11.632 o
3 3 6 59.543 62.660 5.958 28.465 o
3 3 7 360.502 395.237 12.592 4.770 o
3 3 8 300.948 291.516 12.419 5.647 o
3 3 9 69.872 60.061 4.963 31.855 o
3 4 0 140.735 127.776 6.743 15.689 o
3 4 1 108.565 108.970 13.280 8.241 o
3 4 2 191.832 205.093 4.881 13.695 o
3 4 3 281.788 281.315 12.044 6.021 o
3 4 4 836.323 805.506 18.228 1.875 o
3 4 5 78.646 74.415 4.689 30.093 o
3 4 6 0.414 0.976 1.599 684.351 o
3 4 7 9.283 8.913 2.631 166.596 o
3 4 8 286.148 281.834 10.967 6.464 o
3 5 0 6.069 16.591 2.882 146.608 o
3 5 1 92.456 82.546 5.840 23.249 o
3 5 2 356.436 378.287 14.305 4.357 o
3 5 3 53.516 62.645 2.610 51.619 o
3 5 4 184.101 188.038 7.232 11.947 o
3 5 5 22.626 18.715 5.730 44.404 o
3 5 6 12.456 18.342 3.869 86.702 o
3 5 7 4.369 8.261 4.601 81.382 o
3 6 0 97.734 100.392 9.202 13.962 o
3 6 1 61.107 56.349 5.387 31.719 o
3 6 2 57.128 60.370 5.623 30.808 o
3 6 3 30.065 33.092 5.208 44.733 o
3 6 4 49.735 50.284 5.803 32.171 o
3 6 5 409.925 436.034 17.944 3.196 o
3 7 0 300.725 272.617 12.714 5.608 o
3 7 1 47.745 45.129 5.363 36.093 o
3 7 2 5.274 5.389 3.096 158.521 o
3 7 3 2.853 1.027 2.495 265.351 o
3 7 4 55.138 52.991 6.505 27.186 o
3 8 0 643.934 662.301 22.823 1.895 o
3 8 1 103.085 101.701 8.166 15.691 o
3 8 2 1.817 7.269 4.000 109.781 o
4 -11 0 68.307 64.034 7.999 19.430 o
4 -11 1 95.907 94.849 7.598 17.547 o
4 -11 2 621.434 583.792 20.199 2.230 o
4 -11 3 3.641 1.509 2.176 312.816 o
4 -11 4 0.310 -0.821 2.040 461.024 o
4 -11 5 0.558 0.432 2.161 398.309 o
4 -11 6 37.196 48.766 5.425 37.922 o
4 -11 7 297.440 306.620 14.059 4.995 o
4 -10 0 13.781 11.756 3.013 122.244 o
4 -10 1 258.091 265.266 12.233 6.236 o
4 -10 2 60.683 61.339 5.821 29.066 o
4 -10 3 533.540 525.571 37.199 1.105 o
4 -10 4 0.508 2.187 2.217 358.996 o
4 -10 5 11.027 30.899 4.235 71.766 o
4 -10 6 182.407 179.927 10.245 9.164 o
4 -10 7 344.304 328.323 12.744 5.056 o
4 -10 8 173.921 173.251 7.468 12.281 o
4 -10 9 20.726 11.982 2.923 108.592 o
4 -9 0 53.879 53.958 5.176 34.787 o
4 -9 1 157.353 169.374 9.013 11.089 o
4 -9 2 132.228 138.957 15.214 6.345 o
4 -9 3 45.301 42.774 4.653 42.742 o
4 -9 4 99.607 103.442 6.936 18.604 o
4 -9 5 537.514 522.965 15.265 3.116 o
4 -9 6 94.132 93.125 4.604 26.396 o
4 -9 7 7.422 6.130 1.905 267.407 o
4 -9 8 327.756 312.782 12.046 5.483 o
4 -9 9 129.343 130.500 6.723 16.278 o
4 -9 10 9.047 -0.606 2.260 236.487 o
4 -8 0 35.937 46.792 4.323 48.816 o
4 -8 1 1.154 -0.876 1.987 451.933 o
4 -8 2 191.945 216.111 11.450 7.762 o
4 -8 3 154.846 168.078 8.627 11.626 o
4 -8 4 885.854 876.557 13.966 2.004 o
4 -8 5 178.129 161.473 10.859 8.879 o
4 -8 6 6.909 4.171 1.493 362.874 o
4 -8 7 77.345 78.289 4.642 30.180 o
4 -8 8 144.543 151.993 6.896 14.643 o
4 -8 9 559.359 544.616 15.117 3.035 o
4 -8 10 160.521 179.732 8.309 11.646 o
4 -7 0 20.405 32.474 3.781 71.569 o
4 -7 1 1.425 3.764 1.673 495.698 o
4 -7 2 237.690 257.564 10.566 7.408 o
4 -7 3 75.411 76.487 9.228 15.413 o
4 -7 4 357.742 355.642 7.112 6.737 o
4 -7 5 775.247 763.652 17.409 2.059 o
4 -7 6 108.808 108.666 5.033 22.398 o
4 -7 7 0.465 -0.221 1.026 1617.750 o
4 -7 8 156.955 147.959 6.706 14.435 o
4 -7 9 221.973 227.631 8.899 9.009 o
4 -7 10 179.296 191.805 8.439 10.795 o
4 -7 11 299.351 293.151 11.283 6.128 o
4 -6 0 398.040 389.414 10.992 4.991 o
4 -6 1 50.001 60.516 8.182 20.395 o
4 -6 2 332.218 329.226 11.830 5.459 o
4 -6 3 217.065 232.953 4.517 12.409 o
4 -6 4 361.713 371.972 7.083 6.595 o
4 -6 5 454.526 434.008 9.010 4.912 o
4 -6 6 37.114 33.288 2.903 70.376 o
4 -6 7 152.201 146.645 6.410 15.128 o
4 -6 8 20.748 21.069 2.935 99.129 o
4 -6 9 11.351 10.653 2.411 167.336 o
4 -6 10 345.758 336.129 11.726 5.359 o
4 -6 11 281.205 297.411 11.230 6.313 o
4 -5 0 1463.790 1411.530 26.807 0.841 o
4 -5 1 32.649 42.036 3.581 60.880 o
4 -5 2 68.397 72.554 4.730 32.059 o
4 -5 3 1.981 1.282 0.566 1575.730 o
4 -5 4 10.150 10.837 1.153 286.027 o
4 -5 5 325.004 301.209 13.085 5.172 o
4 -5 6 944.139 931.853 19.640 1.580 o
4 -5 7 151.602 150.539 6.436 15.021 o
4 -5 8 6.025 4.964 2.342 231.368 o
4 -5 9 47.438 46.983 4.060 46.328 o
4 -5 10 220.962 222.836 9.398 8.710 o
4 -5 11 57.405 50.524 3.892 43.136 o
4 -4 0 3477.360 3499.640 57.341 0.195 o
4 -4 1 1093.140 1078.930 15.964 1.495 o
4 -4 2 309.851 326.019 6.371 7.920 o
4 -4 3 1.834 2.803 0.715 1187.170 o
4 -4 4 12.613 13.509 1.857 189.860 o
4 -4 5 105.786 112.109 4.939 22.780 o
4 -4 6 738.783 726.425 34.957 1.074 o
4 -4 7 632.063 620.494 41.108 0.901 o
4 -4 8 700.481 697.336 17.314 2.260 o
4 -4 9 3.595 4.129 1.676 408.712 o
4 -4 10 12.334 9.044 2.815 141.215 o
4 -4 11 603.313 653.293 15.229 2.741 o
4 -3 0 379.973 340.328 6.129 6.853 o
4 -3 1 684.001 645.749 10.951 2.980 o
4 -3 2 137.825 115.215 3.529 22.232 o
4 -3 3 1078.780 1119.060 17.901 1.418 o
4 -3 4 634.777 663.305 14.541 2.722 o
4 -3 5 357.520 356.473 11.199 5.362 o
4 -3 6 1104.900 1094.080 22.481 1.241 o
4 -3 7 10.072 10.732 1.952 211.330 o
4 -3 8 16.049 15.982 2.212 145.781 o
4 -3 9 24.913 24.579 2.780 93.102 o
4 -3 10 22.931 24.860 2.930 92.327 o
4 -3 11 27.483 20.943 3.697 71.947 o
4 -2 0 4.793 3.848 0.845 635.180 o
4 -2 1 535.625 479.358 16.041 3.071 o
4 -2 2 628.028 613.471 11.201 3.201 o
4 -2 3 484.088 464.354 11.085 4.192 o
4 -2 4 863.113 881.570 18.200 1.787 o
4 -2 5 552.618 572.012 11.877 3.480 o
4 -2 6 16.600 22.116 2.177 134.258 o
4 -2 7 942.132 979.837 18.566 1.608 o
4 -2 8 726.916 753.100 15.808 2.285 o
4 -2 9 10.478 20.130 2.548 142.285 o
4 -2 10 49.343 45.953 4.311 43.626 o
4 -2 11 0.880 3.932 2.228 329.622 o
4 -1 0 23.215 26.834 1.722 121.749 o
4 -1 1 45.289 32.045 2.243 71.828 o
4 -1 2 1448.380 1451.500 22.617 0.920 o
4 -1 3 495.250 488.616 10.092 4.252 o
4 -1 4 130.862 115.984 4.360 21.324 o
4 -1 5 17.759 23.229 2.205 127.745 o
4 -1 6 105.880 114.726 4.739 23.142 o
4 -1 7 267.110 300.243 8.581 7.784 o
4 -1 8 690.391 684.617 17.557 2.269 o
4 -1 9 295.565 304.661 11.011 6.226 o
4 -1 10 18.192 11.053 2.696 124.896 o
4 0 0 272.180 285.052 5.851 9.276 o
4 0 1 339.192 372.191 7.270 6.815 o
4 0 2 291.777 276.390 6.802 8.485 o
4 0 3 394.419 393.251 8.852 5.609 o
4 0 4 693.450 668.089 13.296 2.688 o
4 0 5 57.911 63.250 3.896 40.745 o
4 0 6 67.278 60.507 4.038 37.466 o
4 0 7 217.556 206.613 8.163 9.899 o
4 0 8 189.950 203.481 9.144 9.731 o
4 0 9 113.219 102.378 9.170 13.375 o
4 0 10 67.662 69.315 6.448 24.706 o
4 1 0 223.605 235.471 5.597 11.360 o
4 1 1 58.388 69.921 2.477 48.312 o
4 1 2 0.778 0.240 0.969 1567.090 o
4 1 3 892.242 898.644 27.509 1.263 o
4 1 4 743.128 742.722 16.751 2.185 o
4 1 5 19.720 28.933 2.832 96.832 o
4 1 6 22.916 18.199 2.909 98.530 o
4 1 7 4.138 3.194 2.577 226.952 o
4 1 8 102.774 97.001 5.899 21.286 o
4 1 9 207.999 210.876 11.392 7.614 o
4 2 0 250.919 257.518 5.751 10.167 o
4 2 1 3.213 3.465 1.162 634.105 o
4 2 2 0.726 0.523 1.150 1176.860 o
4 2 3 42.742 40.341 2.917 62.517 o
4 2 4 425.955 451.656 12.213 4.307 o
4 2 5 766.114 727.521 17.543 2.095 o
4 2 6 42.514 34.368 5.331 39.218 o
4 2 7 52.139 42.668 4.300 43.296 o
4 2 8 25.153 19.024 3.297 84.296 o
4 3 0 1365.090 1315.100 19.762 1.064 o
4 3 1 155.897 162.574 4.243 17.553 o
4 3 2 167.890 150.997 7.225 13.204 o
4 3 3 473.325 464.976 12.774 3.910 o
4 3 4 57.370 66.890 4.260 38.016 o
4 3 5 343.267 345.360 11.044 5.578 o
4 3 6 30.425 33.802 3.730 63.368 o
4 3 7 1.809 2.909 2.221 323.368 o
4 3 8 61.777 80.344 5.720 27.852 o
4 4 0 155.913 167.414 8.438 11.829 o
4 4 1 551.096 542.611 17.715 2.705 o
4 4 2 361.406 357.346 7.065 6.695 o
4 4 3 180.250 177.874 5.992 13.640 o
4 4 4 238.929 236.170 8.408 8.940 o
4 4 5 225.219 210.311 8.371 9.519 o
4 4 6 204.656 221.696 8.818 9.488 o
4 4 7 7.617 13.459 4.702 72.309 o
4 5 0 457.372 460.591 16.361 3.298 o
4 5 1 582.395 579.916 19.315 2.400 o
4 5 2 69.970 62.850 7.398 21.287 o
4 5 3 105.121 106.307 7.687 16.453 o
4 5 4 6.222 -2.765 2.049 307.252 o
4 5 5 136.920 173.431 15.632 5.919 o
4 6 0 13.805 17.902 3.844 85.879 o
4 6 1 293.491 303.000 13.665 5.178 o
4 6 2 175.530 177.964 10.718 8.900 o
4 6 3 38.047 45.084 5.764 35.575 o
4 6 4 30.009 35.099 4.758 49.368 o
4 7 0 121.571 120.174 8.435 13.920 o
4 7 1 169.614 173.165 15.449 5.768 o
4 7 2 97.193 92.681 9.228 14.093 o
5 -11 0 54.572 50.538 6.369 28.134 o
5 -11 1 2.096 4.581 2.420 265.657 o
5 -11 2 261.734 235.488 12.377 6.276 o
5 -11 3 18.838 19.576 3.665 83.014 o
5 -11 4 80.873 86.911 7.248 19.816 o
5 -11 5 1.762 1.933 4.653 87.029 o
5 -11 6 95.504 81.631 7.323 18.705 o
5 -10 0 61.048 61.449 10.012 14.664 o
5 -10 1 13.189 17.252 3.577 95.546 o
5 -10 2 0.542 0.265 1.971 477.448 o
5 -10 3 167.665 178.557 10.168 9.542 o
5 -10 4 5.269 5.103 3.215 150.074 o
5 -10 5 538.757 520.927 19.035 2.586 o
5 -10 6 10.209 3.869 2.921 153.153 o
5 -10 7 1.580 2.482 2.562 260.194 o
5 -10 8 1.076 2.507 2.374 304.619 o
5 -9 0 416.586 409.048 15.960 3.614 o
5 -9 1 0.405 1.713 4.758 85.280 o
5 -9 2 25.339 22.569 5.071 50.577 o
5 -9 3 33.122 27.125 4.344 55.014 o
5 -9 4 315.479 314.062 13.464 5.060 o
5 -9 5 310.331 294.782 13.148 5.279 o
5 -9 6 95.672 84.378 11.581 10.564 o
5 -9 7 8.879 10.102 3.050 137.995 o
5 -9 8 8.065 0.474 2.112 265.678 o
5 -9 9 160.367 134.620 7.252 13.807 o
5 -8 0 360.795 369.973 14.454 4.315 o
5 -8 1 477.042 452.008 16.303 3.257 o
5 -8 2 10.400 8.187 2.431 177.716 o
5 -8 3 69.806 73.624 8.025 18.892 o
5 -8 4 100.893 101.077 6.876 18.742 o
5 -8 5 203.334 192.418 5.199 13.183 o
5 -8 6 427.672 406.897 11.100 4.699 o
5 -8 7 99.989 92.272 5.210 23.797 o
5 -8 8 204.545 180.680 7.718 10.954 o
5 -8 9 40.337 35.875 4.197 50.672 o
5 -8 10 54.945 56.936 5.165 34.265 o
5 -7 0 860.156 880.380 24.579 1.435 o
5 -7 1 893.540 905.698 24.991 1.376 o
5 -7 2 314.431 303.160 12.200 5.573 o
5 -7 3 4.573 4.287 1.770 356.784 o
5 -7 4 12.644 14.107 1.100 238.637 o
5 -7 5 0.968 1.269 1.015 1232.670 o
5 -7 6 803.714 805.391 18.021 1.937 o
5 -7 7 657.628 641.283 16.037 2.533 o
5 -7 8 31.661 24.295 3.155 76.282 o
5 -7 9 56.000 48.718 4.505 39.450 o
5 -7 10 168.294 165.411 8.220 11.730 o
5 -6 0 416.921 395.746 13.945 4.095 o
5 -6 1 1053.980 1078.410 27.652 1.100 o
5 -6 2 487.891 479.112 15.730 3.275 o
5 -6 3 540.788 548.838 9.103 4.000 o
5 -6 4 99.182 104.577 3.456 28.240 o
5 -6 5 26.033 25.329 4.886 52.029 o
5 -6 6 10.975 8.400 1.868 221.157 o
5 -6 7 1378.450 1383.040 28.004 0.858 o
5 -6 8 234.505 234.308 9.109 8.563 o
5 -6 9 22.433 25.342 3.476 79.607 o
5 -6 10 11.845 10.924 2.835 138.482 o
5 -5 0 466.314 502.397 15.736 3.308 o
5 -5 1 885.785 818.794 60.281 0.448 o
5 -5 2 859.020 853.649 13.590 2.094 o
5 -5 3 51.536 43.704 2.098 62.801 o
5 -5 4 6.594 5.730 1.045 441.825 o
5 -5 5 3.581 4.096 3.750 122.541 o
5 -5 6 149.293 159.424 6.736 14.482 o
5 -5 7 255.879 250.090 9.036 8.107 o
5 -5 8 190.486 189.939 8.124 10.828 o
5 -5 9 41.116 46.322 7.209 26.086 o
5 -5 10 5.520 4.809 2.155 263.861 o
5 -4 0 100.087 102.947 2.546 30.624 o
5 -4 1 153.595 151.738 4.033 18.393 o
5 -4 2 629.064 624.060 11.281 3.169 o
5 -4 3 177.274 170.074 4.905 15.215 o
5 -4 4 53.202 55.335 3.499 46.819 o
5 -4 5 1.071 0.119 1.032 1344.080 o
5 -4 6 139.735 143.243 7.342 14.389 o
5 -4 7 2.730 4.719 1.786 394.043 o
5 -4 8 325.971 328.573 9.701 6.324 o
5 -4 9 129.213 142.228 6.271 16.753 o
5 -4 10 13.033 7.317 2.234 179.840 o
5 -3 0 133.362 150.503 4.623 19.094 o
5 -3 1 89.428 86.812 3.230 32.462 o
5 -3 2 112.408 97.279 4.974 22.774 o
5 -3 3 1163.020 1148.650 55.438 0.465 o
5 -3 4 305.835 306.888 9.276 6.862 o
5 -3 5 64.314 67.738 4.257 36.045 o
5 -3 6 232.136 238.987 8.732 8.822 o
5 -3 7 46.337 52.093 3.613 49.690 o
5 -3 8 417.456 435.574 11.634 4.541 o
5 -3 9 302.639 296.996 9.536 6.846 o
5 -3 10 61.025 66.304 6.301 26.374 o
5 -2 0 54.408 66.780 3.452 44.354 o
5 -2 1 192.069 205.715 6.693 11.933 o
5 -2 2 1215.730 1250.160 23.892 1.071 o
5 -2 3 184.416 177.094 6.536 12.880 o
5 -2 4 914.186 915.688 17.028 1.761 o
5 -2 5 320.196 294.877 8.282 7.190 o
5 -2 6 0.443 -0.939 1.086 1473.570 o
5 -2 7 110.129 112.187 5.252 21.533 o
5 -2 8 111.964 111.667 5.419 20.974 o
5 -2 9 164.125 174.595 9.680 10.139 o
5 -2 10 5.598 1.234 2.580 222.075 o
5 -1 0 468.509 502.806 10.333 4.320 o
5 -1 1 138.733 148.851 4.921 18.244 o
5 -1 2 13.543 15.830 1.692 186.774 o
5 -1 3 69.062 68.518 3.387 39.395 o
5 -1 4 913.339 940.861 17.560 1.718 o
5 -1 5 1133.600 1138.480 20.713 1.263 o
5 -1 6 366.078 370.804 10.076 5.593 o
5 -1 7 17.079 22.845 3.302 93.138 o
5 -1 8 142.092 142.710 7.235 14.458 o
5 -1 9 22.974 12.732 2.949 102.338 o
5 0 0 1100.710 1135.130 19.010 1.351 o
5 0 1 0.659 1.960 0.744 1735.350 o
5 0 2 0.395 2.678 0.767 1637.820 o
5 0 3 17.394 13.928 1.800 164.520 o
5 0 4 12.727 12.362 1.811 196.174 o
5 0 5 468.176 503.698 13.797 3.650 o
5 0 6 1120.160 1085.960 24.131 1.176 o
5 0 7 210.698 198.731 8.568 9.813 o
5 0 8 2.397 7.307 2.381 251.783 o
5 0 9 75.223 78.918 5.629 26.369 o
5 1 0 1872.750 1895.640 33.337 0.554 o
5 1 1 627.990 624.666 14.053 2.849 o
5 1 2 359.196 368.975 10.140 5.642 o
5 1 3 29.611 35.195 3.366 69.216 o
5 1 4 118.245 103.139 5.375 20.894 o
5 1 5 222.655 205.654 8.256 9.717 o
5 1 6 357.114 348.344 11.599 5.266 o
5 1 7 142.411 151.869 7.598 13.703 o
5 1 8 3.434 -3.139 4.189 104.889 o
5 2 0 1759.940 1698.320 55.394 0.376 o
5 2 1 286.882 296.432 7.111 8.239 o
5 2 2 312.792 309.170 9.182 6.803 o
5 2 3 86.099 86.957 4.703 27.718 o
5 2 4 55.826 47.937 5.741 31.572 o
5 2 5 49.013 37.466 4.694 42.031 o
5 2 6 270.922 287.268 10.549 6.807 o
5 2 7 27.540 16.098 4.179 65.002 o
5 3 0 2.752 2.726 0.840 909.589 o
5 3 1 548.988 547.214 10.458 3.761 o
5 3 2 745.111 723.487 15.136 2.334 o
5 3 3 142.227 142.286 6.001 16.434 o
5 3 4 4.122 5.767 3.287 148.131 o
5 3 5 4.767 3.607 2.514 227.525 o
5 3 6 113.404 119.755 6.406 18.260 o
5 4 0 79.596 86.024 6.391 22.637 o
5 4 1 482.200 478.271 17.182 3.052 o
5 4 2 333.226 317.269 13.703 4.851 o
5 4 3 198.822 197.158 10.816 8.261 o
5 4 4 6.342 7.323 2.848 168.704 o
5 4 5 24.737 24.061 4.967 51.906 o
5 5 0 40.857 32.996 4.722 45.581 o
5 5 1 249.425 267.540 12.805 6.034 o
5 5 2 183.540 190.073 10.778 8.602 o
5 5 3 252.568 255.786 16.207 4.647 o
5 5 4 197.355 206.454 12.014 7.369 o
5 6 0 3.517 5.167 2.694 208.845 o
5 6 1 4.527 7.577 2.924 171.102 o
5 6 2 60.154 79.393 8.104 19.146 o
6 -11 1 33.920 37.468 7.346 26.931 o
6 -11 2 3.577 -2.048 1.868 413.742 o
6 -11 3 72.900 59.832 5.988 26.544 o
6 -11 4 2.121 3.606 3.085 180.490 o
6 -10 0 226.835 221.529 12.141 6.845 o
6 -10 1 29.906 36.203 5.091 45.434 o
6 -10 2 0.529 -0.749 4.287 106.019 o
6 -10 3 59.992 67.978 6.561 25.270 o
6 -10 4 88.123 77.863 8.182 17.142 o
6 -10 5 46.586 53.615 5.896 31.901 o
6 -10 6 88.882 101.875 8.110 16.571 o
6 -10 7 217.501 215.035 12.200 6.955 o
6 -9 0 91.148 82.228 8.025 17.210 o
6 -9 1 232.818 221.011 11.479 7.167 o
6 -9 2 134.299 128.036 11.058 9.863 o
6 -9 3 38.903 35.109 5.150 41.816 o
6 -9 4 22.083 24.915 5.829 42.405 o
6 -9 5 2.309 3.805 2.494 255.279 o
6 -9 6 58.438 62.748 5.701 29.940 o
6 -9 7 191.011 192.465 11.113 8.198 o
6 -9 8 183.466 164.677 11.999 7.847 o
6 -8 0 210.970 216.300 10.911 7.859 o
6 -8 1 799.086 823.077 24.825 1.501 o
6 -8 2 145.769 157.247 9.092 11.497 o
6 -8 3 322.843 304.481 13.343 5.084 o
6 -8 4 108.155 94.154 6.986 18.209 o
6 -8 5 0.728 -1.498 2.196 387.539 o
6 -8 6 32.840 27.934 3.033 75.255 o
6 -8 7 221.501 202.073 11.313 7.542 o
6 -8 8 275.778 254.996 9.682 7.401 o
6 -8 9 18.759 7.601 3.065 112.683 o
6 -7 0 2.914 4.814 2.719 212.145 o
6 -7 1 199.861 212.108 10.459 8.389 o
6 -7 2 990.392 969.904 27.043 1.194 o
6 -7 3 881.435 892.021 25.618 1.361 o
6 -7 4 236.109 243.277 11.385 7.044 o
6 -7 5 2.460 5.434 1.971 344.113 o
6 -7 6 180.636 187.346 9.226 10.051 o
6 -7 7 8.752 6.169 3.684 110.656 o
6 -7 8 139.333 142.872 7.303 14.477 o
6 -7 9 265.591 258.471 10.444 7.104 o
6 -6 0 123.879 106.554 6.795 17.184 o
6 -6 1 10.300 5.598 1.809 247.989 o
6 -6 2 491.770 519.905 17.393 2.933 o
6 -6 3 571.528 549.424 9.791 3.746 o
6 -6 4 802.075 733.325 27.494 1.388 o
6 -6 5 181.059 175.456 6.885 12.648 o
6 -6 6 40.364 38.264 3.770 54.818 o
6 -6 7 316.049 314.511 10.798 6.061 o
6 -6 8 63.903 56.279 5.972 28.213 o
6 -6 9 366.323 371.342 12.896 4.721 o
6 -5 0 45.045 46.287 1.766 70.081 o
6 -5 1 106.753 103.983 2.770 28.771 o
6 -5 2 22.558 27.754 1.793 120.413 o
6 -5 3 268.688 273.436 6.693 9.025 o
6 -5 4 764.462 744.593 16.931 2.131 o
6 -5 5 628.297 626.772 15.587 2.670 o
6 -5 6 84.047 90.311 5.278 25.696 o
6 -5 7 409.453 411.560 15.107 3.825 o
6 -5 8 49.427 48.734 4.952 38.132 o
6 -5 9 319.801 320.742 10.388 6.157 o
6 -4 0 1.184 1.534 0.624 1822.460 o
6 -4 1 229.839 234.861 6.036 10.862 o
6 -4 2 36.658 41.255 2.983 66.139 o
6 -4 3 107.286 113.872 5.256 21.721 o
6 -4 4 433.448 441.132 12.180 4.303 o
6 -4 5 1121.510 1148.280 24.286 1.150 o
6 -4 6 46.659 47.183 4.343 44.119 o
6 -4 7 80.912 82.900 4.678 28.991 o
6 -4 8 35.906 33.708 3.455 63.278 o
6 -4 9 42.715 42.768 4.120 48.722 o
6 -3 0 299.396 321.433 15.354 4.504 o
6 -3 1 43.172 44.397 3.090 58.841 o
6 -3 2 2.223 0.900 0.897 1123.800 o
6 -3 3 97.742 100.539 5.038 24.084 o
6 -3 4 197.872 195.313 7.622 11.026 o
6 -3 5 210.696 215.165 7.303 10.678 o
6 -3 6 565.084 592.814 13.924 3.107 o
6 -3 7 15.661 16.605 2.504 132.546 o
6 -3 8 23.942 29.507 3.272 79.787 o
6 -3 9 11.001 8.792 3.479 111.888 o
6 -2 0 647.141 645.437 14.926 2.671 o
6 -2 1 635.752 657.073 15.336 2.641 o
6 -2 2 4.569 7.237 2.663 196.861 o
6 -2 3 19.692 23.485 2.309 118.359 o
6 -2 4 22.077 21.876 2.475 109.343 o
6 -2 5 247.026 246.434 8.006 8.947 o
6 -2 6 348.924 355.150 10.262 5.756 o
6 -2 7 472.901 457.794 12.319 4.021 o
6 -2 8 17.779 18.939 2.878 109.002 o
6 -2 9 3.478 3.199 2.346 269.480 o
6 -1 0 1775.750 1815.860 28.724 0.638 o
6 -1 1 1334.220 1349.930 22.870 1.000 o
6 -1 2 110.858 106.715 4.557 23.499 o
6 -1 3 70.352 74.019 3.802 36.095 o
6 -1 4 3.821 4.937 1.562 421.273 o
6 -1 5 6.017 2.888 1.411 424.146 o
6 -1 6 484.180 479.518 12.475 3.882 o
6 -1 7 344.990 355.926 12.502 5.034 o
6 -1 8 67.243 58.527 5.322 30.680 o
6 0 0 539.826 543.773 11.672 3.624 o
6 0 1 1214.300 1215.120 21.162 1.161 o
6 0 2 1736.020 1727.930 28.327 0.667 o
6 0 3 138.151 142.035 5.542 17.471 o
6 0 4 21.505 19.899 2.898 99.885 o
6 0 5 39.227 36.617 3.902 54.397 o
6 0 6 219.398 231.584 13.438 6.159 o
6 0 7 282.412 299.617 11.459 6.186 o
6 0 8 186.492 181.018 9.082 10.124 o
6 1 0 43.300 51.820 3.230 55.004 o
6 1 1 19.921 20.444 3.448 86.639 o
6 1 2 337.124 337.265 10.183 5.981 o
6 1 3 1039.390 1056.130 22.860 1.292 o
6 1 4 138.138 135.502 6.984 15.221 o
6 1 5 0.359 0.598 1.756 593.657 o
6 1 6 2.328 -2.546 1.975 416.563 o
6 1 7 277.259 270.161 12.364 5.971 o
6 2 0 793.911 781.292 17.122 2.035 o
6 2 1 106.004 109.622 5.370 21.768 o
6 2 2 410.681 445.047 12.238 4.407 o
6 2 3 235.071 242.676 8.767 8.708 o
6 2 4 161.485 162.104 7.339 13.091 o
6 2 5 16.983 15.072 6.054 43.325 o
6 2 6 7.821 12.228 2.476 177.389 o
6 3 0 21.750 25.653 3.015 91.382 o
6 3 1 96.968 92.462 4.302 27.004 o
6 3 2 147.972 145.069 6.003 16.018 o
6 3 3 292.840 304.666 10.222 6.605 o
6 3 4 144.634 134.566 9.104 11.856 o
6 3 5 0.720 6.548 5.045 73.257 o
6 4 0 12.334 11.985 2.797 136.995 o
6 4 1 3.447 6.142 2.416 241.480 o
6 4 2 147.472 156.806 15.894 5.759 o
6 4 3 39.323 38.867 7.372 25.983 o
6 5 0 246.244 245.562 12.519 6.308 o
6 5 1 0.705 2.600 2.396 305.149 o
7 -10 0 50.458 50.976 8.156 20.844 o
7 -10 1 199.741 195.908 11.577 7.705 o
7 -10 2 171.737 167.395 10.647 9.130 o
7 -10 3 153.660 164.395 10.571 9.588 o
7 -10 4 31.139 30.624 6.718 31.769 o
7 -10 5 36.992 31.043 5.133 43.329 o
7 -9 0 0.797 -3.243 2.797 242.842 o
7 -9 2 275.455 241.662 12.419 6.095 o
7 -9 3 153.120 138.064 9.222 11.403 o
7 -9 4 150.969 143.570 9.405 11.166 o
7 -9 5 12.479 11.328 3.535 103.755 o
7 -9 6 32.239 31.579 10.247 16.080 o
7 -8 0 24.249 22.128 5.307 48.151 o
7 -8 1 1.546 1.511 2.151 361.681 o
7 -8 2 1.326 3.712 2.980 196.678 o
7 -8 3 351.003 323.735 14.302 4.538 o
7 -8 4 100.747 100.439 7.615 17.038 o
7 -8 5 312.062 313.211 14.369 4.775 o
7 -8 6 29.234 29.644 4.944 48.751 o
7 -8 7 3.715 4.165 2.453 243.750 o
7 -7 0 376.576 390.932 22.638 2.542 o
7 -7 1 24.706 29.948 4.658 54.645 o
7 -7 2 94.575 95.236 7.581 17.662 o
7 -7 3 0.999 0.015 3.032 206.088 o
7 -7 4 114.892 112.275 7.888 15.373 o
7 -7 5 315.287 290.861 9.219 6.869 o
7 -7 6 570.110 547.365 14.818 3.040 o
7 -7 7 11.868 6.595 2.775 150.202 o
7 -7 8 13.089 8.984 2.920 132.984 o
7 -6 0 580.595 591.684 19.728 2.346 o
7 -6 1 70.625 69.895 5.878 26.628 o
7 -6 2 1.252 1.653 0.707 1592.550 o
7 -6 3 29.793 29.455 2.622 85.630 o
7 -6 4 157.593 156.791 6.493 14.498 o
7 -6 5 565.966 544.426 15.936 2.902 o
7 -6 6 839.529 849.088 20.419 1.705 o
7 -6 7 3.871 3.992 3.689 125.458 o
7 -6 8 4.746 2.777 2.569 224.235 o
7 -5 0 459.888 453.206 9.020 4.802 o
7 -5 1 262.827 232.285 14.707 5.228 o
7 -5 2 42.241 47.843 3.318 55.903 o
7 -5 3 7.155 8.425 1.978 247.350 o
7 -5 4 106.625 104.782 5.570 21.423 o
7 -5 5 774.758 774.068 18.855 1.945 o
7 -5 6 274.475 271.297 10.246 7.013 o
7 -5 7 372.094 381.382 12.990 4.627 o
7 -5 8 28.590 23.743 4.377 58.291 o
7 -4 0 321.823 335.548 7.999 7.011 o
7 -4 1 181.282 196.142 7.224 11.915 o
7 -4 2 201.885 208.533 7.742 10.623 o
7 -4 3 119.163 116.636 5.803 19.262 o
7 -4 4 9.769 12.040 2.157 191.367 o
7 -4 5 11.697 11.402 2.397 164.640 o
7 -4 6 384.927 377.393 10.967 5.139 o
7 -4 7 858.856 863.583 19.018 1.756 o
7 -4 8 192.313 200.754 8.194 10.568 o
7 -3 0 411.630 430.582 14.488 3.912 o
7 -3 1 910.332 915.955 20.131 1.601 o
7 -3 2 75.929 85.041 4.852 28.947 o
7 -3 3 5.701 4.989 1.432 396.792 o
7 -3 4 94.469 96.424 4.863 25.293 o
7 -3 5 54.968 47.888 3.761 45.569 o
7 -3 6 204.195 210.021 7.857 10.442 o
7 -3 7 297.884 312.747 10.363 6.441 o
7 -3 8 268.114 275.072 9.909 7.247 o
7 -2 0 241.333 241.941 7.389 9.526 o
7 -2 1 321.626 313.133 8.783 6.837 o
7 -2 2 433.475 449.624 11.184 4.507 o
7 -2 3 420.985 436.175 11.266 4.607 o
7 -2 4 3.202 3.563 1.721 416.331 o
7 -2 5 132.385 136.425 6.175 16.909 o
7 -2 6 2.887 3.549 1.965 357.005 o
7 -2 7 238.381 242.590 8.888 8.567 o
7 -1 0 0.359 0.562 1.170 1234.340 o
7 -1 1 439.956 458.783 11.200 4.436 o
7 -1 2 80.128 78.672 4.138 31.758 o
7 -1 3 583.322 578.981 13.578 3.116 o
7 -1 4 214.916 213.896 7.678 10.271 o
7 -1 5 109.031 107.636 5.512 21.206 o
7 -1 6 3.750 -3.504 2.588 245.287 o
7 -1 7 12.630 17.049 3.378 103.739 o
7 0 0 19.512 19.454 2.328 123.632 o
7 0 1 98.953 102.778 4.721 24.735 o
7 0 2 522.972 535.734 14.444 3.269 o
7 0 3 74.701 80.731 5.144 28.293 o
7 0 4 676.346 636.570 17.156 2.383 o
7 0 5 172.500 163.340 8.095 11.773 o
7 0 6 13.201 17.956 3.998 82.292 o
7 1 0 27.766 23.519 4.940 50.907 o
7 1 1 11.327 7.517 2.069 203.792 o
7 1 2 41.884 43.164 3.730 53.063 o
7 1 3 434.495 429.280 13.553 4.018 o
7 1 4 513.434 512.649 15.178 3.225 o
7 1 5 263.727 265.405 10.680 6.958 o
7 2 0 138.502 141.330 7.618 14.061 o
7 2 1 24.739 23.341 2.787 94.227 o
7 2 2 2.009 -0.100 3.451 156.000 o
7 2 3 101.020 112.594 6.623 18.924 o
7 2 4 119.149 116.409 8.672 13.702 o
7 3 0 188.992 198.540 10.815 8.411 o
7 3 1 15.875 15.045 3.608 92.017 o
7 3 2 66.242 65.267 7.044 22.790 o
7 3 3 55.805 58.636 6.732 25.646 o
7 4 0 401.156 421.173 35.447 1.277 o
7 4 1 63.056 62.264 7.450 21.765 o
8 -9 0 79.980 78.995 7.532 19.375 o
8 -9 1 14.463 8.995 3.641 98.263 o
8 -9 2 11.071 7.108 3.338 120.344 o
8 -9 3 38.115 30.093 5.217 42.298 o
8 -9 4 47.299 35.557 5.857 33.879 o
8 -8 0 190.514 201.011 11.562 7.810 o
8 -8 1 66.285 62.826 7.503 21.260 o
8 -8 2 31.825 32.239 5.076 45.622 o
8 -8 3 1.896 2.972 4.967 76.097 o
8 -8 4 4.254 0.266 2.476 256.087 o
8 -8 5 197.844 185.533 11.141 8.125 o
8 -7 0 134.919 133.137 13.776 7.333 o
8 -7 1 369.312 385.659 16.116 3.814 o
8 -7 2 47.363 43.987 6.169 31.012 o
8 -7 3 12.132 11.303 6.692 38.496 o
8 -7 4 0.437 0.771 2.562 287.190 o
8 -7 5 46.146 48.633 5.906 32.420 o
8 -7 6 534.771 498.388 19.620 2.543 o
8 -6 0 49.526 48.602 9.202 17.610 o
8 -6 1 90.545 91.367 11.554 10.636 o
8 -6 2 341.558 327.315 7.302 7.069 o
8 -6 3 164.093 170.999 6.773 13.529 o
8 -6 4 9.508 8.708 2.289 193.386 o
8 -6 5 57.286 51.695 4.392 39.404 o
8 -6 6 0.823 -3.136 2.157 398.222 o
8 -5 0 20.269 21.155 2.254 121.757 o
8 -5 1 363.282 360.716 8.613 6.147 o
8 -5 2 399.950 397.623 12.179 4.628 o
8 -5 3 346.868 338.932 10.887 5.630 o
8 -5 4 176.048 161.474 7.564 12.299 o
8 -5 5 202.998 202.817 8.925 9.640 o
8 -5 6 6.148 4.772 2.728 187.969 o
8 -4 0 27.119 23.858 2.399 99.189 o
8 -4 1 372.767 359.424 11.198 5.230 o
8 -4 2 430.799 425.197 18.907 2.981 o
8 -4 3 321.536 323.449 10.976 5.895 o
8 -4 4 145.135 156.794 6.667 14.843 o
8 -4 5 17.601 16.332 2.920 110.800 o
8 -4 6 44.362 37.881 4.083 49.469 o
8 -3 0 0.790 1.218 1.118 1127.770 o
8 -3 1 1.029 -0.536 1.096 1257.410 o
8 -3 2 75.040 76.994 4.298 32.279 o
8 -3 3 264.048 273.758 8.949 7.838 o
8 -3 4 296.991 311.632 9.908 6.658 o
8 -3 5 23.546 25.159 3.954 68.697 o
8 -3 6 12.303 9.632 2.487 160.118 o
8 -2 0 21.587 27.086 3.005 90.791 o
8 -2 1 122.250 126.081 5.690 18.896 o
8 -2 2 79.345 86.560 5.192 26.938 o
8 -2 3 96.459 102.346 5.298 23.361 o
8 -2 4 19.613 22.654 3.091 95.204 o
8 -2 5 180.822 186.891 7.797 11.478 o
8 -1 0 509.688 520.725 12.687 3.637 o
8 -1 1 44.228 41.268 3.411 55.690 o
8 -1 2 53.033 48.594 3.765 46.181 o
8 -1 3 23.954 24.287 3.044 88.377 o
8 -1 4 209.038 206.816 9.202 9.243 o
8 -1 5 270.265 265.967 10.910 6.759 o
8 0 0 28.083 28.787 3.469 71.867 o
8 0 1 227.431 219.092 8.757 9.090 o
8 0 2 199.965 194.461 8.290 10.364 o
8 0 3 20.873 22.481 3.094 93.186 o
8 0 4 108.490 100.977 9.420 13.161 o
8 1 0 282.938 275.157 9.532 7.243 o
8 1 1 343.138 349.357 11.383 5.445 o
8 1 2 83.450 101.852 5.632 23.849 o
8 1 3 13.737 19.866 3.235 103.923 o
8 2 0 390.166 394.732 16.442 3.639 o
8 2 1 173.405 180.457 10.901 8.759 o
9 -8 0 0.420 -2.624 4.470 97.784 o
9 -8 1 18.349 13.741 3.213 101.663 o
9 -8 2 1.282 4.183 4.549 89.946 o
9 -7 0 3.793 0.852 8.078 29.493 o
9 -7 1 10.238 8.193 3.206 127.922 o
9 -7 2 4.965 5.237 3.398 138.213 o
9 -7 3 27.108 29.351 7.110 29.980 o
9 -6 0 35.151 32.426 5.283 42.275 o
9 -6 1 14.687 15.132 4.496 69.854 o
9 -6 2 159.894 152.447 16.704 5.282 o
9 -6 3 107.935 100.746 8.076 15.649 o
9 -6 4 241.481 226.864 12.660 6.376 o
9 -5 0 121.428 128.377 4.986 20.336 o
9 -5 1 81.690 76.164 4.019 32.200 o
9 -5 2 0.783 -0.963 3.359 170.271 o
9 -5 3 119.028 112.453 6.415 18.103 o
9 -5 4 189.979 170.044 8.457 10.782 o
9 -4 0 478.011 475.934 10.480 4.314 o
9 -4 1 10.543 10.073 2.154 193.059 o
9 -4 2 8.866 9.255 2.588 171.067 o
9 -4 3 45.495 40.574 3.897 50.160 o
9 -4 4 162.641 151.787 7.041 13.640 o
9 -3 0 175.024 185.378 6.168 13.502 o
9 -3 1 282.917 285.847 9.303 7.286 o
9 -3 2 11.651 10.259 2.686 149.088 o
9 -3 3 0.293 3.045 1.913 457.650 o
9 -3 4 1.890 1.568 4.339 99.528 o
9 -2 0 286.963 294.548 9.463 7.095 o
9 -2 1 1.268 2.801 1.659 532.280 o
9 -2 2 246.682 245.565 8.844 8.421 o
9 -2 3 0.456 0.557 1.906 505.595 o
9 -1 0 12.336 7.983 2.203 184.362 o
9 -1 1 99.383 98.305 5.326 23.179 o
9 -1 2 5.322 11.786 2.559 186.754 o
9 0 0 1.121 1.684 2.061 398.229 o
9 0 1 177.560 174.289 19.841 3.936 o
;
_olex2_submission_special_instructions 'No special instructions were received'
loop_
_space_group_symop_id
_space_group_symop_operation_xyz
1 x,y,z
2 -x,-y,-z
loop_
_atom_site_label
_atom_site_type_symbol
_atom_site_fract_x
_atom_site_fract_y
_atom_site_fract_z
_atom_site_U_iso_or_equiv
_atom_site_adp_type
_atom_site_occupancy
_atom_site_site_symmetry_order
_atom_site_refinement_flags_posn
_atom_site_refinement_flags_adp
_atom_site_refinement_flags_occupancy
Co1 Co 0.0 0.0 0.0 0.00776(8) Uani 1.000000 2 DS T P
Cl1 Cl -0.37105(5) -0.11522(5) 0.17036(4) 0.01222(9) Uani 1.000000 1 . . .
O1 O -0.13604(16) 0.15845(15) -0.02843(12) 0.0121(2) Uani 1.000000 1 D . .
H1a H -0.121(3) 0.199(2) -0.0947(19) 0.0182(3) Uiso 1.000000 1 DR . .
H1b H -0.247(2) 0.140(3) -0.015(2) 0.0182(3) Uiso 1.000000 1 DR . .
O2 O -0.19023(16) -0.11830(15) 0.12543(12) 0.0130(2) Uani 1.000000 1 . . .
O3 O -0.40283(19) 0.03299(17) 0.15609(14) 0.0221(3) Uani 1.000000 1 . . .
O4 O -0.52764(18) -0.26697(18) 0.08391(15) 0.0287(3) Uani 1.000000 1 . . .
O5 O -0.3525(2) -0.10790(17) 0.31521(13) 0.0214(3) Uani 1.000000 1 . . .
N1 N 0.18003(18) 0.19203(16) 0.18671(13) 0.0102(3) Uani 1.000000 1 . . .
C1 C 0.1892(2) 0.1603(2) 0.30975(17) 0.0132(3) Uani 1.000000 1 . . .
H1 H 0.1072(2) 0.0525(2) 0.31174(17) 0.0159(4) Uiso 1.000000 1 R . .
C2 C 0.3117(2) 0.2763(2) 0.43377(17) 0.0133(3) Uani 1.000000 1 . . .
H2 H 0.3128(2) 0.2475(2) 0.51820(17) 0.0160(4) Uiso 1.000000 1 R . .
C3 C 0.4335(2) 0.43560(18) 0.43429(15) 0.0095(3) Uani 1.000000 1 . . .
C4 C 0.4226(2) 0.4694(2) 0.30676(16) 0.0122(3) Uani 1.000000 1 . . .
H4 H 0.5022(2) 0.5766(2) 0.30204(16) 0.0147(4) Uiso 1.000000 1 R . .
C5 C 0.2957(2) 0.3467(2) 0.18717(16) 0.0127(3) Uani 1.000000 1 . . .
H5 H 0.2898(2) 0.3727(2) 0.10157(16) 0.0152(4) Uiso 1.000000 1 R . .
N2 N -0.0887(2) 0.29202(19) -0.24122(16) 0.0171(3) Uani 1.000000 1 . . .
C6 C 0.0509(3) 0.4455(2) -0.21127(18) 0.0190(3) Uani 1.000000 1 . . .
H6 H 0.1273(3) 0.4984(2) -0.11843(18) 0.0228(4) Uiso 1.000000 1 R . .
C7 C 0.0904(3) 0.5317(2) -0.30807(18) 0.0178(3) Uani 1.000000 1 . . .
H7 H 0.1905(3) 0.6412(2) -0.28101(18) 0.0214(4) Uiso 1.000000 1 R . .
C8 C -0.0182(2) 0.4564(2) -0.44587(17) 0.0126(3) Uani 1.000000 1 . . .
C9 C -0.1631(2) 0.2961(2) -0.47679(18) 0.0154(3) Uani 1.000000 1 . . .
H9 H -0.2408(2) 0.2390(2) -0.56901(18) 0.0185(4) Uiso 1.000000 1 R . .
C10 C -0.1934(2) 0.2207(2) -0.37280(19) 0.0167(3) Uani 1.000000 1 . . .
H10 H -0.2942(2) 0.1120(2) -0.39608(19) 0.0201(4) Uiso 1.000000 1 R . .
loop_
_atom_site_aniso_label
_atom_site_aniso_U_11
_atom_site_aniso_U_22
_atom_site_aniso_U_33
_atom_site_aniso_U_12
_atom_site_aniso_U_13
_atom_site_aniso_U_23
Co1 0.00762(14) 0.00743(14) 0.00578(14) 0.00098(11) -0.00078(10) 0.00128(10)
Cl1 0.00980(17) 0.01507(18) 0.01021(18) 0.00225(14) 0.00251(13) 0.00440(14)
O1 0.0121(5) 0.0157(5) 0.0111(5) 0.0060(5) 0.0030(4) 0.0069(4)
O2 0.0098(5) 0.0171(6) 0.0127(5) 0.0036(4) 0.0041(4) 0.0071(4)
O3 0.0260(7) 0.0280(7) 0.0234(7) 0.0173(6) 0.0095(5) 0.0149(6)
O4 0.0106(6) 0.0258(7) 0.0313(8) -0.0045(5) -0.0006(5) -0.0038(6)
O5 0.0322(7) 0.0247(7) 0.0122(6) 0.0108(6) 0.0108(5) 0.0110(5)
N1 0.0104(6) 0.0092(6) 0.0079(6) 0.0018(5) -0.0006(5) 0.0011(5)
C1 0.0148(7) 0.0095(7) 0.0113(7) 0.0002(6) -0.0019(6) 0.0038(6)
C2 0.0165(7) 0.0108(7) 0.0090(7) 0.0008(6) -0.0014(6) 0.0042(6)
C3 0.0093(7) 0.0085(7) 0.0080(7) 0.0025(6) -0.0005(5) 0.0003(6)
C4 0.0132(7) 0.0093(7) 0.0100(7) -0.0001(6) 0.0003(6) 0.0024(6)
C5 0.0150(7) 0.0112(7) 0.0081(7) 0.0014(6) 0.0005(6) 0.0023(6)
N2 0.0214(7) 0.0190(7) 0.0185(7) 0.0115(6) 0.0083(6) 0.0113(6)
C6 0.0258(9) 0.0187(8) 0.0136(8) 0.0079(7) 0.0034(7) 0.0074(7)
C7 0.0213(8) 0.0150(8) 0.0153(8) 0.0034(7) 0.0028(6) 0.0061(6)
C8 0.0155(7) 0.0127(7) 0.0136(8) 0.0079(6) 0.0065(6) 0.0061(6)
C9 0.0167(8) 0.0147(8) 0.0154(8) 0.0057(6) 0.0031(6) 0.0058(6)
C10 0.0170(8) 0.0152(8) 0.0214(9) 0.0061(6) 0.0063(6) 0.0102(7)
loop_
_atom_type_symbol
_atom_type_scat_dispersion_real
_atom_type_scat_dispersion_imag
_atom_type_scat_Cromer_Mann_a1
_atom_type_scat_Cromer_Mann_a2
_atom_type_scat_Cromer_Mann_a3
_atom_type_scat_Cromer_Mann_a4
_atom_type_scat_Cromer_Mann_b1
_atom_type_scat_Cromer_Mann_b2
_atom_type_scat_Cromer_Mann_b3
_atom_type_scat_Cromer_Mann_b4
_atom_type_scat_Cromer_Mann_c
_atom_type_scat_source
_atom_type_scat_dispersion_source
C 0.00347 0.00161 2.31000 1.02000 1.58860 0.86500 20.84390 10.20750 0.56870
51.65120 0.215599998832
'International Tables Volume C Table 6.1.1.4 (pp. 500-502)'
'Henke, Gullikson and Davis, At. Data and Nucl. Data Tables, 1993, 54, 2'
Co 0.35655 0.96576 12.28410 7.34090 4.00340 2.34880 4.27910 0.27840 13.53590
71.16920 1.01180005074
'International Tables Volume C Table 6.1.1.4 (pp. 500-502)'
'Henke, Gullikson and Davis, At. Data and Nucl. Data Tables, 1993, 54, 2'
Cl 0.14873 0.16029 11.46040 7.19640 6.25560 1.64550 0.01040 1.16620 18.51940
47.77840 -9.55739974976
'International Tables Volume C Table 6.1.1.4 (pp. 500-502)'
'Henke, Gullikson and Davis, At. Data and Nucl. Data Tables, 1993, 54, 2'
H 0.00000 0.00000 0.49300 0.32291 0.14019 0.04081 10.51090 26.12570 3.14236
57.79970 0.0030380000826
'International Tables Volume C Table 6.1.1.4 (pp. 500-502)'
'Henke, Gullikson and Davis, At. Data and Nucl. Data Tables, 1993, 54, 2'
O 0.01158 0.00611 3.04850 2.28680 1.54630 0.86700 13.27710 5.70110 0.32390
32.90890 0.250800013542
'International Tables Volume C Table 6.1.1.4 (pp. 500-502)'
'Henke, Gullikson and Davis, At. Data and Nucl. Data Tables, 1993, 54, 2'
N 0.00653 0.00323 12.21260 3.13220 2.01250 1.16630 0.00570 9.89330 28.99750
0.58260 -11.5290002823
'International Tables Volume C Table 6.1.1.4 (pp. 500-502)'
'Henke, Gullikson and Davis, At. Data and Nucl. Data Tables, 1993, 54, 2'
loop_
_geom_angle_atom_site_label_1
_geom_angle_atom_site_label_2
_geom_angle_atom_site_label_3
_geom_angle
_geom_angle_site_symmetry_1
_geom_angle_site_symmetry_3
_geom_angle_publ_flag
O1 Co1 O1 180.0 2 . y
O2 Co1 O1 82.64(4) 2 . y
O2 Co1 O1 97.36(4) . . y
O2 Co1 O1 82.64(4) . 2 y
O2 Co1 O1 97.36(4) 2 2 y
O2 Co1 O2 180.0 2 . y
N1 Co1 O1 90.39(5) . 2 y
N1 Co1 O1 89.61(5) . . y
N1 Co1 O1 89.61(5) 2 2 y
N1 Co1 O1 90.39(5) 2 . y
N1 Co1 O2 90.01(5) 2 . y
N1 Co1 O2 89.99(5) . . y
N1 Co1 O2 90.01(5) . 2 y
N1 Co1 O2 89.99(5) 2 2 y
N1 Co1 N1 180.0 2 . y
O3 Cl1 O2 109.40(7) . . ?
O4 Cl1 O2 108.65(7) . . ?
O4 Cl1 O3 110.39(9) . . ?
O5 Cl1 O2 108.10(7) . . ?
O5 Cl1 O3 109.81(8) . . ?
O5 Cl1 O4 110.44(8) . . ?
H1a O1 Co1 120.8(13) . 2 ?
H1b O1 Co1 119.8(14) . 2 ?
H1b O1 H1a 109.2(18) . . ?
Cl1 O2 Co1 136.79(7) . 2 ?
C1 N1 Co1 120.39(10) . . ?
C5 N1 Co1 122.43(10) . . ?
C5 N1 C1 117.11(13) . . ?
H1 C1 N1 118.28(9) . . ?
C2 C1 N1 123.43(14) . . ?
C2 C1 H1 118.28(9) . . ?
H2 C2 C1 120.18(9) . . ?
C3 C2 C1 119.64(14) . . ?
C3 C2 H2 120.18(9) . . ?
C3 C3 C2 121.32(17) 2_666 . ?
C4 C3 C2 116.99(13) . . ?
H4 C4 C3 120.05(9) . . ?
C5 C4 C3 119.90(14) . . ?
C5 C4 H4 120.05(9) . . ?
C4 C5 N1 122.91(14) . . ?
H5 C5 N1 118.54(9) . . ?
H5 C5 C4 118.54(9) . . ?
C10 N2 C6 116.81(15) . . ?
H6 C6 N2 118.19(10) . . ?
C7 C6 N2 123.63(16) . . ?
C7 C6 H6 118.19(10) . . ?
H7 C7 C6 120.25(10) . . ?
C8 C7 C6 119.51(16) . . ?
C8 C7 H7 120.25(9) . . ?
C8 C8 C7 121.70(18) 2_564 . ?
C9 C8 C7 116.68(14) . . ?
H9 C9 C8 120.13(9) . . ?
C10 C9 C8 119.74(16) . . ?
C10 C9 H9 120.13(10) . . ?
C9 C10 N2 123.63(16) . . ?
H10 C10 N2 118.19(9) . . ?
H10 C10 C9 118.19(10) . . ?
loop_
_geom_bond_atom_site_label_1
_geom_bond_atom_site_label_2
_geom_bond_distance
_geom_bond_site_symmetry_2
_geom_bond_publ_flag
Co1 O1 2.0355(11) . y
Co1 O1 2.0355(11) 2 y
Co1 O2 2.1763(11) 2 y
Co1 O2 2.1763(11) . y
Co1 N1 2.1180(13) 2 y
Co1 N1 2.1180(13) . y
Cl1 O2 1.4609(11) . ?
Cl1 O3 1.4408(13) . ?
Cl1 O4 1.4314(13) . ?
Cl1 O5 1.4317(12) . ?
O1 H1a 0.837(14) . ?
O1 H1b 0.815(14) . ?
N1 C1 1.341(2) . ?
N1 C5 1.347(2) . ?
C1 H1 0.9500 . ?
C1 C2 1.382(2) . ?
C2 H2 0.9500 . ?
C2 C3 1.394(2) . ?
C3 C3 1.487(3) 2_666 ?
C3 C4 1.395(2) . ?
C4 H4 0.9500 . ?
C4 C5 1.383(2) . ?
C5 H5 0.9500 . ?
N2 C6 1.337(2) . ?
N2 C10 1.337(2) . ?
C6 H6 0.9500 . ?
C6 C7 1.385(2) . ?
C7 H7 0.9500 . ?
C7 C8 1.397(2) . ?
C8 C8 1.489(3) 2_564 ?
C8 C9 1.394(2) . ?
C9 H9 0.9500 . ?
C9 C10 1.382(2) . ?
C10 H10 0.9500 . ?
loop_
_geom_hbond_atom_site_label_D
_geom_hbond_atom_site_label_H
_geom_hbond_atom_site_label_A
_geom_hbond_distance_DH
_geom_hbond_distance_HA
_geom_hbond_distance_DA
_geom_hbond_angle_DHA
O1 H1a N2 0.837(14) 1.869(14) 2.7058(18) 179(2)
loop_
_restr_distance_atom_site_label_1
_restr_distance_atom_site_label_2
_restr_distance_site_symmetry_2
_restr_distance_target
_restr_distance_target_weight_param
_restr_distance_diff
O1 H1a 1 0.8500 0.0200 0.0132
O1 H1b 1 0.8500 0.0200 0.0353
H1a H1b 1 1.3400 0.0400 -0.0062
loop_
_restr_equal_distance_atom_site_label_1
_restr_equal_distance_atom_site_label_2
_restr_equal_distance_site_symmetry_2
_restr_equal_distance_class_id
Co1 H1a 1 1
Co1 H1b 1 1
loop_
_restr_equal_distance_class_class_id
_restr_equal_distance_class_target_weight_param
_restr_equal_distance_class_average
_restr_equal_distance_class_esd
_restr_equal_distance_class_diff_max
1 0.0200 2.5537 0.0130 0.0130
